MODEL 1
REMARK VINA RESULT:     -12.4      0.000      0.000
REMARK SMILES CCOc1ccc(N2C[C@H](C(=O)NCCCNC(=O)c3ccc(-c4c5nc(c(-c6c(F)c(F)c(F)c(F)c6F)c6ccc([nH]6)c(-c6c(F)c(F)c(F)c(F)c6F)c6nc(c(-c7c(F)c(F)c(F)c(F)c7F)c7ccc4[nH]7)C=C6)C=C5)cc3)CC2=O)cc1C(F)(F)F
REMARK SMILES IDX 14 1 13 2 11 3 12 4 10 6 8 7 9 8 84 9 83 10 85 11 7 12 4 13
REMARK SMILES IDX 5 14 87 15 6 16 86 17 3 18 2 19 1 20 88 21 89 22 90 23 91 24
REMARK SMILES IDX 15 25 16 26 17 27 18 28 19 30 20 31 21 32 82 33 22 34 81 35
REMARK SMILES IDX 23 36 24 37 25 38 75 39 26 40 80 41 74 42 76 43 27 44 79 45
REMARK SMILES IDX 73 46 72 47 28 49 60 50 40 51 59 52 41 53 44 54 58 55 77 56
REMARK SMILES IDX 42 57 43 58 57 60 78 61 45 62 29 63 30 64 38 65 31 66 32 67
REMARK SMILES IDX 36 68 39 69 33 70 34 71 37 72 35 73 61 74 62 75 70 76 63 77
REMARK SMILES IDX 64 78 68 79 71 80 65 81 66 82 69 83 67 84 46 85 47 86 55 87
REMARK SMILES IDX 48 88 49 89 53 90 56 91 50 92 51 93 54 94 52 95
REMARK H PARENT 13 5 17 29 76 48 44 59
REMARK Flexibility Score: inf
ROOT
ATOM      1  C   UNL A   1      31.385  30.970  25.774  1.00  0.00     0.117 C 
ENDROOT
BRANCH   1   2
ATOM      2  N   UNL A   1      32.607  30.294  26.177  1.00  0.00    -0.356 N 
ATOM      3  C   UNL A   1      33.068  29.033  25.990  1.00  0.00     0.225 C 
ATOM      4  O   UNL A   1      34.163  28.769  26.498  1.00  0.00    -0.275 OA
ATOM      5  H   UNL A   1      33.223  30.867  26.689  1.00  0.00     0.163 HD
BRANCH   3   6
ATOM      6  C   UNL A   1      32.337  27.955  25.204  1.00  0.00     0.107 C 
ATOM      7  N   UNL A   1      32.980  25.688  25.321  1.00  0.00    -0.312 N 
ATOM      8  C   UNL A   1      33.230  26.903  24.582  1.00  0.00     0.139 C 
ATOM      9  C   UNL A   1      31.834  25.807  26.121  1.00  0.00     0.227 C 
ATOM     10  C   UNL A   1      31.291  27.203  26.000  1.00  0.00     0.116 C 
ATOM     11  O   UNL A   1      31.334  24.982  26.876  1.00  0.00    -0.274 OA
BRANCH   7  12
ATOM     12  C   UNL A   1      33.838  24.552  25.285  1.00  0.00     0.044 A 
ATOM     13  C   UNL A   1      35.465  22.248  25.495  1.00  0.00     0.131 A 
ATOM     14  C   UNL A   1      36.024  23.521  25.612  1.00  0.00     0.049 A 
ATOM     15  C   UNL A   1      34.101  22.102  25.252  1.00  0.00     0.100 A 
ATOM     16  C   UNL A   1      35.221  24.664  25.479  1.00  0.00     0.030 A 
ATOM     17  C   UNL A   1      33.314  23.263  25.127  1.00  0.00     0.043 A 
BRANCH  13  18
ATOM     18  O   UNL A   1      36.233  21.151  25.762  1.00  0.00    -0.493 OA
BRANCH  18  19
ATOM     19  C   UNL A   1      37.444  21.095  25.000  1.00  0.00     0.226 C 
ATOM     20  C   UNL A   1      37.780  19.650  24.678  1.00  0.00     0.049 C 
ENDBRANCH  18  19
ENDBRANCH  13  18
BRANCH  15  21
ATOM     21  C   UNL A   1      33.436  20.762  25.070  1.00  0.00     0.420 C 
ATOM     22  F   UNL A   1      33.273  20.088  26.244  1.00  0.00    -0.166 F 
ATOM     23  F   UNL A   1      32.181  20.889  24.551  1.00  0.00    -0.166 F 
ATOM     24  F   UNL A   1      34.093  19.897  24.250  1.00  0.00    -0.166 F 
ENDBRANCH  15  21
ENDBRANCH   7  12
ENDBRANCH   3   6
ENDBRANCH   1   2
BRANCH   1  25
ATOM     25  C   UNL A   1      31.195  32.293  26.509  1.00  0.00     0.042 C 
BRANCH  25  26
ATOM     26  C   UNL A   1      32.461  32.790  27.195  1.00  0.00     0.118 C 
BRANCH  26  27
ATOM     27  N   UNL A   1      32.357  34.189  27.585  1.00  0.00    -0.352 N 
ATOM     28  C   UNL A   1      32.989  34.898  28.576  1.00  0.00     0.251 C 
ATOM     29  H   UNL A   1      31.727  34.718  27.044  1.00  0.00     0.163 HD
ATOM     30  O   UNL A   1      32.564  36.010  28.879  1.00  0.00    -0.269 OA
BRANCH  28  31
ATOM     31  C   UNL A   1      34.163  34.347  29.289  1.00  0.00     0.039 A 
ATOM     32  C   UNL A   1      33.960  33.685  30.504  1.00  0.00     0.014 A 
ATOM     33  C   UNL A   1      35.461  34.523  28.807  1.00  0.00     0.014 A 
ATOM     34  C   UNL A   1      35.048  33.143  31.195  1.00  0.00     0.010 A 
ATOM     35  C   UNL A   1      36.534  33.903  29.445  1.00  0.00     0.010 A 
ATOM     36  C   UNL A   1      36.339  33.207  30.648  1.00  0.00    -0.014 A 
BRANCH  36  37
ATOM     37  C   UNL A   1      37.491  32.536  31.306  1.00  0.00     0.031 A 
ATOM     38  C   UNL A   1      38.186  31.381  30.641  1.00  0.00     0.074 A 
ATOM     39  C   UNL A   1      37.863  32.929  32.541  1.00  0.00     0.049 A 
ATOM     40  N   UNL A   1      39.155  30.626  31.095  1.00  0.00    -0.248 NA
ATOM     41  C   UNL A   1      37.711  31.004  29.300  1.00  0.00     0.031 C 
ATOM     42  C   UNL A   1      37.237  34.007  33.308  1.00  0.00     0.029 A 
ATOM     43  N   UNL A   1      38.850  32.461  33.372  1.00  0.00    -0.354 N 
ATOM     44  C   UNL A   1      39.396  29.682  30.104  1.00  0.00     0.074 A 
ATOM     45  C   UNL A   1      38.434  29.921  29.051  1.00  0.00     0.031 C 
ATOM     46  C   UNL A   1      37.871  34.136  34.484  1.00  0.00     0.029 A 
ATOM     47  C   UNL A   1      38.912  33.118  34.576  1.00  0.00     0.049 A 
ATOM     48  H   UNL A   1      39.456  31.724  33.128  1.00  0.00     0.167 HD
ATOM     49  C   UNL A   1      40.348  28.718  30.068  1.00  0.00     0.037 A 
ATOM     50  C   UNL A   1      39.708  32.914  35.644  1.00  0.00     0.037 A 
ATOM     51  C   UNL A   1      41.315  28.497  31.113  1.00  0.00     0.049 A 
ATOM     52  C   UNL A   1      40.739  31.819  35.589  1.00  0.00     0.074 A 
ATOM     53  C   UNL A   1      42.363  27.596  31.141  1.00  0.00     0.029 A 
ATOM     54  N   UNL A   1      41.343  29.182  32.320  1.00  0.00    -0.354 N 
ATOM     55  N   UNL A   1      41.008  30.985  34.613  1.00  0.00    -0.248 NA
ATOM     56  C   UNL A   1      41.575  31.638  36.782  1.00  0.00     0.031 C 
ATOM     57  C   UNL A   1      42.986  27.689  32.390  1.00  0.00     0.029 A 
ATOM     58  C   UNL A   1      42.366  28.692  33.117  1.00  0.00     0.049 A 
ATOM     59  H   UNL A   1      40.728  29.907  32.573  1.00  0.00     0.167 HD
ATOM     60  C   UNL A   1      42.054  30.193  35.068  1.00  0.00     0.074 A 
ATOM     61  C   UNL A   1      42.388  30.665  36.395  1.00  0.00     0.031 C 
ATOM     62  C   UNL A   1      42.679  29.165  34.442  1.00  0.00     0.037 A 
BRANCH  49  63
ATOM     63  C   UNL A   1      40.389  27.821  28.862  1.00  0.00     0.064 A 
ATOM     64  C   UNL A   1      41.175  28.128  27.740  1.00  0.00     0.173 A 
ATOM     65  C   UNL A   1      39.667  26.619  28.843  1.00  0.00     0.173 A 
ATOM     66  F   UNL A   1      41.881  29.269  27.701  1.00  0.00    -0.203 F 
ATOM     67  C   UNL A   1      41.210  27.282  26.633  1.00  0.00     0.198 A 
ATOM     68  C   UNL A   1      39.730  25.758  27.750  1.00  0.00     0.198 A 
ATOM     69  F   UNL A   1      38.904  26.271  29.892  1.00  0.00    -0.203 F 
ATOM     70  F   UNL A   1      41.926  27.623  25.553  1.00  0.00    -0.200 F 
ATOM     71  C   UNL A   1      40.494  26.095  26.643  1.00  0.00     0.200 A 
ATOM     72  F   UNL A   1      39.050  24.604  27.767  1.00  0.00    -0.200 F 
ATOM     73  F   UNL A   1      40.535  25.278  25.581  1.00  0.00    -0.200 F 
ENDBRANCH  49  63
BRANCH  50  74
ATOM     74  C   UNL A   1      39.563  33.771  36.850  1.00  0.00     0.064 A 
ATOM     75  C   UNL A   1      40.229  35.001  36.946  1.00  0.00     0.173 A 
ATOM     76  C   UNL A   1      38.754  33.383  37.929  1.00  0.00     0.173 A 
ATOM     77  F   UNL A   1      41.028  35.408  35.950  1.00  0.00    -0.203 F 
ATOM     78  C   UNL A   1      40.108  35.799  38.082  1.00  0.00     0.198 A 
ATOM     79  C   UNL A   1      38.606  34.198  39.049  1.00  0.00     0.198 A 
ATOM     80  F   UNL A   1      38.088  32.220  37.886  1.00  0.00    -0.203 F 
ATOM     81  F   UNL A   1      40.792  36.948  38.167  1.00  0.00    -0.200 F 
ATOM     82  C   UNL A   1      39.290  35.401  39.129  1.00  0.00     0.200 A 
ATOM     83  F   UNL A   1      37.797  33.819  40.048  1.00  0.00    -0.200 F 
ATOM     84  F   UNL A   1      39.165  36.173  40.216  1.00  0.00    -0.200 F 
ENDBRANCH  50  74
BRANCH  62  85
ATOM     85  C   UNL A   1      43.792  28.483  35.186  1.00  0.00     0.064 A 
ATOM     86  C   UNL A   1      45.115  28.943  35.108  1.00  0.00     0.173 A 
ATOM     87  C   UNL A   1      43.527  27.384  36.018  1.00  0.00     0.173 A 
ATOM     88  F   UNL A   1      45.424  29.980  34.314  1.00  0.00    -0.203 F 
ATOM     89  C   UNL A   1      46.135  28.311  35.814  1.00  0.00     0.198 A 
ATOM     90  C   UNL A   1      44.544  26.777  36.750  1.00  0.00     0.198 A 
ATOM     91  F   UNL A   1      42.278  26.909  36.133  1.00  0.00    -0.203 F 
ATOM     92  F   UNL A   1      47.400  28.735  35.683  1.00  0.00    -0.200 F 
ATOM     93  C   UNL A   1      45.847  27.235  36.641  1.00  0.00     0.200 A 
ATOM     94  F   UNL A   1      44.261  25.748  37.560  1.00  0.00    -0.200 F 
ATOM     95  F   UNL A   1      46.830  26.635  37.328  1.00  0.00    -0.200 F 
ENDBRANCH  62  85
ENDBRANCH  36  37
ENDBRANCH  28  31
ENDBRANCH  26  27
ENDBRANCH  25  26
ENDBRANCH   1  25
TORSDOF 14
ENDMDL
MODEL 2
REMARK VINA RESULT:     -12.4      5.465     10.768
REMARK SMILES CCOc1ccc(N2C[C@H](C(=O)NCCCNC(=O)c3ccc(-c4c5nc(c(-c6c(F)c(F)c(F)c(F)c6F)c6ccc([nH]6)c(-c6c(F)c(F)c(F)c(F)c6F)c6nc(c(-c7c(F)c(F)c(F)c(F)c7F)c7ccc4[nH]7)C=C6)C=C5)cc3)CC2=O)cc1C(F)(F)F
REMARK SMILES IDX 14 1 13 2 11 3 12 4 10 6 8 7 9 8 84 9 83 10 85 11 7 12 4 13
REMARK SMILES IDX 5 14 87 15 6 16 86 17 3 18 2 19 1 20 88 21 89 22 90 23 91 24
REMARK SMILES IDX 15 25 16 26 17 27 18 28 19 30 20 31 21 32 82 33 22 34 81 35
REMARK SMILES IDX 23 36 24 37 25 38 75 39 26 40 80 41 74 42 76 43 27 44 79 45
REMARK SMILES IDX 73 46 72 47 28 49 60 50 40 51 59 52 41 53 44 54 58 55 77 56
REMARK SMILES IDX 42 57 43 58 57 60 78 61 45 62 29 63 30 64 38 65 31 66 32 67
REMARK SMILES IDX 36 68 39 69 33 70 34 71 37 72 35 73 61 74 62 75 70 76 63 77
REMARK SMILES IDX 64 78 68 79 71 80 65 81 66 82 69 83 67 84 46 85 47 86 55 87
REMARK SMILES IDX 48 88 49 89 53 90 56 91 50 92 51 93 54 94 52 95
REMARK H PARENT 13 5 17 29 76 48 44 59
REMARK Flexibility Score: inf
ROOT
ATOM      1  C   UNL A   1      36.940  20.894  24.671  1.00  0.00     0.117 C 
ENDROOT
BRANCH   1   2
ATOM      2  N   UNL A   1      35.555  20.457  24.726  1.00  0.00    -0.356 N 
ATOM      3  C   UNL A   1      34.497  20.833  25.485  1.00  0.00     0.225 C 
ATOM      4  O   UNL A   1      33.439  20.226  25.291  1.00  0.00    -0.275 OA
ATOM      5  H   UNL A   1      35.342  19.742  24.081  1.00  0.00     0.163 HD
BRANCH   3   6
ATOM      6  C   UNL A   1      34.536  21.937  26.531  1.00  0.00     0.107 C 
ATOM      7  N   UNL A   1      33.294  23.926  26.278  1.00  0.00    -0.312 N 
ATOM      8  C   UNL A   1      34.579  23.344  25.974  1.00  0.00     0.139 C 
ATOM      9  C   UNL A   1      32.589  23.145  27.206  1.00  0.00     0.227 C 
ATOM     10  C   UNL A   1      33.385  21.908  27.513  1.00  0.00     0.116 C 
ATOM     11  O   UNL A   1      31.476  23.333  27.682  1.00  0.00    -0.274 OA
BRANCH   7  12
ATOM     12  C   UNL A   1      32.793  25.104  25.653  1.00  0.00     0.044 A 
ATOM     13  C   UNL A   1      31.596  27.452  24.627  1.00  0.00     0.131 A 
ATOM     14  C   UNL A   1      31.297  26.206  24.074  1.00  0.00     0.049 A 
ATOM     15  C   UNL A   1      32.505  27.552  25.677  1.00  0.00     0.100 A 
ATOM     16  C   UNL A   1      31.913  25.046  24.564  1.00  0.00     0.030 A 
ATOM     17  C   UNL A   1      33.107  26.372  26.157  1.00  0.00     0.043 A 
BRANCH  13  18
ATOM     18  O   UNL A   1      30.887  28.550  24.230  1.00  0.00    -0.493 OA
BRANCH  18  19
ATOM     19  C   UNL A   1      31.166  28.962  22.887  1.00  0.00     0.226 C 
ATOM     20  C   UNL A   1      29.898  29.489  22.240  1.00  0.00     0.049 C 
ENDBRANCH  18  19
ENDBRANCH  13  18
BRANCH  15  21
ATOM     21  C   UNL A   1      32.911  28.865  26.294  1.00  0.00     0.420 C 
ATOM     22  F   UNL A   1      31.901  29.453  26.999  1.00  0.00    -0.166 F 
ATOM     23  F   UNL A   1      33.929  28.709  27.188  1.00  0.00    -0.166 F 
ATOM     24  F   UNL A   1      33.329  29.813  25.413  1.00  0.00    -0.166 F 
ENDBRANCH  15  21
ENDBRANCH   7  12
ENDBRANCH   3   6
ENDBRANCH   1   2
BRANCH   1  25
ATOM     25  C   UNL A   1      37.910  19.759  24.982  1.00  0.00     0.042 C 
BRANCH  25  26
ATOM     26  C   UNL A   1      38.996  20.149  25.979  1.00  0.00     0.118 C 
BRANCH  26  27
ATOM     27  N   UNL A   1      40.117  19.220  25.956  1.00  0.00    -0.352 N 
ATOM     28  C   UNL A   1      41.468  19.436  26.059  1.00  0.00     0.251 C 
ATOM     29  H   UNL A   1      39.862  18.275  25.849  1.00  0.00     0.163 HD
ATOM     30  O   UNL A   1      42.242  18.528  25.767  1.00  0.00    -0.269 OA
BRANCH  28  31
ATOM     31  C   UNL A   1      42.009  20.739  26.506  1.00  0.00     0.039 A 
ATOM     32  C   UNL A   1      42.367  21.684  25.540  1.00  0.00     0.014 A 
ATOM     33  C   UNL A   1      42.220  21.019  27.857  1.00  0.00     0.014 A 
ATOM     34  C   UNL A   1      42.868  22.928  25.931  1.00  0.00     0.010 A 
ATOM     35  C   UNL A   1      42.631  22.291  28.252  1.00  0.00     0.010 A 
ATOM     36  C   UNL A   1      42.961  23.259  27.293  1.00  0.00    -0.014 A 
BRANCH  36  37
ATOM     37  C   UNL A   1      43.380  24.617  27.730  1.00  0.00     0.031 A 
ATOM     38  C   UNL A   1      42.354  25.663  28.068  1.00  0.00     0.074 A 
ATOM     39  C   UNL A   1      44.692  24.925  27.753  1.00  0.00     0.049 A 
ATOM     40  N   UNL A   1      42.529  26.919  28.394  1.00  0.00    -0.248 NA
ATOM     41  C   UNL A   1      40.943  25.252  28.006  1.00  0.00     0.031 C 
ATOM     42  C   UNL A   1      45.780  24.011  27.402  1.00  0.00     0.029 A 
ATOM     43  N   UNL A   1      45.334  26.095  28.075  1.00  0.00    -0.354 N 
ATOM     44  C   UNL A   1      41.256  27.449  28.561  1.00  0.00     0.074 A 
ATOM     45  C   UNL A   1      40.316  26.395  28.246  1.00  0.00     0.031 C 
ATOM     46  C   UNL A   1      46.954  24.644  27.554  1.00  0.00     0.029 A 
ATOM     47  C   UNL A   1      46.701  26.022  27.962  1.00  0.00     0.049 A 
ATOM     48  H   UNL A   1      44.859  26.910  28.360  1.00  0.00     0.167 HD
ATOM     49  C   UNL A   1      40.903  28.694  28.963  1.00  0.00     0.037 A 
ATOM     50  C   UNL A   1      47.645  26.964  28.149  1.00  0.00     0.037 A 
ATOM     51  C   UNL A   1      41.845  29.733  29.294  1.00  0.00     0.049 A 
ATOM     52  C   UNL A   1      47.226  28.346  28.569  1.00  0.00     0.074 A 
ATOM     53  C   UNL A   1      41.593  31.003  29.780  1.00  0.00     0.029 A 
ATOM     54  N   UNL A   1      43.223  29.622  29.164  1.00  0.00    -0.354 N 
ATOM     55  N   UNL A   1      46.022  28.811  28.801  1.00  0.00    -0.248 NA
ATOM     56  C   UNL A   1      48.297  29.335  28.754  1.00  0.00     0.031 C 
ATOM     57  C   UNL A   1      42.812  31.683  29.881  1.00  0.00     0.029 A 
ATOM     58  C   UNL A   1      43.830  30.816  29.519  1.00  0.00     0.049 A 
ATOM     59  H   UNL A   1      43.699  28.814  28.862  1.00  0.00     0.167 HD
ATOM     60  C   UNL A   1      46.191  30.137  29.174  1.00  0.00     0.074 A 
ATOM     61  C   UNL A   1      47.616  30.395  29.164  1.00  0.00     0.031 C 
ATOM     62  C   UNL A   1      45.250  31.060  29.493  1.00  0.00     0.037 A 
BRANCH  49  63
ATOM     63  C   UNL A   1      39.437  29.008  29.064  1.00  0.00     0.064 A 
ATOM     64  C   UNL A   1      38.742  28.909  30.279  1.00  0.00     0.173 A 
ATOM     65  C   UNL A   1      38.726  29.453  27.940  1.00  0.00     0.173 A 
ATOM     66  F   UNL A   1      39.371  28.481  31.385  1.00  0.00    -0.203 F 
ATOM     67  C   UNL A   1      37.384  29.212  30.358  1.00  0.00     0.198 A 
ATOM     68  C   UNL A   1      37.377  29.788  28.028  1.00  0.00     0.198 A 
ATOM     69  F   UNL A   1      39.341  29.574  26.753  1.00  0.00    -0.203 F 
ATOM     70  F   UNL A   1      36.730  29.058  31.517  1.00  0.00    -0.200 F 
ATOM     71  C   UNL A   1      36.705  29.658  29.235  1.00  0.00     0.200 A 
ATOM     72  F   UNL A   1      36.726  30.235  26.945  1.00  0.00    -0.200 F 
ATOM     73  F   UNL A   1      35.401  29.958  29.313  1.00  0.00    -0.200 F 
ENDBRANCH  49  63
BRANCH  50  74
ATOM     74  C   UNL A   1      49.078  26.625  27.946  1.00  0.00     0.064 A 
ATOM     75  C   UNL A   1      49.909  26.320  29.033  1.00  0.00     0.173 A 
ATOM     76  C   UNL A   1      49.648  26.595  26.663  1.00  0.00     0.173 A 
ATOM     77  F   UNL A   1      49.418  26.353  30.280  1.00  0.00    -0.203 F 
ATOM     78  C   UNL A   1      51.257  26.018  28.848  1.00  0.00     0.198 A 
ATOM     79  C   UNL A   1      50.987  26.258  26.476  1.00  0.00     0.198 A 
ATOM     80  F   UNL A   1      48.896  26.871  25.588  1.00  0.00    -0.203 F 
ATOM     81  F   UNL A   1      52.040  25.776  29.908  1.00  0.00    -0.200 F 
ATOM     82  C   UNL A   1      51.793  25.979  27.569  1.00  0.00     0.200 A 
ATOM     83  F   UNL A   1      51.493  26.201  25.237  1.00  0.00    -0.200 F 
ATOM     84  F   UNL A   1      53.085  25.679  27.390  1.00  0.00    -0.200 F 
ENDBRANCH  50  74
BRANCH  62  85
ATOM     85  C   UNL A   1      45.732  32.434  29.863  1.00  0.00     0.064 A 
ATOM     86  C   UNL A   1      46.078  32.759  31.183  1.00  0.00     0.173 A 
ATOM     87  C   UNL A   1      45.890  33.424  28.880  1.00  0.00     0.173 A 
ATOM     88  F   UNL A   1      45.930  31.854  32.162  1.00  0.00    -0.203 F 
ATOM     89  C   UNL A   1      46.538  34.032  31.510  1.00  0.00     0.198 A 
ATOM     90  C   UNL A   1      46.384  34.684  29.205  1.00  0.00     0.198 A 
ATOM     91  F   UNL A   1      45.580  33.163  27.602  1.00  0.00    -0.203 F 
ATOM     92  F   UNL A   1      46.813  34.336  32.786  1.00  0.00    -0.200 F 
ATOM     93  C   UNL A   1      46.699  34.990  30.520  1.00  0.00     0.200 A 
ATOM     94  F   UNL A   1      46.553  35.604  28.245  1.00  0.00    -0.200 F 
ATOM     95  F   UNL A   1      47.153  36.212  30.835  1.00  0.00    -0.200 F 
ENDBRANCH  62  85
ENDBRANCH  36  37
ENDBRANCH  28  31
ENDBRANCH  26  27
ENDBRANCH  25  26
ENDBRANCH   1  25
TORSDOF 14
ENDMDL
MODEL 3
REMARK VINA RESULT:     -12.4      1.330      2.314
REMARK SMILES CCOc1ccc(N2C[C@H](C(=O)NCCCNC(=O)c3ccc(-c4c5nc(c(-c6c(F)c(F)c(F)c(F)c6F)c6ccc([nH]6)c(-c6c(F)c(F)c(F)c(F)c6F)c6nc(c(-c7c(F)c(F)c(F)c(F)c7F)c7ccc4[nH]7)C=C6)C=C5)cc3)CC2=O)cc1C(F)(F)F
REMARK SMILES IDX 14 1 13 2 11 3 12 4 10 6 8 7 9 8 84 9 83 10 85 11 7 12 4 13
REMARK SMILES IDX 5 14 87 15 6 16 86 17 3 18 2 19 1 20 88 21 89 22 90 23 91 24
REMARK SMILES IDX 15 25 16 26 17 27 18 28 19 30 20 31 21 32 82 33 22 34 81 35
REMARK SMILES IDX 23 36 24 37 25 38 75 39 26 40 80 41 74 42 76 43 27 44 79 45
REMARK SMILES IDX 73 46 72 47 28 49 60 50 40 51 59 52 41 53 44 54 58 55 77 56
REMARK SMILES IDX 42 57 43 58 57 60 78 61 45 62 29 63 30 64 38 65 31 66 32 67
REMARK SMILES IDX 36 68 39 69 33 70 34 71 37 72 35 73 61 74 62 75 70 76 63 77
REMARK SMILES IDX 64 78 68 79 71 80 65 81 66 82 69 83 67 84 46 85 47 86 55 87
REMARK SMILES IDX 48 88 49 89 53 90 56 91 50 92 51 93 54 94 52 95
REMARK H PARENT 13 5 17 29 76 48 44 59
REMARK Flexibility Score: inf
ROOT
ATOM      1  C   UNL A   1      31.746  30.424  26.260  1.00  0.00     0.117 C 
ENDROOT
BRANCH   1   2
ATOM      2  N   UNL A   1      31.128  30.036  25.003  1.00  0.00    -0.356 N 
ATOM      3  C   UNL A   1      31.595  29.392  23.906  1.00  0.00     0.225 C 
ATOM      4  O   UNL A   1      30.794  29.241  22.977  1.00  0.00    -0.275 OA
ATOM      5  H   UNL A   1      30.179  30.292  24.936  1.00  0.00     0.163 HD
BRANCH   3   6
ATOM      6  C   UNL A   1      33.010  28.855  23.758  1.00  0.00     0.107 C 
ATOM      7  N   UNL A   1      33.452  26.539  23.675  1.00  0.00    -0.312 N 
ATOM      8  C   UNL A   1      33.322  27.638  24.602  1.00  0.00     0.139 C 
ATOM      9  C   UNL A   1      33.545  26.999  22.352  1.00  0.00     0.227 C 
ATOM     10  C   UNL A   1      33.396  28.494  22.339  1.00  0.00     0.116 C 
ATOM     11  O   UNL A   1      33.659  26.350  21.319  1.00  0.00    -0.274 OA
BRANCH   7  12
ATOM     12  C   UNL A   1      33.415  25.169  24.064  1.00  0.00     0.044 A 
ATOM     13  C   UNL A   1      33.457  22.536  25.094  1.00  0.00     0.131 A 
ATOM     14  C   UNL A   1      34.464  22.975  24.233  1.00  0.00     0.049 A 
ATOM     15  C   UNL A   1      32.409  23.387  25.437  1.00  0.00     0.100 A 
ATOM     16  C   UNL A   1      34.427  24.271  23.700  1.00  0.00     0.030 A 
ATOM     17  C   UNL A   1      32.396  24.687  24.893  1.00  0.00     0.043 A 
BRANCH  13  18
ATOM     18  O   UNL A   1      33.582  21.323  25.710  1.00  0.00    -0.493 OA
BRANCH  18  19
ATOM     19  C   UNL A   1      33.798  20.236  24.802  1.00  0.00     0.226 C 
ATOM     20  C   UNL A   1      32.527  19.415  24.676  1.00  0.00     0.049 C 
ENDBRANCH  18  19
ENDBRANCH  13  18
BRANCH  15  21
ATOM     21  C   UNL A   1      31.266  22.970  26.324  1.00  0.00     0.420 C 
ATOM     22  F   UNL A   1      30.321  23.944  26.464  1.00  0.00    -0.166 F 
ATOM     23  F   UNL A   1      30.599  21.894  25.814  1.00  0.00    -0.166 F 
ATOM     24  F   UNL A   1      31.614  22.626  27.593  1.00  0.00    -0.166 F 
ENDBRANCH  15  21
ENDBRANCH   7  12
ENDBRANCH   3   6
ENDBRANCH   1   2
BRANCH   1  25
ATOM     25  C   UNL A   1      31.557  31.908  26.556  1.00  0.00     0.042 C 
BRANCH  25  26
ATOM     26  C   UNL A   1      32.830  32.598  27.030  1.00  0.00     0.118 C 
BRANCH  26  27
ATOM     27  N   UNL A   1      32.573  33.946  27.517  1.00  0.00    -0.352 N 
ATOM     28  C   UNL A   1      33.072  34.622  28.601  1.00  0.00     0.251 C 
ATOM     29  H   UNL A   1      31.932  34.460  26.975  1.00  0.00     0.163 HD
ATOM     30  O   UNL A   1      32.527  35.664  28.958  1.00  0.00    -0.269 OA
BRANCH  28  31
ATOM     31  C   UNL A   1      34.244  34.119  29.352  1.00  0.00     0.039 A 
ATOM     32  C   UNL A   1      34.026  33.356  30.504  1.00  0.00     0.014 A 
ATOM     33  C   UNL A   1      35.549  34.435  28.970  1.00  0.00     0.014 A 
ATOM     34  C   UNL A   1      35.113  32.856  31.227  1.00  0.00     0.010 A 
ATOM     35  C   UNL A   1      36.630  33.859  29.634  1.00  0.00     0.010 A 
ATOM     36  C   UNL A   1      36.425  33.065  30.771  1.00  0.00    -0.014 A 
BRANCH  36  37
ATOM     37  C   UNL A   1      37.588  32.445  31.458  1.00  0.00     0.031 A 
ATOM     38  C   UNL A   1      38.313  31.283  30.837  1.00  0.00     0.074 A 
ATOM     39  C   UNL A   1      37.945  32.889  32.680  1.00  0.00     0.049 A 
ATOM     40  N   UNL A   1      39.298  30.567  31.320  1.00  0.00    -0.248 NA
ATOM     41  C   UNL A   1      37.855  30.849  29.507  1.00  0.00     0.031 C 
ATOM     42  C   UNL A   1      37.289  33.977  33.407  1.00  0.00     0.029 A 
ATOM     43  N   UNL A   1      38.938  32.473  33.531  1.00  0.00    -0.354 N 
ATOM     44  C   UNL A   1      39.566  29.596  30.364  1.00  0.00     0.074 A 
ATOM     45  C   UNL A   1      38.604  29.776  29.299  1.00  0.00     0.031 C 
ATOM     46  C   UNL A   1      37.914  34.161  34.580  1.00  0.00     0.029 A 
ATOM     47  C   UNL A   1      38.979  33.173  34.712  1.00  0.00     0.049 A 
ATOM     48  H   UNL A   1      39.562  31.742  33.315  1.00  0.00     0.167 HD
ATOM     49  C   UNL A   1      40.539  28.653  30.365  1.00  0.00     0.037 A 
ATOM     50  C   UNL A   1      39.774  33.024  35.789  1.00  0.00     0.037 A 
ATOM     51  C   UNL A   1      41.506  28.492  31.421  1.00  0.00     0.049 A 
ATOM     52  C   UNL A   1      40.830  31.953  35.777  1.00  0.00     0.074 A 
ATOM     53  C   UNL A   1      42.575  27.617  31.485  1.00  0.00     0.029 A 
ATOM     54  N   UNL A   1      41.513  29.218  32.604  1.00  0.00    -0.354 N 
ATOM     55  N   UNL A   1      41.124  31.092  34.832  1.00  0.00    -0.248 NA
ATOM     56  C   UNL A   1      41.664  31.832  36.979  1.00  0.00     0.031 C 
ATOM     57  C   UNL A   1      43.189  27.768  32.733  1.00  0.00     0.029 A 
ATOM     58  C   UNL A   1      42.543  28.780  33.422  1.00  0.00     0.049 A 
ATOM     59  H   UNL A   1      40.879  29.937  32.830  1.00  0.00     0.167 HD
ATOM     60  C   UNL A   1      42.185  30.341  35.318  1.00  0.00     0.074 A 
ATOM     61  C   UNL A   1      42.501  30.866  36.630  1.00  0.00     0.031 C 
ATOM     62  C   UNL A   1      42.837  29.306  34.732  1.00  0.00     0.037 A 
BRANCH  49  63
ATOM     63  C   UNL A   1      40.608  27.717  29.191  1.00  0.00     0.064 A 
ATOM     64  C   UNL A   1      39.766  26.599  29.088  1.00  0.00     0.173 A 
ATOM     65  C   UNL A   1      41.498  27.963  28.136  1.00  0.00     0.173 A 
ATOM     66  F   UNL A   1      38.901  26.311  30.073  1.00  0.00    -0.203 F 
ATOM     67  C   UNL A   1      39.836  25.745  27.989  1.00  0.00     0.198 A 
ATOM     68  C   UNL A   1      41.543  27.128  27.022  1.00  0.00     0.198 A 
ATOM     69  F   UNL A   1      42.322  29.022  28.178  1.00  0.00    -0.203 F 
ATOM     70  F   UNL A   1      39.060  24.654  27.939  1.00  0.00    -0.200 F 
ATOM     71  C   UNL A   1      40.718  26.015  26.954  1.00  0.00     0.200 A 
ATOM     72  F   UNL A   1      42.385  27.399  26.015  1.00  0.00    -0.200 F 
ATOM     73  F   UNL A   1      40.779  25.197  25.894  1.00  0.00    -0.200 F 
ENDBRANCH  49  63
BRANCH  50  74
ATOM     74  C   UNL A   1      39.602  33.918  36.964  1.00  0.00     0.064 A 
ATOM     75  C   UNL A   1      40.207  35.183  37.003  1.00  0.00     0.173 A 
ATOM     76  C   UNL A   1      38.829  33.533  38.070  1.00  0.00     0.173 A 
ATOM     77  F   UNL A   1      40.970  35.591  35.979  1.00  0.00    -0.203 F 
ATOM     78  C   UNL A   1      40.061  36.018  38.110  1.00  0.00     0.198 A 
ATOM     79  C   UNL A   1      38.656  34.382  39.161  1.00  0.00     0.198 A 
ATOM     80  F   UNL A   1      38.223  32.337  38.082  1.00  0.00    -0.203 F 
ATOM     81  F   UNL A   1      40.688  37.202  38.141  1.00  0.00    -0.200 F 
ATOM     82  C   UNL A   1      39.279  35.620  39.184  1.00  0.00     0.200 A 
ATOM     83  F   UNL A   1      37.882  34.001  40.186  1.00  0.00    -0.200 F 
ATOM     84  F   UNL A   1      39.131  36.426  40.243  1.00  0.00    -0.200 F 
ENDBRANCH  50  74
BRANCH  62  85
ATOM     85  C   UNL A   1      43.962  28.677  35.503  1.00  0.00     0.064 A 
ATOM     86  C   UNL A   1      43.734  27.630  36.408  1.00  0.00     0.173 A 
ATOM     87  C   UNL A   1      45.287  29.097  35.305  1.00  0.00     0.173 A 
ATOM     88  F   UNL A   1      42.484  27.202  36.646  1.00  0.00    -0.203 F 
ATOM     89  C   UNL A   1      44.787  27.044  37.106  1.00  0.00     0.198 A 
ATOM     90  C   UNL A   1      46.341  28.485  35.978  1.00  0.00     0.198 A 
ATOM     91  F   UNL A   1      45.560  30.089  34.446  1.00  0.00    -0.203 F 
ATOM     92  F   UNL A   1      44.540  26.081  38.004  1.00  0.00    -0.200 F 
ATOM     93  C   UNL A   1      46.090  27.466  36.883  1.00  0.00     0.200 A 
ATOM     94  F   UNL A   1      47.600  28.883  35.750  1.00  0.00    -0.200 F 
ATOM     95  F   UNL A   1      47.103  26.893  37.548  1.00  0.00    -0.200 F 
ENDBRANCH  62  85
ENDBRANCH  36  37
ENDBRANCH  28  31
ENDBRANCH  26  27
ENDBRANCH  25  26
ENDBRANCH   1  25
TORSDOF 14
ENDMDL
