MODEL 1
REMARK VINA RESULT:     -14.8      0.000      0.000
REMARK SMILES O=C(NCCCNC(=O)c1ccc([C@@H]2CC(O)=Nc3c2ncn3-c2cccc(Cl)c2)cc1)c1ccc(-c2c3nc(c(-c4c(F)c(F)c(F)c(F)c4F)c4ccc([nH]4)c(-c4c(F)c(F)c(F)c(F)c4F)c4nc(c(-c5c(F)c(F)c(F)c(F)c5F)c5ccc2[nH]5)C=C4)C=C3)cc1
REMARK SMILES IDX 5 1 4 2 3 3 1 4 2 5 33 7 34 8 95 9 35 10 94 11 36 12 37 13
REMARK SMILES IDX 38 14 88 15 39 16 93 17 87 18 89 19 40 20 92 21 86 22 85 23
REMARK SMILES IDX 41 25 73 26 53 27 72 28 54 29 57 30 71 31 90 32 55 33 56 34
REMARK SMILES IDX 70 36 91 37 58 38 42 39 43 40 51 41 44 42 45 43 49 44 52 45
REMARK SMILES IDX 46 46 47 47 50 48 48 49 74 50 75 51 83 52 76 53 77 54 81 55
REMARK SMILES IDX 84 56 78 57 79 58 82 59 80 60 59 61 60 62 68 63 61 64 62 65
REMARK SMILES IDX 66 66 69 67 63 68 64 69 67 70 65 71 6 72 7 73 8 74 9 76
REMARK SMILES IDX 10 77 11 78 32 79 12 80 31 81 13 82 14 83 15 84 20 85 16 86
REMARK SMILES IDX 19 87 21 88 18 89 23 90 22 91 17 92 24 94 25 95 30 96 26 97
REMARK SMILES IDX 28 98 27 99 29 100
REMARK H PARENT 3 6 89 24 57 35 7 75 17 93
REMARK Flexibility Score: inf
ROOT
ATOM      1  C   UNL A   1      32.006  29.911  26.400  1.00  0.00     0.042 C 
ENDROOT
BRANCH   1   2
ATOM      2  C   UNL A   1      33.327  29.912  27.164  1.00  0.00     0.118 C 
BRANCH   2   3
ATOM      3  N   UNL A   1      33.839  31.233  27.476  1.00  0.00    -0.352 N 
ATOM      4  O   UNL A   1      35.115  32.974  27.929  1.00  0.00    -0.269 OA
ATOM      5  C   UNL A   1      35.057  31.746  27.824  1.00  0.00     0.251 C 
ATOM      6  H   UNL A   1      33.142  31.925  27.424  1.00  0.00     0.163 HD
BRANCH   5   7
ATOM      7  C   UNL A   1      36.281  30.951  28.122  1.00  0.00     0.039 A 
ATOM      8  C   UNL A   1      36.463  29.593  27.856  1.00  0.00     0.014 A 
ATOM      9  C   UNL A   1      37.344  31.662  28.715  1.00  0.00     0.014 A 
ATOM     10  C   UNL A   1      37.648  28.952  28.221  1.00  0.00     0.010 A 
ATOM     11  C   UNL A   1      38.536  31.031  29.062  1.00  0.00     0.010 A 
ATOM     12  C   UNL A   1      38.683  29.666  28.833  1.00  0.00    -0.014 A 
BRANCH  12  13
ATOM     13  C   UNL A   1      39.948  28.977  29.092  1.00  0.00     0.031 A 
ATOM     14  C   UNL A   1      40.314  28.788  30.532  1.00  0.00     0.074 A 
ATOM     15  C   UNL A   1      40.684  28.371  28.139  1.00  0.00     0.049 A 
ATOM     16  N   UNL A   1      41.417  29.100  31.139  1.00  0.00    -0.248 NA
ATOM     17  C   UNL A   1      39.298  28.189  31.412  1.00  0.00     0.031 C 
ATOM     18  C   UNL A   1      40.342  28.154  26.732  1.00  0.00     0.029 A 
ATOM     19  N   UNL A   1      41.878  27.719  28.273  1.00  0.00    -0.354 N 
ATOM     20  C   UNL A   1      41.291  28.624  32.445  1.00  0.00     0.074 A 
ATOM     21  C   UNL A   1      39.941  28.142  32.579  1.00  0.00     0.031 C 
ATOM     22  C   UNL A   1      41.201  27.258  26.198  1.00  0.00     0.029 A 
ATOM     23  C   UNL A   1      42.224  26.940  27.180  1.00  0.00     0.049 A 
ATOM     24  H   UNL A   1      42.442  27.796  29.075  1.00  0.00     0.167 HD
ATOM     25  C   UNL A   1      42.348  28.522  33.298  1.00  0.00     0.037 A 
ATOM     26  C   UNL A   1      43.244  26.051  27.108  1.00  0.00     0.037 A 
ATOM     27  C   UNL A   1      43.446  29.358  32.904  1.00  0.00     0.049 A 
ATOM     28  C   UNL A   1      44.208  26.365  28.188  1.00  0.00     0.074 A 
ATOM     29  C   UNL A   1      43.623  30.720  32.752  1.00  0.00     0.029 A 
ATOM     30  N   UNL A   1      44.537  28.784  32.305  1.00  0.00    -0.354 N 
ATOM     31  N   UNL A   1      44.973  27.419  28.213  1.00  0.00    -0.248 NA
ATOM     32  C   UNL A   1      44.067  25.664  29.455  1.00  0.00     0.031 C 
ATOM     33  C   UNL A   1      44.519  30.856  31.651  1.00  0.00     0.029 A 
ATOM     34  C   UNL A   1      44.847  29.569  31.225  1.00  0.00     0.049 A 
ATOM     35  H   UNL A   1      45.007  27.968  32.595  1.00  0.00     0.167 HD
ATOM     36  C   UNL A   1      45.065  27.752  29.554  1.00  0.00     0.074 A 
ATOM     37  C   UNL A   1      44.591  26.577  30.274  1.00  0.00     0.031 C 
ATOM     38  C   UNL A   1      45.259  29.045  29.946  1.00  0.00     0.037 A 
BRANCH  25  39
ATOM     39  C   UNL A   1      42.481  27.466  34.366  1.00  0.00     0.064 A 
ATOM     40  C   UNL A   1      43.044  26.211  34.057  1.00  0.00     0.173 A 
ATOM     41  C   UNL A   1      41.822  27.550  35.611  1.00  0.00     0.173 A 
ATOM     42  F   UNL A   1      43.661  26.009  32.883  1.00  0.00    -0.203 F 
ATOM     43  C   UNL A   1      42.915  25.113  34.913  1.00  0.00     0.198 A 
ATOM     44  C   UNL A   1      41.739  26.466  36.485  1.00  0.00     0.198 A 
ATOM     45  F   UNL A   1      41.147  28.647  35.977  1.00  0.00    -0.203 F 
ATOM     46  F   UNL A   1      43.372  23.914  34.530  1.00  0.00    -0.200 F 
ATOM     47  C   UNL A   1      42.262  25.241  36.125  1.00  0.00     0.200 A 
ATOM     48  F   UNL A   1      41.083  26.602  37.646  1.00  0.00    -0.200 F 
ATOM     49  F   UNL A   1      42.093  24.178  36.923  1.00  0.00    -0.200 F 
ENDBRANCH  25  39
BRANCH  26  50
ATOM     50  C   UNL A   1      43.315  24.790  26.337  1.00  0.00     0.064 A 
ATOM     51  C   UNL A   1      44.164  24.662  25.225  1.00  0.00     0.173 A 
ATOM     52  C   UNL A   1      42.757  23.600  26.841  1.00  0.00     0.173 A 
ATOM     53  F   UNL A   1      44.774  25.740  24.714  1.00  0.00    -0.203 F 
ATOM     54  C   UNL A   1      44.454  23.412  24.666  1.00  0.00     0.198 A 
ATOM     55  C   UNL A   1      43.038  22.356  26.277  1.00  0.00     0.198 A 
ATOM     56  F   UNL A   1      42.004  23.612  27.951  1.00  0.00    -0.203 F 
ATOM     57  F   UNL A   1      45.318  23.321  23.646  1.00  0.00    -0.200 F 
ATOM     58  C   UNL A   1      43.898  22.261  25.199  1.00  0.00     0.200 A 
ATOM     59  F   UNL A   1      42.522  21.247  26.824  1.00  0.00    -0.200 F 
ATOM     60  F   UNL A   1      44.221  21.059  24.701  1.00  0.00    -0.200 F 
ENDBRANCH  26  50
BRANCH  38  61
ATOM     61  C   UNL A   1      45.652  30.043  28.893  1.00  0.00     0.064 A 
ATOM     62  C   UNL A   1      44.732  30.704  28.060  1.00  0.00     0.173 A 
ATOM     63  C   UNL A   1      46.993  30.441  28.814  1.00  0.00     0.173 A 
ATOM     64  F   UNL A   1      43.418  30.460  28.153  1.00  0.00    -0.203 F 
ATOM     65  C   UNL A   1      45.145  31.677  27.153  1.00  0.00     0.198 A 
ATOM     66  C   UNL A   1      47.398  31.443  27.934  1.00  0.00     0.198 A 
ATOM     67  F   UNL A   1      47.909  29.891  29.627  1.00  0.00    -0.203 F 
ATOM     68  F   UNL A   1      44.249  32.280  26.358  1.00  0.00    -0.200 F 
ATOM     69  C   UNL A   1      46.478  32.049  27.095  1.00  0.00     0.200 A 
ATOM     70  F   UNL A   1      48.679  31.838  27.918  1.00  0.00    -0.200 F 
ATOM     71  F   UNL A   1      46.869  33.016  26.252  1.00  0.00    -0.200 F 
ENDBRANCH  38  61
ENDBRANCH  12  13
ENDBRANCH   5   7
ENDBRANCH   2   3
ENDBRANCH   1   2
BRANCH   1  72
ATOM     72  C   UNL A   1      32.143  29.664  24.899  1.00  0.00     0.118 C 
BRANCH  72  73
ATOM     73  N   UNL A   1      30.866  29.694  24.200  1.00  0.00    -0.352 N 
ATOM     74  C   UNL A   1      30.128  28.664  23.675  1.00  0.00     0.251 C 
ATOM     75  H   UNL A   1      30.472  30.590  24.087  1.00  0.00     0.163 HD
ATOM     76  O   UNL A   1      29.135  28.906  22.990  1.00  0.00    -0.269 OA
BRANCH  74  77
ATOM     77  C   UNL A   1      30.530  27.264  23.907  1.00  0.00     0.039 A 
ATOM     78  C   UNL A   1      31.128  26.560  22.861  1.00  0.00     0.014 A 
ATOM     79  C   UNL A   1      30.302  26.638  25.135  1.00  0.00     0.014 A 
ATOM     80  C   UNL A   1      31.571  25.253  23.072  1.00  0.00     0.005 A 
ATOM     81  C   UNL A   1      30.756  25.335  25.349  1.00  0.00     0.005 A 
ATOM     82  C   UNL A   1      31.411  24.630  24.323  1.00  0.00    -0.038 A 
BRANCH  82  83
ATOM     83  C   UNL A   1      31.922  23.212  24.511  1.00  0.00     0.081 C 
ATOM     84  C   UNL A   1      31.593  22.639  25.907  1.00  0.00     0.111 C 
ATOM     85  C   UNL A   1      33.389  23.251  24.276  1.00  0.00     0.093 A 
ATOM     86  C   UNL A   1      32.773  22.572  26.863  1.00  0.00     0.188 C 
ATOM     87  C   UNL A   1      34.283  22.924  25.271  1.00  0.00     0.164 A 
ATOM     88  N   UNL A   1      34.026  23.635  23.127  1.00  0.00    -0.238 NA
ATOM     89  N   UNL A   1      34.031  22.640  26.571  1.00  0.00    -0.198 NA
ATOM     90  N   UNL A   1      35.535  23.095  24.707  1.00  0.00    -0.283 N 
ATOM     91  C   UNL A   1      35.309  23.576  23.432  1.00  0.00     0.206 A 
BRANCH  86  92
ATOM     92  O   UNL A   1      32.429  22.365  28.149  1.00  0.00    -0.496 OA
ATOM     93  H   UNL A   1      32.430  21.497  28.501  1.00  0.00     0.294 HD
ENDBRANCH  86  92
BRANCH  90  94
ATOM     94  C   UNL A   1      36.788  22.839  25.310  1.00  0.00     0.050 A 
ATOM     95  C   UNL A   1      37.435  21.615  25.103  1.00  0.00     0.027 A 
ATOM     96  C   UNL A   1      37.381  23.826  26.110  1.00  0.00     0.047 A 
ATOM     97  C   UNL A   1      38.699  21.403  25.659  1.00  0.00     0.004 A 
ATOM     98  C   UNL A   1      38.618  23.581  26.700  1.00  0.00     0.043 A 
ATOM     99  C   UNL A   1      39.288  22.381  26.464  1.00  0.00     0.020 A 
ATOM    100  Cl  UNL A   1      39.317  24.759  27.741  1.00  0.00    -0.084 Cl
ENDBRANCH  90  94
ENDBRANCH  82  83
ENDBRANCH  74  77
ENDBRANCH  72  73
ENDBRANCH   1  72
TORSDOF 13
ENDMDL
MODEL 2
REMARK VINA RESULT:     -14.6      3.052      8.807
REMARK SMILES O=C(NCCCNC(=O)c1ccc([C@@H]2CC(O)=Nc3c2ncn3-c2cccc(Cl)c2)cc1)c1ccc(-c2c3nc(c(-c4c(F)c(F)c(F)c(F)c4F)c4ccc([nH]4)c(-c4c(F)c(F)c(F)c(F)c4F)c4nc(c(-c5c(F)c(F)c(F)c(F)c5F)c5ccc2[nH]5)C=C4)C=C3)cc1
REMARK SMILES IDX 5 1 4 2 3 3 1 4 2 5 33 7 34 8 95 9 35 10 94 11 36 12 37 13
REMARK SMILES IDX 38 14 88 15 39 16 93 17 87 18 89 19 40 20 92 21 86 22 85 23
REMARK SMILES IDX 41 25 73 26 53 27 72 28 54 29 57 30 71 31 90 32 55 33 56 34
REMARK SMILES IDX 70 36 91 37 58 38 42 39 43 40 51 41 44 42 45 43 49 44 52 45
REMARK SMILES IDX 46 46 47 47 50 48 48 49 74 50 75 51 83 52 76 53 77 54 81 55
REMARK SMILES IDX 84 56 78 57 79 58 82 59 80 60 59 61 60 62 68 63 61 64 62 65
REMARK SMILES IDX 66 66 69 67 63 68 64 69 67 70 65 71 6 72 7 73 8 74 9 76
REMARK SMILES IDX 10 77 11 78 32 79 12 80 31 81 13 82 14 83 15 84 20 85 16 86
REMARK SMILES IDX 19 87 21 88 18 89 23 90 22 91 17 92 24 94 25 95 30 96 26 97
REMARK SMILES IDX 28 98 27 99 29 100
REMARK H PARENT 3 6 89 24 57 35 7 75 17 93
REMARK Flexibility Score: inf
ROOT
ATOM      1  C   UNL A   1      36.640  21.260  24.903  1.00  0.00     0.042 C 
ENDROOT
BRANCH   1   2
ATOM      2  C   UNL A   1      37.567  22.305  25.520  1.00  0.00     0.118 C 
BRANCH   2   3
ATOM      3  N   UNL A   1      38.900  21.820  25.823  1.00  0.00    -0.352 N 
ATOM      4  O   UNL A   1      40.939  21.541  26.616  1.00  0.00    -0.269 OA
ATOM      5  C   UNL A   1      39.982  22.311  26.499  1.00  0.00     0.251 C 
ATOM      6  H   UNL A   1      39.064  20.922  25.455  1.00  0.00     0.163 HD
BRANCH   5   7
ATOM      7  C   UNL A   1      40.109  23.688  27.052  1.00  0.00     0.039 A 
ATOM      8  C   UNL A   1      39.197  24.730  26.879  1.00  0.00     0.014 A 
ATOM      9  C   UNL A   1      41.260  23.933  27.828  1.00  0.00     0.014 A 
ATOM     10  C   UNL A   1      39.451  25.992  27.418  1.00  0.00     0.010 A 
ATOM     11  C   UNL A   1      41.508  25.184  28.386  1.00  0.00     0.010 A 
ATOM     12  C   UNL A   1      40.610  26.225  28.164  1.00  0.00    -0.014 A 
BRANCH  12  13
ATOM     13  C   UNL A   1      40.777  27.531  28.805  1.00  0.00     0.031 A 
ATOM     14  C   UNL A   1      41.937  28.353  28.337  1.00  0.00     0.074 A 
ATOM     15  C   UNL A   1      39.870  28.083  29.636  1.00  0.00     0.049 A 
ATOM     16  N   UNL A   1      42.873  28.914  29.038  1.00  0.00    -0.248 NA
ATOM     17  C   UNL A   1      42.080  28.553  26.886  1.00  0.00     0.031 C 
ATOM     18  C   UNL A   1      38.528  27.597  29.962  1.00  0.00     0.029 A 
ATOM     19  N   UNL A   1      39.936  29.279  30.293  1.00  0.00    -0.354 N 
ATOM     20  C   UNL A   1      43.650  29.645  28.139  1.00  0.00     0.074 A 
ATOM     21  C   UNL A   1      43.163  29.327  26.821  1.00  0.00     0.031 C 
ATOM     22  C   UNL A   1      37.839  28.578  30.586  1.00  0.00     0.029 A 
ATOM     23  C   UNL A   1      38.726  29.706  30.818  1.00  0.00     0.049 A 
ATOM     24  H   UNL A   1      40.770  29.793  30.386  1.00  0.00     0.167 HD
ATOM     25  C   UNL A   1      44.556  30.582  28.537  1.00  0.00     0.037 A 
ATOM     26  C   UNL A   1      38.456  30.921  31.351  1.00  0.00     0.037 A 
ATOM     27  C   UNL A   1      44.953  30.405  29.904  1.00  0.00     0.049 A 
ATOM     28  C   UNL A   1      39.742  31.563  31.714  1.00  0.00     0.074 A 
ATOM     29  C   UNL A   1      45.593  29.401  30.606  1.00  0.00     0.029 A 
ATOM     30  N   UNL A   1      44.441  31.242  30.860  1.00  0.00    -0.354 N 
ATOM     31  N   UNL A   1      40.511  31.174  32.691  1.00  0.00    -0.248 NA
ATOM     32  C   UNL A   1      40.364  32.446  30.740  1.00  0.00     0.031 C 
ATOM     33  C   UNL A   1      44.998  29.419  31.902  1.00  0.00     0.029 A 
ATOM     34  C   UNL A   1      44.057  30.447  31.909  1.00  0.00     0.049 A 
ATOM     35  H   UNL A   1      44.364  32.222  30.804  1.00  0.00     0.167 HD
ATOM     36  C   UNL A   1      41.798  31.413  32.238  1.00  0.00     0.074 A 
ATOM     37  C   UNL A   1      41.642  32.299  31.091  1.00  0.00     0.031 C 
ATOM     38  C   UNL A   1      42.846  30.651  32.667  1.00  0.00     0.037 A 
BRANCH  25  39
ATOM     39  C   UNL A   1      44.899  31.822  27.750  1.00  0.00     0.064 A 
ATOM     40  C   UNL A   1      46.149  31.931  27.109  1.00  0.00     0.173 A 
ATOM     41  C   UNL A   1      44.151  33.014  27.838  1.00  0.00     0.173 A 
ATOM     42  F   UNL A   1      46.959  30.867  27.004  1.00  0.00    -0.203 F 
ATOM     43  C   UNL A   1      46.630  33.155  26.632  1.00  0.00     0.198 A 
ATOM     44  C   UNL A   1      44.612  34.223  27.316  1.00  0.00     0.198 A 
ATOM     45  F   UNL A   1      43.001  33.075  28.521  1.00  0.00    -0.203 F 
ATOM     46  F   UNL A   1      47.868  33.232  26.127  1.00  0.00    -0.200 F 
ATOM     47  C   UNL A   1      45.861  34.300  26.737  1.00  0.00     0.200 A 
ATOM     48  F   UNL A   1      43.863  35.328  27.447  1.00  0.00    -0.200 F 
ATOM     49  F   UNL A   1      46.341  35.482  26.327  1.00  0.00    -0.200 F 
ENDBRANCH  25  39
BRANCH  26  50
ATOM     50  C   UNL A   1      37.184  31.677  31.328  1.00  0.00     0.064 A 
ATOM     51  C   UNL A   1      36.434  31.878  32.498  1.00  0.00     0.173 A 
ATOM     52  C   UNL A   1      36.820  32.449  30.208  1.00  0.00     0.173 A 
ATOM     53  F   UNL A   1      36.746  31.216  33.621  1.00  0.00    -0.203 F 
ATOM     54  C   UNL A   1      35.395  32.813  32.549  1.00  0.00     0.198 A 
ATOM     55  C   UNL A   1      35.777  33.374  30.257  1.00  0.00     0.198 A 
ATOM     56  F   UNL A   1      37.531  32.390  29.073  1.00  0.00    -0.203 F 
ATOM     57  F   UNL A   1      34.742  33.024  33.701  1.00  0.00    -0.200 F 
ATOM     58  C   UNL A   1      35.075  33.567  31.432  1.00  0.00     0.200 A 
ATOM     59  F   UNL A   1      35.502  34.122  29.180  1.00  0.00    -0.200 F 
ATOM     60  F   UNL A   1      34.119  34.504  31.498  1.00  0.00    -0.200 F 
ENDBRANCH  26  50
BRANCH  38  61
ATOM     61  C   UNL A   1      42.618  29.748  33.845  1.00  0.00     0.064 A 
ATOM     62  C   UNL A   1      42.021  28.478  33.752  1.00  0.00     0.173 A 
ATOM     63  C   UNL A   1      43.139  30.124  35.091  1.00  0.00     0.173 A 
ATOM     64  F   UNL A   1      41.598  27.999  32.575  1.00  0.00    -0.203 F 
ATOM     65  C   UNL A   1      41.903  27.650  34.866  1.00  0.00     0.198 A 
ATOM     66  C   UNL A   1      43.056  29.277  36.194  1.00  0.00     0.198 A 
ATOM     67  F   UNL A   1      43.776  31.298  35.227  1.00  0.00    -0.203 F 
ATOM     68  F   UNL A   1      41.314  26.450  34.753  1.00  0.00    -0.200 F 
ATOM     69  C   UNL A   1      42.426  28.048  36.085  1.00  0.00     0.200 A 
ATOM     70  F   UNL A   1      43.611  29.643  37.358  1.00  0.00    -0.200 F 
ATOM     71  F   UNL A   1      42.351  27.233  37.147  1.00  0.00    -0.200 F 
ENDBRANCH  38  61
ENDBRANCH  12  13
ENDBRANCH   5   7
ENDBRANCH   2   3
ENDBRANCH   1   2
BRANCH   1  72
ATOM     72  C   UNL A   1      35.331  21.049  25.661  1.00  0.00     0.118 C 
BRANCH  72  73
ATOM     73  N   UNL A   1      34.484  20.031  25.058  1.00  0.00    -0.352 N 
ATOM     74  C   UNL A   1      33.292  20.161  24.391  1.00  0.00     0.251 C 
ATOM     75  H   UNL A   1      34.817  19.107  25.142  1.00  0.00     0.163 HD
ATOM     76  O   UNL A   1      32.652  19.160  24.076  1.00  0.00    -0.269 OA
BRANCH  74  77
ATOM     77  C   UNL A   1      32.761  21.499  24.068  1.00  0.00     0.039 A 
ATOM     78  C   UNL A   1      31.712  22.003  24.838  1.00  0.00     0.014 A 
ATOM     79  C   UNL A   1      33.272  22.244  23.002  1.00  0.00     0.014 A 
ATOM     80  C   UNL A   1      31.230  23.290  24.591  1.00  0.00     0.005 A 
ATOM     81  C   UNL A   1      32.798  23.535  22.764  1.00  0.00     0.005 A 
ATOM     82  C   UNL A   1      31.779  24.081  23.566  1.00  0.00    -0.038 A 
BRANCH  82  83
ATOM     83  C   UNL A   1      31.233  25.481  23.343  1.00  0.00     0.081 C 
ATOM     84  C   UNL A   1      31.873  26.185  22.127  1.00  0.00     0.111 C 
ATOM     85  C   UNL A   1      31.477  26.241  24.596  1.00  0.00     0.093 A 
ATOM     86  C   UNL A   1      32.887  27.263  22.474  1.00  0.00     0.188 C 
ATOM     87  C   UNL A   1      32.291  27.352  24.614  1.00  0.00     0.164 A 
ATOM     88  N   UNL A   1      31.000  25.942  25.844  1.00  0.00    -0.238 NA
ATOM     89  N   UNL A   1      33.048  27.858  23.612  1.00  0.00    -0.198 NA
ATOM     90  N   UNL A   1      32.303  27.775  25.931  1.00  0.00    -0.283 N 
ATOM     91  C   UNL A   1      31.549  26.851  26.628  1.00  0.00     0.206 A 
BRANCH  86  92
ATOM     92  O   UNL A   1      33.653  27.654  21.438  1.00  0.00    -0.496 OA
ATOM     93  H   UNL A   1      34.532  27.943  21.587  1.00  0.00     0.294 HD
ENDBRANCH  86  92
BRANCH  90  94
ATOM     94  C   UNL A   1      32.957  28.912  26.459  1.00  0.00     0.050 A 
ATOM     95  C   UNL A   1      32.247  30.099  26.673  1.00  0.00     0.027 A 
ATOM     96  C   UNL A   1      34.321  28.836  26.775  1.00  0.00     0.047 A 
ATOM     97  C   UNL A   1      32.896  31.194  27.251  1.00  0.00     0.004 A 
ATOM     98  C   UNL A   1      34.967  29.951  27.302  1.00  0.00     0.043 A 
ATOM     99  C   UNL A   1      34.257  31.124  27.558  1.00  0.00     0.020 A 
ATOM    100  Cl  UNL A   1      36.656  29.888  27.626  1.00  0.00    -0.084 Cl
ENDBRANCH  90  94
ENDBRANCH  82  83
ENDBRANCH  74  77
ENDBRANCH  72  73
ENDBRANCH   1  72
TORSDOF 13
ENDMDL
MODEL 3
REMARK VINA RESULT:     -14.5      1.897      2.438
REMARK SMILES O=C(NCCCNC(=O)c1ccc([C@@H]2CC(O)=Nc3c2ncn3-c2cccc(Cl)c2)cc1)c1ccc(-c2c3nc(c(-c4c(F)c(F)c(F)c(F)c4F)c4ccc([nH]4)c(-c4c(F)c(F)c(F)c(F)c4F)c4nc(c(-c5c(F)c(F)c(F)c(F)c5F)c5ccc2[nH]5)C=C4)C=C3)cc1
REMARK SMILES IDX 5 1 4 2 3 3 1 4 2 5 33 7 34 8 95 9 35 10 94 11 36 12 37 13
REMARK SMILES IDX 38 14 88 15 39 16 93 17 87 18 89 19 40 20 92 21 86 22 85 23
REMARK SMILES IDX 41 25 73 26 53 27 72 28 54 29 57 30 71 31 90 32 55 33 56 34
REMARK SMILES IDX 70 36 91 37 58 38 42 39 43 40 51 41 44 42 45 43 49 44 52 45
REMARK SMILES IDX 46 46 47 47 50 48 48 49 74 50 75 51 83 52 76 53 77 54 81 55
REMARK SMILES IDX 84 56 78 57 79 58 82 59 80 60 59 61 60 62 68 63 61 64 62 65
REMARK SMILES IDX 66 66 69 67 63 68 64 69 67 70 65 71 6 72 7 73 8 74 9 76
REMARK SMILES IDX 10 77 11 78 32 79 12 80 31 81 13 82 14 83 15 84 20 85 16 86
REMARK SMILES IDX 19 87 21 88 18 89 23 90 22 91 17 92 24 94 25 95 30 96 26 97
REMARK SMILES IDX 28 98 27 99 29 100
REMARK H PARENT 3 6 89 24 57 35 7 75 17 93
REMARK Flexibility Score: inf
ROOT
ATOM      1  C   UNL A   1      32.901  30.031  25.597  1.00  0.00     0.042 C 
ENDROOT
BRANCH   1   2
ATOM      2  C   UNL A   1      33.358  30.029  27.054  1.00  0.00     0.118 C 
BRANCH   2   3
ATOM      3  N   UNL A   1      33.812  31.317  27.542  1.00  0.00    -0.352 N 
ATOM      4  O   UNL A   1      35.009  33.028  28.253  1.00  0.00    -0.269 OA
ATOM      5  C   UNL A   1      34.997  31.820  28.001  1.00  0.00     0.251 C 
ATOM      6  H   UNL A   1      33.095  31.991  27.542  1.00  0.00     0.163 HD
BRANCH   5   7
ATOM      7  C   UNL A   1      36.235  31.031  28.256  1.00  0.00     0.039 A 
ATOM      8  C   UNL A   1      36.414  29.674  27.985  1.00  0.00     0.014 A 
ATOM      9  C   UNL A   1      37.315  31.747  28.811  1.00  0.00     0.014 A 
ATOM     10  C   UNL A   1      37.614  29.038  28.308  1.00  0.00     0.010 A 
ATOM     11  C   UNL A   1      38.521  31.122  29.117  1.00  0.00     0.010 A 
ATOM     12  C   UNL A   1      38.666  29.758  28.883  1.00  0.00    -0.014 A 
BRANCH  12  13
ATOM     13  C   UNL A   1      39.943  29.074  29.098  1.00  0.00     0.031 A 
ATOM     14  C   UNL A   1      40.339  28.849  30.524  1.00  0.00     0.074 A 
ATOM     15  C   UNL A   1      40.665  28.502  28.114  1.00  0.00     0.049 A 
ATOM     16  N   UNL A   1      41.451  29.156  31.118  1.00  0.00    -0.248 NA
ATOM     17  C   UNL A   1      39.347  28.217  31.408  1.00  0.00     0.031 C 
ATOM     18  C   UNL A   1      40.297  28.320  26.709  1.00  0.00     0.029 A 
ATOM     19  N   UNL A   1      41.867  27.858  28.206  1.00  0.00    -0.354 N 
ATOM     20  C   UNL A   1      41.356  28.643  32.412  1.00  0.00     0.074 A 
ATOM     21  C   UNL A   1      40.014  28.144  32.560  1.00  0.00     0.031 C 
ATOM     22  C   UNL A   1      41.153  27.448  26.133  1.00  0.00     0.029 A 
ATOM     23  C   UNL A   1      42.199  27.113  27.086  1.00  0.00     0.049 A 
ATOM     24  H   UNL A   1      42.447  27.919  29.000  1.00  0.00     0.167 HD
ATOM     25  C   UNL A   1      42.431  28.529  33.242  1.00  0.00     0.037 A 
ATOM     26  C   UNL A   1      43.226  26.237  26.969  1.00  0.00     0.037 A 
ATOM     27  C   UNL A   1      43.513  29.386  32.849  1.00  0.00     0.049 A 
ATOM     28  C   UNL A   1      44.208  26.531  28.038  1.00  0.00     0.074 A 
ATOM     29  C   UNL A   1      43.674  30.753  32.731  1.00  0.00     0.029 A 
ATOM     30  N   UNL A   1      44.597  28.840  32.213  1.00  0.00    -0.354 N 
ATOM     31  N   UNL A   1      44.964  27.592  28.077  1.00  0.00    -0.248 NA
ATOM     32  C   UNL A   1      44.099  25.794  29.288  1.00  0.00     0.031 C 
ATOM     33  C   UNL A   1      44.546  30.928  31.616  1.00  0.00     0.029 A 
ATOM     34  C   UNL A   1      44.877  29.658  31.149  1.00  0.00     0.049 A 
ATOM     35  H   UNL A   1      45.080  28.021  32.471  1.00  0.00     0.167 HD
ATOM     36  C   UNL A   1      45.080  27.889  29.425  1.00  0.00     0.074 A 
ATOM     37  C   UNL A   1      44.631  26.690  30.121  1.00  0.00     0.031 C 
ATOM     38  C   UNL A   1      45.268  29.173  29.848  1.00  0.00     0.037 A 
BRANCH  25  39
ATOM     39  C   UNL A   1      42.595  27.446  34.278  1.00  0.00     0.064 A 
ATOM     40  C   UNL A   1      43.175  26.209  33.925  1.00  0.00     0.173 A 
ATOM     41  C   UNL A   1      41.951  27.483  35.532  1.00  0.00     0.173 A 
ATOM     42  F   UNL A   1      43.779  26.051  32.739  1.00  0.00    -0.203 F 
ATOM     43  C   UNL A   1      43.075  25.086  34.751  1.00  0.00     0.198 A 
ATOM     44  C   UNL A   1      41.898  26.373  36.376  1.00  0.00     0.198 A 
ATOM     45  F   UNL A   1      41.263  28.557  35.938  1.00  0.00    -0.203 F 
ATOM     46  F   UNL A   1      43.547  23.905  34.328  1.00  0.00    -0.200 F 
ATOM     47  C   UNL A   1      42.436  25.168  35.975  1.00  0.00     0.200 A 
ATOM     48  F   UNL A   1      41.255  26.466  37.549  1.00  0.00    -0.200 F 
ATOM     49  F   UNL A   1      42.295  24.080  36.744  1.00  0.00    -0.200 F 
ENDBRANCH  25  39
BRANCH  26  50
ATOM     50  C   UNL A   1      43.293  24.998  26.162  1.00  0.00     0.064 A 
ATOM     51  C   UNL A   1      44.338  24.779  25.250  1.00  0.00     0.173 A 
ATOM     52  C   UNL A   1      42.485  23.887  26.472  1.00  0.00     0.173 A 
ATOM     53  F   UNL A   1      45.182  25.772  24.938  1.00  0.00    -0.203 F 
ATOM     54  C   UNL A   1      44.573  23.515  24.696  1.00  0.00     0.198 A 
ATOM     55  C   UNL A   1      42.714  22.630  25.912  1.00  0.00     0.198 A 
ATOM     56  F   UNL A   1      41.519  23.978  27.396  1.00  0.00    -0.203 F 
ATOM     57  F   UNL A   1      45.617  23.328  23.877  1.00  0.00    -0.200 F 
ATOM     58  C   UNL A   1      43.767  22.441  25.036  1.00  0.00     0.200 A 
ATOM     59  F   UNL A   1      41.949  21.592  26.276  1.00  0.00    -0.200 F 
ATOM     60  F   UNL A   1      44.027  21.219  24.552  1.00  0.00    -0.200 F 
ENDBRANCH  26  50
BRANCH  38  61
ATOM     61  C   UNL A   1      45.631  30.202  28.816  1.00  0.00     0.064 A 
ATOM     62  C   UNL A   1      44.688  30.879  28.022  1.00  0.00     0.173 A 
ATOM     63  C   UNL A   1      46.967  30.614  28.718  1.00  0.00     0.173 A 
ATOM     64  F   UNL A   1      43.378  30.621  28.136  1.00  0.00    -0.203 F 
ATOM     65  C   UNL A   1      45.074  31.880  27.133  1.00  0.00     0.198 A 
ATOM     66  C   UNL A   1      47.345  31.643  27.859  1.00  0.00     0.198 A 
ATOM     67  F   UNL A   1      47.904  30.049  29.496  1.00  0.00    -0.203 F 
ATOM     68  F   UNL A   1      44.155  32.498  26.375  1.00  0.00    -0.200 F 
ATOM     69  C   UNL A   1      46.402  32.265  27.057  1.00  0.00     0.200 A 
ATOM     70  F   UNL A   1      48.622  32.050  27.827  1.00  0.00    -0.200 F 
ATOM     71  F   UNL A   1      46.767  33.259  26.233  1.00  0.00    -0.200 F 
ENDBRANCH  38  61
ENDBRANCH  12  13
ENDBRANCH   5   7
ENDBRANCH   2   3
ENDBRANCH   1   2
BRANCH   1  72
ATOM     72  C   UNL A   1      31.386  30.078  25.410  1.00  0.00     0.118 C 
BRANCH  72  73
ATOM     73  N   UNL A   1      30.969  29.698  24.068  1.00  0.00    -0.352 N 
ATOM     74  C   UNL A   1      31.222  28.550  23.360  1.00  0.00     0.251 C 
ATOM     75  H   UNL A   1      30.421  30.367  23.595  1.00  0.00     0.163 HD
ATOM     76  O   UNL A   1      30.899  28.474  22.177  1.00  0.00    -0.269 OA
BRANCH  74  77
ATOM     77  C   UNL A   1      31.901  27.411  24.007  1.00  0.00     0.039 A 
ATOM     78  C   UNL A   1      33.160  27.033  23.538  1.00  0.00     0.014 A 
ATOM     79  C   UNL A   1      31.298  26.703  25.049  1.00  0.00     0.014 A 
ATOM     80  C   UNL A   1      33.850  25.996  24.169  1.00  0.00     0.005 A 
ATOM     81  C   UNL A   1      31.993  25.675  25.688  1.00  0.00     0.005 A 
ATOM     82  C   UNL A   1      33.286  25.317  25.265  1.00  0.00    -0.038 A 
BRANCH  82  83
ATOM     83  C   UNL A   1      34.079  24.205  25.930  1.00  0.00     0.081 C 
ATOM     84  C   UNL A   1      35.537  24.128  25.427  1.00  0.00     0.111 C 
ATOM     85  C   UNL A   1      33.348  22.940  25.665  1.00  0.00     0.093 A 
ATOM     86  C   UNL A   1      35.823  22.974  24.479  1.00  0.00     0.188 C 
ATOM     87  C   UNL A   1      33.922  21.919  24.941  1.00  0.00     0.164 A 
ATOM     88  N   UNL A   1      32.065  22.639  26.037  1.00  0.00    -0.238 NA
ATOM     89  N   UNL A   1      35.110  21.911  24.291  1.00  0.00    -0.198 NA
ATOM     90  N   UNL A   1      32.957  20.929  24.876  1.00  0.00    -0.283 N 
ATOM     91  C   UNL A   1      31.844  21.449  25.510  1.00  0.00     0.206 A 
BRANCH  86  92
ATOM     92  O   UNL A   1      36.989  23.084  23.814  1.00  0.00    -0.496 OA
ATOM     93  H   UNL A   1      37.725  23.494  24.222  1.00  0.00     0.294 HD
ENDBRANCH  86  92
BRANCH  90  94
ATOM     94  C   UNL A   1      33.077  19.653  24.279  1.00  0.00     0.050 A 
ATOM     95  C   UNL A   1      32.353  19.345  23.122  1.00  0.00     0.027 A 
ATOM     96  C   UNL A   1      33.934  18.703  24.852  1.00  0.00     0.047 A 
ATOM     97  C   UNL A   1      32.528  18.099  22.513  1.00  0.00     0.004 A 
ATOM     98  C   UNL A   1      34.060  17.448  24.263  1.00  0.00     0.043 A 
ATOM     99  C   UNL A   1      33.375  17.148  23.086  1.00  0.00     0.020 A 
ATOM    100  Cl  UNL A   1      35.055  16.253  25.000  1.00  0.00    -0.084 Cl
ENDBRANCH  90  94
ENDBRANCH  82  83
ENDBRANCH  74  77
ENDBRANCH  72  73
ENDBRANCH   1  72
TORSDOF 13
ENDMDL
