MODEL 1
REMARK VINA RESULT:     -11.2      0.000      0.000
REMARK SMILES CC(C)[C@@H](NC(=O)[C@H]1CCCO1)C(=O)NCCCNC(=O)c1ccc(-c2c3nc(c(-c4c(F)c(F)c(F)c(F)c4F)c4ccc([nH]4)c(-c4c(F)c(F)c(F)c(F)c4F)c4nc(c(-c5c(F)c(F)c(F)c(F)c5F)c5ccc2[nH]5)C=C4)C=C3)cc1
REMARK SMILES IDX 17 1 16 2 15 3 13 4 14 5 4 7 2 8 1 9 3 10 5 11 6 12 7 14
REMARK SMILES IDX 8 15 9 16 12 17 10 18 11 19 18 20 19 21 20 22 21 24 22 25
REMARK SMILES IDX 23 26 84 27 24 28 83 29 25 30 26 31 27 32 77 33 28 34 82 35
REMARK SMILES IDX 76 36 78 37 29 38 81 39 75 40 74 41 30 43 62 44 42 45 61 46
REMARK SMILES IDX 43 47 46 48 60 49 79 50 44 51 45 52 59 54 80 55 47 56 31 57
REMARK SMILES IDX 32 58 40 59 33 60 34 61 38 62 41 63 35 64 36 65 39 66 37 67
REMARK SMILES IDX 63 68 64 69 72 70 65 71 66 72 70 73 73 74 67 75 68 76 71 77
REMARK SMILES IDX 69 78 48 79 49 80 57 81 50 82 51 83 55 84 58 85 52 86 53 87
REMARK SMILES IDX 56 88 54 89
REMARK H PARENT 15 6 5 13 19 23 78 42 46 53
REMARK Flexibility Score: inf
ROOT
ATOM      1  C   UNL A   1      34.942  33.063  27.723  1.00  0.00     0.042 C 
ENDROOT
BRANCH   1   2
ATOM      2  C   UNL A   1      35.067  34.467  28.277  1.00  0.00     0.117 C 
BRANCH   2   3
ATOM      3  N   UNL A   1      33.813  35.190  28.256  1.00  0.00    -0.354 N 
ATOM      4  C   UNL A   1      33.223  35.887  29.275  1.00  0.00     0.242 C 
ATOM      5  O   UNL A   1      32.153  36.454  29.034  1.00  0.00    -0.273 OA
ATOM      6  H   UNL A   1      33.323  35.179  27.402  1.00  0.00     0.163 HD
BRANCH   4   7
ATOM      7  C   UNL A   1      33.754  35.757  30.721  1.00  0.00     0.174 C 
BRANCH   7   8
ATOM      8  C   UNL A   1      32.917  36.759  31.599  1.00  0.00     0.015 C 
ATOM      9  C   UNL A   1      31.859  36.078  32.473  1.00  0.00     0.010 C 
ATOM     10  C   UNL A   1      33.786  37.649  32.501  1.00  0.00     0.010 C 
ENDBRANCH   7   8
BRANCH   7  11
ATOM     11  N   UNL A   1      33.654  34.390  31.277  1.00  0.00    -0.342 N 
ATOM     12  C   UNL A   1      34.486  33.618  32.025  1.00  0.00     0.249 C 
ATOM     13  H   UNL A   1      32.803  33.944  31.059  1.00  0.00     0.164 HD
ATOM     14  O   UNL A   1      33.970  32.601  32.504  1.00  0.00    -0.272 OA
BRANCH  12  15
ATOM     15  C   UNL A   1      35.976  33.955  32.292  1.00  0.00     0.207 C 
ATOM     16  C   UNL A   1      36.646  32.845  33.116  1.00  0.00     0.044 C 
ATOM     17  O   UNL A   1      36.808  34.145  31.154  1.00  0.00    -0.368 OA
ATOM     18  C   UNL A   1      37.449  32.087  32.087  1.00  0.00     0.032 C 
ATOM     19  C   UNL A   1      37.884  33.200  31.169  1.00  0.00     0.161 C 
ENDBRANCH  12  15
ENDBRANCH   7  11
ENDBRANCH   4   7
ENDBRANCH   2   3
ENDBRANCH   1   2
BRANCH   1  20
ATOM     20  C   UNL A   1      34.445  32.057  28.744  1.00  0.00     0.118 C 
BRANCH  20  21
ATOM     21  N   UNL A   1      34.032  30.784  28.170  1.00  0.00    -0.352 N 
ATOM     22  C   UNL A   1      34.800  29.658  27.976  1.00  0.00     0.251 C 
ATOM     23  H   UNL A   1      33.091  30.722  27.886  1.00  0.00     0.163 HD
ATOM     24  O   UNL A   1      34.335  28.654  27.456  1.00  0.00    -0.269 OA
BRANCH  22  25
ATOM     25  C   UNL A   1      36.230  29.728  28.336  1.00  0.00     0.039 A 
ATOM     26  C   UNL A   1      36.606  29.327  29.619  1.00  0.00     0.014 A 
ATOM     27  C   UNL A   1      37.190  30.024  27.365  1.00  0.00     0.014 A 
ATOM     28  C   UNL A   1      37.953  29.116  29.898  1.00  0.00     0.010 A 
ATOM     29  C   UNL A   1      38.524  29.734  27.619  1.00  0.00     0.010 A 
ATOM     30  C   UNL A   1      38.913  29.259  28.881  1.00  0.00    -0.014 A 
BRANCH  30  31
ATOM     31  C   UNL A   1      40.325  28.879  29.113  1.00  0.00     0.031 A 
ATOM     32  C   UNL A   1      41.249  29.829  29.812  1.00  0.00     0.074 A 
ATOM     33  C   UNL A   1      40.782  27.707  28.629  1.00  0.00     0.049 A 
ATOM     34  N   UNL A   1      42.524  29.698  30.074  1.00  0.00    -0.248 NA
ATOM     35  C   UNL A   1      40.672  31.109  30.250  1.00  0.00     0.031 C 
ATOM     36  C   UNL A   1      39.989  26.735  27.873  1.00  0.00     0.029 A 
ATOM     37  N   UNL A   1      42.027  27.136  28.697  1.00  0.00    -0.354 N 
ATOM     38  C   UNL A   1      42.902  30.881  30.693  1.00  0.00     0.074 A 
ATOM     39  C   UNL A   1      41.738  31.738  30.722  1.00  0.00     0.031 C 
ATOM     40  C   UNL A   1      40.759  25.678  27.571  1.00  0.00     0.029 A 
ATOM     41  C   UNL A   1      42.104  25.907  28.089  1.00  0.00     0.049 A 
ATOM     42  H   UNL A   1      42.794  27.567  29.139  1.00  0.00     0.167 HD
ATOM     43  C   UNL A   1      44.107  31.210  31.213  1.00  0.00     0.037 A 
ATOM     44  C   UNL A   1      43.144  25.060  27.971  1.00  0.00     0.037 A 
ATOM     45  C   UNL A   1      45.253  30.340  31.206  1.00  0.00     0.049 A 
ATOM     46  C   UNL A   1      44.463  25.437  28.586  1.00  0.00     0.074 A 
ATOM     47  C   UNL A   1      46.503  30.554  31.759  1.00  0.00     0.029 A 
ATOM     48  N   UNL A   1      45.282  29.085  30.617  1.00  0.00    -0.354 N 
ATOM     49  N   UNL A   1      44.790  26.527  29.237  1.00  0.00    -0.248 NA
ATOM     50  C   UNL A   1      45.557  24.464  28.458  1.00  0.00     0.031 C 
ATOM     51  C   UNL A   1      47.299  29.438  31.477  1.00  0.00     0.029 A 
ATOM     52  C   UNL A   1      46.534  28.516  30.781  1.00  0.00     0.049 A 
ATOM     53  H   UNL A   1      44.526  28.661  30.151  1.00  0.00     0.167 HD
ATOM     54  C   UNL A   1      46.114  26.363  29.617  1.00  0.00     0.074 A 
ATOM     55  C   UNL A   1      46.528  25.060  29.134  1.00  0.00     0.031 C 
ATOM     56  C   UNL A   1      46.917  27.214  30.300  1.00  0.00     0.037 A 
BRANCH  43  57
ATOM     57  C   UNL A   1      44.236  32.564  31.840  1.00  0.00     0.064 A 
ATOM     58  C   UNL A   1      44.653  33.679  31.095  1.00  0.00     0.173 A 
ATOM     59  C   UNL A   1      43.931  32.755  33.195  1.00  0.00     0.173 A 
ATOM     60  F   UNL A   1      44.974  33.542  29.800  1.00  0.00    -0.203 F 
ATOM     61  C   UNL A   1      44.789  34.928  31.693  1.00  0.00     0.198 A 
ATOM     62  C   UNL A   1      44.041  34.012  33.783  1.00  0.00     0.198 A 
ATOM     63  F   UNL A   1      43.527  31.722  33.950  1.00  0.00    -0.203 F 
ATOM     64  F   UNL A   1      45.237  35.967  30.975  1.00  0.00    -0.200 F 
ATOM     65  C   UNL A   1      44.478  35.096  33.034  1.00  0.00     0.200 A 
ATOM     66  F   UNL A   1      43.735  34.174  35.077  1.00  0.00    -0.200 F 
ATOM     67  F   UNL A   1      44.609  36.299  33.607  1.00  0.00    -0.200 F 
ENDBRANCH  43  57
BRANCH  44  68
ATOM     68  C   UNL A   1      42.967  23.757  27.280  1.00  0.00     0.064 A 
ATOM     69  C   UNL A   1      42.421  22.657  27.955  1.00  0.00     0.173 A 
ATOM     70  C   UNL A   1      43.335  23.585  25.939  1.00  0.00     0.173 A 
ATOM     71  F   UNL A   1      42.070  22.769  29.244  1.00  0.00    -0.203 F 
ATOM     72  C   UNL A   1      42.267  21.427  27.319  1.00  0.00     0.198 A 
ATOM     73  C   UNL A   1      43.159  22.361  25.297  1.00  0.00     0.198 A 
ATOM     74  F   UNL A   1      43.856  24.609  25.249  1.00  0.00    -0.203 F 
ATOM     75  F   UNL A   1      41.776  20.381  27.999  1.00  0.00    -0.200 F 
ATOM     76  C   UNL A   1      42.631  21.281  25.989  1.00  0.00     0.200 A 
ATOM     77  F   UNL A   1      43.502  22.226  24.008  1.00  0.00    -0.200 F 
ATOM     78  F   UNL A   1      42.480  20.099  25.377  1.00  0.00    -0.200 F 
ENDBRANCH  44  68
BRANCH  56  79
ATOM     79  C   UNL A   1      48.312  26.752  30.589  1.00  0.00     0.064 A 
ATOM     80  C   UNL A   1      48.602  25.952  31.703  1.00  0.00     0.173 A 
ATOM     81  C   UNL A   1      49.362  27.076  29.716  1.00  0.00     0.173 A 
ATOM     82  F   UNL A   1      47.632  25.631  32.573  1.00  0.00    -0.203 F 
ATOM     83  C   UNL A   1      49.898  25.505  31.942  1.00  0.00     0.198 A 
ATOM     84  C   UNL A   1      50.651  26.609  29.946  1.00  0.00     0.198 A 
ATOM     85  F   UNL A   1      49.131  27.837  28.635  1.00  0.00    -0.203 F 
ATOM     86  F   UNL A   1      50.160  24.771  33.033  1.00  0.00    -0.200 F 
ATOM     87  C   UNL A   1      50.919  25.828  31.061  1.00  0.00     0.200 A 
ATOM     88  F   UNL A   1      51.636  26.913  29.090  1.00  0.00    -0.200 F 
ATOM     89  F   UNL A   1      52.165  25.391  31.290  1.00  0.00    -0.200 F 
ENDBRANCH  56  79
ENDBRANCH  30  31
ENDBRANCH  22  25
ENDBRANCH  20  21
ENDBRANCH   1  20
TORSDOF 13
ENDMDL
MODEL 2
REMARK VINA RESULT:     -11.0      4.169      6.746
REMARK SMILES CC(C)[C@@H](NC(=O)[C@H]1CCCO1)C(=O)NCCCNC(=O)c1ccc(-c2c3nc(c(-c4c(F)c(F)c(F)c(F)c4F)c4ccc([nH]4)c(-c4c(F)c(F)c(F)c(F)c4F)c4nc(c(-c5c(F)c(F)c(F)c(F)c5F)c5ccc2[nH]5)C=C4)C=C3)cc1
REMARK SMILES IDX 17 1 16 2 15 3 13 4 14 5 4 7 2 8 1 9 3 10 5 11 6 12 7 14
REMARK SMILES IDX 8 15 9 16 12 17 10 18 11 19 18 20 19 21 20 22 21 24 22 25
REMARK SMILES IDX 23 26 84 27 24 28 83 29 25 30 26 31 27 32 77 33 28 34 82 35
REMARK SMILES IDX 76 36 78 37 29 38 81 39 75 40 74 41 30 43 62 44 42 45 61 46
REMARK SMILES IDX 43 47 46 48 60 49 79 50 44 51 45 52 59 54 80 55 47 56 31 57
REMARK SMILES IDX 32 58 40 59 33 60 34 61 38 62 41 63 35 64 36 65 39 66 37 67
REMARK SMILES IDX 63 68 64 69 72 70 65 71 66 72 70 73 73 74 67 75 68 76 71 77
REMARK SMILES IDX 69 78 48 79 49 80 57 81 50 82 51 83 55 84 58 85 52 86 53 87
REMARK SMILES IDX 56 88 54 89
REMARK H PARENT 15 6 5 13 19 23 78 42 46 53
REMARK Flexibility Score: inf
ROOT
ATOM      1  C   UNL A   1      31.782  29.099  26.927  1.00  0.00     0.042 C 
ENDROOT
BRANCH   1   2
ATOM      2  C   UNL A   1      32.169  27.667  26.621  1.00  0.00     0.117 C 
BRANCH   2   3
ATOM      3  N   UNL A   1      31.188  26.985  25.803  1.00  0.00    -0.354 N 
ATOM      4  C   UNL A   1      31.020  27.059  24.448  1.00  0.00     0.242 C 
ATOM      5  O   UNL A   1      30.126  26.371  23.945  1.00  0.00    -0.273 OA
ATOM      6  H   UNL A   1      30.563  26.394  26.283  1.00  0.00     0.163 HD
BRANCH   4   7
ATOM      7  C   UNL A   1      31.754  28.144  23.627  1.00  0.00     0.174 C 
BRANCH   7   8
ATOM      8  C   UNL A   1      33.121  27.512  23.168  1.00  0.00     0.015 C 
ATOM      9  C   UNL A   1      32.982  26.523  22.006  1.00  0.00     0.010 C 
ATOM     10  C   UNL A   1      34.177  28.561  22.785  1.00  0.00     0.010 C 
ENDBRANCH   7   8
BRANCH   7  11
ATOM     11  N   UNL A   1      30.997  28.623  22.451  1.00  0.00    -0.342 N 
ATOM     12  C   UNL A   1      29.941  29.466  22.294  1.00  0.00     0.249 C 
ATOM     13  H   UNL A   1      31.327  28.253  21.600  1.00  0.00     0.164 HD
ATOM     14  O   UNL A   1      29.717  29.816  21.129  1.00  0.00    -0.272 OA
BRANCH  12  15
ATOM     15  C   UNL A   1      29.063  29.984  23.463  1.00  0.00     0.207 C 
ATOM     16  C   UNL A   1      29.622  31.301  24.023  1.00  0.00     0.044 C 
ATOM     17  O   UNL A   1      27.693  30.238  23.177  1.00  0.00    -0.368 OA
ATOM     18  C   UNL A   1      28.700  32.344  23.438  1.00  0.00     0.032 C 
ATOM     19  C   UNL A   1      27.383  31.612  23.439  1.00  0.00     0.161 C 
ENDBRANCH  12  15
ENDBRANCH   7  11
ENDBRANCH   4   7
ENDBRANCH   2   3
ENDBRANCH   1   2
BRANCH   1  20
ATOM     20  C   UNL A   1      32.747  30.118  26.351  1.00  0.00     0.118 C 
BRANCH  20  21
ATOM     21  N   UNL A   1      32.572  31.464  26.877  1.00  0.00    -0.352 N 
ATOM     22  C   UNL A   1      33.485  32.220  27.578  1.00  0.00     0.251 C 
ATOM     23  H   UNL A   1      31.697  31.884  26.713  1.00  0.00     0.163 HD
ATOM     24  O   UNL A   1      33.203  33.336  27.990  1.00  0.00    -0.269 OA
BRANCH  22  25
ATOM     25  C   UNL A   1      34.790  31.607  27.895  1.00  0.00     0.039 A 
ATOM     26  C   UNL A   1      35.899  32.445  28.015  1.00  0.00     0.014 A 
ATOM     27  C   UNL A   1      34.873  30.253  28.231  1.00  0.00     0.014 A 
ATOM     28  C   UNL A   1      37.071  31.947  28.580  1.00  0.00     0.010 A 
ATOM     29  C   UNL A   1      36.012  29.780  28.868  1.00  0.00     0.010 A 
ATOM     30  C   UNL A   1      37.112  30.629  29.065  1.00  0.00    -0.014 A 
BRANCH  30  31
ATOM     31  C   UNL A   1      38.288  30.136  29.816  1.00  0.00     0.031 A 
ATOM     32  C   UNL A   1      38.527  30.599  31.220  1.00  0.00     0.074 A 
ATOM     33  C   UNL A   1      39.174  29.326  29.201  1.00  0.00     0.049 A 
ATOM     34  N   UNL A   1      39.517  30.314  32.027  1.00  0.00    -0.248 NA
ATOM     35  C   UNL A   1      37.538  31.530  31.785  1.00  0.00     0.031 C 
ATOM     36  C   UNL A   1      39.079  28.866  27.813  1.00  0.00     0.029 A 
ATOM     37  N   UNL A   1      40.329  28.750  29.661  1.00  0.00    -0.354 N 
ATOM     38  C   UNL A   1      39.276  31.039  33.185  1.00  0.00     0.074 A 
ATOM     39  C   UNL A   1      38.077  31.817  32.960  1.00  0.00     0.031 C 
ATOM     40  C   UNL A   1      40.117  28.058  27.545  1.00  0.00     0.029 A 
ATOM     41  C   UNL A   1      40.963  27.962  28.730  1.00  0.00     0.049 A 
ATOM     42  H   UNL A   1      40.674  28.888  30.573  1.00  0.00     0.167 HD
ATOM     43  C   UNL A   1      39.979  31.035  34.342  1.00  0.00     0.037 A 
ATOM     44  C   UNL A   1      42.094  27.242  28.829  1.00  0.00     0.037 A 
ATOM     45  C   UNL A   1      41.153  30.237  34.568  1.00  0.00     0.049 A 
ATOM     46  C   UNL A   1      42.839  27.229  30.136  1.00  0.00     0.074 A 
ATOM     47  C   UNL A   1      41.906  30.114  35.723  1.00  0.00     0.029 A 
ATOM     48  N   UNL A   1      41.743  29.420  33.615  1.00  0.00    -0.354 N 
ATOM     49  N   UNL A   1      42.560  27.860  31.251  1.00  0.00    -0.248 NA
ATOM     50  C   UNL A   1      44.050  26.400  30.201  1.00  0.00     0.031 C 
ATOM     51  C   UNL A   1      42.969  29.244  35.458  1.00  0.00     0.029 A 
ATOM     52  C   UNL A   1      42.858  28.798  34.151  1.00  0.00     0.049 A 
ATOM     53  H   UNL A   1      41.417  29.299  32.694  1.00  0.00     0.167 HD
ATOM     54  C   UNL A   1      43.543  27.487  32.156  1.00  0.00     0.074 A 
ATOM     55  C   UNL A   1      44.420  26.564  31.463  1.00  0.00     0.031 C 
ATOM     56  C   UNL A   1      43.708  27.875  33.444  1.00  0.00     0.037 A 
BRANCH  43  57
ATOM     57  C   UNL A   1      39.483  31.915  35.448  1.00  0.00     0.064 A 
ATOM     58  C   UNL A   1      39.920  33.243  35.579  1.00  0.00     0.173 A 
ATOM     59  C   UNL A   1      38.554  31.433  36.382  1.00  0.00     0.173 A 
ATOM     60  F   UNL A   1      40.822  33.743  34.720  1.00  0.00    -0.203 F 
ATOM     61  C   UNL A   1      39.468  34.044  36.622  1.00  0.00     0.198 A 
ATOM     62  C   UNL A   1      38.084  32.247  37.408  1.00  0.00     0.198 A 
ATOM     63  F   UNL A   1      38.105  30.172  36.300  1.00  0.00    -0.203 F 
ATOM     64  F   UNL A   1      39.938  35.293  36.757  1.00  0.00    -0.200 F 
ATOM     65  C   UNL A   1      38.547  33.550  37.533  1.00  0.00     0.200 A 
ATOM     66  F   UNL A   1      37.189  31.770  38.284  1.00  0.00    -0.200 F 
ATOM     67  F   UNL A   1      38.114  34.323  38.536  1.00  0.00    -0.200 F 
ENDBRANCH  43  57
BRANCH  44  68
ATOM     68  C   UNL A   1      42.568  26.439  27.672  1.00  0.00     0.064 A 
ATOM     69  C   UNL A   1      42.066  25.151  27.441  1.00  0.00     0.173 A 
ATOM     70  C   UNL A   1      43.525  26.938  26.779  1.00  0.00     0.173 A 
ATOM     71  F   UNL A   1      41.162  24.625  28.279  1.00  0.00    -0.203 F 
ATOM     72  C   UNL A   1      42.516  24.385  26.367  1.00  0.00     0.198 A 
ATOM     73  C   UNL A   1      43.958  26.181  25.692  1.00  0.00     0.198 A 
ATOM     74  F   UNL A   1      44.032  28.167  26.954  1.00  0.00    -0.203 F 
ATOM     75  F   UNL A   1      42.046  23.143  26.190  1.00  0.00    -0.200 F 
ATOM     76  C   UNL A   1      43.458  24.902  25.491  1.00  0.00     0.200 A 
ATOM     77  F   UNL A   1      44.861  26.687  24.841  1.00  0.00    -0.200 F 
ATOM     78  F   UNL A   1      43.890  24.167  24.457  1.00  0.00    -0.200 F 
ENDBRANCH  44  68
BRANCH  56  79
ATOM     79  C   UNL A   1      44.862  27.283  34.193  1.00  0.00     0.064 A 
ATOM     80  C   UNL A   1      46.109  27.922  34.239  1.00  0.00     0.173 A 
ATOM     81  C   UNL A   1      44.704  26.087  34.908  1.00  0.00     0.173 A 
ATOM     82  F   UNL A   1      46.310  29.059  33.556  1.00  0.00    -0.203 F 
ATOM     83  C   UNL A   1      47.163  27.375  34.964  1.00  0.00     0.198 A 
ATOM     84  C   UNL A   1      45.753  25.555  35.651  1.00  0.00     0.198 A 
ATOM     85  F   UNL A   1      43.527  25.442  34.896  1.00  0.00    -0.203 F 
ATOM     86  F   UNL A   1      48.358  27.982  34.967  1.00  0.00    -0.200 F 
ATOM     87  C   UNL A   1      46.983  26.197  35.674  1.00  0.00     0.200 A 
ATOM     88  F   UNL A   1      45.576  24.422  36.344  1.00  0.00    -0.200 F 
ATOM     89  F   UNL A   1      47.998  25.675  36.377  1.00  0.00    -0.200 F 
ENDBRANCH  56  79
ENDBRANCH  30  31
ENDBRANCH  22  25
ENDBRANCH  20  21
ENDBRANCH   1  20
TORSDOF 13
ENDMDL
MODEL 3
REMARK VINA RESULT:     -10.9      4.284      7.521
REMARK SMILES CC(C)[C@@H](NC(=O)[C@H]1CCCO1)C(=O)NCCCNC(=O)c1ccc(-c2c3nc(c(-c4c(F)c(F)c(F)c(F)c4F)c4ccc([nH]4)c(-c4c(F)c(F)c(F)c(F)c4F)c4nc(c(-c5c(F)c(F)c(F)c(F)c5F)c5ccc2[nH]5)C=C4)C=C3)cc1
REMARK SMILES IDX 17 1 16 2 15 3 13 4 14 5 4 7 2 8 1 9 3 10 5 11 6 12 7 14
REMARK SMILES IDX 8 15 9 16 12 17 10 18 11 19 18 20 19 21 20 22 21 24 22 25
REMARK SMILES IDX 23 26 84 27 24 28 83 29 25 30 26 31 27 32 77 33 28 34 82 35
REMARK SMILES IDX 76 36 78 37 29 38 81 39 75 40 74 41 30 43 62 44 42 45 61 46
REMARK SMILES IDX 43 47 46 48 60 49 79 50 44 51 45 52 59 54 80 55 47 56 31 57
REMARK SMILES IDX 32 58 40 59 33 60 34 61 38 62 41 63 35 64 36 65 39 66 37 67
REMARK SMILES IDX 63 68 64 69 72 70 65 71 66 72 70 73 73 74 67 75 68 76 71 77
REMARK SMILES IDX 69 78 48 79 49 80 57 81 50 82 51 83 55 84 58 85 52 86 53 87
REMARK SMILES IDX 56 88 54 89
REMARK H PARENT 15 6 5 13 19 23 78 42 46 53
REMARK Flexibility Score: inf
ROOT
ATOM      1  C   UNL A   1      32.000  31.585  26.926  1.00  0.00     0.042 C 
ENDROOT
BRANCH   1   2
ATOM      2  C   UNL A   1      32.598  30.254  26.520  1.00  0.00     0.117 C 
BRANCH   2   3
ATOM      3  N   UNL A   1      31.980  29.133  27.197  1.00  0.00    -0.354 N 
ATOM      4  C   UNL A   1      31.663  27.906  26.682  1.00  0.00     0.242 C 
ATOM      5  O   UNL A   1      31.155  27.080  27.447  1.00  0.00    -0.273 OA
ATOM      6  H   UNL A   1      31.761  29.271  28.147  1.00  0.00     0.163 HD
BRANCH   4   7
ATOM      7  C   UNL A   1      31.711  27.663  25.156  1.00  0.00     0.174 C 
BRANCH   7   8
ATOM      8  C   UNL A   1      32.675  26.441  24.926  1.00  0.00     0.015 C 
ATOM      9  C   UNL A   1      32.967  26.156  23.449  1.00  0.00     0.010 C 
ATOM     10  C   UNL A   1      34.016  26.577  25.665  1.00  0.00     0.010 C 
ENDBRANCH   7   8
BRANCH   7  11
ATOM     11  N   UNL A   1      30.390  27.388  24.550  1.00  0.00    -0.342 N 
ATOM     12  C   UNL A   1      29.627  28.035  23.628  1.00  0.00     0.249 C 
ATOM     13  H   UNL A   1      29.974  26.560  24.885  1.00  0.00     0.164 HD
ATOM     14  O   UNL A   1      28.671  27.384  23.188  1.00  0.00    -0.272 OA
BRANCH  12  15
ATOM     15  C   UNL A   1      29.905  29.477  23.130  1.00  0.00     0.207 C 
ATOM     16  C   UNL A   1      28.850  29.910  22.101  1.00  0.00     0.044 C 
ATOM     17  O   UNL A   1      29.929  30.505  24.113  1.00  0.00    -0.368 OA
ATOM     18  C   UNL A   1      27.946  30.821  22.895  1.00  0.00     0.032 C 
ATOM     19  C   UNL A   1      28.931  31.490  23.818  1.00  0.00     0.161 C 
ENDBRANCH  12  15
ENDBRANCH   7  11
ENDBRANCH   4   7
ENDBRANCH   2   3
ENDBRANCH   1   2
BRANCH   1  20
ATOM     20  C   UNL A   1      33.030  32.573  27.441  1.00  0.00     0.118 C 
BRANCH  20  21
ATOM     21  N   UNL A   1      32.497  33.904  27.698  1.00  0.00    -0.352 N 
ATOM     22  C   UNL A   1      32.996  34.860  28.554  1.00  0.00     0.251 C 
ATOM     23  H   UNL A   1      31.683  34.149  27.201  1.00  0.00     0.163 HD
ATOM     24  O   UNL A   1      32.436  35.937  28.699  1.00  0.00    -0.269 OA
BRANCH  22  25
ATOM     25  C   UNL A   1      34.183  34.512  29.360  1.00  0.00     0.039 A 
ATOM     26  C   UNL A   1      33.981  33.891  30.593  1.00  0.00     0.014 A 
ATOM     27  C   UNL A   1      35.466  34.647  28.824  1.00  0.00     0.014 A 
ATOM     28  C   UNL A   1      35.063  33.304  31.244  1.00  0.00     0.010 A 
ATOM     29  C   UNL A   1      36.528  33.991  29.433  1.00  0.00     0.010 A 
ATOM     30  C   UNL A   1      36.330  33.298  30.637  1.00  0.00    -0.014 A 
BRANCH  30  31
ATOM     31  C   UNL A   1      37.452  32.537  31.232  1.00  0.00     0.031 A 
ATOM     32  C   UNL A   1      37.950  32.888  32.601  1.00  0.00     0.074 A 
ATOM     33  C   UNL A   1      38.061  31.579  30.505  1.00  0.00     0.049 A 
ATOM     34  N   UNL A   1      38.942  32.369  33.277  1.00  0.00    -0.248 NA
ATOM     35  C   UNL A   1      37.260  33.988  33.292  1.00  0.00     0.031 C 
ATOM     36  C   UNL A   1      37.705  31.200  29.135  1.00  0.00     0.029 A 
ATOM     37  N   UNL A   1      39.110  30.753  30.814  1.00  0.00    -0.354 N 
ATOM     38  C   UNL A   1      39.003  33.087  34.462  1.00  0.00     0.074 A 
ATOM     39  C   UNL A   1      37.984  34.111  34.394  1.00  0.00     0.031 C 
ATOM     40  C   UNL A   1      38.504  30.199  28.734  1.00  0.00     0.029 A 
ATOM     41  C   UNL A   1      39.443  29.881  29.805  1.00  0.00     0.049 A 
ATOM     42  H   UNL A   1      39.582  30.781  31.678  1.00  0.00     0.167 HD
ATOM     43  C   UNL A   1      39.820  32.891  35.523  1.00  0.00     0.037 A 
ATOM     44  C   UNL A   1      40.395  28.932  29.757  1.00  0.00     0.037 A 
ATOM     45  C   UNL A   1      40.812  31.852  35.596  1.00  0.00     0.049 A 
ATOM     46  C   UNL A   1      41.268  28.713  30.962  1.00  0.00     0.074 A 
ATOM     47  C   UNL A   1      41.651  31.530  36.648  1.00  0.00     0.029 A 
ATOM     48  N   UNL A   1      41.093  30.962  34.570  1.00  0.00    -0.354 N 
ATOM     49  N   UNL A   1      41.267  29.349  32.108  1.00  0.00    -0.248 NA
ATOM     50  C   UNL A   1      42.270  27.642  30.870  1.00  0.00     0.031 C 
ATOM     51  C   UNL A   1      42.461  30.462  36.246  1.00  0.00     0.029 A 
ATOM     52  C   UNL A   1      42.103  30.097  34.958  1.00  0.00     0.049 A 
ATOM     53  H   UNL A   1      40.642  30.947  33.695  1.00  0.00     0.167 HD
ATOM     54  C   UNL A   1      42.245  28.742  32.882  1.00  0.00     0.074 A 
ATOM     55  C   UNL A   1      42.813  27.678  32.078  1.00  0.00     0.031 C 
ATOM     56  C   UNL A   1      42.642  29.040  34.143  1.00  0.00     0.037 A 
BRANCH  43  57
ATOM     57  C   UNL A   1      39.661  33.816  36.690  1.00  0.00     0.064 A 
ATOM     58  C   UNL A   1      38.850  33.480  37.786  1.00  0.00     0.173 A 
ATOM     59  C   UNL A   1      40.331  35.048  36.721  1.00  0.00     0.173 A 
ATOM     60  F   UNL A   1      38.175  32.321  37.793  1.00  0.00    -0.203 F 
ATOM     61  C   UNL A   1      38.693  34.356  38.855  1.00  0.00     0.198 A 
ATOM     62  C   UNL A   1      40.192  35.910  37.806  1.00  0.00     0.198 A 
ATOM     63  F   UNL A   1      41.118  35.416  35.699  1.00  0.00    -0.203 F 
ATOM     64  F   UNL A   1      37.874  34.036  39.866  1.00  0.00    -0.200 F 
ATOM     65  C   UNL A   1      39.367  35.568  38.868  1.00  0.00     0.200 A 
ATOM     66  F   UNL A   1      40.850  37.078  37.819  1.00  0.00    -0.200 F 
ATOM     67  F   UNL A   1      39.215  36.410  39.898  1.00  0.00    -0.200 F 
ENDBRANCH  43  57
BRANCH  44  68
ATOM     68  C   UNL A   1      40.543  28.088  28.543  1.00  0.00     0.064 A 
ATOM     69  C   UNL A   1      41.337  28.511  27.469  1.00  0.00     0.173 A 
ATOM     70  C   UNL A   1      39.900  26.848  28.432  1.00  0.00     0.173 A 
ATOM     71  F   UNL A   1      41.957  29.698  27.522  1.00  0.00    -0.203 F 
ATOM     72  C   UNL A   1      41.468  27.733  26.321  1.00  0.00     0.198 A 
ATOM     73  C   UNL A   1      40.050  26.059  27.293  1.00  0.00     0.198 A 
ATOM     74  F   UNL A   1      39.134  26.396  29.436  1.00  0.00    -0.203 F 
ATOM     75  F   UNL A   1      42.204  28.178  25.293  1.00  0.00    -0.200 F 
ATOM     76  C   UNL A   1      40.829  26.505  26.236  1.00  0.00     0.200 A 
ATOM     77  F   UNL A   1      39.439  24.868  27.219  1.00  0.00    -0.200 F 
ATOM     78  F   UNL A   1      40.957  25.756  25.132  1.00  0.00    -0.200 F 
ENDBRANCH  44  68
BRANCH  56  79
ATOM     79  C   UNL A   1      43.720  28.188  34.739  1.00  0.00     0.064 A 
ATOM     80  C   UNL A   1      45.068  28.566  34.678  1.00  0.00     0.173 A 
ATOM     81  C   UNL A   1      43.395  27.003  35.417  1.00  0.00     0.173 A 
ATOM     82  F   UNL A   1      45.427  29.682  34.026  1.00  0.00    -0.203 F 
ATOM     83  C   UNL A   1      46.056  27.779  35.263  1.00  0.00     0.198 A 
ATOM     84  C   UNL A   1      44.382  26.232  36.020  1.00  0.00     0.198 A 
ATOM     85  F   UNL A   1      42.117  26.603  35.504  1.00  0.00    -0.203 F 
ATOM     86  F   UNL A   1      47.344  28.139  35.162  1.00  0.00    -0.200 F 
ATOM     87  C   UNL A   1      45.712  26.617  35.937  1.00  0.00     0.200 A 
ATOM     88  F   UNL A   1      44.049  25.114  36.680  1.00  0.00    -0.200 F 
ATOM     89  F   UNL A   1      46.665  25.864  36.505  1.00  0.00    -0.200 F 
ENDBRANCH  56  79
ENDBRANCH  30  31
ENDBRANCH  22  25
ENDBRANCH  20  21
ENDBRANCH   1  20
TORSDOF 13
ENDMDL
