MODEL 1
REMARK VINA RESULT:     -12.6      0.000      0.000
REMARK SMILES CC[C@@](C)(NC(=O)Cn1cnc2ccccc21)C(=O)NCCCNC(=O)c1ccc(-c2c3nc(c(-c4c(F)c(F)c(F)c(F)c4F)c4ccc([nH]4)c(-c4c(F)c(F)c(F)c(F)c4F)c4nc(c(-c5c(F)c(F)c(F)c(F)c5F)c5ccc2[nH]5)C=C4)C=C3)cc1
REMARK SMILES IDX 21 1 20 2 18 3 19 4 3 6 4 7 2 8 1 9 5 10 6 11 7 13 8 14 9 15
REMARK SMILES IDX 10 16 17 17 11 18 12 19 16 20 13 21 15 22 14 23 22 24 23 25
REMARK SMILES IDX 24 26 25 27 26 29 27 30 28 31 89 32 29 33 88 34 30 35 31 36
REMARK SMILES IDX 32 37 82 38 33 39 87 40 81 41 83 42 34 43 86 44 80 45 79 46
REMARK SMILES IDX 35 48 67 49 47 50 66 51 48 52 51 53 65 54 84 55 49 56 50 57
REMARK SMILES IDX 64 59 85 60 52 61 36 62 37 63 45 64 38 65 39 66 43 67 46 68
REMARK SMILES IDX 40 69 41 70 44 71 42 72 68 73 69 74 77 75 70 76 71 77 75 78
REMARK SMILES IDX 78 79 72 80 73 81 76 82 74 83 53 84 54 85 62 86 55 87 56 88
REMARK SMILES IDX 60 89 63 90 57 91 58 92 61 93 59 94
REMARK H PARENT 20 5 5 12 24 28 83 47 51 58
REMARK Flexibility Score: inf
ROOT
ATOM      1  C   UNL A   1      32.068  29.966  25.824  1.00  0.00     0.117 C 
ENDROOT
BRANCH   1   2
ATOM      2  N   UNL A   1      32.997  29.769  24.721  1.00  0.00    -0.354 N 
ATOM      3  C   UNL A   1      33.240  28.685  23.916  1.00  0.00     0.245 C 
ATOM      4  O   UNL A   1      33.694  28.949  22.800  1.00  0.00    -0.272 OA
ATOM      5  H   UNL A   1      33.551  30.557  24.515  1.00  0.00     0.163 HD
BRANCH   3   6
ATOM      6  C   UNL A   1      32.809  27.242  24.308  1.00  0.00     0.116 C 
ATOM      7  C   UNL A   1      33.679  26.863  25.534  1.00  0.00     0.045 C 
BRANCH   6   8
ATOM      8  C   UNL A   1      31.321  27.075  24.739  1.00  0.00     0.035 C 
ATOM      9  C   UNL A   1      31.016  26.546  26.136  1.00  0.00     0.007 C 
ENDBRANCH   6   8
BRANCH   6  10
ATOM     10  N   UNL A   1      33.071  26.261  23.216  1.00  0.00    -0.340 N 
ATOM     11  C   UNL A   1      33.409  24.937  23.254  1.00  0.00     0.240 C 
ATOM     12  H   UNL A   1      32.985  26.632  22.308  1.00  0.00     0.164 HD
ATOM     13  O   UNL A   1      33.989  24.489  22.259  1.00  0.00    -0.273 OA
BRANCH  11  14
ATOM     14  C   UNL A   1      32.967  23.984  24.354  1.00  0.00     0.223 C 
BRANCH  14  15
ATOM     15  N   UNL A   1      33.839  22.861  24.608  1.00  0.00    -0.321 N 
ATOM     16  C   UNL A   1      33.498  21.544  24.473  1.00  0.00     0.201 A 
ATOM     17  C   UNL A   1      35.139  22.924  25.055  1.00  0.00     0.068 A 
ATOM     18  N   UNL A   1      34.538  20.762  24.646  1.00  0.00    -0.237 NA
ATOM     19  C   UNL A   1      35.572  21.601  24.990  1.00  0.00     0.088 A 
ATOM     20  C   UNL A   1      35.976  23.972  25.461  1.00  0.00     0.028 A 
ATOM     21  C   UNL A   1      36.914  21.304  25.266  1.00  0.00     0.030 A 
ATOM     22  C   UNL A   1      37.313  23.655  25.730  1.00  0.00     0.002 A 
ATOM     23  C   UNL A   1      37.780  22.346  25.621  1.00  0.00     0.002 A 
ENDBRANCH  14  15
ENDBRANCH  11  14
ENDBRANCH   6  10
ENDBRANCH   3   6
ENDBRANCH   1   2
BRANCH   1  24
ATOM     24  C   UNL A   1      32.686  30.116  27.217  1.00  0.00     0.042 C 
BRANCH  24  25
ATOM     25  C   UNL A   1      34.055  30.788  27.296  1.00  0.00     0.118 C 
BRANCH  25  26
ATOM     26  N   UNL A   1      34.225  31.705  28.398  1.00  0.00    -0.352 N 
ATOM     27  C   UNL A   1      35.240  32.015  29.264  1.00  0.00     0.251 C 
ATOM     28  H   UNL A   1      33.414  32.238  28.569  1.00  0.00     0.163 HD
ATOM     29  O   UNL A   1      35.061  33.017  29.951  1.00  0.00    -0.269 OA
BRANCH  27  30
ATOM     30  C   UNL A   1      36.479  31.214  29.481  1.00  0.00     0.039 A 
ATOM     31  C   UNL A   1      37.787  31.656  29.315  1.00  0.00     0.014 A 
ATOM     32  C   UNL A   1      36.272  29.862  29.833  1.00  0.00     0.014 A 
ATOM     33  C   UNL A   1      38.845  30.746  29.390  1.00  0.00     0.010 A 
ATOM     34  C   UNL A   1      37.326  28.957  29.933  1.00  0.00     0.010 A 
ATOM     35  C   UNL A   1      38.616  29.386  29.661  1.00  0.00    -0.014 A 
BRANCH  35  36
ATOM     36  C   UNL A   1      39.778  28.497  29.760  1.00  0.00     0.031 A 
ATOM     37  C   UNL A   1      40.276  28.324  31.150  1.00  0.00     0.074 A 
ATOM     38  C   UNL A   1      40.371  27.831  28.743  1.00  0.00     0.049 A 
ATOM     39  N   UNL A   1      41.368  28.805  31.646  1.00  0.00    -0.248 NA
ATOM     40  C   UNL A   1      39.413  27.665  32.139  1.00  0.00     0.031 C 
ATOM     41  C   UNL A   1      39.871  27.635  27.381  1.00  0.00     0.029 A 
ATOM     42  N   UNL A   1      41.548  27.123  28.737  1.00  0.00    -0.354 N 
ATOM     43  C   UNL A   1      41.434  28.345  32.958  1.00  0.00     0.074 A 
ATOM     44  C   UNL A   1      40.147  27.773  33.251  1.00  0.00     0.031 C 
ATOM     45  C   UNL A   1      40.612  26.688  26.756  1.00  0.00     0.029 A 
ATOM     46  C   UNL A   1      41.742  26.342  27.602  1.00  0.00     0.049 A 
ATOM     47  H   UNL A   1      42.200  27.165  29.474  1.00  0.00     0.167 HD
ATOM     48  C   UNL A   1      42.638  28.252  33.586  1.00  0.00     0.037 A 
ATOM     49  C   UNL A   1      42.759  25.474  27.367  1.00  0.00     0.037 A 
ATOM     50  C   UNL A   1      43.645  28.994  32.873  1.00  0.00     0.049 A 
ATOM     51  C   UNL A   1      43.919  25.902  28.178  1.00  0.00     0.074 A 
ATOM     52  C   UNL A   1      44.063  30.302  32.772  1.00  0.00     0.029 A 
ATOM     53  N   UNL A   1      44.159  28.317  31.804  1.00  0.00    -0.354 N 
ATOM     54  N   UNL A   1      44.577  27.007  27.969  1.00  0.00    -0.248 NA
ATOM     55  C   UNL A   1      44.197  25.231  29.443  1.00  0.00     0.031 C 
ATOM     56  C   UNL A   1      44.756  30.407  31.527  1.00  0.00     0.029 A 
ATOM     57  C   UNL A   1      44.774  29.155  30.919  1.00  0.00     0.049 A 
ATOM     58  H   UNL A   1      44.093  27.342  31.686  1.00  0.00     0.167 HD
ATOM     59  C   UNL A   1      45.002  27.381  29.224  1.00  0.00     0.074 A 
ATOM     60  C   UNL A   1      44.910  26.183  30.046  1.00  0.00     0.031 C 
ATOM     61  C   UNL A   1      45.050  28.695  29.579  1.00  0.00     0.037 A 
BRANCH  48  62
ATOM     62  C   UNL A   1      43.049  27.125  34.514  1.00  0.00     0.064 A 
ATOM     63  C   UNL A   1      43.255  27.405  35.883  1.00  0.00     0.173 A 
ATOM     64  C   UNL A   1      43.572  25.894  34.064  1.00  0.00     0.173 A 
ATOM     65  F   UNL A   1      42.821  28.557  36.419  1.00  0.00    -0.203 F 
ATOM     66  C   UNL A   1      43.990  26.554  36.713  1.00  0.00     0.198 A 
ATOM     67  C   UNL A   1      44.266  25.025  34.907  1.00  0.00     0.198 A 
ATOM     68  F   UNL A   1      43.541  25.536  32.776  1.00  0.00    -0.203 F 
ATOM     69  F   UNL A   1      44.262  26.919  37.973  1.00  0.00    -0.200 F 
ATOM     70  C   UNL A   1      44.500  25.366  36.223  1.00  0.00     0.200 A 
ATOM     71  F   UNL A   1      44.777  23.892  34.406  1.00  0.00    -0.200 F 
ATOM     72  F   UNL A   1      45.256  24.576  36.996  1.00  0.00    -0.200 F 
ENDBRANCH  48  62
BRANCH  49  73
ATOM     73  C   UNL A   1      42.743  24.152  26.690  1.00  0.00     0.064 A 
ATOM     74  C   UNL A   1      43.443  23.945  25.486  1.00  0.00     0.173 A 
ATOM     75  C   UNL A   1      42.333  22.997  27.380  1.00  0.00     0.173 A 
ATOM     76  F   UNL A   1      43.896  24.991  24.779  1.00  0.00    -0.203 F 
ATOM     77  C   UNL A   1      43.768  22.661  25.035  1.00  0.00     0.198 A 
ATOM     78  C   UNL A   1      42.656  21.716  26.926  1.00  0.00     0.198 A 
ATOM     79  F   UNL A   1      41.706  23.093  28.561  1.00  0.00    -0.203 F 
ATOM     80  F   UNL A   1      44.511  22.508  23.929  1.00  0.00    -0.200 F 
ATOM     81  C   UNL A   1      43.392  21.549  25.767  1.00  0.00     0.200 A 
ATOM     82  F   UNL A   1      42.317  20.647  27.662  1.00  0.00    -0.200 F 
ATOM     83  F   UNL A   1      43.776  20.323  25.383  1.00  0.00    -0.200 F 
ENDBRANCH  49  73
BRANCH  61  84
ATOM     84  C   UNL A   1      45.224  29.709  28.498  1.00  0.00     0.064 A 
ATOM     85  C   UNL A   1      44.173  30.315  27.793  1.00  0.00     0.173 A 
ATOM     86  C   UNL A   1      46.528  30.150  28.235  1.00  0.00     0.173 A 
ATOM     87  F   UNL A   1      42.897  29.988  28.039  1.00  0.00    -0.203 F 
ATOM     88  C   UNL A   1      44.428  31.309  26.850  1.00  0.00     0.198 A 
ATOM     89  C   UNL A   1      46.775  31.165  27.319  1.00  0.00     0.198 A 
ATOM     90  F   UNL A   1      47.564  29.620  28.904  1.00  0.00    -0.203 F 
ATOM     91  F   UNL A   1      43.413  31.877  26.180  1.00  0.00    -0.200 F 
ATOM     92  C   UNL A   1      45.727  31.741  26.622  1.00  0.00     0.200 A 
ATOM     93  F   UNL A   1      48.028  31.603  27.134  1.00  0.00    -0.200 F 
ATOM     94  F   UNL A   1      45.965  32.730  25.750  1.00  0.00    -0.200 F 
ENDBRANCH  61  84
ENDBRANCH  35  36
ENDBRANCH  27  30
ENDBRANCH  25  26
ENDBRANCH  24  25
ENDBRANCH   1  24
TORSDOF 14
ENDMDL
MODEL 2
REMARK VINA RESULT:     -12.6      3.452      9.095
REMARK SMILES CC[C@@](C)(NC(=O)Cn1cnc2ccccc21)C(=O)NCCCNC(=O)c1ccc(-c2c3nc(c(-c4c(F)c(F)c(F)c(F)c4F)c4ccc([nH]4)c(-c4c(F)c(F)c(F)c(F)c4F)c4nc(c(-c5c(F)c(F)c(F)c(F)c5F)c5ccc2[nH]5)C=C4)C=C3)cc1
REMARK SMILES IDX 21 1 20 2 18 3 19 4 3 6 4 7 2 8 1 9 5 10 6 11 7 13 8 14 9 15
REMARK SMILES IDX 10 16 17 17 11 18 12 19 16 20 13 21 15 22 14 23 22 24 23 25
REMARK SMILES IDX 24 26 25 27 26 29 27 30 28 31 89 32 29 33 88 34 30 35 31 36
REMARK SMILES IDX 32 37 82 38 33 39 87 40 81 41 83 42 34 43 86 44 80 45 79 46
REMARK SMILES IDX 35 48 67 49 47 50 66 51 48 52 51 53 65 54 84 55 49 56 50 57
REMARK SMILES IDX 64 59 85 60 52 61 36 62 37 63 45 64 38 65 39 66 43 67 46 68
REMARK SMILES IDX 40 69 41 70 44 71 42 72 68 73 69 74 77 75 70 76 71 77 75 78
REMARK SMILES IDX 78 79 72 80 73 81 76 82 74 83 53 84 54 85 62 86 55 87 56 88
REMARK SMILES IDX 60 89 63 90 57 91 58 92 61 93 59 94
REMARK H PARENT 20 5 5 12 24 28 83 47 51 58
REMARK Flexibility Score: inf
ROOT
ATOM      1  C   UNL A   1      36.312  20.724  25.007  1.00  0.00     0.117 C 
ENDROOT
BRANCH   1   2
ATOM      2  N   UNL A   1      35.626  21.023  26.256  1.00  0.00    -0.354 N 
ATOM      3  C   UNL A   1      34.544  21.818  26.535  1.00  0.00     0.245 C 
ATOM      4  O   UNL A   1      33.903  21.503  27.541  1.00  0.00    -0.272 OA
ATOM      5  H   UNL A   1      36.010  20.573  27.044  1.00  0.00     0.163 HD
BRANCH   3   6
ATOM      6  C   UNL A   1      34.049  22.925  25.559  1.00  0.00     0.116 C 
ATOM      7  C   UNL A   1      32.965  23.715  26.337  1.00  0.00     0.045 C 
BRANCH   6   8
ATOM      8  C   UNL A   1      35.125  23.958  25.106  1.00  0.00     0.035 C 
ATOM      9  C   UNL A   1      35.746  23.811  23.722  1.00  0.00     0.007 C 
ENDBRANCH   6   8
BRANCH   6  10
ATOM     10  N   UNL A   1      33.431  22.355  24.328  1.00  0.00    -0.340 N 
ATOM     11  C   UNL A   1      32.283  22.679  23.661  1.00  0.00     0.240 C 
ATOM     12  H   UNL A   1      33.938  21.613  23.926  1.00  0.00     0.164 HD
ATOM     13  O   UNL A   1      31.786  21.792  22.959  1.00  0.00    -0.273 OA
BRANCH  11  14
ATOM     14  C   UNL A   1      31.706  24.085  23.608  1.00  0.00     0.223 C 
BRANCH  14  15
ATOM     15  N   UNL A   1      32.449  25.047  22.829  1.00  0.00    -0.321 N 
ATOM     16  C   UNL A   1      32.837  24.887  21.528  1.00  0.00     0.201 A 
ATOM     17  C   UNL A   1      32.916  26.265  23.269  1.00  0.00     0.068 A 
ATOM     18  N   UNL A   1      33.379  25.984  21.054  1.00  0.00    -0.237 NA
ATOM     19  C   UNL A   1      33.421  26.859  22.114  1.00  0.00     0.088 A 
ATOM     20  C   UNL A   1      32.916  26.913  24.511  1.00  0.00     0.028 A 
ATOM     21  C   UNL A   1      33.880  28.183  22.167  1.00  0.00     0.030 A 
ATOM     22  C   UNL A   1      33.377  28.235  24.543  1.00  0.00     0.002 A 
ATOM     23  C   UNL A   1      33.839  28.866  23.389  1.00  0.00     0.002 A 
ENDBRANCH  14  15
ENDBRANCH  11  14
ENDBRANCH   6  10
ENDBRANCH   3   6
ENDBRANCH   1   2
BRANCH   1  24
ATOM     24  C   UNL A   1      37.839  20.830  25.025  1.00  0.00     0.042 C 
BRANCH  24  25
ATOM     25  C   UNL A   1      38.446  21.908  25.920  1.00  0.00     0.118 C 
BRANCH  25  26
ATOM     26  N   UNL A   1      39.882  21.854  26.057  1.00  0.00    -0.352 N 
ATOM     27  C   UNL A   1      40.835  22.622  26.673  1.00  0.00     0.251 C 
ATOM     28  H   UNL A   1      40.272  21.076  25.597  1.00  0.00     0.163 HD
ATOM     29  O   UNL A   1      41.956  22.125  26.734  1.00  0.00    -0.269 OA
BRANCH  27  30
ATOM     30  C   UNL A   1      40.638  24.004  27.196  1.00  0.00     0.039 A 
ATOM     31  C   UNL A   1      39.613  24.880  26.853  1.00  0.00     0.014 A 
ATOM     32  C   UNL A   1      41.638  24.465  28.082  1.00  0.00     0.014 A 
ATOM     33  C   UNL A   1      39.650  26.204  27.294  1.00  0.00     0.010 A 
ATOM     34  C   UNL A   1      41.666  25.779  28.543  1.00  0.00     0.010 A 
ATOM     35  C   UNL A   1      40.697  26.670  28.109  1.00  0.00    -0.014 A 
BRANCH  35  36
ATOM     36  C   UNL A   1      40.650  28.064  28.562  1.00  0.00     0.031 A 
ATOM     37  C   UNL A   1      41.735  28.909  27.999  1.00  0.00     0.074 A 
ATOM     38  C   UNL A   1      39.720  28.614  29.377  1.00  0.00     0.049 A 
ATOM     39  N   UNL A   1      42.759  29.377  28.634  1.00  0.00    -0.248 NA
ATOM     40  C   UNL A   1      41.770  29.152  26.551  1.00  0.00     0.031 C 
ATOM     41  C   UNL A   1      38.436  28.045  29.794  1.00  0.00     0.029 A 
ATOM     42  N   UNL A   1      39.707  29.853  29.969  1.00  0.00    -0.354 N 
ATOM     43  C   UNL A   1      43.469  30.142  27.713  1.00  0.00     0.074 A 
ATOM     44  C   UNL A   1      42.900  29.855  26.423  1.00  0.00     0.031 C 
ATOM     45  C   UNL A   1      37.680  29.007  30.375  1.00  0.00     0.029 A 
ATOM     46  C   UNL A   1      38.486  30.206  30.534  1.00  0.00     0.049 A 
ATOM     47  H   UNL A   1      40.496  30.442  29.991  1.00  0.00     0.167 HD
ATOM     48  C   UNL A   1      44.290  31.137  28.147  1.00  0.00     0.037 A 
ATOM     49  C   UNL A   1      38.155  31.396  31.098  1.00  0.00     0.037 A 
ATOM     50  C   UNL A   1      44.556  31.004  29.555  1.00  0.00     0.049 A 
ATOM     51  C   UNL A   1      39.402  32.039  31.567  1.00  0.00     0.074 A 
ATOM     52  C   UNL A   1      45.397  30.277  30.366  1.00  0.00     0.029 A 
ATOM     53  N   UNL A   1      43.554  31.498  30.343  1.00  0.00    -0.354 N 
ATOM     54  N   UNL A   1      40.128  31.574  32.546  1.00  0.00    -0.248 NA
ATOM     55  C   UNL A   1      40.027  33.075  30.753  1.00  0.00     0.031 C 
ATOM     56  C   UNL A   1      44.790  30.257  31.659  1.00  0.00     0.029 A 
ATOM     57  C   UNL A   1      43.616  31.002  31.613  1.00  0.00     0.049 A 
ATOM     58  H   UNL A   1      42.872  32.134  30.031  1.00  0.00     0.167 HD
ATOM     59  C   UNL A   1      41.413  31.935  32.203  1.00  0.00     0.074 A 
ATOM     60  C   UNL A   1      41.275  32.997  31.216  1.00  0.00     0.031 C 
ATOM     61  C   UNL A   1      42.462  31.111  32.474  1.00  0.00     0.037 A 
BRANCH  48  62
ATOM     62  C   UNL A   1      44.446  32.489  27.475  1.00  0.00     0.064 A 
ATOM     63  C   UNL A   1      45.582  32.727  26.669  1.00  0.00     0.173 A 
ATOM     64  C   UNL A   1      43.729  33.641  27.861  1.00  0.00     0.173 A 
ATOM     65  F   UNL A   1      46.355  31.708  26.259  1.00  0.00    -0.203 F 
ATOM     66  C   UNL A   1      46.002  34.018  26.341  1.00  0.00     0.198 A 
ATOM     67  C   UNL A   1      44.126  34.927  27.493  1.00  0.00     0.198 A 
ATOM     68  F   UNL A   1      42.691  33.583  28.702  1.00  0.00    -0.203 F 
ATOM     69  F   UNL A   1      47.152  34.198  25.675  1.00  0.00    -0.200 F 
ATOM     70  C   UNL A   1      45.277  35.118  26.757  1.00  0.00     0.200 A 
ATOM     71  F   UNL A   1      43.425  35.982  27.930  1.00  0.00    -0.200 F 
ATOM     72  F   UNL A   1      45.708  36.360  26.497  1.00  0.00    -0.200 F 
ENDBRANCH  48  62
BRANCH  49  73
ATOM     73  C   UNL A   1      36.877  32.151  31.045  1.00  0.00     0.064 A 
ATOM     74  C   UNL A   1      36.117  32.373  32.210  1.00  0.00     0.173 A 
ATOM     75  C   UNL A   1      36.561  32.950  29.931  1.00  0.00     0.173 A 
ATOM     76  F   UNL A   1      36.372  31.675  33.326  1.00  0.00    -0.203 F 
ATOM     77  C   UNL A   1      35.144  33.376  32.273  1.00  0.00     0.198 A 
ATOM     78  C   UNL A   1      35.587  33.949  29.996  1.00  0.00     0.198 A 
ATOM     79  F   UNL A   1      37.264  32.847  28.795  1.00  0.00    -0.203 F 
ATOM     80  F   UNL A   1      34.503  33.614  33.426  1.00  0.00    -0.200 F 
ATOM     81  C   UNL A   1      34.895  34.177  31.173  1.00  0.00     0.200 A 
ATOM     82  F   UNL A   1      35.378  34.742  28.935  1.00  0.00    -0.200 F 
ATOM     83  F   UNL A   1      34.026  35.194  31.257  1.00  0.00    -0.200 F 
ENDBRANCH  49  73
BRANCH  61  84
ATOM     84  C   UNL A   1      42.330  30.157  33.614  1.00  0.00     0.064 A 
ATOM     85  C   UNL A   1      42.611  30.467  34.953  1.00  0.00     0.173 A 
ATOM     86  C   UNL A   1      41.803  28.889  33.333  1.00  0.00     0.173 A 
ATOM     87  F   UNL A   1      43.056  31.682  35.303  1.00  0.00    -0.203 F 
ATOM     88  C   UNL A   1      42.386  29.533  35.963  1.00  0.00     0.198 A 
ATOM     89  C   UNL A   1      41.548  27.973  34.346  1.00  0.00     0.198 A 
ATOM     90  F   UNL A   1      41.493  28.555  32.070  1.00  0.00    -0.203 F 
ATOM     91  F   UNL A   1      42.663  29.842  37.239  1.00  0.00    -0.200 F 
ATOM     92  C   UNL A   1      41.845  28.292  35.660  1.00  0.00     0.200 A 
ATOM     93  F   UNL A   1      40.989  26.792  34.049  1.00  0.00    -0.200 F 
ATOM     94  F   UNL A   1      41.586  27.413  36.638  1.00  0.00    -0.200 F 
ENDBRANCH  61  84
ENDBRANCH  35  36
ENDBRANCH  27  30
ENDBRANCH  25  26
ENDBRANCH  24  25
ENDBRANCH   1  24
TORSDOF 14
ENDMDL
MODEL 3
REMARK VINA RESULT:     -12.5      1.649      2.370
REMARK SMILES CC[C@@](C)(NC(=O)Cn1cnc2ccccc21)C(=O)NCCCNC(=O)c1ccc(-c2c3nc(c(-c4c(F)c(F)c(F)c(F)c4F)c4ccc([nH]4)c(-c4c(F)c(F)c(F)c(F)c4F)c4nc(c(-c5c(F)c(F)c(F)c(F)c5F)c5ccc2[nH]5)C=C4)C=C3)cc1
REMARK SMILES IDX 21 1 20 2 18 3 19 4 3 6 4 7 2 8 1 9 5 10 6 11 7 13 8 14 9 15
REMARK SMILES IDX 10 16 17 17 11 18 12 19 16 20 13 21 15 22 14 23 22 24 23 25
REMARK SMILES IDX 24 26 25 27 26 29 27 30 28 31 89 32 29 33 88 34 30 35 31 36
REMARK SMILES IDX 32 37 82 38 33 39 87 40 81 41 83 42 34 43 86 44 80 45 79 46
REMARK SMILES IDX 35 48 67 49 47 50 66 51 48 52 51 53 65 54 84 55 49 56 50 57
REMARK SMILES IDX 64 59 85 60 52 61 36 62 37 63 45 64 38 65 39 66 43 67 46 68
REMARK SMILES IDX 40 69 41 70 44 71 42 72 68 73 69 74 77 75 70 76 71 77 75 78
REMARK SMILES IDX 78 79 72 80 73 81 76 82 74 83 53 84 54 85 62 86 55 87 56 88
REMARK SMILES IDX 60 89 63 90 57 91 58 92 61 93 59 94
REMARK H PARENT 20 5 5 12 24 28 83 47 51 58
REMARK Flexibility Score: inf
ROOT
ATOM      1  C   UNL A   1      31.947  30.069  25.303  1.00  0.00     0.117 C 
ENDROOT
BRANCH   1   2
ATOM      2  N   UNL A   1      33.178  29.703  24.619  1.00  0.00    -0.354 N 
ATOM      3  C   UNL A   1      33.521  28.595  23.887  1.00  0.00     0.245 C 
ATOM      4  O   UNL A   1      34.407  28.771  23.046  1.00  0.00    -0.272 OA
ATOM      5  H   UNL A   1      33.896  30.374  24.696  1.00  0.00     0.163 HD
BRANCH   3   6
ATOM      6  C   UNL A   1      32.730  27.257  23.979  1.00  0.00     0.116 C 
ATOM      7  C   UNL A   1      31.539  27.407  22.999  1.00  0.00     0.045 C 
BRANCH   6   8
ATOM      8  C   UNL A   1      33.512  25.979  23.550  1.00  0.00     0.035 C 
ATOM      9  C   UNL A   1      34.402  25.284  24.574  1.00  0.00     0.007 C 
ENDBRANCH   6   8
BRANCH   6  10
ATOM     10  N   UNL A   1      32.194  27.015  25.349  1.00  0.00    -0.340 N 
ATOM     11  C   UNL A   1      31.130  26.276  25.783  1.00  0.00     0.240 C 
ATOM     12  H   UNL A   1      32.694  27.467  26.067  1.00  0.00     0.164 HD
ATOM     13  O   UNL A   1      30.648  26.594  26.876  1.00  0.00    -0.273 OA
BRANCH  11  14
ATOM     14  C   UNL A   1      30.637  25.016  25.089  1.00  0.00     0.223 C 
BRANCH  14  15
ATOM     15  N   UNL A   1      31.304  23.788  25.455  1.00  0.00    -0.321 N 
ATOM     16  C   UNL A   1      31.648  23.418  26.724  1.00  0.00     0.201 A 
ATOM     17  C   UNL A   1      31.732  22.806  24.591  1.00  0.00     0.068 A 
ATOM     18  N   UNL A   1      32.120  22.193  26.753  1.00  0.00    -0.237 NA
ATOM     19  C   UNL A   1      32.163  21.788  25.440  1.00  0.00     0.088 A 
ATOM     20  C   UNL A   1      31.751  22.681  23.195  1.00  0.00     0.028 A 
ATOM     21  C   UNL A   1      32.563  20.560  24.892  1.00  0.00     0.030 A 
ATOM     22  C   UNL A   1      32.152  21.447  22.668  1.00  0.00     0.002 A 
ATOM     23  C   UNL A   1      32.538  20.398  23.502  1.00  0.00     0.002 A 
ENDBRANCH  14  15
ENDBRANCH  11  14
ENDBRANCH   6  10
ENDBRANCH   3   6
ENDBRANCH   1   2
BRANCH   1  24
ATOM     24  C   UNL A   1      32.031  30.223  26.824  1.00  0.00     0.042 C 
BRANCH  24  25
ATOM     25  C   UNL A   1      33.429  30.273  27.436  1.00  0.00     0.118 C 
BRANCH  25  26
ATOM     26  N   UNL A   1      33.984  31.597  27.591  1.00  0.00    -0.352 N 
ATOM     27  C   UNL A   1      35.235  32.113  27.808  1.00  0.00     0.251 C 
ATOM     28  H   UNL A   1      33.298  32.300  27.524  1.00  0.00     0.163 HD
ATOM     29  O   UNL A   1      35.334  33.330  27.677  1.00  0.00    -0.269 OA
BRANCH  27  30
ATOM     30  C   UNL A   1      36.434  31.343  28.248  1.00  0.00     0.039 A 
ATOM     31  C   UNL A   1      37.496  31.830  29.003  1.00  0.00     0.014 A 
ATOM     32  C   UNL A   1      36.499  30.009  27.789  1.00  0.00     0.014 A 
ATOM     33  C   UNL A   1      38.632  31.042  29.196  1.00  0.00     0.010 A 
ATOM     34  C   UNL A   1      37.621  29.211  28.000  1.00  0.00     0.010 A 
ATOM     35  C   UNL A   1      38.716  29.743  28.663  1.00  0.00    -0.014 A 
BRANCH  35  36
ATOM     36  C   UNL A   1      39.926  28.962  28.939  1.00  0.00     0.031 A 
ATOM     37  C   UNL A   1      40.216  28.806  30.388  1.00  0.00     0.074 A 
ATOM     38  C   UNL A   1      40.729  28.372  28.022  1.00  0.00     0.049 A 
ATOM     39  N   UNL A   1      41.168  29.373  31.052  1.00  0.00    -0.248 NA
ATOM     40  C   UNL A   1      39.273  28.051  31.226  1.00  0.00     0.031 C 
ATOM     41  C   UNL A   1      40.467  28.160  26.597  1.00  0.00     0.029 A 
ATOM     42  N   UNL A   1      41.953  27.774  28.197  1.00  0.00    -0.354 N 
ATOM     43  C   UNL A   1      41.071  28.894  32.355  1.00  0.00     0.074 A 
ATOM     44  C   UNL A   1      39.812  28.203  32.440  1.00  0.00     0.031 C 
ATOM     45  C   UNL A   1      41.381  27.297  26.091  1.00  0.00     0.029 A 
ATOM     46  C   UNL A   1      42.392  27.037  27.102  1.00  0.00     0.049 A 
ATOM     47  H   UNL A   1      42.475  27.860  29.027  1.00  0.00     0.167 HD
ATOM     48  C   UNL A   1      42.166  28.898  33.164  1.00  0.00     0.037 A 
ATOM     49  C   UNL A   1      43.509  26.269  27.024  1.00  0.00     0.037 A 
ATOM     50  C   UNL A   1      43.199  29.742  32.622  1.00  0.00     0.049 A 
ATOM     51  C   UNL A   1      44.484  26.783  28.010  1.00  0.00     0.074 A 
ATOM     52  C   UNL A   1      43.505  31.084  32.596  1.00  0.00     0.029 A 
ATOM     53  N   UNL A   1      43.933  29.136  31.643  1.00  0.00    -0.354 N 
ATOM     54  N   UNL A   1      45.062  27.948  27.913  1.00  0.00    -0.248 NA
ATOM     55  C   UNL A   1      44.623  26.115  29.299  1.00  0.00     0.031 C 
ATOM     56  C   UNL A   1      44.370  31.276  31.476  1.00  0.00     0.029 A 
ATOM     57  C   UNL A   1      44.598  30.045  30.870  1.00  0.00     0.049 A 
ATOM     58  H   UNL A   1      43.977  28.162  31.510  1.00  0.00     0.167 HD
ATOM     59  C   UNL A   1      45.250  28.333  29.222  1.00  0.00     0.074 A 
ATOM     60  C   UNL A   1      45.142  27.115  30.012  1.00  0.00     0.031 C 
ATOM     61  C   UNL A   1      45.121  29.638  29.587  1.00  0.00     0.037 A 
BRANCH  48  62
ATOM     62  C   UNL A   1      42.529  27.793  34.138  1.00  0.00     0.064 A 
ATOM     63  C   UNL A   1      43.035  26.574  33.633  1.00  0.00     0.173 A 
ATOM     64  C   UNL A   1      42.086  27.754  35.476  1.00  0.00     0.173 A 
ATOM     65  F   UNL A   1      43.465  26.484  32.364  1.00  0.00    -0.203 F 
ATOM     66  C   UNL A   1      43.026  25.398  34.388  1.00  0.00     0.198 A 
ATOM     67  C   UNL A   1      42.123  26.588  36.242  1.00  0.00     0.198 A 
ATOM     68  F   UNL A   1      41.494  28.802  36.060  1.00  0.00    -0.203 F 
ATOM     69  F   UNL A   1      43.404  24.241  33.826  1.00  0.00    -0.200 F 
ATOM     70  C   UNL A   1      42.565  25.404  35.690  1.00  0.00     0.200 A 
ATOM     71  F   UNL A   1      41.645  26.609  37.494  1.00  0.00    -0.200 F 
ATOM     72  F   UNL A   1      42.499  24.269  36.398  1.00  0.00    -0.200 F 
ENDBRANCH  48  62
BRANCH  49  73
ATOM     73  C   UNL A   1      43.721  24.966  26.345  1.00  0.00     0.064 A 
ATOM     74  C   UNL A   1      44.782  24.784  25.436  1.00  0.00     0.173 A 
ATOM     75  C   UNL A   1      43.106  23.796  26.828  1.00  0.00     0.173 A 
ATOM     76  F   UNL A   1      45.442  25.845  24.949  1.00  0.00    -0.203 F 
ATOM     77  C   UNL A   1      45.240  23.510  25.085  1.00  0.00     0.198 A 
ATOM     78  C   UNL A   1      43.564  22.525  26.473  1.00  0.00     0.198 A 
ATOM     79  F   UNL A   1      42.122  23.867  27.736  1.00  0.00    -0.203 F 
ATOM     80  F   UNL A   1      46.308  23.380  24.285  1.00  0.00    -0.200 F 
ATOM     81  C   UNL A   1      44.643  22.382  25.620  1.00  0.00     0.200 A 
ATOM     82  F   UNL A   1      43.001  21.440  27.025  1.00  0.00    -0.200 F 
ATOM     83  F   UNL A   1      45.135  21.163  25.353  1.00  0.00    -0.200 F 
ENDBRANCH  49  73
BRANCH  61  84
ATOM     84  C   UNL A   1      45.367  30.686  28.553  1.00  0.00     0.064 A 
ATOM     85  C   UNL A   1      44.400  31.169  27.658  1.00  0.00     0.173 A 
ATOM     86  C   UNL A   1      46.631  31.290  28.539  1.00  0.00     0.173 A 
ATOM     87  F   UNL A   1      43.151  30.681  27.660  1.00  0.00    -0.203 F 
ATOM     88  C   UNL A   1      44.700  32.204  26.775  1.00  0.00     0.198 A 
ATOM     89  C   UNL A   1      46.916  32.345  27.681  1.00  0.00     0.198 A 
ATOM     90  F   UNL A   1      47.580  30.881  29.395  1.00  0.00    -0.203 F 
ATOM     91  F   UNL A   1      43.767  32.653  25.922  1.00  0.00    -0.200 F 
ATOM     92  C   UNL A   1      45.954  32.799  26.795  1.00  0.00     0.200 A 
ATOM     93  F   UNL A   1      48.117  32.939  27.735  1.00  0.00    -0.200 F 
ATOM     94  F   UNL A   1      46.226  33.825  25.978  1.00  0.00    -0.200 F 
ENDBRANCH  61  84
ENDBRANCH  35  36
ENDBRANCH  27  30
ENDBRANCH  25  26
ENDBRANCH  24  25
ENDBRANCH   1  24
TORSDOF 14
ENDMDL
