MODEL 1
REMARK VINA RESULT:     -12.3      0.000      0.000
REMARK SMILES CC1(C)[C@H]2CC[C@]1(C)[C@](O)(CC(=O)NCCCNC(=O)c1ccc(-c3c4nc(c(-c5c(F)c(F)c(F)c(F)c5F)c5ccc([nH]5)c(-c5c(F)c(F)c(F)c(F)c5F)c5nc(c(-c6c(F)c(F)c(F)c(F)c6F)c6ccc3[nH]6)C=C5)C=C4)cc1)C2
REMARK SMILES IDX 16 1 15 2 14 3 12 4 13 5 11 7 9 8 1 9 2 10 3 11 4 12 7 13
REMARK SMILES IDX 5 14 84 15 6 16 8 17 10 18 17 20 18 21 19 22 20 24 21 25
REMARK SMILES IDX 22 26 83 27 23 28 82 29 24 30 25 31 26 32 76 33 27 34 81 35
REMARK SMILES IDX 75 36 77 37 28 38 80 39 74 40 73 41 29 43 61 44 41 45 60 46
REMARK SMILES IDX 42 47 45 48 59 49 78 50 43 51 44 52 58 54 79 55 46 56 30 57
REMARK SMILES IDX 31 58 39 59 32 60 33 61 37 62 40 63 34 64 35 65 38 66 36 67
REMARK SMILES IDX 62 68 63 69 71 70 64 71 65 72 69 73 72 74 66 75 67 76 70 77
REMARK SMILES IDX 68 78 47 79 48 80 56 81 49 82 50 83 54 84 57 85 51 86 52 87
REMARK SMILES IDX 55 88 53 89
REMARK H PARENT 14 6 10 19 18 23 77 42 45 53
REMARK Flexibility Score: inf
ROOT
ATOM      1  C   UNL A   1      32.468  28.991  23.471  1.00  0.00     0.042 C 
ENDROOT
BRANCH   1   2
ATOM      2  C   UNL A   1      31.605  27.746  23.232  1.00  0.00     0.117 C 
BRANCH   2   3
ATOM      3  N   UNL A   1      31.971  27.057  22.007  1.00  0.00    -0.356 N 
ATOM      4  C   UNL A   1      33.003  26.218  21.729  1.00  0.00     0.222 C 
ATOM      5  O   UNL A   1      33.161  25.872  20.553  1.00  0.00    -0.275 OA
ATOM      6  H   UNL A   1      31.368  27.228  21.247  1.00  0.00     0.163 HD
BRANCH   4   7
ATOM      7  C   UNL A   1      33.938  25.679  22.795  1.00  0.00     0.135 C 
BRANCH   7   8
ATOM      8  C   UNL A   1      33.697  24.202  23.197  1.00  0.00     0.080 C 
ATOM      9  C   UNL A   1      34.819  21.652  25.963  1.00  0.00     0.012 C 
ATOM     10  C   UNL A   1      33.996  22.354  24.849  1.00  0.00    -0.024 C 
ATOM     11  C   UNL A   1      33.422  21.223  23.972  1.00  0.00     0.012 C 
ATOM     12  C   UNL A   1      32.926  23.348  25.364  1.00  0.00    -0.002 C 
ATOM     13  C   UNL A   1      34.776  23.516  24.124  1.00  0.00     0.002 C 
ATOM     14  C   UNL A   1      33.747  24.406  26.132  1.00  0.00     0.005 C 
ATOM     15  C   UNL A   1      32.416  24.047  24.075  1.00  0.00     0.040 C 
ATOM     16  C   UNL A   1      35.066  24.445  25.344  1.00  0.00     0.010 C 
ATOM     17  C   UNL A   1      36.015  23.046  23.380  1.00  0.00     0.015 C 
BRANCH   8  18
ATOM     18  O   UNL A   1      33.510  23.406  22.020  1.00  0.00    -0.389 OA
ATOM     19  H   UNL A   1      33.830  22.505  22.183  1.00  0.00     0.211 HD
ENDBRANCH   8  18
ENDBRANCH   7   8
ENDBRANCH   4   7
ENDBRANCH   2   3
ENDBRANCH   1   2
BRANCH   1  20
ATOM     20  C   UNL A   1      33.077  29.050  24.868  1.00  0.00     0.118 C 
BRANCH  20  21
ATOM     21  N   UNL A   1      32.628  30.219  25.601  1.00  0.00    -0.352 N 
ATOM     22  C   UNL A   1      33.113  30.883  26.696  1.00  0.00     0.251 C 
ATOM     23  H   UNL A   1      31.804  30.617  25.237  1.00  0.00     0.163 HD
ATOM     24  O   UNL A   1      32.365  31.710  27.227  1.00  0.00    -0.269 OA
BRANCH  22  25
ATOM     25  C   UNL A   1      34.466  30.674  27.284  1.00  0.00     0.039 A 
ATOM     26  C   UNL A   1      34.817  29.359  27.631  1.00  0.00     0.014 A 
ATOM     27  C   UNL A   1      35.328  31.708  27.656  1.00  0.00     0.014 A 
ATOM     28  C   UNL A   1      35.989  29.086  28.350  1.00  0.00     0.010 A 
ATOM     29  C   UNL A   1      36.536  31.429  28.317  1.00  0.00     0.010 A 
ATOM     30  C   UNL A   1      36.862  30.121  28.706  1.00  0.00    -0.014 A 
BRANCH  30  31
ATOM     31  C   UNL A   1      38.064  29.854  29.551  1.00  0.00     0.031 A 
ATOM     32  C   UNL A   1      39.165  28.953  29.050  1.00  0.00     0.074 A 
ATOM     33  C   UNL A   1      38.177  30.406  30.775  1.00  0.00     0.049 A 
ATOM     34  N   UNL A   1      40.254  28.549  29.658  1.00  0.00    -0.248 NA
ATOM     35  C   UNL A   1      39.012  28.419  27.688  1.00  0.00     0.031 C 
ATOM     36  C   UNL A   1      37.191  31.286  31.401  1.00  0.00     0.029 A 
ATOM     37  N   UNL A   1      39.176  30.303  31.715  1.00  0.00    -0.354 N 
ATOM     38  C   UNL A   1      40.894  27.692  28.771  1.00  0.00     0.074 A 
ATOM     39  C   UNL A   1      40.058  27.610  27.592  1.00  0.00     0.031 C 
ATOM     40  C   UNL A   1      37.641  31.657  32.611  1.00  0.00     0.029 A 
ATOM     41  C   UNL A   1      38.930  31.016  32.863  1.00  0.00     0.049 A 
ATOM     42  H   UNL A   1      39.992  29.769  31.578  1.00  0.00     0.167 HD
ATOM     43  C   UNL A   1      42.077  27.047  28.911  1.00  0.00     0.037 A 
ATOM     44  C   UNL A   1      39.653  31.135  33.994  1.00  0.00     0.037 A 
ATOM     45  C   UNL A   1      42.946  27.163  30.054  1.00  0.00     0.049 A 
ATOM     46  C   UNL A   1      40.972  30.421  34.120  1.00  0.00     0.074 A 
ATOM     47  C   UNL A   1      44.192  26.593  30.253  1.00  0.00     0.029 A 
ATOM     48  N   UNL A   1      42.664  27.910  31.187  1.00  0.00    -0.354 N 
ATOM     49  N   UNL A   1      41.577  29.644  33.258  1.00  0.00    -0.248 NA
ATOM     50  C   UNL A   1      41.708  30.607  35.380  1.00  0.00     0.031 C 
ATOM     51  C   UNL A   1      44.651  26.970  31.520  1.00  0.00     0.029 A 
ATOM     52  C   UNL A   1      43.707  27.805  32.094  1.00  0.00     0.049 A 
ATOM     53  H   UNL A   1      41.844  28.437  31.327  1.00  0.00     0.167 HD
ATOM     54  C   UNL A   1      42.773  29.267  33.858  1.00  0.00     0.074 A 
ATOM     55  C   UNL A   1      42.813  29.911  35.153  1.00  0.00     0.031 C 
ATOM     56  C   UNL A   1      43.746  28.457  33.376  1.00  0.00     0.037 A 
BRANCH  43  57
ATOM     57  C   UNL A   1      42.513  26.144  27.794  1.00  0.00     0.064 A 
ATOM     58  C   UNL A   1      42.026  24.834  27.675  1.00  0.00     0.173 A 
ATOM     59  C   UNL A   1      43.393  26.610  26.806  1.00  0.00     0.173 A 
ATOM     60  F   UNL A   1      41.188  24.339  28.598  1.00  0.00    -0.203 F 
ATOM     61  C   UNL A   1      42.424  24.015  26.621  1.00  0.00     0.198 A 
ATOM     62  C   UNL A   1      43.770  25.798  25.740  1.00  0.00     0.198 A 
ATOM     63  F   UNL A   1      43.880  27.859  26.869  1.00  0.00    -0.203 F 
ATOM     64  F   UNL A   1      41.979  22.753  26.551  1.00  0.00    -0.200 F 
ATOM     65  C   UNL A   1      43.291  24.499  25.652  1.00  0.00     0.200 A 
ATOM     66  F   UNL A   1      44.597  26.271  24.797  1.00  0.00    -0.200 F 
ATOM     67  F   UNL A   1      43.669  23.711  24.636  1.00  0.00    -0.200 F 
ENDBRANCH  43  57
BRANCH  44  68
ATOM     68  C   UNL A   1      39.151  31.988  35.102  1.00  0.00     0.064 A 
ATOM     69  C   UNL A   1      39.403  33.366  35.117  1.00  0.00     0.173 A 
ATOM     70  C   UNL A   1      38.419  31.443  36.167  1.00  0.00     0.173 A 
ATOM     71  F   UNL A   1      40.122  33.926  34.133  1.00  0.00    -0.203 F 
ATOM     72  C   UNL A   1      38.951  34.167  36.163  1.00  0.00     0.198 A 
ATOM     73  C   UNL A   1      37.948  32.249  37.200  1.00  0.00     0.198 A 
ATOM     74  F   UNL A   1      38.155  30.128  36.196  1.00  0.00    -0.203 F 
ATOM     75  F   UNL A   1      39.239  35.476  36.174  1.00  0.00    -0.200 F 
ATOM     76  C   UNL A   1      38.220  33.609  37.201  1.00  0.00     0.200 A 
ATOM     77  F   UNL A   1      37.234  31.708  38.196  1.00  0.00    -0.200 F 
ATOM     78  F   UNL A   1      37.783  34.380  38.204  1.00  0.00    -0.200 F 
ENDBRANCH  44  68
BRANCH  56  79
ATOM     79  C   UNL A   1      44.956  28.245  34.236  1.00  0.00     0.064 A 
ATOM     80  C   UNL A   1      45.054  27.150  35.106  1.00  0.00     0.173 A 
ATOM     81  C   UNL A   1      46.048  29.123  34.156  1.00  0.00     0.173 A 
ATOM     82  F   UNL A   1      44.031  26.292  35.228  1.00  0.00    -0.203 F 
ATOM     83  C   UNL A   1      46.194  26.953  35.881  1.00  0.00     0.198 A 
ATOM     84  C   UNL A   1      47.194  28.911  34.916  1.00  0.00     0.198 A 
ATOM     85  F   UNL A   1      46.004  30.182  33.334  1.00  0.00    -0.203 F 
ATOM     86  F   UNL A   1      46.252  25.921  36.735  1.00  0.00    -0.200 F 
ATOM     87  C   UNL A   1      47.265  27.829  35.782  1.00  0.00     0.200 A 
ATOM     88  F   UNL A   1      48.232  29.752  34.811  1.00  0.00    -0.200 F 
ATOM     89  F   UNL A   1      48.363  27.635  36.524  1.00  0.00    -0.200 F 
ENDBRANCH  56  79
ENDBRANCH  30  31
ENDBRANCH  22  25
ENDBRANCH  20  21
ENDBRANCH   1  20
TORSDOF 12
ENDMDL
MODEL 2
REMARK VINA RESULT:     -12.2      0.058      1.640
REMARK SMILES CC1(C)[C@H]2CC[C@]1(C)[C@](O)(CC(=O)NCCCNC(=O)c1ccc(-c3c4nc(c(-c5c(F)c(F)c(F)c(F)c5F)c5ccc([nH]5)c(-c5c(F)c(F)c(F)c(F)c5F)c5nc(c(-c6c(F)c(F)c(F)c(F)c6F)c6ccc3[nH]6)C=C5)C=C4)cc1)C2
REMARK SMILES IDX 16 1 15 2 14 3 12 4 13 5 11 7 9 8 1 9 2 10 3 11 4 12 7 13
REMARK SMILES IDX 5 14 84 15 6 16 8 17 10 18 17 20 18 21 19 22 20 24 21 25
REMARK SMILES IDX 22 26 83 27 23 28 82 29 24 30 25 31 26 32 76 33 27 34 81 35
REMARK SMILES IDX 75 36 77 37 28 38 80 39 74 40 73 41 29 43 61 44 41 45 60 46
REMARK SMILES IDX 42 47 45 48 59 49 78 50 43 51 44 52 58 54 79 55 46 56 30 57
REMARK SMILES IDX 31 58 39 59 32 60 33 61 37 62 40 63 34 64 35 65 38 66 36 67
REMARK SMILES IDX 62 68 63 69 71 70 64 71 65 72 69 73 72 74 66 75 67 76 70 77
REMARK SMILES IDX 68 78 47 79 48 80 56 81 49 82 50 83 54 84 57 85 51 86 52 87
REMARK SMILES IDX 55 88 53 89
REMARK H PARENT 14 6 10 19 18 23 77 42 45 53
REMARK Flexibility Score: inf
ROOT
ATOM      1  C   UNL A   1      32.498  28.982  23.446  1.00  0.00     0.042 C 
ENDROOT
BRANCH   1   2
ATOM      2  C   UNL A   1      31.608  27.755  23.213  1.00  0.00     0.117 C 
BRANCH   2   3
ATOM      3  N   UNL A   1      31.964  27.048  21.995  1.00  0.00    -0.356 N 
ATOM      4  C   UNL A   1      32.995  26.207  21.721  1.00  0.00     0.222 C 
ATOM      5  O   UNL A   1      33.143  25.843  20.549  1.00  0.00    -0.275 OA
ATOM      6  H   UNL A   1      31.353  27.204  21.239  1.00  0.00     0.163 HD
BRANCH   4   7
ATOM      7  C   UNL A   1      33.943  25.688  22.786  1.00  0.00     0.135 C 
BRANCH   7   8
ATOM      8  C   UNL A   1      33.719  24.212  23.203  1.00  0.00     0.080 C 
ATOM      9  C   UNL A   1      34.834  21.718  26.023  1.00  0.00     0.012 C 
ATOM     10  C   UNL A   1      34.019  22.391  24.884  1.00  0.00    -0.024 C 
ATOM     11  C   UNL A   1      33.482  21.239  24.012  1.00  0.00     0.012 C 
ATOM     12  C   UNL A   1      32.923  23.373  25.366  1.00  0.00    -0.002 C 
ATOM     13  C   UNL A   1      34.793  23.557  24.159  1.00  0.00     0.002 C 
ATOM     14  C   UNL A   1      33.711  24.455  26.135  1.00  0.00     0.005 C 
ATOM     15  C   UNL A   1      32.425  24.046  24.059  1.00  0.00     0.040 C 
ATOM     16  C   UNL A   1      35.043  24.507  25.371  1.00  0.00     0.010 C 
ATOM     17  C   UNL A   1      36.054  23.100  23.445  1.00  0.00     0.015 C 
BRANCH   8  18
ATOM     18  O   UNL A   1      33.569  23.398  22.033  1.00  0.00    -0.389 OA
ATOM     19  H   UNL A   1      33.901  22.505  22.214  1.00  0.00     0.211 HD
ENDBRANCH   8  18
ENDBRANCH   7   8
ENDBRANCH   4   7
ENDBRANCH   2   3
ENDBRANCH   1   2
BRANCH   1  20
ATOM     20  C   UNL A   1      33.110  29.033  24.841  1.00  0.00     0.118 C 
BRANCH  20  21
ATOM     21  N   UNL A   1      32.651  30.189  25.588  1.00  0.00    -0.352 N 
ATOM     22  C   UNL A   1      33.130  30.844  26.691  1.00  0.00     0.251 C 
ATOM     23  H   UNL A   1      31.824  30.585  25.228  1.00  0.00     0.163 HD
ATOM     24  O   UNL A   1      32.375  31.659  27.231  1.00  0.00    -0.269 OA
BRANCH  22  25
ATOM     25  C   UNL A   1      34.483  30.640  27.278  1.00  0.00     0.039 A 
ATOM     26  C   UNL A   1      34.841  29.326  27.621  1.00  0.00     0.014 A 
ATOM     27  C   UNL A   1      35.342  31.677  27.653  1.00  0.00     0.014 A 
ATOM     28  C   UNL A   1      36.014  29.056  28.338  1.00  0.00     0.010 A 
ATOM     29  C   UNL A   1      36.551  31.401  28.312  1.00  0.00     0.010 A 
ATOM     30  C   UNL A   1      36.883  30.093  28.698  1.00  0.00    -0.014 A 
BRANCH  30  31
ATOM     31  C   UNL A   1      38.086  29.830  29.541  1.00  0.00     0.031 A 
ATOM     32  C   UNL A   1      39.187  28.928  29.040  1.00  0.00     0.074 A 
ATOM     33  C   UNL A   1      38.201  30.384  30.763  1.00  0.00     0.049 A 
ATOM     34  N   UNL A   1      40.278  28.527  29.647  1.00  0.00    -0.248 NA
ATOM     35  C   UNL A   1      39.033  28.391  27.680  1.00  0.00     0.031 C 
ATOM     36  C   UNL A   1      37.215  31.265  31.389  1.00  0.00     0.029 A 
ATOM     37  N   UNL A   1      39.202  30.285  31.702  1.00  0.00    -0.354 N 
ATOM     38  C   UNL A   1      40.917  27.668  28.761  1.00  0.00     0.074 A 
ATOM     39  C   UNL A   1      40.079  27.583  27.584  1.00  0.00     0.031 C 
ATOM     40  C   UNL A   1      37.667  31.639  32.598  1.00  0.00     0.029 A 
ATOM     41  C   UNL A   1      38.957  31.000  32.849  1.00  0.00     0.049 A 
ATOM     42  H   UNL A   1      40.017  29.751  31.565  1.00  0.00     0.167 HD
ATOM     43  C   UNL A   1      42.101  27.024  28.901  1.00  0.00     0.037 A 
ATOM     44  C   UNL A   1      39.682  31.122  33.978  1.00  0.00     0.037 A 
ATOM     45  C   UNL A   1      42.971  27.144  30.042  1.00  0.00     0.049 A 
ATOM     46  C   UNL A   1      41.001  30.410  34.104  1.00  0.00     0.074 A 
ATOM     47  C   UNL A   1      44.218  26.575  30.241  1.00  0.00     0.029 A 
ATOM     48  N   UNL A   1      42.690  27.893  31.174  1.00  0.00    -0.354 N 
ATOM     49  N   UNL A   1      41.606  29.631  33.243  1.00  0.00    -0.248 NA
ATOM     50  C   UNL A   1      41.739  30.599  35.362  1.00  0.00     0.031 C 
ATOM     51  C   UNL A   1      44.679  26.955  31.507  1.00  0.00     0.029 A 
ATOM     52  C   UNL A   1      43.735  27.791  32.080  1.00  0.00     0.049 A 
ATOM     53  H   UNL A   1      41.870  28.419  31.314  1.00  0.00     0.167 HD
ATOM     54  C   UNL A   1      42.802  29.256  33.842  1.00  0.00     0.074 A 
ATOM     55  C   UNL A   1      42.844  29.903  35.136  1.00  0.00     0.031 C 
ATOM     56  C   UNL A   1      43.776  28.446  33.360  1.00  0.00     0.037 A 
BRANCH  43  57
ATOM     57  C   UNL A   1      42.536  26.119  27.786  1.00  0.00     0.064 A 
ATOM     58  C   UNL A   1      42.043  24.811  27.666  1.00  0.00     0.173 A 
ATOM     59  C   UNL A   1      43.419  26.581  26.799  1.00  0.00     0.173 A 
ATOM     60  F   UNL A   1      41.202  24.320  28.588  1.00  0.00    -0.203 F 
ATOM     61  C   UNL A   1      42.441  23.990  26.614  1.00  0.00     0.198 A 
ATOM     62  C   UNL A   1      43.796  25.767  25.734  1.00  0.00     0.198 A 
ATOM     63  F   UNL A   1      43.911  27.828  26.863  1.00  0.00    -0.203 F 
ATOM     64  F   UNL A   1      41.992  22.730  26.543  1.00  0.00    -0.200 F 
ATOM     65  C   UNL A   1      43.312  24.470  25.646  1.00  0.00     0.200 A 
ATOM     66  F   UNL A   1      44.627  26.236  24.793  1.00  0.00    -0.200 F 
ATOM     67  F   UNL A   1      43.689  23.680  24.632  1.00  0.00    -0.200 F 
ENDBRANCH  43  57
BRANCH  44  68
ATOM     68  C   UNL A   1      39.181  31.977  35.085  1.00  0.00     0.064 A 
ATOM     69  C   UNL A   1      38.451  31.422  36.145  1.00  0.00     0.173 A 
ATOM     70  C   UNL A   1      39.414  33.360  35.102  1.00  0.00     0.173 A 
ATOM     71  F   UNL A   1      38.180  30.109  36.156  1.00  0.00    -0.203 F 
ATOM     72  C   UNL A   1      37.962  32.222  37.176  1.00  0.00     0.198 A 
ATOM     73  C   UNL A   1      38.945  34.153  36.146  1.00  0.00     0.198 A 
ATOM     74  F   UNL A   1      40.107  33.935  34.108  1.00  0.00    -0.203 F 
ATOM     75  F   UNL A   1      37.233  31.673  38.158  1.00  0.00    -0.200 F 
ATOM     76  C   UNL A   1      38.214  33.586  37.178  1.00  0.00     0.200 A 
ATOM     77  F   UNL A   1      39.199  35.470  36.149  1.00  0.00    -0.200 F 
ATOM     78  F   UNL A   1      37.747  34.353  38.171  1.00  0.00    -0.200 F 
ENDBRANCH  44  68
BRANCH  56  79
ATOM     79  C   UNL A   1      44.987  28.236  34.219  1.00  0.00     0.064 A 
ATOM     80  C   UNL A   1      46.093  29.095  34.149  1.00  0.00     0.173 A 
ATOM     81  C   UNL A   1      45.024  27.189  35.152  1.00  0.00     0.173 A 
ATOM     82  F   UNL A   1      46.111  30.101  33.262  1.00  0.00    -0.203 F 
ATOM     83  C   UNL A   1      47.201  28.900  34.969  1.00  0.00     0.198 A 
ATOM     84  C   UNL A   1      46.124  27.011  35.986  1.00  0.00     0.198 A 
ATOM     85  F   UNL A   1      43.988  26.344  35.261  1.00  0.00    -0.203 F 
ATOM     86  F   UNL A   1      48.264  29.710  34.860  1.00  0.00    -0.200 F 
ATOM     87  C   UNL A   1      47.214  27.864  35.891  1.00  0.00     0.200 A 
ATOM     88  F   UNL A   1      46.130  26.016  36.883  1.00  0.00    -0.200 F 
ATOM     89  F   UNL A   1      48.279  27.682  36.683  1.00  0.00    -0.200 F 
ENDBRANCH  56  79
ENDBRANCH  30  31
ENDBRANCH  22  25
ENDBRANCH  20  21
ENDBRANCH   1  20
TORSDOF 12
ENDMDL
MODEL 3
REMARK VINA RESULT:     -12.2      1.581      7.780
REMARK SMILES CC1(C)[C@H]2CC[C@]1(C)[C@](O)(CC(=O)NCCCNC(=O)c1ccc(-c3c4nc(c(-c5c(F)c(F)c(F)c(F)c5F)c5ccc([nH]5)c(-c5c(F)c(F)c(F)c(F)c5F)c5nc(c(-c6c(F)c(F)c(F)c(F)c6F)c6ccc3[nH]6)C=C5)C=C4)cc1)C2
REMARK SMILES IDX 16 1 15 2 14 3 12 4 13 5 11 7 9 8 1 9 2 10 3 11 4 12 7 13
REMARK SMILES IDX 5 14 84 15 6 16 8 17 10 18 17 20 18 21 19 22 20 24 21 25
REMARK SMILES IDX 22 26 83 27 23 28 82 29 24 30 25 31 26 32 76 33 27 34 81 35
REMARK SMILES IDX 75 36 77 37 28 38 80 39 74 40 73 41 29 43 61 44 41 45 60 46
REMARK SMILES IDX 42 47 45 48 59 49 78 50 43 51 44 52 58 54 79 55 46 56 30 57
REMARK SMILES IDX 31 58 39 59 32 60 33 61 37 62 40 63 34 64 35 65 38 66 36 67
REMARK SMILES IDX 62 68 63 69 71 70 64 71 65 72 69 73 72 74 66 75 67 76 70 77
REMARK SMILES IDX 68 78 47 79 48 80 56 81 49 82 50 83 54 84 57 85 51 86 52 87
REMARK SMILES IDX 55 88 53 89
REMARK H PARENT 14 6 10 19 18 23 77 42 45 53
REMARK Flexibility Score: inf
ROOT
ATOM      1  C   UNL A   1      31.028  31.429  25.742  1.00  0.00     0.042 C 
ENDROOT
BRANCH   1   2
ATOM      2  C   UNL A   1      31.199  30.077  25.040  1.00  0.00     0.117 C 
BRANCH   2   3
ATOM      3  N   UNL A   1      30.622  30.078  23.707  1.00  0.00    -0.356 N 
ATOM      4  C   UNL A   1      30.146  29.062  22.941  1.00  0.00     0.222 C 
ATOM      5  O   UNL A   1      29.830  29.323  21.775  1.00  0.00    -0.275 OA
ATOM      6  H   UNL A   1      30.566  30.967  23.288  1.00  0.00     0.163 HD
BRANCH   4   7
ATOM      7  C   UNL A   1      29.970  27.648  23.460  1.00  0.00     0.135 C 
BRANCH   7   8
ATOM      8  C   UNL A   1      31.026  26.628  22.963  1.00  0.00     0.080 C 
ATOM      9  C   UNL A   1      34.243  24.800  24.276  1.00  0.00     0.012 C 
ATOM     10  C   UNL A   1      32.965  25.135  23.460  1.00  0.00    -0.024 C 
ATOM     11  C   UNL A   1      33.278  24.743  22.003  1.00  0.00     0.012 C 
ATOM     12  C   UNL A   1      31.663  24.503  24.010  1.00  0.00    -0.002 C 
ATOM     13  C   UNL A   1      32.411  26.587  23.722  1.00  0.00     0.002 C 
ATOM     14  C   UNL A   1      31.533  25.101  25.427  1.00  0.00     0.005 C 
ATOM     15  C   UNL A   1      30.542  25.158  23.158  1.00  0.00     0.040 C 
ATOM     16  C   UNL A   1      32.148  26.500  25.258  1.00  0.00     0.010 C 
ATOM     17  C   UNL A   1      33.371  27.690  23.308  1.00  0.00     0.015 C 
BRANCH   8  18
ATOM     18  O   UNL A   1      31.261  26.821  21.562  1.00  0.00    -0.389 OA
ATOM     19  H   UNL A   1      31.835  27.592  21.433  1.00  0.00     0.211 HD
ENDBRANCH   8  18
ENDBRANCH   7   8
ENDBRANCH   4   7
ENDBRANCH   2   3
ENDBRANCH   1   2
BRANCH   1  20
ATOM     20  C   UNL A   1      31.922  31.596  26.967  1.00  0.00     0.118 C 
BRANCH  20  21
ATOM     21  N   UNL A   1      32.256  32.989  27.203  1.00  0.00    -0.352 N 
ATOM     22  C   UNL A   1      33.292  33.608  27.849  1.00  0.00     0.251 C 
ATOM     23  H   UNL A   1      31.604  33.618  26.818  1.00  0.00     0.163 HD
ATOM     24  O   UNL A   1      33.166  34.814  28.084  1.00  0.00    -0.269 OA
BRANCH  22  25
ATOM     25  C   UNL A   1      34.545  32.931  28.287  1.00  0.00     0.039 A 
ATOM     26  C   UNL A   1      34.431  31.612  28.755  1.00  0.00     0.014 A 
ATOM     27  C   UNL A   1      35.781  33.571  28.410  1.00  0.00     0.014 A 
ATOM     28  C   UNL A   1      35.516  30.956  29.352  1.00  0.00     0.010 A 
ATOM     29  C   UNL A   1      36.887  32.892  28.946  1.00  0.00     0.010 A 
ATOM     30  C   UNL A   1      36.760  31.592  29.459  1.00  0.00    -0.014 A 
BRANCH  30  31
ATOM     31  C   UNL A   1      37.895  30.940  30.175  1.00  0.00     0.031 A 
ATOM     32  C   UNL A   1      38.159  31.248  31.628  1.00  0.00     0.074 A 
ATOM     33  C   UNL A   1      38.706  30.076  29.533  1.00  0.00     0.049 A 
ATOM     34  N   UNL A   1      39.130  30.834  32.406  1.00  0.00    -0.248 NA
ATOM     35  C   UNL A   1      37.213  32.158  32.292  1.00  0.00     0.031 C 
ATOM     36  C   UNL A   1      38.587  29.690  28.127  1.00  0.00     0.029 A 
ATOM     37  N   UNL A   1      39.796  29.368  29.981  1.00  0.00    -0.354 N 
ATOM     38  C   UNL A   1      38.932  31.456  33.632  1.00  0.00     0.074 A 
ATOM     39  C   UNL A   1      37.764  32.300  33.489  1.00  0.00     0.031 C 
ATOM     40  C   UNL A   1      39.552  28.803  27.833  1.00  0.00     0.029 A 
ATOM     41  C   UNL A   1      40.380  28.583  29.017  1.00  0.00     0.049 A 
ATOM     42  H   UNL A   1      40.128  29.420  30.907  1.00  0.00     0.167 HD
ATOM     43  C   UNL A   1      39.642  31.327  34.779  1.00  0.00     0.037 A 
ATOM     44  C   UNL A   1      41.462  27.781  29.075  1.00  0.00     0.037 A 
ATOM     45  C   UNL A   1      40.770  30.450  34.952  1.00  0.00     0.049 A 
ATOM     46  C   UNL A   1      42.224  27.641  30.364  1.00  0.00     0.074 A 
ATOM     47  C   UNL A   1      41.511  30.210  36.098  1.00  0.00     0.029 A 
ATOM     48  N   UNL A   1      41.317  29.660  33.953  1.00  0.00    -0.354 N 
ATOM     49  N   UNL A   1      42.002  28.211  31.522  1.00  0.00    -0.248 NA
ATOM     50  C   UNL A   1      43.388  26.742  30.352  1.00  0.00     0.031 C 
ATOM     51  C   UNL A   1      42.524  29.297  35.785  1.00  0.00     0.029 A 
ATOM     52  C   UNL A   1      42.391  28.941  34.453  1.00  0.00     0.049 A 
ATOM     53  H   UNL A   1      40.989  29.616  33.025  1.00  0.00     0.167 HD
ATOM     54  C   UNL A   1      42.980  27.723  32.381  1.00  0.00     0.074 A 
ATOM     55  C   UNL A   1      43.790  26.802  31.613  1.00  0.00     0.031 C 
ATOM     56  C   UNL A   1      43.186  28.017  33.687  1.00  0.00     0.037 A 
BRANCH  43  57
ATOM     57  C   UNL A   1      39.220  32.159  35.955  1.00  0.00     0.064 A 
ATOM     58  C   UNL A   1      38.322  31.672  36.916  1.00  0.00     0.173 A 
ATOM     59  C   UNL A   1      39.755  33.442  36.146  1.00  0.00     0.173 A 
ATOM     60  F   UNL A   1      37.777  30.455  36.775  1.00  0.00    -0.203 F 
ATOM     61  C   UNL A   1      37.956  32.449  38.012  1.00  0.00     0.198 A 
ATOM     62  C   UNL A   1      39.407  34.207  37.256  1.00  0.00     0.198 A 
ATOM     63  F   UNL A   1      40.626  33.950  35.260  1.00  0.00    -0.203 F 
ATOM     64  F   UNL A   1      37.064  31.981  38.896  1.00  0.00    -0.200 F 
ATOM     65  C   UNL A   1      38.502  33.713  38.184  1.00  0.00     0.200 A 
ATOM     66  F   UNL A   1      39.945  35.423  37.427  1.00  0.00    -0.200 F 
ATOM     67  F   UNL A   1      38.152  34.458  39.242  1.00  0.00    -0.200 F 
ENDBRANCH  43  57
BRANCH  44  68
ATOM     68  C   UNL A   1      41.883  27.026  27.867  1.00  0.00     0.064 A 
ATOM     69  C   UNL A   1      42.791  27.581  26.956  1.00  0.00     0.173 A 
ATOM     70  C   UNL A   1      41.383  25.744  27.597  1.00  0.00     0.173 A 
ATOM     71  F   UNL A   1      43.275  28.815  27.159  1.00  0.00    -0.203 F 
ATOM     72  C   UNL A   1      43.175  26.885  25.811  1.00  0.00     0.198 A 
ATOM     73  C   UNL A   1      41.786  25.041  26.465  1.00  0.00     0.198 A 
ATOM     74  F   UNL A   1      40.510  25.174  28.441  1.00  0.00    -0.203 F 
ATOM     75  F   UNL A   1      44.016  27.453  24.935  1.00  0.00    -0.200 F 
ATOM     76  C   UNL A   1      42.676  25.613  25.570  1.00  0.00     0.200 A 
ATOM     77  F   UNL A   1      41.309  23.808  26.240  1.00  0.00    -0.200 F 
ATOM     78  F   UNL A   1      43.049  24.944  24.472  1.00  0.00    -0.200 F 
ENDBRANCH  44  68
BRANCH  56  79
ATOM     79  C   UNL A   1      44.311  27.313  34.385  1.00  0.00     0.064 A 
ATOM     80  C   UNL A   1      45.592  27.878  34.466  1.00  0.00     0.173 A 
ATOM     81  C   UNL A   1      44.095  26.078  35.015  1.00  0.00     0.173 A 
ATOM     82  F   UNL A   1      45.851  29.050  33.866  1.00  0.00    -0.203 F 
ATOM     83  C   UNL A   1      46.621  27.223  35.137  1.00  0.00     0.198 A 
ATOM     84  C   UNL A   1      45.120  25.436  35.704  1.00  0.00     0.198 A 
ATOM     85  F   UNL A   1      42.886  25.499  34.970  1.00  0.00    -0.203 F 
ATOM     86  F   UNL A   1      47.847  27.763  35.171  1.00  0.00    -0.200 F 
ATOM     87  C   UNL A   1      46.384  26.007  35.760  1.00  0.00     0.200 A 
ATOM     88  F   UNL A   1      44.887  24.266  36.314  1.00  0.00    -0.200 F 
ATOM     89  F   UNL A   1      47.374  25.380  36.410  1.00  0.00    -0.200 F 
ENDBRANCH  56  79
ENDBRANCH  30  31
ENDBRANCH  22  25
ENDBRANCH  20  21
ENDBRANCH   1  20
TORSDOF 12
ENDMDL
