MODEL 1
REMARK VINA RESULT:     -13.2      0.000      0.000
REMARK SMILES O=C(NCCCNC(=O)c1ccc2nc(C3CCCCC3)[nH]c2c1)c1ccc(-c2c3nc(c(-c4c(F)c(F)c(F)c(F)c4F)c4ccc([nH]4)c(-c4c(F)c(F)c(F)c(F)c4F)c4nc(c(-c5c(F)c(F)c(F)c(F)c5F)c5ccc2[nH]5)C=C4)C=C3)cc1
REMARK SMILES IDX 4 1 3 2 1 3 2 4 25 6 26 7 87 8 27 9 86 10 28 11 29 12 30 13
REMARK SMILES IDX 80 14 31 15 85 16 79 17 81 18 32 19 84 20 78 21 77 22 33 24
REMARK SMILES IDX 65 25 45 26 64 27 46 28 49 29 63 30 82 31 47 32 48 33 62 35
REMARK SMILES IDX 83 36 50 37 34 38 35 39 43 40 36 41 37 42 41 43 44 44 38 45
REMARK SMILES IDX 39 46 42 47 40 48 66 49 67 50 75 51 68 52 69 53 73 54 76 55
REMARK SMILES IDX 70 56 71 57 74 58 72 59 51 60 52 61 60 62 53 63 54 64 58 65
REMARK SMILES IDX 61 66 55 67 56 68 59 69 57 70 5 71 6 72 7 73 8 74 9 76 10 77
REMARK SMILES IDX 11 78 24 79 12 80 23 81 13 82 22 83 14 84 15 85 16 87 17 88
REMARK SMILES IDX 21 89 18 90 20 91 19 92
REMARK H PARENT 3 5 81 23 49 34 7 75 22 86
REMARK Flexibility Score: inf
ROOT
ATOM      1  C   UNL A   1      32.706  32.515  27.172  1.00  0.00     0.118 C 
ENDROOT
BRANCH   1   2
ATOM      2  N   UNL A   1      32.477  33.899  27.567  1.00  0.00    -0.352 N 
ATOM      3  O   UNL A   1      32.604  35.731  28.877  1.00  0.00    -0.269 OA
ATOM      4  C   UNL A   1      33.058  34.631  28.572  1.00  0.00     0.251 C 
ATOM      5  H   UNL A   1      31.806  34.382  27.033  1.00  0.00     0.163 HD
BRANCH   4   6
ATOM      6  C   UNL A   1      34.227  34.089  29.296  1.00  0.00     0.039 A 
ATOM      7  C   UNL A   1      34.048  33.226  30.377  1.00  0.00     0.014 A 
ATOM      8  C   UNL A   1      35.516  34.422  28.870  1.00  0.00     0.014 A 
ATOM      9  C   UNL A   1      35.142  32.813  31.123  1.00  0.00     0.010 A 
ATOM     10  C   UNL A   1      36.624  33.913  29.552  1.00  0.00     0.010 A 
ATOM     11  C   UNL A   1      36.442  33.112  30.691  1.00  0.00    -0.014 A 
BRANCH  11  12
ATOM     12  C   UNL A   1      37.586  32.448  31.364  1.00  0.00     0.031 A 
ATOM     13  C   UNL A   1      38.297  31.284  30.742  1.00  0.00     0.074 A 
ATOM     14  C   UNL A   1      37.972  32.930  32.562  1.00  0.00     0.049 A 
ATOM     15  N   UNL A   1      39.301  30.590  31.216  1.00  0.00    -0.248 NA
ATOM     16  C   UNL A   1      37.827  30.832  29.423  1.00  0.00     0.031 C 
ATOM     17  C   UNL A   1      37.332  34.049  33.263  1.00  0.00     0.029 A 
ATOM     18  N   UNL A   1      38.989  32.556  33.400  1.00  0.00    -0.354 N 
ATOM     19  C   UNL A   1      39.570  29.610  30.271  1.00  0.00     0.074 A 
ATOM     20  C   UNL A   1      38.615  29.788  29.196  1.00  0.00     0.031 C 
ATOM     21  C   UNL A   1      37.991  34.289  34.405  1.00  0.00     0.029 A 
ATOM     22  C   UNL A   1      39.043  33.295  34.557  1.00  0.00     0.049 A 
ATOM     23  H   UNL A   1      39.619  31.828  33.195  1.00  0.00     0.167 HD
ATOM     24  C   UNL A   1      40.529  28.655  30.307  1.00  0.00     0.037 A 
ATOM     25  C   UNL A   1      39.824  33.161  35.644  1.00  0.00     0.037 A 
ATOM     26  C   UNL A   1      41.484  28.506  31.376  1.00  0.00     0.049 A 
ATOM     27  C   UNL A   1      40.849  32.063  35.662  1.00  0.00     0.074 A 
ATOM     28  C   UNL A   1      42.541  27.616  31.466  1.00  0.00     0.029 A 
ATOM     29  N   UNL A   1      41.490  29.253  32.545  1.00  0.00    -0.354 N 
ATOM     30  N   UNL A   1      41.140  31.191  34.728  1.00  0.00    -0.248 NA
ATOM     31  C   UNL A   1      41.648  31.927  36.885  1.00  0.00     0.031 C 
ATOM     32  C   UNL A   1      43.142  27.777  32.718  1.00  0.00     0.029 A 
ATOM     33  C   UNL A   1      42.502  28.810  33.383  1.00  0.00     0.049 A 
ATOM     34  H   UNL A   1      40.868  29.988  32.749  1.00  0.00     0.167 HD
ATOM     35  C   UNL A   1      42.161  30.408  35.247  1.00  0.00     0.074 A 
ATOM     36  C   UNL A   1      42.464  30.935  36.562  1.00  0.00     0.031 C 
ATOM     37  C   UNL A   1      42.784  29.342  34.690  1.00  0.00     0.037 A 
BRANCH  24  38
ATOM     38  C   UNL A   1      40.599  27.669  29.178  1.00  0.00     0.064 A 
ATOM     39  C   UNL A   1      39.733  26.569  29.098  1.00  0.00     0.173 A 
ATOM     40  C   UNL A   1      41.472  27.895  28.101  1.00  0.00     0.173 A 
ATOM     41  F   UNL A   1      38.884  26.304  30.103  1.00  0.00    -0.203 F 
ATOM     42  C   UNL A   1      39.737  25.733  27.984  1.00  0.00     0.198 A 
ATOM     43  C   UNL A   1      41.456  27.071  26.977  1.00  0.00     0.198 A 
ATOM     44  F   UNL A   1      42.316  28.938  28.122  1.00  0.00    -0.203 F 
ATOM     45  F   UNL A   1      38.912  24.678  27.937  1.00  0.00    -0.200 F 
ATOM     46  C   UNL A   1      40.589  25.992  26.920  1.00  0.00     0.200 A 
ATOM     47  F   UNL A   1      42.268  27.334  25.944  1.00  0.00    -0.200 F 
ATOM     48  F   UNL A   1      40.573  25.201  25.839  1.00  0.00    -0.200 F 
ENDBRANCH  24  38
BRANCH  25  49
ATOM     49  C   UNL A   1      39.630  34.051  36.818  1.00  0.00     0.064 A 
ATOM     50  C   UNL A   1      40.247  35.307  36.888  1.00  0.00     0.173 A 
ATOM     51  C   UNL A   1      38.843  33.649  37.910  1.00  0.00     0.173 A 
ATOM     52  F   UNL A   1      41.021  35.731  35.879  1.00  0.00    -0.203 F 
ATOM     53  C   UNL A   1      40.115  36.110  38.020  1.00  0.00     0.198 A 
ATOM     54  C   UNL A   1      38.680  34.469  39.022  1.00  0.00     0.198 A 
ATOM     55  F   UNL A   1      38.225  32.459  37.891  1.00  0.00    -0.203 F 
ATOM     56  F   UNL A   1      40.770  37.277  38.090  1.00  0.00    -0.200 F 
ATOM     57  C   UNL A   1      39.328  35.692  39.084  1.00  0.00     0.200 A 
ATOM     58  F   UNL A   1      37.901  34.070  40.037  1.00  0.00    -0.200 F 
ATOM     59  F   UNL A   1      39.205  36.464  40.172  1.00  0.00    -0.200 F 
ENDBRANCH  25  49
BRANCH  37  60
ATOM     60  C   UNL A   1      43.861  28.685  35.502  1.00  0.00     0.064 A 
ATOM     61  C   UNL A   1      45.209  29.049  35.362  1.00  0.00     0.173 A 
ATOM     62  C   UNL A   1      43.540  27.702  36.451  1.00  0.00     0.173 A 
ATOM     63  F   UNL A   1      45.568  29.969  34.455  1.00  0.00    -0.203 F 
ATOM     64  C   UNL A   1      46.198  28.432  36.122  1.00  0.00     0.198 A 
ATOM     65  C   UNL A   1      44.529  27.113  37.233  1.00  0.00     0.198 A 
ATOM     66  F   UNL A   1      42.266  27.321  36.626  1.00  0.00    -0.203 F 
ATOM     67  F   UNL A   1      47.485  28.757  35.931  1.00  0.00    -0.200 F 
ATOM     68  C   UNL A   1      45.857  27.472  37.063  1.00  0.00     0.200 A 
ATOM     69  F   UNL A   1      44.196  26.196  38.151  1.00  0.00    -0.200 F 
ATOM     70  F   UNL A   1      46.811  26.886  37.799  1.00  0.00    -0.200 F 
ENDBRANCH  37  60
ENDBRANCH  11  12
ENDBRANCH   4   6
ENDBRANCH   1   2
BRANCH   1  71
ATOM     71  C   UNL A   1      31.487  31.878  26.530  1.00  0.00     0.042 C 
BRANCH  71  72
ATOM     72  C   UNL A   1      31.707  30.438  26.098  1.00  0.00     0.118 C 
BRANCH  72  73
ATOM     73  N   UNL A   1      31.193  30.183  24.760  1.00  0.00    -0.352 N 
ATOM     74  C   UNL A   1      31.248  29.044  24.000  1.00  0.00     0.251 C 
ATOM     75  H   UNL A   1      30.737  30.945  24.337  1.00  0.00     0.163 HD
ATOM     76  O   UNL A   1      30.966  29.097  22.806  1.00  0.00    -0.269 OA
BRANCH  74  77
ATOM     77  C   UNL A   1      31.662  27.758  24.603  1.00  0.00     0.042 A 
ATOM     78  C   UNL A   1      30.768  27.004  25.378  1.00  0.00     0.016 A 
ATOM     79  C   UNL A   1      32.958  27.297  24.329  1.00  0.00     0.042 A 
ATOM     80  C   UNL A   1      31.177  25.815  25.990  1.00  0.00     0.031 A 
ATOM     81  C   UNL A   1      33.322  26.090  24.924  1.00  0.00     0.066 A 
ATOM     82  C   UNL A   1      32.480  25.358  25.754  1.00  0.00     0.089 A 
ATOM     83  N   UNL A   1      34.470  25.346  24.871  1.00  0.00    -0.342 N 
ATOM     84  N   UNL A   1      33.104  24.231  26.215  1.00  0.00    -0.233 NA
ATOM     85  C   UNL A   1      34.299  24.234  25.663  1.00  0.00     0.110 A 
ATOM     86  H   UNL A   1      35.277  25.567  24.354  1.00  0.00     0.168 HD
BRANCH  85  87
ATOM     87  C   UNL A   1      35.347  23.177  25.824  1.00  0.00     0.055 C 
ATOM     88  C   UNL A   1      34.991  21.927  25.005  1.00  0.00     0.011 C 
ATOM     89  C   UNL A   1      36.743  23.707  25.468  1.00  0.00     0.011 C 
ATOM     90  C   UNL A   1      36.065  20.850  25.127  1.00  0.00     0.001 C 
ATOM     91  C   UNL A   1      37.803  22.618  25.590  1.00  0.00     0.001 C 
ATOM     92  C   UNL A   1      37.443  21.391  24.759  1.00  0.00     0.000 C 
ENDBRANCH  85  87
ENDBRANCH  74  77
ENDBRANCH  72  73
ENDBRANCH  71  72
ENDBRANCH   1  71
TORSDOF 11
ENDMDL
MODEL 2
REMARK VINA RESULT:     -13.1      0.317      1.639
REMARK SMILES O=C(NCCCNC(=O)c1ccc2nc(C3CCCCC3)[nH]c2c1)c1ccc(-c2c3nc(c(-c4c(F)c(F)c(F)c(F)c4F)c4ccc([nH]4)c(-c4c(F)c(F)c(F)c(F)c4F)c4nc(c(-c5c(F)c(F)c(F)c(F)c5F)c5ccc2[nH]5)C=C4)C=C3)cc1
REMARK SMILES IDX 4 1 3 2 1 3 2 4 25 6 26 7 87 8 27 9 86 10 28 11 29 12 30 13
REMARK SMILES IDX 80 14 31 15 85 16 79 17 81 18 32 19 84 20 78 21 77 22 33 24
REMARK SMILES IDX 65 25 45 26 64 27 46 28 49 29 63 30 82 31 47 32 48 33 62 35
REMARK SMILES IDX 83 36 50 37 34 38 35 39 43 40 36 41 37 42 41 43 44 44 38 45
REMARK SMILES IDX 39 46 42 47 40 48 66 49 67 50 75 51 68 52 69 53 73 54 76 55
REMARK SMILES IDX 70 56 71 57 74 58 72 59 51 60 52 61 60 62 53 63 54 64 58 65
REMARK SMILES IDX 61 66 55 67 56 68 59 69 57 70 5 71 6 72 7 73 8 74 9 76 10 77
REMARK SMILES IDX 11 78 24 79 12 80 23 81 13 82 22 83 14 84 15 85 16 87 17 88
REMARK SMILES IDX 21 89 18 90 20 91 19 92
REMARK H PARENT 3 5 81 23 49 34 7 75 22 86
REMARK Flexibility Score: inf
ROOT
ATOM      1  C   UNL A   1      32.662  32.460  27.025  1.00  0.00     0.118 C 
ENDROOT
BRANCH   1   2
ATOM      2  N   UNL A   1      32.443  33.838  27.444  1.00  0.00    -0.352 N 
ATOM      3  O   UNL A   1      32.588  35.647  28.785  1.00  0.00    -0.269 OA
ATOM      4  C   UNL A   1      33.035  34.550  28.458  1.00  0.00     0.251 C 
ATOM      5  H   UNL A   1      31.771  34.334  26.923  1.00  0.00     0.163 HD
BRANCH   4   6
ATOM      6  C   UNL A   1      34.204  33.989  29.165  1.00  0.00     0.039 A 
ATOM      7  C   UNL A   1      34.028  33.074  30.204  1.00  0.00     0.014 A 
ATOM      8  C   UNL A   1      35.492  34.357  28.767  1.00  0.00     0.014 A 
ATOM      9  C   UNL A   1      35.121  32.639  30.938  1.00  0.00     0.010 A 
ATOM     10  C   UNL A   1      36.601  33.830  29.433  1.00  0.00     0.010 A 
ATOM     11  C   UNL A   1      36.421  32.975  30.532  1.00  0.00    -0.014 A 
BRANCH  11  12
ATOM     12  C   UNL A   1      37.567  32.294  31.182  1.00  0.00     0.031 A 
ATOM     13  C   UNL A   1      38.274  31.144  30.529  1.00  0.00     0.074 A 
ATOM     14  C   UNL A   1      37.962  32.748  32.389  1.00  0.00     0.049 A 
ATOM     15  N   UNL A   1      39.279  30.437  30.981  1.00  0.00    -0.248 NA
ATOM     16  C   UNL A   1      37.794  30.722  29.204  1.00  0.00     0.031 C 
ATOM     17  C   UNL A   1      37.328  33.851  33.119  1.00  0.00     0.029 A 
ATOM     18  N   UNL A   1      38.984  32.353  33.212  1.00  0.00    -0.354 N 
ATOM     19  C   UNL A   1      39.541  29.479  30.012  1.00  0.00     0.074 A 
ATOM     20  C   UNL A   1      38.579  29.682  28.948  1.00  0.00     0.031 C 
ATOM     21  C   UNL A   1      37.994  34.064  34.262  1.00  0.00     0.029 A 
ATOM     22  C   UNL A   1      39.045  33.066  34.385  1.00  0.00     0.049 A 
ATOM     23  H   UNL A   1      39.612  31.629  32.986  1.00  0.00     0.167 HD
ATOM     24  C   UNL A   1      40.498  28.522  30.020  1.00  0.00     0.037 A 
ATOM     25  C   UNL A   1      39.833  32.906  35.463  1.00  0.00     0.037 A 
ATOM     26  C   UNL A   1      41.460  28.347  31.080  1.00  0.00     0.049 A 
ATOM     27  C   UNL A   1      40.856  31.806  35.450  1.00  0.00     0.074 A 
ATOM     28  C   UNL A   1      42.516  27.454  31.143  1.00  0.00     0.029 A 
ATOM     29  N   UNL A   1      41.475  29.067  32.266  1.00  0.00    -0.354 N 
ATOM     30  N   UNL A   1      41.141  30.955  34.495  1.00  0.00    -0.248 NA
ATOM     31  C   UNL A   1      41.663  31.640  36.665  1.00  0.00     0.031 C 
ATOM     32  C   UNL A   1      43.125  27.586  32.395  1.00  0.00     0.029 A 
ATOM     33  C   UNL A   1      42.491  28.603  33.087  1.00  0.00     0.049 A 
ATOM     34  H   UNL A   1      40.855  29.798  32.491  1.00  0.00     0.167 HD
ATOM     35  C   UNL A   1      42.164  30.160  34.989  1.00  0.00     0.074 A 
ATOM     36  C   UNL A   1      42.475  30.655  36.314  1.00  0.00     0.031 C 
ATOM     37  C   UNL A   1      42.781  29.106  34.404  1.00  0.00     0.037 A 
BRANCH  24  38
ATOM     38  C   UNL A   1      40.561  27.562  28.868  1.00  0.00     0.064 A 
ATOM     39  C   UNL A   1      39.767  26.406  28.823  1.00  0.00     0.173 A 
ATOM     40  C   UNL A   1      41.342  27.865  27.742  1.00  0.00     0.173 A 
ATOM     41  F   UNL A   1      39.007  26.067  29.875  1.00  0.00    -0.203 F 
ATOM     42  C   UNL A   1      39.755  25.591  27.693  1.00  0.00     0.198 A 
ATOM     43  C   UNL A   1      41.307  27.062  26.605  1.00  0.00     0.198 A 
ATOM     44  F   UNL A   1      42.112  28.964  27.730  1.00  0.00    -0.203 F 
ATOM     45  F   UNL A   1      39.002  24.482  27.678  1.00  0.00    -0.200 F 
ATOM     46  C   UNL A   1      40.514  25.925  26.582  1.00  0.00     0.200 A 
ATOM     47  F   UNL A   1      42.029  27.397  25.527  1.00  0.00    -0.200 F 
ATOM     48  F   UNL A   1      40.480  25.154  25.487  1.00  0.00    -0.200 F 
ENDBRANCH  24  38
BRANCH  25  49
ATOM     49  C   UNL A   1      39.647  33.769  36.659  1.00  0.00     0.064 A 
ATOM     50  C   UNL A   1      38.836  33.365  37.727  1.00  0.00     0.173 A 
ATOM     51  C   UNL A   1      40.257  35.031  36.744  1.00  0.00     0.173 A 
ATOM     52  F   UNL A   1      38.218  32.175  37.688  1.00  0.00    -0.203 F 
ATOM     53  C   UNL A   1      38.612  34.206  38.817  1.00  0.00     0.198 A 
ATOM     54  C   UNL A   1      40.064  35.852  37.851  1.00  0.00     0.198 A 
ATOM     55  F   UNL A   1      41.049  35.464  35.752  1.00  0.00    -0.203 F 
ATOM     56  F   UNL A   1      37.777  33.822  39.793  1.00  0.00    -0.200 F 
ATOM     57  C   UNL A   1      39.229  35.446  38.879  1.00  0.00     0.200 A 
ATOM     58  F   UNL A   1      40.681  37.040  37.916  1.00  0.00    -0.200 F 
ATOM     59  F   UNL A   1      39.011  36.253  39.926  1.00  0.00    -0.200 F 
ENDBRANCH  25  49
BRANCH  37  60
ATOM     60  C   UNL A   1      43.862  28.428  35.194  1.00  0.00     0.064 A 
ATOM     61  C   UNL A   1      43.586  27.330  36.022  1.00  0.00     0.173 A 
ATOM     62  C   UNL A   1      45.194  28.863  35.101  1.00  0.00     0.173 A 
ATOM     63  F   UNL A   1      42.326  26.890  36.160  1.00  0.00    -0.203 F 
ATOM     64  C   UNL A   1      44.597  26.709  36.749  1.00  0.00     0.198 A 
ATOM     65  C   UNL A   1      46.208  28.217  35.803  1.00  0.00     0.198 A 
ATOM     66  F   UNL A   1      45.512  29.906  34.320  1.00  0.00    -0.203 F 
ATOM     67  F   UNL A   1      44.300  25.697  37.576  1.00  0.00    -0.200 F 
ATOM     68  C   UNL A   1      45.908  27.147  36.632  1.00  0.00     0.200 A 
ATOM     69  F   UNL A   1      47.475  28.632  35.677  1.00  0.00    -0.200 F 
ATOM     70  F   UNL A   1      46.881  26.542  37.326  1.00  0.00    -0.200 F 
ENDBRANCH  37  60
ENDBRANCH  11  12
ENDBRANCH   4   6
ENDBRANCH   1   2
BRANCH   1  71
ATOM     71  C   UNL A   1      31.400  31.799  26.501  1.00  0.00     0.042 C 
BRANCH  71  72
ATOM     72  C   UNL A   1      31.601  30.358  26.064  1.00  0.00     0.118 C 
BRANCH  72  73
ATOM     73  N   UNL A   1      31.056  30.105  24.739  1.00  0.00    -0.352 N 
ATOM     74  C   UNL A   1      31.097  28.970  23.972  1.00  0.00     0.251 C 
ATOM     75  H   UNL A   1      30.584  30.866  24.331  1.00  0.00     0.163 HD
ATOM     76  O   UNL A   1      30.784  29.027  22.787  1.00  0.00    -0.269 OA
BRANCH  74  77
ATOM     77  C   UNL A   1      31.534  27.684  24.559  1.00  0.00     0.042 A 
ATOM     78  C   UNL A   1      30.653  26.905  25.324  1.00  0.00     0.016 A 
ATOM     79  C   UNL A   1      32.838  27.250  24.278  1.00  0.00     0.042 A 
ATOM     80  C   UNL A   1      31.084  25.715  25.920  1.00  0.00     0.031 A 
ATOM     81  C   UNL A   1      33.223  26.041  24.858  1.00  0.00     0.066 A 
ATOM     82  C   UNL A   1      32.394  25.284  25.678  1.00  0.00     0.089 A 
ATOM     83  N   UNL A   1      34.383  25.318  24.795  1.00  0.00    -0.342 N 
ATOM     84  N   UNL A   1      33.038  24.162  26.125  1.00  0.00    -0.233 NA
ATOM     85  C   UNL A   1      34.233  24.194  25.573  1.00  0.00     0.110 A 
ATOM     86  H   UNL A   1      35.187  25.561  24.281  1.00  0.00     0.168 HD
BRANCH  85  87
ATOM     87  C   UNL A   1      35.298  23.153  25.720  1.00  0.00     0.055 C 
ATOM     88  C   UNL A   1      34.948  21.895  24.912  1.00  0.00     0.011 C 
ATOM     89  C   UNL A   1      36.680  23.703  25.338  1.00  0.00     0.011 C 
ATOM     90  C   UNL A   1      36.039  20.834  25.020  1.00  0.00     0.001 C 
ATOM     91  C   UNL A   1      37.759  22.630  25.446  1.00  0.00     0.001 C 
ATOM     92  C   UNL A   1      37.403  21.394  24.626  1.00  0.00     0.000 C 
ENDBRANCH  85  87
ENDBRANCH  74  77
ENDBRANCH  72  73
ENDBRANCH  71  72
ENDBRANCH   1  71
TORSDOF 11
ENDMDL
MODEL 3
REMARK VINA RESULT:     -13.1      5.792     11.260
REMARK SMILES O=C(NCCCNC(=O)c1ccc2nc(C3CCCCC3)[nH]c2c1)c1ccc(-c2c3nc(c(-c4c(F)c(F)c(F)c(F)c4F)c4ccc([nH]4)c(-c4c(F)c(F)c(F)c(F)c4F)c4nc(c(-c5c(F)c(F)c(F)c(F)c5F)c5ccc2[nH]5)C=C4)C=C3)cc1
REMARK SMILES IDX 4 1 3 2 1 3 2 4 25 6 26 7 87 8 27 9 86 10 28 11 29 12 30 13
REMARK SMILES IDX 80 14 31 15 85 16 79 17 81 18 32 19 84 20 78 21 77 22 33 24
REMARK SMILES IDX 65 25 45 26 64 27 46 28 49 29 63 30 82 31 47 32 48 33 62 35
REMARK SMILES IDX 83 36 50 37 34 38 35 39 43 40 36 41 37 42 41 43 44 44 38 45
REMARK SMILES IDX 39 46 42 47 40 48 66 49 67 50 75 51 68 52 69 53 73 54 76 55
REMARK SMILES IDX 70 56 71 57 74 58 72 59 51 60 52 61 60 62 53 63 54 64 58 65
REMARK SMILES IDX 61 66 55 67 56 68 59 69 57 70 5 71 6 72 7 73 8 74 9 76 10 77
REMARK SMILES IDX 11 78 24 79 12 80 23 81 13 82 22 83 14 84 15 85 16 87 17 88
REMARK SMILES IDX 21 89 18 90 20 91 19 92
REMARK H PARENT 3 5 81 23 49 34 7 75 22 86
REMARK Flexibility Score: inf
ROOT
ATOM      1  C   UNL A   1      39.091  20.180  25.808  1.00  0.00     0.118 C 
ENDROOT
BRANCH   1   2
ATOM      2  N   UNL A   1      40.162  19.198  25.910  1.00  0.00    -0.352 N 
ATOM      3  O   UNL A   1      42.288  18.443  25.952  1.00  0.00    -0.269 OA
ATOM      4  C   UNL A   1      41.512  19.388  26.075  1.00  0.00     0.251 C 
ATOM      5  H   UNL A   1      39.877  18.258  25.851  1.00  0.00     0.163 HD
BRANCH   4   6
ATOM      6  C   UNL A   1      42.032  20.734  26.392  1.00  0.00     0.039 A 
ATOM      7  C   UNL A   1      42.236  21.668  25.376  1.00  0.00     0.014 A 
ATOM      8  C   UNL A   1      42.288  21.078  27.722  1.00  0.00     0.014 A 
ATOM      9  C   UNL A   1      42.831  22.887  25.664  1.00  0.00     0.010 A 
ATOM     10  C   UNL A   1      42.782  22.349  28.027  1.00  0.00     0.010 A 
ATOM     11  C   UNL A   1      43.066  23.259  26.996  1.00  0.00    -0.014 A 
BRANCH  11  12
ATOM     12  C   UNL A   1      43.466  24.658  27.284  1.00  0.00     0.031 A 
ATOM     13  C   UNL A   1      42.483  25.668  27.795  1.00  0.00     0.074 A 
ATOM     14  C   UNL A   1      44.754  24.997  27.073  1.00  0.00     0.049 A 
ATOM     15  N   UNL A   1      42.680  26.932  28.076  1.00  0.00    -0.248 NA
ATOM     16  C   UNL A   1      41.102  25.214  28.017  1.00  0.00     0.031 C 
ATOM     17  C   UNL A   1      45.787  24.091  26.559  1.00  0.00     0.029 A 
ATOM     18  N   UNL A   1      45.420  26.178  27.267  1.00  0.00    -0.354 N 
ATOM     19  C   UNL A   1      41.451  27.429  28.486  1.00  0.00     0.074 A 
ATOM     20  C   UNL A   1      40.506  26.334  28.407  1.00  0.00     0.031 C 
ATOM     21  C   UNL A   1      46.958  24.739  26.510  1.00  0.00     0.029 A 
ATOM     22  C   UNL A   1      46.745  26.122  26.908  1.00  0.00     0.049 A 
ATOM     23  H   UNL A   1      44.991  26.988  27.627  1.00  0.00     0.167 HD
ATOM     24  C   UNL A   1      41.150  28.686  28.890  1.00  0.00     0.037 A 
ATOM     25  C   UNL A   1      47.679  27.089  26.862  1.00  0.00     0.037 A 
ATOM     26  C   UNL A   1      42.109  29.758  28.982  1.00  0.00     0.049 A 
ATOM     27  C   UNL A   1      47.295  28.480  27.280  1.00  0.00     0.074 A 
ATOM     28  C   UNL A   1      41.915  31.046  29.453  1.00  0.00     0.029 A 
ATOM     29  N   UNL A   1      43.435  29.674  28.583  1.00  0.00    -0.354 N 
ATOM     30  N   UNL A   1      46.147  28.917  27.736  1.00  0.00    -0.248 NA
ATOM     31  C   UNL A   1      48.333  29.512  27.171  1.00  0.00     0.031 C 
ATOM     32  C   UNL A   1      43.104  31.760  29.273  1.00  0.00     0.029 A 
ATOM     33  C   UNL A   1      44.057  30.902  28.750  1.00  0.00     0.049 A 
ATOM     34  H   UNL A   1      43.869  28.864  28.232  1.00  0.00     0.167 HD
ATOM     35  C   UNL A   1      46.327  30.271  27.977  1.00  0.00     0.074 A 
ATOM     36  C   UNL A   1      47.705  30.574  27.652  1.00  0.00     0.031 C 
ATOM     37  C   UNL A   1      45.428  31.185  28.416  1.00  0.00     0.037 A 
BRANCH  24  38
ATOM     38  C   UNL A   1      39.727  29.002  29.249  1.00  0.00     0.064 A 
ATOM     39  C   UNL A   1      38.802  29.442  28.292  1.00  0.00     0.173 A 
ATOM     40  C   UNL A   1      39.257  28.748  30.547  1.00  0.00     0.173 A 
ATOM     41  F   UNL A   1      39.201  29.705  27.038  1.00  0.00    -0.203 F 
ATOM     42  C   UNL A   1      37.459  29.617  28.621  1.00  0.00     0.198 A 
ATOM     43  C   UNL A   1      37.910  28.900  30.867  1.00  0.00     0.198 A 
ATOM     44  F   UNL A   1      40.099  28.317  31.499  1.00  0.00    -0.203 F 
ATOM     45  F   UNL A   1      36.596  30.055  27.695  1.00  0.00    -0.200 F 
ATOM     46  C   UNL A   1      37.013  29.334  29.904  1.00  0.00     0.200 A 
ATOM     47  F   UNL A   1      37.478  28.610  32.102  1.00  0.00    -0.200 F 
ATOM     48  F   UNL A   1      35.717  29.479  30.211  1.00  0.00    -0.200 F 
ENDBRANCH  24  38
BRANCH  25  49
ATOM     49  C   UNL A   1      49.042  26.788  26.352  1.00  0.00     0.064 A 
ATOM     50  C   UNL A   1      49.363  26.949  24.998  1.00  0.00     0.173 A 
ATOM     51  C   UNL A   1      50.045  26.304  27.207  1.00  0.00     0.173 A 
ATOM     52  F   UNL A   1      48.436  27.394  24.137  1.00  0.00    -0.203 F 
ATOM     53  C   UNL A   1      50.623  26.603  24.513  1.00  0.00     0.198 A 
ATOM     54  C   UNL A   1      51.315  25.997  26.728  1.00  0.00     0.198 A 
ATOM     55  F   UNL A   1      49.793  26.137  28.514  1.00  0.00    -0.203 F 
ATOM     56  F   UNL A   1      50.883  26.703  23.202  1.00  0.00    -0.200 F 
ATOM     57  C   UNL A   1      51.599  26.131  25.379  1.00  0.00     0.200 A 
ATOM     58  F   UNL A   1      52.260  25.563  27.573  1.00  0.00    -0.200 F 
ATOM     59  F   UNL A   1      52.809  25.796  24.910  1.00  0.00    -0.200 F 
ENDBRANCH  25  49
BRANCH  37  60
ATOM     60  C   UNL A   1      45.917  32.594  28.578  1.00  0.00     0.064 A 
ATOM     61  C   UNL A   1      46.506  33.032  29.773  1.00  0.00     0.173 A 
ATOM     62  C   UNL A   1      45.823  33.509  27.517  1.00  0.00     0.173 A 
ATOM     63  F   UNL A   1      46.600  32.201  30.822  1.00  0.00    -0.203 F 
ATOM     64  C   UNL A   1      46.957  34.342  29.911  1.00  0.00     0.198 A 
ATOM     65  C   UNL A   1      46.306  34.808  27.648  1.00  0.00     0.198 A 
ATOM     66  F   UNL A   1      45.272  33.139  26.352  1.00  0.00    -0.203 F 
ATOM     67  F   UNL A   1      47.465  34.753  31.081  1.00  0.00    -0.200 F 
ATOM     68  C   UNL A   1      46.865  35.225  28.846  1.00  0.00     0.200 A 
ATOM     69  F   UNL A   1      46.230  35.655  26.613  1.00  0.00    -0.200 F 
ATOM     70  F   UNL A   1      47.307  36.483  28.978  1.00  0.00    -0.200 F 
ENDBRANCH  37  60
ENDBRANCH  11  12
ENDBRANCH   4   6
ENDBRANCH   1   2
BRANCH   1  71
ATOM     71  C   UNL A   1      37.906  19.675  25.003  1.00  0.00     0.042 C 
BRANCH  71  72
ATOM     72  C   UNL A   1      36.782  20.689  24.869  1.00  0.00     0.118 C 
BRANCH  72  73
ATOM     73  N   UNL A   1      35.471  20.074  25.005  1.00  0.00    -0.352 N 
ATOM     74  C   UNL A   1      34.226  20.648  25.005  1.00  0.00     0.251 C 
ATOM     75  H   UNL A   1      35.478  19.096  25.113  1.00  0.00     0.163 HD
ATOM     76  O   UNL A   1      33.255  19.990  25.368  1.00  0.00    -0.269 OA
BRANCH  74  77
ATOM     77  C   UNL A   1      34.049  22.057  24.591  1.00  0.00     0.042 A 
ATOM     78  C   UNL A   1      33.917  22.398  23.237  1.00  0.00     0.016 A 
ATOM     79  C   UNL A   1      33.966  23.027  25.600  1.00  0.00     0.042 A 
ATOM     80  C   UNL A   1      33.801  23.736  22.844  1.00  0.00     0.031 A 
ATOM     81  C   UNL A   1      33.815  24.347  25.175  1.00  0.00     0.066 A 
ATOM     82  C   UNL A   1      33.751  24.721  23.838  1.00  0.00     0.089 A 
ATOM     83  N   UNL A   1      33.686  25.526  25.859  1.00  0.00    -0.342 N 
ATOM     84  N   UNL A   1      33.625  26.078  23.713  1.00  0.00    -0.233 NA
ATOM     85  C   UNL A   1      33.576  26.545  24.943  1.00  0.00     0.110 A 
ATOM     86  H   UNL A   1      33.674  25.626  26.838  1.00  0.00     0.168 HD
BRANCH  85  87
ATOM     87  C   UNL A   1      33.394  27.979  25.333  1.00  0.00     0.055 C 
ATOM     88  C   UNL A   1      31.984  28.468  24.971  1.00  0.00     0.011 C 
ATOM     89  C   UNL A   1      33.704  28.202  26.820  1.00  0.00     0.011 C 
ATOM     90  C   UNL A   1      31.765  29.918  25.393  1.00  0.00     0.001 C 
ATOM     91  C   UNL A   1      33.477  29.655  27.227  1.00  0.00     0.001 C 
ATOM     92  C   UNL A   1      32.067  30.120  26.875  1.00  0.00     0.000 C 
ENDBRANCH  85  87
ENDBRANCH  74  77
ENDBRANCH  72  73
ENDBRANCH  71  72
ENDBRANCH   1  71
TORSDOF 11
ENDMDL
