MODEL 1
REMARK VINA RESULT:     -13.8      0.000      0.000
REMARK SMILES Cc1c(C(=O)N[C@H]2C=C[C@@H](C(=O)NCCCNC(=O)c3ccc(-c4c5nc(c(-c6c(F)c(F)c(F)c(F)c6F)c6ccc([nH]6)c(-c6c(F)c(F)c(F)c(F)c6F)c6nc(c(-c7c(F)c(F)c(F)c(F)c7F)c7ccc4[nH]7)C=C6)C=C5)cc3)C2)oc2ccccc12
REMARK SMILES IDX 15 1 14 2 13 3 11 4 12 5 10 7 7 8 8 9 83 10 9 11 6 12 4 13
REMARK SMILES IDX 5 14 3 16 1 17 2 18 90 19 84 20 85 21 89 22 86 23 88 24
REMARK SMILES IDX 87 25 16 26 17 27 18 28 19 30 20 31 21 32 82 33 22 34 81 35
REMARK SMILES IDX 23 36 24 37 25 38 75 39 26 40 80 41 74 42 76 43 27 44 79 45
REMARK SMILES IDX 73 46 72 47 28 49 60 50 40 51 59 52 41 53 44 54 58 55 77 56
REMARK SMILES IDX 42 57 43 58 57 60 78 61 45 62 29 63 30 64 38 65 31 66 32 67
REMARK SMILES IDX 36 68 39 69 33 70 34 71 37 72 35 73 61 74 62 75 70 76 63 77
REMARK SMILES IDX 64 78 68 79 71 80 65 81 66 82 69 83 67 84 46 85 47 86 55 87
REMARK SMILES IDX 48 88 49 89 53 90 56 91 50 92 51 93 54 94 52 95
REMARK H PARENT 13 6 6 15 17 29 76 48 44 59
REMARK Flexibility Score: inf
ROOT
ATOM      1  C   UNL A   1      31.410  31.610  26.361  1.00  0.00     0.042 C 
ENDROOT
BRANCH   1   2
ATOM      2  C   UNL A   1      31.631  30.253  25.728  1.00  0.00     0.117 C 
BRANCH   2   3
ATOM      3  N   UNL A   1      30.864  30.105  24.506  1.00  0.00    -0.356 N 
ATOM      4  C   UNL A   1      30.655  29.011  23.730  1.00  0.00     0.227 C 
ATOM      5  O   UNL A   1      30.056  29.168  22.663  1.00  0.00    -0.274 OA
ATOM      6  H   UNL A   1      30.426  30.928  24.189  1.00  0.00     0.163 HD
BRANCH   4   7
ATOM      7  C   UNL A   1      31.183  27.642  24.127  1.00  0.00     0.103 C 
ATOM      8  C   UNL A   1      30.756  25.604  25.240  1.00  0.00     0.106 C 
ATOM      9  C   UNL A   1      30.567  25.391  23.784  1.00  0.00    -0.006 C 
ATOM     10  C   UNL A   1      30.510  27.099  25.385  1.00  0.00     0.047 C 
ATOM     11  C   UNL A   1      30.950  26.513  23.149  1.00  0.00    -0.016 C 
BRANCH   8  12
ATOM     12  N   UNL A   1      30.003  24.811  26.129  1.00  0.00    -0.343 N 
ATOM     13  C   UNL A   1      30.383  23.585  26.643  1.00  0.00     0.287 C 
ATOM     14  O   UNL A   1      29.597  23.143  27.489  1.00  0.00    -0.266 OA
ATOM     15  H   UNL A   1      29.126  25.162  26.408  1.00  0.00     0.164 HD
BRANCH  13  16
ATOM     16  C   UNL A   1      31.589  22.830  26.227  1.00  0.00     0.195 A 
ATOM     17  C   UNL A   1      33.965  24.072  26.313  1.00  0.00     0.049 C 
ATOM     18  C   UNL A   1      32.985  22.974  26.063  1.00  0.00     0.008 A 
ATOM     19  C   UNL A   1      33.471  21.732  25.531  1.00  0.00     0.024 A 
ATOM     20  O   UNL A   1      31.273  21.528  25.862  1.00  0.00    -0.451 OA
ATOM     21  C   UNL A   1      32.388  20.887  25.451  1.00  0.00     0.135 A 
ATOM     22  C   UNL A   1      34.732  21.254  25.126  1.00  0.00     0.012 A 
ATOM     23  C   UNL A   1      32.458  19.571  25.007  1.00  0.00     0.048 A 
ATOM     24  C   UNL A   1      34.843  19.938  24.670  1.00  0.00     0.001 A 
ATOM     25  C   UNL A   1      33.722  19.110  24.616  1.00  0.00     0.004 A 
ENDBRANCH  13  16
ENDBRANCH   8  12
ENDBRANCH   4   7
ENDBRANCH   2   3
ENDBRANCH   1   2
BRANCH   1  26
ATOM     26  C   UNL A   1      32.669  32.148  27.009  1.00  0.00     0.118 C 
BRANCH  26  27
ATOM     27  N   UNL A   1      32.535  33.560  27.346  1.00  0.00    -0.352 N 
ATOM     28  C   UNL A   1      33.116  34.270  28.363  1.00  0.00     0.251 C 
ATOM     29  H   UNL A   1      31.941  34.079  26.757  1.00  0.00     0.163 HD
ATOM     30  O   UNL A   1      32.651  35.351  28.704  1.00  0.00    -0.269 OA
BRANCH  28  31
ATOM     31  C   UNL A   1      34.313  33.727  29.030  1.00  0.00     0.039 A 
ATOM     32  C   UNL A   1      35.571  34.242  28.711  1.00  0.00     0.014 A 
ATOM     33  C   UNL A   1      34.191  32.672  29.937  1.00  0.00     0.014 A 
ATOM     34  C   UNL A   1      36.702  33.702  29.319  1.00  0.00     0.010 A 
ATOM     35  C   UNL A   1      35.296  32.232  30.642  1.00  0.00     0.010 A 
ATOM     36  C   UNL A   1      36.568  32.698  30.293  1.00  0.00    -0.014 A 
BRANCH  36  37
ATOM     37  C   UNL A   1      37.748  32.031  30.882  1.00  0.00     0.031 A 
ATOM     38  C   UNL A   1      38.177  32.395  32.278  1.00  0.00     0.074 A 
ATOM     39  C   UNL A   1      38.450  31.149  30.150  1.00  0.00     0.049 A 
ATOM     40  N   UNL A   1      39.192  31.955  32.976  1.00  0.00    -0.248 NA
ATOM     41  C   UNL A   1      37.383  33.425  32.970  1.00  0.00     0.031 C 
ATOM     42  C   UNL A   1      38.156  30.774  28.766  1.00  0.00     0.029 A 
ATOM     43  N   UNL A   1      39.550  30.403  30.475  1.00  0.00    -0.354 N 
ATOM     44  C   UNL A   1      39.172  32.676  34.163  1.00  0.00     0.074 A 
ATOM     45  C   UNL A   1      38.097  33.635  34.063  1.00  0.00     0.031 C 
ATOM     46  C   UNL A   1      39.023  29.826  28.378  1.00  0.00     0.029 A 
ATOM     47  C   UNL A   1      39.947  29.551  29.476  1.00  0.00     0.049 A 
ATOM     48  H   UNL A   1      40.012  30.471  31.341  1.00  0.00     0.167 HD
ATOM     49  C   UNL A   1      39.955  32.525  35.256  1.00  0.00     0.037 A 
ATOM     50  C   UNL A   1      40.933  28.636  29.466  1.00  0.00     0.037 A 
ATOM     51  C   UNL A   1      40.986  31.530  35.361  1.00  0.00     0.049 A 
ATOM     52  C   UNL A   1      41.765  28.459  30.705  1.00  0.00     0.074 A 
ATOM     53  C   UNL A   1      41.796  31.232  36.440  1.00  0.00     0.029 A 
ATOM     54  N   UNL A   1      41.343  30.663  34.337  1.00  0.00    -0.354 N 
ATOM     55  N   UNL A   1      41.691  29.088  31.853  1.00  0.00    -0.248 NA
ATOM     56  C   UNL A   1      42.812  27.431  30.649  1.00  0.00     0.031 C 
ATOM     57  C   UNL A   1      42.670  30.208  36.056  1.00  0.00     0.029 A 
ATOM     58  C   UNL A   1      42.372  29.836  34.754  1.00  0.00     0.049 A 
ATOM     59  H   UNL A   1      40.926  30.639  33.445  1.00  0.00     0.167 HD
ATOM     60  C   UNL A   1      42.651  28.507  32.670  1.00  0.00     0.074 A 
ATOM     61  C   UNL A   1      43.290  27.469  31.885  1.00  0.00     0.031 C 
ATOM     62  C   UNL A   1      42.975  28.802  33.953  1.00  0.00     0.037 A 
BRANCH  49  63
ATOM     63  C   UNL A   1      39.711  33.455  36.411  1.00  0.00     0.064 A 
ATOM     64  C   UNL A   1      38.852  33.113  37.468  1.00  0.00     0.173 A 
ATOM     65  C   UNL A   1      40.329  34.713  36.453  1.00  0.00     0.173 A 
ATOM     66  F   UNL A   1      38.221  31.929  37.471  1.00  0.00    -0.203 F 
ATOM     67  C   UNL A   1      38.583  34.015  38.495  1.00  0.00     0.198 A 
ATOM     68  C   UNL A   1      40.086  35.599  37.501  1.00  0.00     0.198 A 
ATOM     69  F   UNL A   1      41.162  35.092  35.471  1.00  0.00    -0.203 F 
ATOM     70  F   UNL A   1      37.699  33.694  39.451  1.00  0.00    -0.200 F 
ATOM     71  C   UNL A   1      39.202  35.255  38.513  1.00  0.00     0.200 A 
ATOM     72  F   UNL A   1      40.693  36.793  37.522  1.00  0.00    -0.200 F 
ATOM     73  F   UNL A   1      38.938  36.124  39.498  1.00  0.00    -0.200 F 
ENDBRANCH  49  63
BRANCH  50  74
ATOM     74  C   UNL A   1      41.119  27.765  28.278  1.00  0.00     0.064 A 
ATOM     75  C   UNL A   1      41.966  28.159  27.234  1.00  0.00     0.173 A 
ATOM     76  C   UNL A   1      40.480  26.522  28.169  1.00  0.00     0.173 A 
ATOM     77  F   UNL A   1      42.589  29.346  27.289  1.00  0.00    -0.203 F 
ATOM     78  C   UNL A   1      42.154  27.351  26.115  1.00  0.00     0.198 A 
ATOM     79  C   UNL A   1      40.687  25.704  27.061  1.00  0.00     0.198 A 
ATOM     80  F   UNL A   1      39.669  26.096  29.148  1.00  0.00    -0.203 F 
ATOM     81  F   UNL A   1      42.941  27.769  25.115  1.00  0.00    -0.200 F 
ATOM     82  C   UNL A   1      41.518  26.122  26.032  1.00  0.00     0.200 A 
ATOM     83  F   UNL A   1      40.084  24.509  26.990  1.00  0.00    -0.200 F 
ATOM     84  F   UNL A   1      41.704  25.341  24.959  1.00  0.00    -0.200 F 
ENDBRANCH  50  74
BRANCH  62  85
ATOM     85  C   UNL A   1      44.031  27.953  34.600  1.00  0.00     0.064 A 
ATOM     86  C   UNL A   1      45.379  28.338  34.618  1.00  0.00     0.173 A 
ATOM     87  C   UNL A   1      43.678  26.752  35.233  1.00  0.00     0.173 A 
ATOM     88  F   UNL A   1      45.766  29.471  34.013  1.00  0.00    -0.203 F 
ATOM     89  C   UNL A   1      46.342  27.531  35.216  1.00  0.00     0.198 A 
ATOM     90  C   UNL A   1      44.640  25.964  35.858  1.00  0.00     0.198 A 
ATOM     91  F   UNL A   1      42.400  26.345  35.251  1.00  0.00    -0.203 F 
ATOM     92  F   UNL A   1      47.634  27.888  35.172  1.00  0.00    -0.200 F 
ATOM     93  C   UNL A   1      45.972  26.349  35.840  1.00  0.00     0.200 A 
ATOM     94  F   UNL A   1      44.278  24.830  36.474  1.00  0.00    -0.200 F 
ATOM     95  F   UNL A   1      46.901  25.576  36.418  1.00  0.00    -0.200 F 
ENDBRANCH  62  85
ENDBRANCH  36  37
ENDBRANCH  28  31
ENDBRANCH  26  27
ENDBRANCH   1  26
TORSDOF 12
ENDMDL
MODEL 2
REMARK VINA RESULT:     -13.8      0.158      1.591
REMARK SMILES Cc1c(C(=O)N[C@H]2C=C[C@@H](C(=O)NCCCNC(=O)c3ccc(-c4c5nc(c(-c6c(F)c(F)c(F)c(F)c6F)c6ccc([nH]6)c(-c6c(F)c(F)c(F)c(F)c6F)c6nc(c(-c7c(F)c(F)c(F)c(F)c7F)c7ccc4[nH]7)C=C6)C=C5)cc3)C2)oc2ccccc12
REMARK SMILES IDX 15 1 14 2 13 3 11 4 12 5 10 7 7 8 8 9 83 10 9 11 6 12 4 13
REMARK SMILES IDX 5 14 3 16 1 17 2 18 90 19 84 20 85 21 89 22 86 23 88 24
REMARK SMILES IDX 87 25 16 26 17 27 18 28 19 30 20 31 21 32 82 33 22 34 81 35
REMARK SMILES IDX 23 36 24 37 25 38 75 39 26 40 80 41 74 42 76 43 27 44 79 45
REMARK SMILES IDX 73 46 72 47 28 49 60 50 40 51 59 52 41 53 44 54 58 55 77 56
REMARK SMILES IDX 42 57 43 58 57 60 78 61 45 62 29 63 30 64 38 65 31 66 32 67
REMARK SMILES IDX 36 68 39 69 33 70 34 71 37 72 35 73 61 74 62 75 70 76 63 77
REMARK SMILES IDX 64 78 68 79 71 80 65 81 66 82 69 83 67 84 46 85 47 86 55 87
REMARK SMILES IDX 48 88 49 89 53 90 56 91 50 92 51 93 54 94 52 95
REMARK H PARENT 13 6 6 15 17 29 76 48 44 59
REMARK Flexibility Score: inf
ROOT
ATOM      1  C   UNL A   1      31.354  31.734  26.393  1.00  0.00     0.042 C 
ENDROOT
BRANCH   1   2
ATOM      2  C   UNL A   1      31.570  30.363  25.789  1.00  0.00     0.117 C 
BRANCH   2   3
ATOM      3  N   UNL A   1      30.820  30.200  24.559  1.00  0.00    -0.356 N 
ATOM      4  C   UNL A   1      30.638  29.101  23.784  1.00  0.00     0.227 C 
ATOM      5  O   UNL A   1      30.049  29.245  22.709  1.00  0.00    -0.274 OA
ATOM      6  H   UNL A   1      30.373  31.015  24.235  1.00  0.00     0.163 HD
BRANCH   4   7
ATOM      7  C   UNL A   1      31.182  27.741  24.190  1.00  0.00     0.103 C 
ATOM      8  C   UNL A   1      30.767  25.691  25.285  1.00  0.00     0.106 C 
ATOM      9  C   UNL A   1      30.621  25.479  23.824  1.00  0.00    -0.006 C 
ATOM     10  C   UNL A   1      30.487  27.180  25.429  1.00  0.00     0.047 C 
ATOM     11  C   UNL A   1      30.998  26.611  23.203  1.00  0.00    -0.016 C 
BRANCH   8  12
ATOM     12  N   UNL A   1      30.007  24.880  26.151  1.00  0.00    -0.343 N 
ATOM     13  C   UNL A   1      30.381  23.643  26.641  1.00  0.00     0.287 C 
ATOM     14  O   UNL A   1      29.589  23.183  27.472  1.00  0.00    -0.266 OA
ATOM     15  H   UNL A   1      29.129  25.227  26.433  1.00  0.00     0.164 HD
BRANCH  13  16
ATOM     16  C   UNL A   1      31.588  22.894  26.216  1.00  0.00     0.195 A 
ATOM     17  C   UNL A   1      33.958  24.147  26.294  1.00  0.00     0.049 C 
ATOM     18  C   UNL A   1      32.983  23.045  26.045  1.00  0.00     0.008 A 
ATOM     19  C   UNL A   1      33.471  21.807  25.506  1.00  0.00     0.024 A 
ATOM     20  O   UNL A   1      31.276  21.592  25.848  1.00  0.00    -0.451 OA
ATOM     21  C   UNL A   1      32.391  20.958  25.429  1.00  0.00     0.135 A 
ATOM     22  C   UNL A   1      34.733  21.336  25.093  1.00  0.00     0.012 A 
ATOM     23  C   UNL A   1      32.466  19.643  24.979  1.00  0.00     0.048 A 
ATOM     24  C   UNL A   1      34.847  20.023  24.632  1.00  0.00     0.001 A 
ATOM     25  C   UNL A   1      33.729  19.190  24.581  1.00  0.00     0.004 A 
ENDBRANCH  13  16
ENDBRANCH   8  12
ENDBRANCH   4   7
ENDBRANCH   2   3
ENDBRANCH   1   2
BRANCH   1  26
ATOM     26  C   UNL A   1      32.615  32.284  27.025  1.00  0.00     0.118 C 
BRANCH  26  27
ATOM     27  N   UNL A   1      32.466  33.688  27.382  1.00  0.00    -0.352 N 
ATOM     28  C   UNL A   1      33.033  34.389  28.415  1.00  0.00     0.251 C 
ATOM     29  H   UNL A   1      31.870  34.211  26.798  1.00  0.00     0.163 HD
ATOM     30  O   UNL A   1      32.555  35.459  28.769  1.00  0.00    -0.269 OA
BRANCH  28  31
ATOM     31  C   UNL A   1      34.232  33.847  29.080  1.00  0.00     0.039 A 
ATOM     32  C   UNL A   1      35.487  34.375  28.774  1.00  0.00     0.014 A 
ATOM     33  C   UNL A   1      34.113  32.780  29.975  1.00  0.00     0.014 A 
ATOM     34  C   UNL A   1      36.619  33.836  29.381  1.00  0.00     0.010 A 
ATOM     35  C   UNL A   1      35.218  32.341  30.680  1.00  0.00     0.010 A 
ATOM     36  C   UNL A   1      36.488  32.820  30.342  1.00  0.00    -0.014 A 
BRANCH  36  37
ATOM     37  C   UNL A   1      37.671  32.156  30.929  1.00  0.00     0.031 A 
ATOM     38  C   UNL A   1      38.111  32.531  32.318  1.00  0.00     0.074 A 
ATOM     39  C   UNL A   1      38.364  31.265  30.201  1.00  0.00     0.049 A 
ATOM     40  N   UNL A   1      39.130  32.096  33.013  1.00  0.00    -0.248 NA
ATOM     41  C   UNL A   1      37.326  33.571  33.005  1.00  0.00     0.031 C 
ATOM     42  C   UNL A   1      38.060  30.877  28.822  1.00  0.00     0.029 A 
ATOM     43  N   UNL A   1      39.465  30.518  30.525  1.00  0.00    -0.354 N 
ATOM     44  C   UNL A   1      39.121  32.829  34.193  1.00  0.00     0.074 A 
ATOM     45  C   UNL A   1      38.048  33.790  34.091  1.00  0.00     0.031 C 
ATOM     46  C   UNL A   1      38.921  29.922  28.438  1.00  0.00     0.029 A 
ATOM     47  C   UNL A   1      39.852  29.655  29.531  1.00  0.00     0.049 A 
ATOM     48  H   UNL A   1      39.934  30.593  31.387  1.00  0.00     0.167 HD
ATOM     49  C   UNL A   1      39.912  32.685  35.281  1.00  0.00     0.037 A 
ATOM     50  C   UNL A   1      40.835  28.737  29.522  1.00  0.00     0.037 A 
ATOM     51  C   UNL A   1      40.941  31.689  35.388  1.00  0.00     0.049 A 
ATOM     52  C   UNL A   1      41.676  28.569  30.757  1.00  0.00     0.074 A 
ATOM     53  C   UNL A   1      41.758  31.398  36.465  1.00  0.00     0.029 A 
ATOM     54  N   UNL A   1      41.287  30.810  34.370  1.00  0.00    -0.354 N 
ATOM     55  N   UNL A   1      41.612  29.210  31.899  1.00  0.00    -0.248 NA
ATOM     56  C   UNL A   1      42.719  27.538  30.703  1.00  0.00     0.031 C 
ATOM     57  C   UNL A   1      42.626  30.368  36.084  1.00  0.00     0.029 A 
ATOM     58  C   UNL A   1      42.317  29.984  34.788  1.00  0.00     0.049 A 
ATOM     59  H   UNL A   1      40.863  30.779  33.482  1.00  0.00     0.167 HD
ATOM     60  C   UNL A   1      42.576  28.634  32.715  1.00  0.00     0.074 A 
ATOM     61  C   UNL A   1      43.206  27.587  31.935  1.00  0.00     0.031 C 
ATOM     62  C   UNL A   1      42.911  28.940  33.993  1.00  0.00     0.037 A 
BRANCH  49  63
ATOM     63  C   UNL A   1      39.680  33.627  36.429  1.00  0.00     0.064 A 
ATOM     64  C   UNL A   1      40.291  34.890  36.486  1.00  0.00     0.173 A 
ATOM     65  C   UNL A   1      38.851  33.255  37.497  1.00  0.00     0.173 A 
ATOM     66  F   UNL A   1      41.108  35.291  35.500  1.00  0.00    -0.203 F 
ATOM     67  C   UNL A   1      40.120  35.722  37.591  1.00  0.00     0.198 A 
ATOM     68  C   UNL A   1      38.653  34.104  38.584  1.00  0.00     0.198 A 
ATOM     69  F   UNL A   1      38.239  32.060  37.495  1.00  0.00    -0.203 F 
ATOM     70  F   UNL A   1      40.777  36.890  37.656  1.00  0.00    -0.200 F 
ATOM     71  C   UNL A   1      39.299  35.330  38.637  1.00  0.00     0.200 A 
ATOM     72  F   UNL A   1      37.851  33.728  39.589  1.00  0.00    -0.200 F 
ATOM     73  F   UNL A   1      39.141  36.128  39.701  1.00  0.00    -0.200 F 
ENDBRANCH  49  63
BRANCH  50  74
ATOM     74  C   UNL A   1      41.010  27.854  28.342  1.00  0.00     0.064 A 
ATOM     75  C   UNL A   1      40.358  26.615  28.280  1.00  0.00     0.173 A 
ATOM     76  C   UNL A   1      41.805  28.231  27.251  1.00  0.00     0.173 A 
ATOM     77  F   UNL A   1      39.596  26.207  29.306  1.00  0.00    -0.203 F 
ATOM     78  C   UNL A   1      40.509  25.777  27.178  1.00  0.00     0.198 A 
ATOM     79  C   UNL A   1      41.936  27.402  26.139  1.00  0.00     0.198 A 
ATOM     80  F   UNL A   1      42.439  29.412  27.259  1.00  0.00    -0.203 F 
ATOM     81  F   UNL A   1      39.903  24.582  27.161  1.00  0.00    -0.200 F 
ATOM     82  C   UNL A   1      41.294  26.173  26.106  1.00  0.00     0.200 A 
ATOM     83  F   UNL A   1      42.683  27.795  25.098  1.00  0.00    -0.200 F 
ATOM     84  F   UNL A   1      41.434  25.370  25.043  1.00  0.00    -0.200 F 
ENDBRANCH  50  74
BRANCH  62  85
ATOM     85  C   UNL A   1      43.969  28.095  34.640  1.00  0.00     0.064 A 
ATOM     86  C   UNL A   1      45.320  28.471  34.635  1.00  0.00     0.173 A 
ATOM     87  C   UNL A   1      43.616  26.906  35.296  1.00  0.00     0.173 A 
ATOM     88  F   UNL A   1      45.707  29.592  34.009  1.00  0.00    -0.203 F 
ATOM     89  C   UNL A   1      46.285  27.667  35.234  1.00  0.00     0.198 A 
ATOM     90  C   UNL A   1      44.581  26.122  35.922  1.00  0.00     0.198 A 
ATOM     91  F   UNL A   1      42.336  26.508  35.336  1.00  0.00    -0.203 F 
ATOM     92  F   UNL A   1      47.578  28.015  35.169  1.00  0.00    -0.200 F 
ATOM     93  C   UNL A   1      45.915  26.498  35.882  1.00  0.00     0.200 A 
ATOM     94  F   UNL A   1      44.219  25.000  36.559  1.00  0.00    -0.200 F 
ATOM     95  F   UNL A   1      46.846  25.727  36.460  1.00  0.00    -0.200 F 
ENDBRANCH  62  85
ENDBRANCH  36  37
ENDBRANCH  28  31
ENDBRANCH  26  27
ENDBRANCH   1  26
TORSDOF 12
ENDMDL
MODEL 3
REMARK VINA RESULT:     -13.7      5.136     10.635
REMARK SMILES Cc1c(C(=O)N[C@H]2C=C[C@@H](C(=O)NCCCNC(=O)c3ccc(-c4c5nc(c(-c6c(F)c(F)c(F)c(F)c6F)c6ccc([nH]6)c(-c6c(F)c(F)c(F)c(F)c6F)c6nc(c(-c7c(F)c(F)c(F)c(F)c7F)c7ccc4[nH]7)C=C6)C=C5)cc3)C2)oc2ccccc12
REMARK SMILES IDX 15 1 14 2 13 3 11 4 12 5 10 7 7 8 8 9 83 10 9 11 6 12 4 13
REMARK SMILES IDX 5 14 3 16 1 17 2 18 90 19 84 20 85 21 89 22 86 23 88 24
REMARK SMILES IDX 87 25 16 26 17 27 18 28 19 30 20 31 21 32 82 33 22 34 81 35
REMARK SMILES IDX 23 36 24 37 25 38 75 39 26 40 80 41 74 42 76 43 27 44 79 45
REMARK SMILES IDX 73 46 72 47 28 49 60 50 40 51 59 52 41 53 44 54 58 55 77 56
REMARK SMILES IDX 42 57 43 58 57 60 78 61 45 62 29 63 30 64 38 65 31 66 32 67
REMARK SMILES IDX 36 68 39 69 33 70 34 71 37 72 35 73 61 74 62 75 70 76 63 77
REMARK SMILES IDX 64 78 68 79 71 80 65 81 66 82 69 83 67 84 46 85 47 86 55 87
REMARK SMILES IDX 48 88 49 89 53 90 56 91 50 92 51 93 54 94 52 95
REMARK H PARENT 13 6 6 15 17 29 76 48 44 59
REMARK Flexibility Score: inf
ROOT
ATOM      1  C   UNL A   1      37.985  19.619  24.999  1.00  0.00     0.042 C 
ENDROOT
BRANCH   1   2
ATOM      2  C   UNL A   1      36.755  20.498  25.071  1.00  0.00     0.117 C 
BRANCH   2   3
ATOM      3  N   UNL A   1      35.538  19.723  24.919  1.00  0.00    -0.356 N 
ATOM      4  C   UNL A   1      34.243  20.126  24.885  1.00  0.00     0.227 C 
ATOM      5  O   UNL A   1      33.369  19.255  24.867  1.00  0.00    -0.274 OA
ATOM      6  H   UNL A   1      35.673  18.753  24.826  1.00  0.00     0.163 HD
BRANCH   4   7
ATOM      7  C   UNL A   1      33.865  21.598  24.922  1.00  0.00     0.103 C 
ATOM      8  C   UNL A   1      33.445  23.563  23.683  1.00  0.00     0.106 C 
ATOM      9  C   UNL A   1      32.142  22.958  24.058  1.00  0.00    -0.006 C 
ATOM     10  C   UNL A   1      34.380  22.363  23.704  1.00  0.00     0.047 C 
ATOM     11  C   UNL A   1      32.389  21.924  24.881  1.00  0.00    -0.016 C 
BRANCH   8  12
ATOM     12  N   UNL A   1      33.507  24.316  22.493  1.00  0.00    -0.343 N 
ATOM     13  C   UNL A   1      33.312  25.680  22.385  1.00  0.00     0.287 C 
ATOM     14  O   UNL A   1      33.531  26.119  21.250  1.00  0.00    -0.266 OA
ATOM     15  H   UNL A   1      33.707  23.825  21.663  1.00  0.00     0.164 HD
BRANCH  13  16
ATOM     16  C   UNL A   1      32.858  26.560  23.489  1.00  0.00     0.195 A 
ATOM     17  C   UNL A   1      30.290  27.336  23.525  1.00  0.00     0.049 C 
ATOM     18  C   UNL A   1      31.714  27.241  23.963  1.00  0.00     0.008 A 
ATOM     19  C   UNL A   1      32.121  27.973  25.129  1.00  0.00     0.024 A 
ATOM     20  O   UNL A   1      33.887  26.835  24.378  1.00  0.00    -0.451 OA
ATOM     21  C   UNL A   1      33.446  27.670  25.342  1.00  0.00     0.135 A 
ATOM     22  C   UNL A   1      31.477  28.852  26.021  1.00  0.00     0.012 A 
ATOM     23  C   UNL A   1      34.198  28.166  26.402  1.00  0.00     0.048 A 
ATOM     24  C   UNL A   1      32.200  29.375  27.097  1.00  0.00     0.001 A 
ATOM     25  C   UNL A   1      33.539  29.032  27.284  1.00  0.00     0.004 A 
ENDBRANCH  13  16
ENDBRANCH   8  12
ENDBRANCH   4   7
ENDBRANCH   2   3
ENDBRANCH   1   2
BRANCH   1  26
ATOM     26  C   UNL A   1      39.141  20.189  25.793  1.00  0.00     0.118 C 
BRANCH  26  27
ATOM     27  N   UNL A   1      40.226  19.226  25.926  1.00  0.00    -0.352 N 
ATOM     28  C   UNL A   1      41.573  19.444  26.046  1.00  0.00     0.251 C 
ATOM     29  H   UNL A   1      39.952  18.280  25.928  1.00  0.00     0.163 HD
ATOM     30  O   UNL A   1      42.367  18.540  25.817  1.00  0.00    -0.269 OA
BRANCH  28  31
ATOM     31  C   UNL A   1      42.053  20.771  26.470  1.00  0.00     0.039 A 
ATOM     32  C   UNL A   1      42.218  21.041  27.830  1.00  0.00     0.014 A 
ATOM     33  C   UNL A   1      42.295  21.765  25.518  1.00  0.00     0.014 A 
ATOM     34  C   UNL A   1      42.639  22.309  28.226  1.00  0.00     0.010 A 
ATOM     35  C   UNL A   1      42.846  22.974  25.902  1.00  0.00     0.010 A 
ATOM     36  C   UNL A   1      42.961  23.279  27.262  1.00  0.00    -0.014 A 
BRANCH  36  37
ATOM     37  C   UNL A   1      43.312  24.662  27.646  1.00  0.00     0.031 A 
ATOM     38  C   UNL A   1      44.755  25.089  27.621  1.00  0.00     0.074 A 
ATOM     39  C   UNL A   1      42.349  25.504  28.058  1.00  0.00     0.049 A 
ATOM     40  N   UNL A   1      45.286  26.240  27.942  1.00  0.00    -0.248 NA
ATOM     41  C   UNL A   1      45.742  24.070  27.223  1.00  0.00     0.031 C 
ATOM     42  C   UNL A   1      40.929  25.171  28.180  1.00  0.00     0.029 A 
ATOM     43  N   UNL A   1      42.422  26.816  28.443  1.00  0.00    -0.354 N 
ATOM     44  C   UNL A   1      46.659  26.068  27.815  1.00  0.00     0.074 A 
ATOM     45  C   UNL A   1      46.887  24.686  27.466  1.00  0.00     0.031 C 
ATOM     46  C   UNL A   1      40.255  26.269  28.558  1.00  0.00     0.029 A 
ATOM     47  C   UNL A   1      41.200  27.368  28.732  1.00  0.00     0.049 A 
ATOM     48  H   UNL A   1      43.268  27.314  28.506  1.00  0.00     0.167 HD
ATOM     49  C   UNL A   1      47.641  26.992  27.939  1.00  0.00     0.037 A 
ATOM     50  C   UNL A   1      40.885  28.630  29.074  1.00  0.00     0.037 A 
ATOM     51  C   UNL A   1      47.394  28.376  28.234  1.00  0.00     0.049 A 
ATOM     52  C   UNL A   1      41.988  29.649  29.168  1.00  0.00     0.074 A 
ATOM     53  C   UNL A   1      48.297  29.419  28.314  1.00  0.00     0.029 A 
ATOM     54  N   UNL A   1      46.138  28.908  28.494  1.00  0.00    -0.354 N 
ATOM     55  N   UNL A   1      43.275  29.500  28.969  1.00  0.00    -0.248 NA
ATOM     56  C   UNL A   1      41.588  31.016  29.522  1.00  0.00     0.031 C 
ATOM     57  C   UNL A   1      47.591  30.577  28.660  1.00  0.00     0.029 A 
ATOM     58  C   UNL A   1      46.243  30.265  28.748  1.00  0.00     0.049 A 
ATOM     59  H   UNL A   1      45.297  28.396  28.497  1.00  0.00     0.167 HD
ATOM     60  C   UNL A   1      43.836  30.759  29.133  1.00  0.00     0.074 A 
ATOM     61  C   UNL A   1      42.743  31.661  29.441  1.00  0.00     0.031 C 
ATOM     62  C   UNL A   1      45.134  31.138  29.036  1.00  0.00     0.037 A 
BRANCH  49  63
ATOM     63  C   UNL A   1      49.055  26.522  27.748  1.00  0.00     0.064 A 
ATOM     64  C   UNL A   1      49.898  26.248  28.837  1.00  0.00     0.173 A 
ATOM     65  C   UNL A   1      49.583  26.363  26.459  1.00  0.00     0.173 A 
ATOM     66  F   UNL A   1      49.451  26.400  30.093  1.00  0.00    -0.203 F 
ATOM     67  C   UNL A   1      51.228  25.881  28.642  1.00  0.00     0.198 A 
ATOM     68  C   UNL A   1      50.903  25.961  26.267  1.00  0.00     0.198 A 
ATOM     69  F   UNL A   1      48.822  26.608  25.380  1.00  0.00    -0.203 F 
ATOM     70  F   UNL A   1      52.033  25.701  29.700  1.00  0.00    -0.200 F 
ATOM     71  C   UNL A   1      51.728  25.735  27.358  1.00  0.00     0.200 A 
ATOM     72  F   UNL A   1      51.382  25.809  25.025  1.00  0.00    -0.200 F 
ATOM     73  F   UNL A   1      53.009  25.388  27.172  1.00  0.00    -0.200 F 
ENDBRANCH  49  63
BRANCH  50  74
ATOM     74  C   UNL A   1      39.463  29.012  29.260  1.00  0.00     0.064 A 
ATOM     75  C   UNL A   1      38.696  29.445  28.171  1.00  0.00     0.173 A 
ATOM     76  C   UNL A   1      38.837  28.934  30.512  1.00  0.00     0.173 A 
ATOM     77  F   UNL A   1      39.255  29.547  26.956  1.00  0.00    -0.203 F 
ATOM     78  C   UNL A   1      37.359  29.803  28.329  1.00  0.00     0.198 A 
ATOM     79  C   UNL A   1      37.493  29.270  30.665  1.00  0.00     0.198 A 
ATOM     80  F   UNL A   1      39.527  28.515  31.583  1.00  0.00    -0.203 F 
ATOM     81  F   UNL A   1      36.659  30.248  27.277  1.00  0.00    -0.200 F 
ATOM     82  C   UNL A   1      36.757  29.710  29.575  1.00  0.00     0.200 A 
ATOM     83  F   UNL A   1      36.911  29.164  31.866  1.00  0.00    -0.200 F 
ATOM     84  F   UNL A   1      35.470  30.049  29.725  1.00  0.00    -0.200 F 
ENDBRANCH  50  74
BRANCH  62  85
ATOM     85  C   UNL A   1      45.431  32.599  29.213  1.00  0.00     0.064 A 
ATOM     86  C   UNL A   1      45.388  33.496  28.137  1.00  0.00     0.173 A 
ATOM     87  C   UNL A   1      45.736  33.106  30.485  1.00  0.00     0.173 A 
ATOM     88  F   UNL A   1      45.115  33.056  26.900  1.00  0.00    -0.203 F 
ATOM     89  C   UNL A   1      45.675  34.845  28.322  1.00  0.00     0.198 A 
ATOM     90  C   UNL A   1      45.991  34.461  30.671  1.00  0.00     0.198 A 
ATOM     91  F   UNL A   1      45.781  32.288  31.547  1.00  0.00    -0.203 F 
ATOM     92  F   UNL A   1      45.685  35.677  27.271  1.00  0.00    -0.200 F 
ATOM     93  C   UNL A   1      45.971  35.327  29.589  1.00  0.00     0.200 A 
ATOM     94  F   UNL A   1      46.261  34.927  31.899  1.00  0.00    -0.200 F 
ATOM     95  F   UNL A   1      46.244  36.627  29.766  1.00  0.00    -0.200 F 
ENDBRANCH  62  85
ENDBRANCH  36  37
ENDBRANCH  28  31
ENDBRANCH  26  27
ENDBRANCH   1  26
TORSDOF 12
ENDMDL
