MODEL 1
REMARK VINA RESULT:     -10.3      0.000      0.000
REMARK SMILES COc1ncccc1CS(=O)(=O)[C@H](C)C(=O)NCCCNC(=O)c1ccc(-c2c3nc(c(-c4c(F)c(F)c(F)c(F)c4F)c4ccc([nH]4)c(-c4c(F)c(F)c(F)c(F)c4F)c4nc(c(-c5c(F)c(F)c(F)c(F)c5F)c5ccc2[nH]5)C=C4)C=C3)cc1
REMARK SMILES IDX 18 1 17 2 15 3 16 4 13 6 14 7 10 8 11 9 12 10 9 11 8 12 3 13
REMARK SMILES IDX 4 14 5 15 7 16 6 17 2 18 1 19 19 20 20 21 21 22 22 23 23 25
REMARK SMILES IDX 24 26 25 27 86 28 26 29 85 30 27 31 28 32 29 33 79 34 30 35
REMARK SMILES IDX 84 36 78 37 80 38 31 39 83 40 77 41 76 42 32 44 64 45 44 46
REMARK SMILES IDX 63 47 45 48 48 49 62 50 81 51 46 52 47 53 61 55 82 56 49 57
REMARK SMILES IDX 33 58 34 59 42 60 35 61 36 62 40 63 43 64 37 65 38 66 41 67
REMARK SMILES IDX 39 68 65 69 66 70 74 71 67 72 68 73 72 74 75 75 69 76 70 77
REMARK SMILES IDX 73 78 71 79 50 80 51 81 59 82 52 83 53 84 57 85 60 86 54 87
REMARK SMILES IDX 55 88 58 89 56 90
REMARK H PARENT 17 5 21 24 80 43 48 54
REMARK Flexibility Score: inf
ROOT
ATOM      1  C   UNL A   1      42.217  19.681  26.738  1.00  0.00     0.117 C 
ENDROOT
BRANCH   1   2
ATOM      2  N   UNL A   1      42.784  19.489  25.415  1.00  0.00    -0.355 N 
ATOM      3  C   UNL A   1      43.928  19.998  24.883  1.00  0.00     0.238 C 
ATOM      4  O   UNL A   1      44.371  19.429  23.879  1.00  0.00    -0.274 OA
ATOM      5  H   UNL A   1      42.265  18.907  24.815  1.00  0.00     0.163 HD
BRANCH   3   6
ATOM      6  C   UNL A   1      44.634  21.220  25.402  1.00  0.00     0.194 C 
ATOM      7  C   UNL A   1      46.153  21.096  25.375  1.00  0.00     0.035 C 
BRANCH   6   8
ATOM      8  S   UNL A   1      44.050  22.755  24.723  1.00  0.00     0.166 S 
ATOM      9  O   UNL A   1      42.606  22.678  24.618  1.00  0.00    -0.228 OA
ATOM     10  O   UNL A   1      44.809  22.942  23.493  1.00  0.00    -0.228 OA
BRANCH   8  11
ATOM     11  C   UNL A   1      44.551  24.112  25.801  1.00  0.00     0.178 C 
BRANCH  11  12
ATOM     12  C   UNL A   1      44.271  23.882  27.258  1.00  0.00     0.029 A 
ATOM     13  C   UNL A   1      45.272  23.927  28.227  1.00  0.00     0.217 A 
ATOM     14  N   UNL A   1      45.058  23.739  29.549  1.00  0.00    -0.222 NA
ATOM     15  C   UNL A   1      43.799  23.430  29.930  1.00  0.00     0.115 A 
ATOM     16  C   UNL A   1      42.981  23.556  27.698  1.00  0.00     0.012 A 
ATOM     17  C   UNL A   1      42.736  23.336  29.051  1.00  0.00     0.021 A 
BRANCH  13  18
ATOM     18  O   UNL A   1      46.570  24.081  27.803  1.00  0.00    -0.481 OA
ATOM     19  C   UNL A   1      47.153  25.284  28.302  1.00  0.00     0.280 C 
ENDBRANCH  13  18
ENDBRANCH  11  12
ENDBRANCH   8  11
ENDBRANCH   6   8
ENDBRANCH   3   6
ENDBRANCH   1   2
BRANCH   1  20
ATOM     20  C   UNL A   1      40.731  19.987  26.748  1.00  0.00     0.042 C 
BRANCH  20  21
ATOM     21  C   UNL A   1      40.370  21.442  27.011  1.00  0.00     0.118 C 
BRANCH  21  22
ATOM     22  N   UNL A   1      39.155  21.904  26.363  1.00  0.00    -0.352 N 
ATOM     23  C   UNL A   1      38.672  23.193  26.223  1.00  0.00     0.251 C 
ATOM     24  H   UNL A   1      38.594  21.199  25.966  1.00  0.00     0.163 HD
ATOM     25  O   UNL A   1      37.659  23.408  25.583  1.00  0.00    -0.269 OA
BRANCH  23  26
ATOM     26  C   UNL A   1      39.349  24.309  26.922  1.00  0.00     0.039 A 
ATOM     27  C   UNL A   1      40.119  25.187  26.153  1.00  0.00     0.014 A 
ATOM     28  C   UNL A   1      39.190  24.532  28.290  1.00  0.00     0.014 A 
ATOM     29  C   UNL A   1      40.639  26.344  26.736  1.00  0.00     0.010 A 
ATOM     30  C   UNL A   1      39.630  25.727  28.849  1.00  0.00     0.010 A 
ATOM     31  C   UNL A   1      40.348  26.649  28.074  1.00  0.00    -0.014 A 
BRANCH  31  32
ATOM     32  C   UNL A   1      40.764  27.943  28.664  1.00  0.00     0.031 A 
ATOM     33  C   UNL A   1      42.194  28.167  29.060  1.00  0.00     0.074 A 
ATOM     34  C   UNL A   1      39.832  28.887  28.902  1.00  0.00     0.049 A 
ATOM     35  N   UNL A   1      42.743  29.215  29.619  1.00  0.00    -0.248 NA
ATOM     36  C   UNL A   1      43.127  27.053  28.830  1.00  0.00     0.031 C 
ATOM     37  C   UNL A   1      38.398  28.748  28.632  1.00  0.00     0.029 A 
ATOM     38  N   UNL A   1      39.948  30.149  29.426  1.00  0.00    -0.354 N 
ATOM     39  C   UNL A   1      44.075  28.880  29.823  1.00  0.00     0.074 A 
ATOM     40  C   UNL A   1      44.241  27.514  29.378  1.00  0.00     0.031 C 
ATOM     41  C   UNL A   1      37.775  29.890  28.964  1.00  0.00     0.029 A 
ATOM     42  C   UNL A   1      38.756  30.831  29.490  1.00  0.00     0.049 A 
ATOM     43  H   UNL A   1      40.803  30.530  29.731  1.00  0.00     0.167 HD
ATOM     44  C   UNL A   1      45.072  29.652  30.314  1.00  0.00     0.037 A 
ATOM     45  C   UNL A   1      38.493  32.081  29.914  1.00  0.00     0.037 A 
ATOM     46  C   UNL A   1      44.904  31.022  30.720  1.00  0.00     0.049 A 
ATOM     47  C   UNL A   1      39.633  32.941  30.386  1.00  0.00     0.074 A 
ATOM     48  C   UNL A   1      45.857  31.912  31.183  1.00  0.00     0.029 A 
ATOM     49  N   UNL A   1      43.695  31.704  30.699  1.00  0.00    -0.354 N 
ATOM     50  N   UNL A   1      40.903  32.638  30.504  1.00  0.00    -0.248 NA
ATOM     51  C   UNL A   1      39.308  34.323  30.763  1.00  0.00     0.031 C 
ATOM     52  C   UNL A   1      45.219  33.125  31.467  1.00  0.00     0.029 A 
ATOM     53  C   UNL A   1      43.877  33.003  31.143  1.00  0.00     0.049 A 
ATOM     54  H   UNL A   1      42.835  31.321  30.412  1.00  0.00     0.167 HD
ATOM     55  C   UNL A   1      41.533  33.795  30.938  1.00  0.00     0.074 A 
ATOM     56  C   UNL A   1      40.507  34.811  31.048  1.00  0.00     0.031 C 
ATOM     57  C   UNL A   1      42.843  33.999  31.224  1.00  0.00     0.037 A 
BRANCH  44  58
ATOM     58  C   UNL A   1      46.433  29.032  30.427  1.00  0.00     0.064 A 
ATOM     59  C   UNL A   1      46.844  28.375  31.597  1.00  0.00     0.173 A 
ATOM     60  C   UNL A   1      47.330  29.077  29.350  1.00  0.00     0.173 A 
ATOM     61  F   UNL A   1      46.030  28.318  32.662  1.00  0.00    -0.203 F 
ATOM     62  C   UNL A   1      48.114  27.812  31.694  1.00  0.00     0.198 A 
ATOM     63  C   UNL A   1      48.589  28.489  29.442  1.00  0.00     0.198 A 
ATOM     64  F   UNL A   1      46.987  29.692  28.209  1.00  0.00    -0.203 F 
ATOM     65  F   UNL A   1      48.504  27.235  32.840  1.00  0.00    -0.200 F 
ATOM     66  C   UNL A   1      48.983  27.863  30.615  1.00  0.00     0.200 A 
ATOM     67  F   UNL A   1      49.426  28.532  28.395  1.00  0.00    -0.200 F 
ATOM     68  F   UNL A   1      50.204  27.319  30.710  1.00  0.00    -0.200 F 
ENDBRANCH  44  58
BRANCH  45  69
ATOM     69  C   UNL A   1      37.106  32.611  29.859  1.00  0.00     0.064 A 
ATOM     70  C   UNL A   1      36.232  32.451  30.944  1.00  0.00     0.173 A 
ATOM     71  C   UNL A   1      36.625  33.282  28.727  1.00  0.00     0.173 A 
ATOM     72  F   UNL A   1      36.642  31.802  32.043  1.00  0.00    -0.203 F 
ATOM     73  C   UNL A   1      34.921  32.918  30.887  1.00  0.00     0.198 A 
ATOM     74  C   UNL A   1      35.321  33.773  28.682  1.00  0.00     0.198 A 
ATOM     75  F   UNL A   1      37.424  33.470  27.667  1.00  0.00    -0.203 F 
ATOM     76  F   UNL A   1      34.093  32.709  31.920  1.00  0.00    -0.200 F 
ATOM     77  C   UNL A   1      34.467  33.582  29.758  1.00  0.00     0.200 A 
ATOM     78  F   UNL A   1      34.889  34.426  27.595  1.00  0.00    -0.200 F 
ATOM     79  F   UNL A   1      33.205  34.031  29.704  1.00  0.00    -0.200 F 
ENDBRANCH  45  69
BRANCH  57  80
ATOM     80  C   UNL A   1      43.240  35.384  31.639  1.00  0.00     0.064 A 
ATOM     81  C   UNL A   1      43.185  35.796  32.978  1.00  0.00     0.173 A 
ATOM     82  C   UNL A   1      43.705  36.301  30.684  1.00  0.00     0.173 A 
ATOM     83  F   UNL A   1      42.733  34.958  33.922  1.00  0.00    -0.203 F 
ATOM     84  C   UNL A   1      43.555  37.087  33.342  1.00  0.00     0.198 A 
ATOM     85  C   UNL A   1      44.100  37.581  31.056  1.00  0.00     0.198 A 
ATOM     86  F   UNL A   1      43.781  35.950  29.391  1.00  0.00    -0.203 F 
ATOM     87  F   UNL A   1      43.449  37.475  34.621  1.00  0.00    -0.200 F 
ATOM     88  C   UNL A   1      44.017  37.977  32.383  1.00  0.00     0.200 A 
ATOM     89  F   UNL A   1      44.556  38.437  30.131  1.00  0.00    -0.200 F 
ATOM     90  F   UNL A   1      44.374  39.218  32.737  1.00  0.00    -0.200 F 
ENDBRANCH  57  80
ENDBRANCH  31  32
ENDBRANCH  23  26
ENDBRANCH  21  22
ENDBRANCH  20  21
ENDBRANCH   1  20
TORSDOF 14
ENDMDL
MODEL 2
REMARK VINA RESULT:     -10.2      5.483     10.763
REMARK SMILES COc1ncccc1CS(=O)(=O)[C@H](C)C(=O)NCCCNC(=O)c1ccc(-c2c3nc(c(-c4c(F)c(F)c(F)c(F)c4F)c4ccc([nH]4)c(-c4c(F)c(F)c(F)c(F)c4F)c4nc(c(-c5c(F)c(F)c(F)c(F)c5F)c5ccc2[nH]5)C=C4)C=C3)cc1
REMARK SMILES IDX 18 1 17 2 15 3 16 4 13 6 14 7 10 8 11 9 12 10 9 11 8 12 3 13
REMARK SMILES IDX 4 14 5 15 7 16 6 17 2 18 1 19 19 20 20 21 21 22 22 23 23 25
REMARK SMILES IDX 24 26 25 27 86 28 26 29 85 30 27 31 28 32 29 33 79 34 30 35
REMARK SMILES IDX 84 36 78 37 80 38 31 39 83 40 77 41 76 42 32 44 64 45 44 46
REMARK SMILES IDX 63 47 45 48 48 49 62 50 81 51 46 52 47 53 61 55 82 56 49 57
REMARK SMILES IDX 33 58 34 59 42 60 35 61 36 62 40 63 43 64 37 65 38 66 41 67
REMARK SMILES IDX 39 68 65 69 66 70 74 71 67 72 68 73 72 74 75 75 69 76 70 77
REMARK SMILES IDX 73 78 71 79 50 80 51 81 59 82 52 83 53 84 57 85 60 86 54 87
REMARK SMILES IDX 55 88 58 89 56 90
REMARK H PARENT 17 5 21 24 80 43 48 54
REMARK Flexibility Score: inf
ROOT
ATOM      1  C   UNL A   1      32.054  30.465  26.107  1.00  0.00     0.117 C 
ENDROOT
BRANCH   1   2
ATOM      2  N   UNL A   1      31.251  30.111  24.948  1.00  0.00    -0.355 N 
ATOM      3  C   UNL A   1      31.214  28.945  24.248  1.00  0.00     0.238 C 
ATOM      4  O   UNL A   1      30.223  28.765  23.529  1.00  0.00    -0.274 OA
ATOM      5  H   UNL A   1      30.649  30.818  24.622  1.00  0.00     0.163 HD
BRANCH   3   6
ATOM      6  C   UNL A   1      32.310  27.917  24.252  1.00  0.00     0.194 C 
ATOM      7  C   UNL A   1      33.688  28.503  23.967  1.00  0.00     0.035 C 
BRANCH   6   8
ATOM      8  S   UNL A   1      32.296  26.828  25.656  1.00  0.00     0.166 S 
ATOM      9  O   UNL A   1      31.141  27.158  26.468  1.00  0.00    -0.228 OA
ATOM     10  O   UNL A   1      33.613  26.971  26.263  1.00  0.00    -0.228 OA
BRANCH   8  11
ATOM     11  C   UNL A   1      32.220  25.119  25.085  1.00  0.00     0.178 C 
BRANCH  11  12
ATOM     12  C   UNL A   1      32.833  24.122  26.026  1.00  0.00     0.029 A 
ATOM     13  C   UNL A   1      32.104  23.511  27.044  1.00  0.00     0.217 A 
ATOM     14  N   UNL A   1      32.616  22.599  27.902  1.00  0.00    -0.222 NA
ATOM     15  C   UNL A   1      33.934  22.321  27.790  1.00  0.00     0.115 A 
ATOM     16  C   UNL A   1      34.196  23.806  25.948  1.00  0.00     0.012 A 
ATOM     17  C   UNL A   1      34.755  22.888  26.833  1.00  0.00     0.021 A 
BRANCH  13  18
ATOM     18  O   UNL A   1      30.810  23.925  27.246  1.00  0.00    -0.481 OA
ATOM     19  C   UNL A   1      29.867  22.917  26.887  1.00  0.00     0.280 C 
ENDBRANCH  13  18
ENDBRANCH  11  12
ENDBRANCH   8  11
ENDBRANCH   6   8
ENDBRANCH   3   6
ENDBRANCH   1   2
BRANCH   1  20
ATOM     20  C   UNL A   1      31.616  31.736  26.811  1.00  0.00     0.042 C 
BRANCH  20  21
ATOM     21  C   UNL A   1      32.747  32.652  27.257  1.00  0.00     0.118 C 
BRANCH  21  22
ATOM     22  N   UNL A   1      32.336  33.978  27.685  1.00  0.00    -0.352 N 
ATOM     23  C   UNL A   1      32.972  34.859  28.541  1.00  0.00     0.251 C 
ATOM     24  H   UNL A   1      31.482  34.296  27.312  1.00  0.00     0.163 HD
ATOM     25  O   UNL A   1      32.514  35.970  28.737  1.00  0.00    -0.269 OA
BRANCH  23  26
ATOM     26  C   UNL A   1      34.176  34.420  29.283  1.00  0.00     0.039 A 
ATOM     27  C   UNL A   1      33.985  33.746  30.493  1.00  0.00     0.014 A 
ATOM     28  C   UNL A   1      35.464  34.607  28.782  1.00  0.00     0.014 A 
ATOM     29  C   UNL A   1      35.076  33.169  31.144  1.00  0.00     0.010 A 
ATOM     30  C   UNL A   1      36.537  33.956  29.381  1.00  0.00     0.010 A 
ATOM     31  C   UNL A   1      36.351  33.221  30.561  1.00  0.00    -0.014 A 
BRANCH  31  32
ATOM     32  C   UNL A   1      37.490  32.487  31.160  1.00  0.00     0.031 A 
ATOM     33  C   UNL A   1      37.981  32.846  32.532  1.00  0.00     0.074 A 
ATOM     34  C   UNL A   1      38.119  31.542  30.434  1.00  0.00     0.049 A 
ATOM     35  N   UNL A   1      38.981  32.342  33.211  1.00  0.00    -0.248 NA
ATOM     36  C   UNL A   1      37.279  33.939  33.222  1.00  0.00     0.031 C 
ATOM     37  C   UNL A   1      37.779  31.167  29.058  1.00  0.00     0.029 A 
ATOM     38  N   UNL A   1      39.177  30.727  30.746  1.00  0.00    -0.354 N 
ATOM     39  C   UNL A   1      39.037  33.068  34.393  1.00  0.00     0.074 A 
ATOM     40  C   UNL A   1      38.008  34.081  34.319  1.00  0.00     0.031 C 
ATOM     41  C   UNL A   1      38.591  30.176  28.658  1.00  0.00     0.029 A 
ATOM     42  C   UNL A   1      39.522  29.862  29.736  1.00  0.00     0.049 A 
ATOM     43  H   UNL A   1      39.646  30.761  31.611  1.00  0.00     0.167 HD
ATOM     44  C   UNL A   1      39.859  32.887  35.454  1.00  0.00     0.037 A 
ATOM     45  C   UNL A   1      40.476  28.913  29.694  1.00  0.00     0.037 A 
ATOM     46  C   UNL A   1      40.855  31.852  35.533  1.00  0.00     0.049 A 
ATOM     47  C   UNL A   1      41.326  28.687  30.914  1.00  0.00     0.074 A 
ATOM     48  C   UNL A   1      41.707  31.547  36.580  1.00  0.00     0.029 A 
ATOM     49  N   UNL A   1      41.126  30.944  34.518  1.00  0.00    -0.354 N 
ATOM     50  N   UNL A   1      41.321  29.330  32.057  1.00  0.00    -0.248 NA
ATOM     51  C   UNL A   1      42.299  27.588  30.848  1.00  0.00     0.031 C 
ATOM     52  C   UNL A   1      42.510  30.470  36.189  1.00  0.00     0.029 A 
ATOM     53  C   UNL A   1      42.132  30.079  34.914  1.00  0.00     0.049 A 
ATOM     54  H   UNL A   1      40.671  30.919  33.646  1.00  0.00     0.167 HD
ATOM     55  C   UNL A   1      42.263  28.698  32.855  1.00  0.00     0.074 A 
ATOM     56  C   UNL A   1      42.810  27.610  32.071  1.00  0.00     0.031 C 
ATOM     57  C   UNL A   1      42.645  28.993  34.122  1.00  0.00     0.037 A 
BRANCH  44  58
ATOM     58  C   UNL A   1      39.703  33.823  36.615  1.00  0.00     0.064 A 
ATOM     59  C   UNL A   1      40.357  35.064  36.649  1.00  0.00     0.173 A 
ATOM     60  C   UNL A   1      38.876  33.487  37.697  1.00  0.00     0.173 A 
ATOM     61  F   UNL A   1      41.172  35.426  35.647  1.00  0.00    -0.203 F 
ATOM     62  C   UNL A   1      40.213  35.921  37.738  1.00  0.00     0.198 A 
ATOM     63  C   UNL A   1      38.712  34.358  38.771  1.00  0.00     0.198 A 
ATOM     64  F   UNL A   1      38.227  32.314  37.713  1.00  0.00    -0.203 F 
ATOM     65  F   UNL A   1      40.889  37.077  37.772  1.00  0.00    -0.200 F 
ATOM     66  C   UNL A   1      39.386  35.571  38.794  1.00  0.00     0.200 A 
ATOM     67  F   UNL A   1      37.907  34.023  39.788  1.00  0.00    -0.200 F 
ATOM     68  F   UNL A   1      39.247  36.397  39.840  1.00  0.00    -0.200 F 
ENDBRANCH  44  58
BRANCH  45  69
ATOM     69  C   UNL A   1      40.641  28.073  28.480  1.00  0.00     0.064 A 
ATOM     70  C   UNL A   1      41.436  28.506  27.408  1.00  0.00     0.173 A 
ATOM     71  C   UNL A   1      40.009  26.828  28.361  1.00  0.00     0.173 A 
ATOM     72  F   UNL A   1      42.049  29.697  27.469  1.00  0.00    -0.203 F 
ATOM     73  C   UNL A   1      41.570  27.738  26.254  1.00  0.00     0.198 A 
ATOM     74  C   UNL A   1      40.165  26.048  27.216  1.00  0.00     0.198 A 
ATOM     75  F   UNL A   1      39.246  26.364  29.362  1.00  0.00    -0.203 F 
ATOM     76  F   UNL A   1      42.297  28.198  25.227  1.00  0.00    -0.200 F 
ATOM     77  C   UNL A   1      40.938  26.508  26.160  1.00  0.00     0.200 A 
ATOM     78  F   UNL A   1      39.564  24.854  27.134  1.00  0.00    -0.200 F 
ATOM     79  F   UNL A   1      41.067  25.769  25.049  1.00  0.00    -0.200 F 
ENDBRANCH  45  69
BRANCH  57  80
ATOM     80  C   UNL A   1      43.671  28.097  34.749  1.00  0.00     0.064 A 
ATOM     81  C   UNL A   1      43.308  26.925  35.427  1.00  0.00     0.173 A 
ATOM     82  C   UNL A   1      45.035  28.406  34.646  1.00  0.00     0.173 A 
ATOM     83  F   UNL A   1      42.015  26.597  35.563  1.00  0.00    -0.203 F 
ATOM     84  C   UNL A   1      44.275  26.107  36.004  1.00  0.00     0.198 A 
ATOM     85  C   UNL A   1      46.000  27.572  35.201  1.00  0.00     0.198 A 
ATOM     86  F   UNL A   1      45.431  29.514  34.001  1.00  0.00    -0.203 F 
ATOM     87  F   UNL A   1      43.904  25.017  36.690  1.00  0.00    -0.200 F 
ATOM     88  C   UNL A   1      45.620  26.428  35.887  1.00  0.00     0.200 A 
ATOM     89  F   UNL A   1      47.300  27.877  35.078  1.00  0.00    -0.200 F 
ATOM     90  F   UNL A   1      46.548  25.639  36.442  1.00  0.00    -0.200 F 
ENDBRANCH  57  80
ENDBRANCH  31  32
ENDBRANCH  23  26
ENDBRANCH  21  22
ENDBRANCH  20  21
ENDBRANCH   1  20
TORSDOF 14
ENDMDL
MODEL 3
REMARK VINA RESULT:     -10.1      1.002      2.019
REMARK SMILES COc1ncccc1CS(=O)(=O)[C@H](C)C(=O)NCCCNC(=O)c1ccc(-c2c3nc(c(-c4c(F)c(F)c(F)c(F)c4F)c4ccc([nH]4)c(-c4c(F)c(F)c(F)c(F)c4F)c4nc(c(-c5c(F)c(F)c(F)c(F)c5F)c5ccc2[nH]5)C=C4)C=C3)cc1
REMARK SMILES IDX 18 1 17 2 15 3 16 4 13 6 14 7 10 8 11 9 12 10 9 11 8 12 3 13
REMARK SMILES IDX 4 14 5 15 7 16 6 17 2 18 1 19 19 20 20 21 21 22 22 23 23 25
REMARK SMILES IDX 24 26 25 27 86 28 26 29 85 30 27 31 28 32 29 33 79 34 30 35
REMARK SMILES IDX 84 36 78 37 80 38 31 39 83 40 77 41 76 42 32 44 64 45 44 46
REMARK SMILES IDX 63 47 45 48 48 49 62 50 81 51 46 52 47 53 61 55 82 56 49 57
REMARK SMILES IDX 33 58 34 59 42 60 35 61 36 62 40 63 43 64 37 65 38 66 41 67
REMARK SMILES IDX 39 68 65 69 66 70 74 71 67 72 68 73 72 74 75 75 69 76 70 77
REMARK SMILES IDX 73 78 71 79 50 80 51 81 59 82 52 83 53 84 57 85 60 86 54 87
REMARK SMILES IDX 55 88 58 89 56 90
REMARK H PARENT 17 5 21 24 80 43 48 54
REMARK Flexibility Score: inf
ROOT
ATOM      1  C   UNL A   1      42.338  19.953  26.580  1.00  0.00     0.117 C 
ENDROOT
BRANCH   1   2
ATOM      2  N   UNL A   1      42.850  19.329  25.372  1.00  0.00    -0.355 N 
ATOM      3  C   UNL A   1      44.138  19.177  24.959  1.00  0.00     0.238 C 
ATOM      4  O   UNL A   1      44.339  18.325  24.084  1.00  0.00    -0.274 OA
ATOM      5  H   UNL A   1      42.167  18.965  24.765  1.00  0.00     0.163 HD
BRANCH   3   6
ATOM      6  C   UNL A   1      45.291  20.005  25.451  1.00  0.00     0.194 C 
ATOM      7  C   UNL A   1      46.647  19.348  25.221  1.00  0.00     0.035 C 
BRANCH   6   8
ATOM      8  S   UNL A   1      45.248  21.707  24.943  1.00  0.00     0.166 S 
ATOM      9  O   UNL A   1      44.170  21.863  23.987  1.00  0.00    -0.228 OA
ATOM     10  O   UNL A   1      46.602  22.004  24.491  1.00  0.00    -0.228 OA
BRANCH   8  11
ATOM     11  C   UNL A   1      44.990  22.755  26.388  1.00  0.00     0.178 C 
BRANCH  11  12
ATOM     12  C   UNL A   1      45.167  24.224  26.129  1.00  0.00     0.029 A 
ATOM     13  C   UNL A   1      46.354  24.895  26.417  1.00  0.00     0.217 A 
ATOM     14  N   UNL A   1      46.557  26.212  26.186  1.00  0.00    -0.222 NA
ATOM     15  C   UNL A   1      45.512  26.919  25.701  1.00  0.00     0.115 A 
ATOM     16  C   UNL A   1      44.110  24.997  25.630  1.00  0.00     0.012 A 
ATOM     17  C   UNL A   1      44.284  26.359  25.402  1.00  0.00     0.021 A 
BRANCH  13  18
ATOM     18  O   UNL A   1      47.347  24.197  27.059  1.00  0.00    -0.481 OA
ATOM     19  C   UNL A   1      48.257  25.065  27.735  1.00  0.00     0.280 C 
ENDBRANCH  13  18
ENDBRANCH  11  12
ENDBRANCH   8  11
ENDBRANCH   6   8
ENDBRANCH   3   6
ENDBRANCH   1   2
BRANCH   1  20
ATOM     20  C   UNL A   1      40.884  20.380  26.500  1.00  0.00     0.042 C 
BRANCH  20  21
ATOM     21  C   UNL A   1      40.654  21.812  26.038  1.00  0.00     0.118 C 
BRANCH  21  22
ATOM     22  N   UNL A   1      39.266  22.172  25.808  1.00  0.00    -0.352 N 
ATOM     23  C   UNL A   1      38.617  23.368  26.059  1.00  0.00     0.251 C 
ATOM     24  H   UNL A   1      38.706  21.463  25.416  1.00  0.00     0.163 HD
ATOM     25  O   UNL A   1      37.453  23.519  25.736  1.00  0.00    -0.269 OA
BRANCH  23  26
ATOM     26  C   UNL A   1      39.320  24.443  26.795  1.00  0.00     0.039 A 
ATOM     27  C   UNL A   1      40.050  25.373  26.049  1.00  0.00     0.014 A 
ATOM     28  C   UNL A   1      39.223  24.578  28.180  1.00  0.00     0.014 A 
ATOM     29  C   UNL A   1      40.591  26.495  26.679  1.00  0.00     0.010 A 
ATOM     30  C   UNL A   1      39.682  25.739  28.793  1.00  0.00     0.010 A 
ATOM     31  C   UNL A   1      40.360  26.713  28.045  1.00  0.00    -0.014 A 
BRANCH  31  32
ATOM     32  C   UNL A   1      40.797  27.970  28.697  1.00  0.00     0.031 A 
ATOM     33  C   UNL A   1      42.234  28.160  29.085  1.00  0.00     0.074 A 
ATOM     34  C   UNL A   1      39.878  28.910  28.995  1.00  0.00     0.049 A 
ATOM     35  N   UNL A   1      42.801  29.172  29.690  1.00  0.00    -0.248 NA
ATOM     36  C   UNL A   1      43.153  27.051  28.785  1.00  0.00     0.031 C 
ATOM     37  C   UNL A   1      38.440  28.799  28.738  1.00  0.00     0.029 A 
ATOM     38  N   UNL A   1      40.014  30.142  29.583  1.00  0.00    -0.354 N 
ATOM     39  C   UNL A   1      44.132  28.814  29.858  1.00  0.00     0.074 A 
ATOM     40  C   UNL A   1      44.279  27.472  29.341  1.00  0.00     0.031 C 
ATOM     41  C   UNL A   1      37.832  29.928  29.137  1.00  0.00     0.029 A 
ATOM     42  C   UNL A   1      38.830  30.831  29.698  1.00  0.00     0.049 A 
ATOM     43  H   UNL A   1      40.877  30.498  29.895  1.00  0.00     0.167 HD
ATOM     44  C   UNL A   1      45.144  29.550  30.375  1.00  0.00     0.037 A 
ATOM     45  C   UNL A   1      38.585  32.059  30.190  1.00  0.00     0.037 A 
ATOM     46  C   UNL A   1      44.995  30.899  30.854  1.00  0.00     0.049 A 
ATOM     47  C   UNL A   1      39.740  32.883  30.691  1.00  0.00     0.074 A 
ATOM     48  C   UNL A   1      45.963  31.754  31.350  1.00  0.00     0.029 A 
ATOM     49  N   UNL A   1      43.792  31.592  30.885  1.00  0.00    -0.354 N 
ATOM     50  N   UNL A   1      41.008  32.562  30.776  1.00  0.00    -0.248 NA
ATOM     51  C   UNL A   1      39.433  34.246  31.143  1.00  0.00     0.031 C 
ATOM     52  C   UNL A   1      45.341  32.957  31.705  1.00  0.00     0.029 A 
ATOM     53  C   UNL A   1      43.994  32.865  31.393  1.00  0.00     0.049 A 
ATOM     54  H   UNL A   1      42.925  31.233  30.590  1.00  0.00     0.167 HD
ATOM     55  C   UNL A   1      41.656  33.689  31.261  1.00  0.00     0.074 A 
ATOM     56  C   UNL A   1      40.641  34.707  31.437  1.00  0.00     0.031 C 
ATOM     57  C   UNL A   1      42.971  33.865  31.540  1.00  0.00     0.037 A 
BRANCH  44  58
ATOM     58  C   UNL A   1      46.500  28.912  30.438  1.00  0.00     0.064 A 
ATOM     59  C   UNL A   1      46.931  28.218  31.579  1.00  0.00     0.173 A 
ATOM     60  C   UNL A   1      47.370  28.977  29.341  1.00  0.00     0.173 A 
ATOM     61  F   UNL A   1      46.142  28.141  32.662  1.00  0.00    -0.203 F 
ATOM     62  C   UNL A   1      48.196  27.639  31.629  1.00  0.00     0.198 A 
ATOM     63  C   UNL A   1      48.624  28.372  29.385  1.00  0.00     0.198 A 
ATOM     64  F   UNL A   1      47.007  29.627  28.226  1.00  0.00    -0.203 F 
ATOM     65  F   UNL A   1      48.607  27.026  32.749  1.00  0.00    -0.200 F 
ATOM     66  C   UNL A   1      49.039  27.710  30.531  1.00  0.00     0.200 A 
ATOM     67  F   UNL A   1      49.436  28.435  28.320  1.00  0.00    -0.200 F 
ATOM     68  F   UNL A   1      50.255  27.150  30.580  1.00  0.00    -0.200 F 
ENDBRANCH  44  58
BRANCH  45  69
ATOM     69  C   UNL A   1      37.203  32.605  30.181  1.00  0.00     0.064 A 
ATOM     70  C   UNL A   1      36.751  33.401  29.118  1.00  0.00     0.173 A 
ATOM     71  C   UNL A   1      36.310  32.349  31.230  1.00  0.00     0.173 A 
ATOM     72  F   UNL A   1      37.575  33.686  28.100  1.00  0.00    -0.203 F 
ATOM     73  C   UNL A   1      35.468  33.941  29.119  1.00  0.00     0.198 A 
ATOM     74  C   UNL A   1      35.017  32.869  31.217  1.00  0.00     0.198 A 
ATOM     75  F   UNL A   1      36.690  31.585  32.265  1.00  0.00    -0.203 F 
ATOM     76  F   UNL A   1      35.078  34.737  28.113  1.00  0.00    -0.200 F 
ATOM     77  C   UNL A   1      34.599  33.672  30.166  1.00  0.00     0.200 A 
ATOM     78  F   UNL A   1      34.175  32.595  32.223  1.00  0.00    -0.200 F 
ATOM     79  F   UNL A   1      33.364  34.192  30.165  1.00  0.00    -0.200 F 
ENDBRANCH  45  69
BRANCH  57  80
ATOM     80  C   UNL A   1      43.387  35.223  32.020  1.00  0.00     0.064 A 
ATOM     81  C   UNL A   1      43.785  36.229  31.128  1.00  0.00     0.173 A 
ATOM     82  C   UNL A   1      43.363  35.526  33.389  1.00  0.00     0.173 A 
ATOM     83  F   UNL A   1      43.838  35.981  29.811  1.00  0.00    -0.203 F 
ATOM     84  C   UNL A   1      44.171  37.482  31.593  1.00  0.00     0.198 A 
ATOM     85  C   UNL A   1      43.724  36.788  33.849  1.00  0.00     0.198 A 
ATOM     86  F   UNL A   1      42.984  34.597  34.281  1.00  0.00    -0.203 F 
ATOM     87  F   UNL A   1      44.595  38.414  30.728  1.00  0.00    -0.200 F 
ATOM     88  C   UNL A   1      44.136  37.763  32.952  1.00  0.00     0.200 A 
ATOM     89  F   UNL A   1      43.679  37.062  35.160  1.00  0.00    -0.200 F 
ATOM     90  F   UNL A   1      44.506  38.970  33.397  1.00  0.00    -0.200 F 
ENDBRANCH  57  80
ENDBRANCH  31  32
ENDBRANCH  23  26
ENDBRANCH  21  22
ENDBRANCH  20  21
ENDBRANCH   1  20
TORSDOF 14
ENDMDL
