MODEL 1
REMARK VINA RESULT:     -12.1      0.000      0.000
REMARK SMILES CC(C)(C)OC(=O)N1CCC[C@@](CC2CCC2)(C(=O)NCCCNC(=O)c2ccc(-c3c4nc(c(-c5c(F)c(F)c(F)c(F)c5F)c5ccc([nH]5)c(-c5c(F)c(F)c(F)c(F)c5F)c5nc(c(-c6c(F)c(F)c(F)c(F)c6F)c6ccc3[nH]6)C=C5)C=C4)cc2)C1
REMARK SMILES IDX 21 1 20 2 18 3 19 4 12 6 8 7 9 8 90 9 10 10 11 11 6 12 7 13
REMARK SMILES IDX 5 14 2 15 1 16 3 17 4 18 13 19 14 20 15 21 17 22 16 23 22 24
REMARK SMILES IDX 23 25 24 26 25 27 26 29 27 30 28 31 89 32 29 33 88 34 30 35
REMARK SMILES IDX 31 36 32 37 82 38 33 39 87 40 81 41 83 42 34 43 86 44 80 45
REMARK SMILES IDX 79 46 35 48 67 49 47 50 66 51 48 52 51 53 65 54 84 55 49 56
REMARK SMILES IDX 50 57 64 59 85 60 52 61 36 62 37 63 45 64 38 65 39 66 43 67
REMARK SMILES IDX 46 68 40 69 41 70 44 71 42 72 68 73 69 74 77 75 70 76 71 77
REMARK SMILES IDX 75 78 78 79 72 80 73 81 76 82 74 83 53 84 54 85 62 86 55 87
REMARK SMILES IDX 56 88 60 89 63 90 57 91 58 92 61 93 59 94
REMARK H PARENT 20 5 24 28 83 47 51 58
REMARK Flexibility Score: inf
ROOT
ATOM      1  C   UNL A   1      32.074  30.049  26.108  1.00  0.00     0.117 C 
ENDROOT
BRANCH   1   2
ATOM      2  N   UNL A   1      33.018  29.963  25.035  1.00  0.00    -0.355 N 
ATOM      3  C   UNL A   1      33.155  28.953  24.129  1.00  0.00     0.228 C 
ATOM      4  O   UNL A   1      33.632  29.281  23.039  1.00  0.00    -0.274 OA
ATOM      5  H   UNL A   1      33.640  30.721  24.938  1.00  0.00     0.163 HD
BRANCH   3   6
ATOM      6  C   UNL A   1      32.783  27.475  24.454  1.00  0.00     0.067 C 
ATOM      7  N   UNL A   1      33.776  25.222  23.810  1.00  0.00    -0.307 N 
ATOM      8  C   UNL A   1      34.087  24.864  25.180  1.00  0.00     0.123 C 
ATOM      9  C   UNL A   1      33.749  26.653  23.490  1.00  0.00     0.140 C 
ATOM     10  C   UNL A   1      33.202  25.607  26.163  1.00  0.00     0.023 C 
ATOM     11  C   UNL A   1      33.235  27.108  25.887  1.00  0.00     0.020 C 
BRANCH   7  12
ATOM     12  C   UNL A   1      33.634  24.216  22.873  1.00  0.00     0.410 C 
ATOM     13  O   UNL A   1      33.614  24.433  21.666  1.00  0.00    -0.224 OA
BRANCH  12  14
ATOM     14  O   UNL A   1      33.455  22.997  23.441  1.00  0.00    -0.444 OA
BRANCH  14  15
ATOM     15  C   UNL A   1      32.146  22.363  23.472  1.00  0.00     0.106 C 
ATOM     16  C   UNL A   1      32.130  21.540  24.770  1.00  0.00     0.056 C 
ATOM     17  C   UNL A   1      32.024  21.424  22.271  1.00  0.00     0.056 C 
ATOM     18  C   UNL A   1      30.967  23.348  23.535  1.00  0.00     0.056 C 
ENDBRANCH  14  15
ENDBRANCH  12  14
ENDBRANCH   7  12
BRANCH   6  19
ATOM     19  C   UNL A   1      31.330  27.070  24.021  1.00  0.00     0.022 C 
BRANCH  19  20
ATOM     20  C   UNL A   1      30.117  28.021  23.920  1.00  0.00    -0.010 C 
ATOM     21  C   UNL A   1      29.840  29.237  22.997  1.00  0.00     0.003 C 
ATOM     22  C   UNL A   1      28.721  27.456  23.565  1.00  0.00     0.003 C 
ATOM     23  C   UNL A   1      28.386  28.762  22.824  1.00  0.00     0.001 C 
ENDBRANCH  19  20
ENDBRANCH   6  19
ENDBRANCH   3   6
ENDBRANCH   1   2
BRANCH   1  24
ATOM     24  C   UNL A   1      31.648  31.447  26.508  1.00  0.00     0.042 C 
BRANCH  24  25
ATOM     25  C   UNL A   1      32.763  32.244  27.167  1.00  0.00     0.118 C 
BRANCH  25  26
ATOM     26  N   UNL A   1      32.414  33.633  27.466  1.00  0.00    -0.352 N 
ATOM     27  C   UNL A   1      32.990  34.541  28.321  1.00  0.00     0.251 C 
ATOM     28  H   UNL A   1      31.635  33.975  26.970  1.00  0.00     0.163 HD
ATOM     29  O   UNL A   1      32.500  35.660  28.435  1.00  0.00    -0.269 OA
BRANCH  27  30
ATOM     30  C   UNL A   1      34.157  34.162  29.143  1.00  0.00     0.039 A 
ATOM     31  C   UNL A   1      33.959  33.317  30.240  1.00  0.00     0.014 A 
ATOM     32  C   UNL A   1      35.441  34.598  28.821  1.00  0.00     0.014 A 
ATOM     33  C   UNL A   1      35.060  32.831  30.946  1.00  0.00     0.010 A 
ATOM     34  C   UNL A   1      36.538  34.023  29.447  1.00  0.00     0.010 A 
ATOM     35  C   UNL A   1      36.360  33.134  30.516  1.00  0.00    -0.014 A 
BRANCH  35  36
ATOM     36  C   UNL A   1      37.560  32.549  31.163  1.00  0.00     0.031 A 
ATOM     37  C   UNL A   1      38.313  31.446  30.473  1.00  0.00     0.074 A 
ATOM     38  C   UNL A   1      37.899  32.928  32.412  1.00  0.00     0.049 A 
ATOM     39  N   UNL A   1      39.274  30.685  30.930  1.00  0.00    -0.248 NA
ATOM     40  C   UNL A   1      37.893  31.123  29.099  1.00  0.00     0.031 C 
ATOM     41  C   UNL A   1      37.207  33.941  33.210  1.00  0.00     0.029 A 
ATOM     42  N   UNL A   1      38.906  32.490  33.235  1.00  0.00    -0.354 N 
ATOM     43  C   UNL A   1      39.540  29.771  29.918  1.00  0.00     0.074 A 
ATOM     44  C   UNL A   1      38.605  30.036  28.848  1.00  0.00     0.031 C 
ATOM     45  C   UNL A   1      37.826  34.067  34.395  1.00  0.00     0.029 A 
ATOM     46  C   UNL A   1      38.929  33.115  34.457  1.00  0.00     0.049 A 
ATOM     47  H   UNL A   1      39.551  31.794  32.973  1.00  0.00     0.167 HD
ATOM     48  C   UNL A   1      40.497  28.814  29.877  1.00  0.00     0.037 A 
ATOM     49  C   UNL A   1      39.746  32.933  35.511  1.00  0.00     0.037 A 
ATOM     50  C   UNL A   1      41.465  28.601  30.919  1.00  0.00     0.049 A 
ATOM     51  C   UNL A   1      40.835  31.899  35.419  1.00  0.00     0.074 A 
ATOM     52  C   UNL A   1      42.527  27.715  30.944  1.00  0.00     0.029 A 
ATOM     53  N   UNL A   1      41.494  29.298  32.118  1.00  0.00    -0.354 N 
ATOM     54  N   UNL A   1      41.114  31.077  34.436  1.00  0.00    -0.248 NA
ATOM     55  C   UNL A   1      41.725  31.770  36.581  1.00  0.00     0.031 C 
ATOM     56  C   UNL A   1      43.183  27.856  32.172  1.00  0.00     0.029 A 
ATOM     57  C   UNL A   1      42.553  28.857  32.894  1.00  0.00     0.049 A 
ATOM     58  H   UNL A   1      40.857  30.001  32.379  1.00  0.00     0.167 HD
ATOM     59  C   UNL A   1      42.225  30.354  34.847  1.00  0.00     0.074 A 
ATOM     60  C   UNL A   1      42.577  30.844  36.164  1.00  0.00     0.031 C 
ATOM     61  C   UNL A   1      42.891  29.371  34.196  1.00  0.00     0.037 A 
BRANCH  48  62
ATOM     62  C   UNL A   1      40.552  27.942  28.657  1.00  0.00     0.064 A 
ATOM     63  C   UNL A   1      39.854  26.726  28.590  1.00  0.00     0.173 A 
ATOM     64  C   UNL A   1      41.294  28.333  27.534  1.00  0.00     0.173 A 
ATOM     65  F   UNL A   1      39.142  26.298  29.644  1.00  0.00    -0.203 F 
ATOM     66  C   UNL A   1      39.928  25.917  27.459  1.00  0.00     0.198 A 
ATOM     67  C   UNL A   1      41.339  27.538  26.391  1.00  0.00     0.198 A 
ATOM     68  F   UNL A   1      41.977  29.488  27.542  1.00  0.00    -0.203 F 
ATOM     69  F   UNL A   1      39.301  24.734  27.443  1.00  0.00    -0.200 F 
ATOM     70  C   UNL A   1      40.664  26.327  26.359  1.00  0.00     0.200 A 
ATOM     71  F   UNL A   1      42.043  27.940  25.324  1.00  0.00    -0.200 F 
ATOM     72  F   UNL A   1      40.731  25.550  25.269  1.00  0.00    -0.200 F 
ENDBRANCH  48  62
BRANCH  49  73
ATOM     73  C   UNL A   1      39.591  33.772  36.727  1.00  0.00     0.064 A 
ATOM     74  C   UNL A   1      40.227  35.018  36.819  1.00  0.00     0.173 A 
ATOM     75  C   UNL A   1      38.809  33.355  37.813  1.00  0.00     0.173 A 
ATOM     76  F   UNL A   1      41.000  35.451  35.813  1.00  0.00    -0.203 F 
ATOM     77  C   UNL A   1      40.105  35.806  37.962  1.00  0.00     0.198 A 
ATOM     78  C   UNL A   1      38.667  34.156  38.945  1.00  0.00     0.198 A 
ATOM     79  F   UNL A   1      38.174  32.175  37.770  1.00  0.00    -0.203 F 
ATOM     80  F   UNL A   1      40.759  36.973  38.041  1.00  0.00    -0.200 F 
ATOM     81  C   UNL A   1      39.321  35.376  39.021  1.00  0.00     0.200 A 
ATOM     82  F   UNL A   1      37.898  33.744  39.962  1.00  0.00    -0.200 F 
ATOM     83  F   UNL A   1      39.201  36.136  40.120  1.00  0.00    -0.200 F 
ENDBRANCH  49  73
BRANCH  61  84
ATOM     84  C   UNL A   1      44.091  28.787  34.880  1.00  0.00     0.064 A 
ATOM     85  C   UNL A   1      45.366  29.351  34.730  1.00  0.00     0.173 A 
ATOM     86  C   UNL A   1      43.954  27.681  35.729  1.00  0.00     0.173 A 
ATOM     87  F   UNL A   1      45.549  30.400  33.914  1.00  0.00    -0.203 F 
ATOM     88  C   UNL A   1      46.465  28.813  35.393  1.00  0.00     0.198 A 
ATOM     89  C   UNL A   1      45.049  27.162  36.412  1.00  0.00     0.198 A 
ATOM     90  F   UNL A   1      42.752  27.111  35.909  1.00  0.00    -0.203 F 
ATOM     91  F   UNL A   1      47.683  29.342  35.204  1.00  0.00    -0.200 F 
ATOM     92  C   UNL A   1      46.305  27.725  36.238  1.00  0.00     0.200 A 
ATOM     93  F   UNL A   1      44.891  26.119  37.236  1.00  0.00    -0.200 F 
ATOM     94  F   UNL A   1      47.363  27.214  36.882  1.00  0.00    -0.200 F 
ENDBRANCH  61  84
ENDBRANCH  35  36
ENDBRANCH  27  30
ENDBRANCH  25  26
ENDBRANCH  24  25
ENDBRANCH   1  24
TORSDOF 15
ENDMDL
MODEL 2
REMARK VINA RESULT:     -12.1      5.401     10.821
REMARK SMILES CC(C)(C)OC(=O)N1CCC[C@@](CC2CCC2)(C(=O)NCCCNC(=O)c2ccc(-c3c4nc(c(-c5c(F)c(F)c(F)c(F)c5F)c5ccc([nH]5)c(-c5c(F)c(F)c(F)c(F)c5F)c5nc(c(-c6c(F)c(F)c(F)c(F)c6F)c6ccc3[nH]6)C=C5)C=C4)cc2)C1
REMARK SMILES IDX 21 1 20 2 18 3 19 4 12 6 8 7 9 8 90 9 10 10 11 11 6 12 7 13
REMARK SMILES IDX 5 14 2 15 1 16 3 17 4 18 13 19 14 20 15 21 17 22 16 23 22 24
REMARK SMILES IDX 23 25 24 26 25 27 26 29 27 30 28 31 89 32 29 33 88 34 30 35
REMARK SMILES IDX 31 36 32 37 82 38 33 39 87 40 81 41 83 42 34 43 86 44 80 45
REMARK SMILES IDX 79 46 35 48 67 49 47 50 66 51 48 52 51 53 65 54 84 55 49 56
REMARK SMILES IDX 50 57 64 59 85 60 52 61 36 62 37 63 45 64 38 65 39 66 43 67
REMARK SMILES IDX 46 68 40 69 41 70 44 71 42 72 68 73 69 74 77 75 70 76 71 77
REMARK SMILES IDX 75 78 78 79 72 80 73 81 76 82 74 83 53 84 54 85 62 86 55 87
REMARK SMILES IDX 56 88 60 89 63 90 57 91 58 92 61 93 59 94
REMARK H PARENT 20 5 24 28 83 47 51 58
REMARK Flexibility Score: inf
ROOT
ATOM      1  C   UNL A   1      36.699  21.376  25.075  1.00  0.00     0.117 C 
ENDROOT
BRANCH   1   2
ATOM      2  N   UNL A   1      36.027  21.431  26.339  1.00  0.00    -0.355 N 
ATOM      3  C   UNL A   1      34.792  21.945  26.600  1.00  0.00     0.228 C 
ATOM      4  O   UNL A   1      34.210  21.454  27.572  1.00  0.00    -0.274 OA
ATOM      5  H   UNL A   1      36.513  21.053  27.108  1.00  0.00     0.163 HD
BRANCH   3   6
ATOM      6  C   UNL A   1      34.167  23.103  25.765  1.00  0.00     0.067 C 
ATOM      7  N   UNL A   1      32.366  24.840  26.227  1.00  0.00    -0.307 N 
ATOM      8  C   UNL A   1      33.276  25.959  26.071  1.00  0.00     0.123 C 
ATOM      9  C   UNL A   1      32.948  23.572  26.678  1.00  0.00     0.140 C 
ATOM     10  C   UNL A   1      34.467  25.589  25.207  1.00  0.00     0.023 C 
ATOM     11  C   UNL A   1      35.128  24.314  25.721  1.00  0.00     0.020 C 
BRANCH   7  12
ATOM     12  C   UNL A   1      31.012  25.052  26.055  1.00  0.00     0.410 C 
ATOM     13  O   UNL A   1      30.159  24.319  26.543  1.00  0.00    -0.224 OA
BRANCH  12  14
ATOM     14  O   UNL A   1      30.749  26.106  25.243  1.00  0.00    -0.444 OA
BRANCH  14  15
ATOM     15  C   UNL A   1      30.265  25.911  23.884  1.00  0.00     0.106 C 
ATOM     16  C   UNL A   1      31.140  26.825  23.012  1.00  0.00     0.056 C 
ATOM     17  C   UNL A   1      28.809  26.375  23.808  1.00  0.00     0.056 C 
ATOM     18  C   UNL A   1      30.425  24.476  23.356  1.00  0.00     0.056 C 
ENDBRANCH  14  15
ENDBRANCH  12  14
ENDBRANCH   7  12
BRANCH   6  19
ATOM     19  C   UNL A   1      33.513  22.640  24.416  1.00  0.00     0.022 C 
BRANCH  19  20
ATOM     20  C   UNL A   1      32.657  21.370  24.214  1.00  0.00    -0.010 C 
ATOM     21  C   UNL A   1      32.061  20.727  22.933  1.00  0.00     0.003 C 
ATOM     22  C   UNL A   1      33.218  19.988  24.625  1.00  0.00     0.003 C 
ATOM     23  C   UNL A   1      32.448  19.335  23.465  1.00  0.00     0.001 C 
ENDBRANCH  19  20
ENDBRANCH   6  19
ENDBRANCH   3   6
ENDBRANCH   1   2
BRANCH   1  24
ATOM     24  C   UNL A   1      37.742  20.288  24.923  1.00  0.00     0.042 C 
BRANCH  24  25
ATOM     25  C   UNL A   1      38.998  20.548  25.741  1.00  0.00     0.118 C 
BRANCH  25  26
ATOM     26  N   UNL A   1      39.939  19.428  25.769  1.00  0.00    -0.352 N 
ATOM     27  C   UNL A   1      41.282  19.390  26.056  1.00  0.00     0.251 C 
ATOM     28  H   UNL A   1      39.543  18.555  25.544  1.00  0.00     0.163 HD
ATOM     29  O   UNL A   1      41.885  18.324  25.985  1.00  0.00    -0.269 OA
BRANCH  27  30
ATOM     30  C   UNL A   1      42.013  20.628  26.393  1.00  0.00     0.039 A 
ATOM     31  C   UNL A   1      42.443  21.457  25.353  1.00  0.00     0.014 A 
ATOM     32  C   UNL A   1      42.242  20.995  27.718  1.00  0.00     0.014 A 
ATOM     33  C   UNL A   1      43.009  22.699  25.647  1.00  0.00     0.010 A 
ATOM     34  C   UNL A   1      42.694  22.274  28.007  1.00  0.00     0.010 A 
ATOM     35  C   UNL A   1      43.083  23.140  26.976  1.00  0.00    -0.014 A 
BRANCH  35  36
ATOM     36  C   UNL A   1      43.569  24.496  27.329  1.00  0.00     0.031 A 
ATOM     37  C   UNL A   1      42.607  25.509  27.885  1.00  0.00     0.074 A 
ATOM     38  C   UNL A   1      44.839  24.847  27.045  1.00  0.00     0.049 A 
ATOM     39  N   UNL A   1      42.780  26.788  28.097  1.00  0.00    -0.248 NA
ATOM     40  C   UNL A   1      41.251  25.027  28.195  1.00  0.00     0.031 C 
ATOM     41  C   UNL A   1      45.849  23.973  26.445  1.00  0.00     0.029 A 
ATOM     42  N   UNL A   1      45.493  26.043  27.208  1.00  0.00    -0.354 N 
ATOM     43  C   UNL A   1      41.547  27.266  28.523  1.00  0.00     0.074 A 
ATOM     44  C   UNL A   1      40.623  26.155  28.487  1.00  0.00     0.031 C 
ATOM     45  C   UNL A   1      47.001  24.652  26.318  1.00  0.00     0.029 A 
ATOM     46  C   UNL A   1      46.798  26.019  26.785  1.00  0.00     0.049 A 
ATOM     47  H   UNL A   1      45.066  26.842  27.593  1.00  0.00     0.167 HD
ATOM     48  C   UNL A   1      41.224  28.516  28.933  1.00  0.00     0.037 A 
ATOM     49  C   UNL A   1      47.725  26.995  26.769  1.00  0.00     0.037 A 
ATOM     50  C   UNL A   1      42.164  29.599  29.028  1.00  0.00     0.049 A 
ATOM     51  C   UNL A   1      47.354  28.361  27.281  1.00  0.00     0.074 A 
ATOM     52  C   UNL A   1      41.961  30.880  29.508  1.00  0.00     0.029 A 
ATOM     53  N   UNL A   1      43.496  29.518  28.648  1.00  0.00    -0.354 N 
ATOM     54  N   UNL A   1      46.201  28.789  27.733  1.00  0.00    -0.248 NA
ATOM     55  C   UNL A   1      48.414  29.377  27.281  1.00  0.00     0.031 C 
ATOM     56  C   UNL A   1      43.164  31.585  29.391  1.00  0.00     0.029 A 
ATOM     57  C   UNL A   1      44.125  30.730  28.875  1.00  0.00     0.049 A 
ATOM     58  H   UNL A   1      43.929  28.718  28.271  1.00  0.00     0.167 HD
ATOM     59  C   UNL A   1      46.402  30.112  28.098  1.00  0.00     0.074 A 
ATOM     60  C   UNL A   1      47.792  30.413  27.825  1.00  0.00     0.031 C 
ATOM     61  C   UNL A   1      45.515  31.000  28.609  1.00  0.00     0.037 A 
BRANCH  48  62
ATOM     62  C   UNL A   1      39.797  28.767  29.326  1.00  0.00     0.064 A 
ATOM     63  C   UNL A   1      39.346  28.554  30.638  1.00  0.00     0.173 A 
ATOM     64  C   UNL A   1      38.873  29.244  28.386  1.00  0.00     0.173 A 
ATOM     65  F   UNL A   1      40.187  28.083  31.571  1.00  0.00    -0.203 F 
ATOM     66  C   UNL A   1      38.016  28.774  30.984  1.00  0.00     0.198 A 
ATOM     67  C   UNL A   1      37.550  29.495  28.743  1.00  0.00     0.198 A 
ATOM     68  F   UNL A   1      39.251  29.470  27.118  1.00  0.00    -0.203 F 
ATOM     69  F   UNL A   1      37.597  28.507  32.228  1.00  0.00    -0.200 F 
ATOM     70  C   UNL A   1      37.121  29.251  30.039  1.00  0.00     0.200 A 
ATOM     71  F   UNL A   1      36.688  29.965  27.831  1.00  0.00    -0.200 F 
ATOM     72  F   UNL A   1      35.842  29.466  30.375  1.00  0.00    -0.200 F 
ENDBRANCH  48  62
BRANCH  49  73
ATOM     73  C   UNL A   1      49.101  26.707  26.290  1.00  0.00     0.064 A 
ATOM     74  C   UNL A   1      49.459  26.953  24.957  1.00  0.00     0.173 A 
ATOM     75  C   UNL A   1      50.083  26.187  27.145  1.00  0.00     0.173 A 
ATOM     76  F   UNL A   1      48.548  27.433  24.098  1.00  0.00    -0.203 F 
ATOM     77  C   UNL A   1      50.741  26.669  24.491  1.00  0.00     0.198 A 
ATOM     78  C   UNL A   1      51.373  25.928  26.684  1.00  0.00     0.198 A 
ATOM     79  F   UNL A   1      49.794  25.942  28.431  1.00  0.00    -0.203 F 
ATOM     80  F   UNL A   1      51.043  26.873  23.201  1.00  0.00    -0.200 F 
ATOM     81  C   UNL A   1      51.698  26.161  25.356  1.00  0.00     0.200 A 
ATOM     82  F   UNL A   1      52.299  25.450  27.525  1.00  0.00    -0.200 F 
ATOM     83  F   UNL A   1      52.932  25.891  24.909  1.00  0.00    -0.200 F 
ENDBRANCH  49  73
BRANCH  61  84
ATOM     84  C   UNL A   1      46.030  32.368  28.943  1.00  0.00     0.064 A 
ATOM     85  C   UNL A   1      46.591  32.653  30.196  1.00  0.00     0.173 A 
ATOM     86  C   UNL A   1      46.003  33.389  27.982  1.00  0.00     0.173 A 
ATOM     87  F   UNL A   1      46.623  31.713  31.151  1.00  0.00    -0.203 F 
ATOM     88  C   UNL A   1      47.089  33.922  30.480  1.00  0.00     0.198 A 
ATOM     89  C   UNL A   1      46.526  34.647  28.261  1.00  0.00     0.198 A 
ATOM     90  F   UNL A   1      45.481  33.161  26.767  1.00  0.00    -0.203 F 
ATOM     91  F   UNL A   1      47.584  34.186  31.698  1.00  0.00    -0.200 F 
ATOM     92  C   UNL A   1      47.063  34.914  29.512  1.00  0.00     0.200 A 
ATOM     93  F   UNL A   1      46.511  35.601  27.321  1.00  0.00    -0.200 F 
ATOM     94  F   UNL A   1      47.551  36.132  29.786  1.00  0.00    -0.200 F 
ENDBRANCH  61  84
ENDBRANCH  35  36
ENDBRANCH  27  30
ENDBRANCH  25  26
ENDBRANCH  24  25
ENDBRANCH   1  24
TORSDOF 15
ENDMDL
MODEL 3
REMARK VINA RESULT:     -12.0      0.975      7.551
REMARK SMILES CC(C)(C)OC(=O)N1CCC[C@@](CC2CCC2)(C(=O)NCCCNC(=O)c2ccc(-c3c4nc(c(-c5c(F)c(F)c(F)c(F)c5F)c5ccc([nH]5)c(-c5c(F)c(F)c(F)c(F)c5F)c5nc(c(-c6c(F)c(F)c(F)c(F)c6F)c6ccc3[nH]6)C=C5)C=C4)cc2)C1
REMARK SMILES IDX 21 1 20 2 18 3 19 4 12 6 8 7 9 8 90 9 10 10 11 11 6 12 7 13
REMARK SMILES IDX 5 14 2 15 1 16 3 17 4 18 13 19 14 20 15 21 17 22 16 23 22 24
REMARK SMILES IDX 23 25 24 26 25 27 26 29 27 30 28 31 89 32 29 33 88 34 30 35
REMARK SMILES IDX 31 36 32 37 82 38 33 39 87 40 81 41 83 42 34 43 86 44 80 45
REMARK SMILES IDX 79 46 35 48 67 49 47 50 66 51 48 52 51 53 65 54 84 55 49 56
REMARK SMILES IDX 50 57 64 59 85 60 52 61 36 62 37 63 45 64 38 65 39 66 43 67
REMARK SMILES IDX 46 68 40 69 41 70 44 71 42 72 68 73 69 74 77 75 70 76 71 77
REMARK SMILES IDX 75 78 78 79 72 80 73 81 76 82 74 83 53 84 54 85 62 86 55 87
REMARK SMILES IDX 56 88 60 89 63 90 57 91 58 92 61 93 59 94
REMARK H PARENT 20 5 24 28 83 47 51 58
REMARK Flexibility Score: inf
ROOT
ATOM      1  C   UNL A   1      31.492  30.711  26.608  1.00  0.00     0.117 C 
ENDROOT
BRANCH   1   2
ATOM      2  N   UNL A   1      32.745  30.157  27.026  1.00  0.00    -0.355 N 
ATOM      3  C   UNL A   1      33.365  29.046  26.536  1.00  0.00     0.228 C 
ATOM      4  O   UNL A   1      34.595  29.036  26.646  1.00  0.00    -0.274 OA
ATOM      5  H   UNL A   1      33.213  30.633  27.750  1.00  0.00     0.163 HD
BRANCH   3   6
ATOM      6  C   UNL A   1      32.583  27.847  25.921  1.00  0.00     0.067 C 
ATOM      7  N   UNL A   1      33.059  25.357  25.698  1.00  0.00    -0.307 N 
ATOM      8  C   UNL A   1      31.917  24.972  26.504  1.00  0.00     0.123 C 
ATOM      9  C   UNL A   1      33.654  26.668  25.975  1.00  0.00     0.140 C 
ATOM     10  C   UNL A   1      30.847  26.048  26.499  1.00  0.00     0.023 C 
ATOM     11  C   UNL A   1      31.446  27.403  26.869  1.00  0.00     0.020 C 
BRANCH   7  12
ATOM     12  C   UNL A   1      33.586  24.442  24.806  1.00  0.00     0.410 C 
ATOM     13  O   UNL A   1      33.919  23.309  25.138  1.00  0.00    -0.224 OA
BRANCH  12  14
ATOM     14  O   UNL A   1      33.749  24.960  23.563  1.00  0.00    -0.444 OA
BRANCH  14  15
ATOM     15  C   UNL A   1      32.796  24.686  22.498  1.00  0.00     0.106 C 
ATOM     16  C   UNL A   1      33.278  23.375  21.856  1.00  0.00     0.056 C 
ATOM     17  C   UNL A   1      32.869  25.814  21.469  1.00  0.00     0.056 C 
ATOM     18  C   UNL A   1      31.354  24.461  22.983  1.00  0.00     0.056 C 
ENDBRANCH  14  15
ENDBRANCH  12  14
ENDBRANCH   7  12
BRANCH   6  19
ATOM     19  C   UNL A   1      32.241  28.018  24.399  1.00  0.00     0.022 C 
BRANCH  19  20
ATOM     20  C   UNL A   1      30.952  28.649  23.827  1.00  0.00    -0.010 C 
ATOM     21  C   UNL A   1      30.673  29.371  22.481  1.00  0.00     0.003 C 
ATOM     22  C   UNL A   1      29.700  27.771  23.594  1.00  0.00     0.003 C 
ATOM     23  C   UNL A   1      29.327  28.633  22.376  1.00  0.00     0.001 C 
ENDBRANCH  19  20
ENDBRANCH   6  19
ENDBRANCH   3   6
ENDBRANCH   1   2
BRANCH   1  24
ATOM     24  C   UNL A   1      31.430  32.222  26.521  1.00  0.00     0.042 C 
BRANCH  24  25
ATOM     25  C   UNL A   1      32.624  32.906  27.168  1.00  0.00     0.118 C 
BRANCH  25  26
ATOM     26  N   UNL A   1      32.347  34.253  27.669  1.00  0.00    -0.352 N 
ATOM     27  C   UNL A   1      32.958  34.988  28.655  1.00  0.00     0.251 C 
ATOM     28  H   UNL A   1      31.596  34.707  27.225  1.00  0.00     0.163 HD
ATOM     29  O   UNL A   1      32.528  36.103  28.932  1.00  0.00    -0.269 OA
BRANCH  27  30
ATOM     30  C   UNL A   1      34.089  34.425  29.420  1.00  0.00     0.039 A 
ATOM     31  C   UNL A   1      33.817  33.694  30.580  1.00  0.00     0.014 A 
ATOM     32  C   UNL A   1      35.404  34.577  28.984  1.00  0.00     0.014 A 
ATOM     33  C   UNL A   1      34.854  33.033  31.241  1.00  0.00     0.010 A 
ATOM     34  C   UNL A   1      36.413  33.826  29.570  1.00  0.00     0.010 A 
ATOM     35  C   UNL A   1      36.149  33.047  30.705  1.00  0.00    -0.014 A 
BRANCH  35  36
ATOM     36  C   UNL A   1      37.258  32.266  31.307  1.00  0.00     0.031 A 
ATOM     37  C   UNL A   1      37.754  32.618  32.682  1.00  0.00     0.074 A 
ATOM     38  C   UNL A   1      37.887  31.325  30.576  1.00  0.00     0.049 A 
ATOM     39  N   UNL A   1      38.810  32.183  33.319  1.00  0.00    -0.248 NA
ATOM     40  C   UNL A   1      36.984  33.634  33.419  1.00  0.00     0.031 C 
ATOM     41  C   UNL A   1      37.540  30.939  29.207  1.00  0.00     0.029 A 
ATOM     42  N   UNL A   1      38.965  30.531  30.880  1.00  0.00    -0.354 N 
ATOM     43  C   UNL A   1      38.853  32.902  34.507  1.00  0.00     0.074 A 
ATOM     44  C   UNL A   1      37.752  33.838  34.478  1.00  0.00     0.031 C 
ATOM     45  C   UNL A   1      38.369  29.964  28.800  1.00  0.00     0.029 A 
ATOM     46  C   UNL A   1      39.332  29.688  29.860  1.00  0.00     0.049 A 
ATOM     47  H   UNL A   1      39.430  30.563  31.746  1.00  0.00     0.167 HD
ATOM     48  C   UNL A   1      39.719  32.773  35.540  1.00  0.00     0.037 A 
ATOM     49  C   UNL A   1      40.338  28.797  29.789  1.00  0.00     0.037 A 
ATOM     50  C   UNL A   1      40.772  31.795  35.588  1.00  0.00     0.049 A 
ATOM     51  C   UNL A   1      41.254  28.636  30.972  1.00  0.00     0.074 A 
ATOM     52  C   UNL A   1      41.654  31.525  36.619  1.00  0.00     0.029 A 
ATOM     53  N   UNL A   1      41.074  30.915  34.559  1.00  0.00    -0.354 N 
ATOM     54  N   UNL A   1      41.253  29.282  32.113  1.00  0.00    -0.248 NA
ATOM     55  C   UNL A   1      42.309  27.620  30.858  1.00  0.00     0.031 C 
ATOM     56  C   UNL A   1      42.509  30.498  36.203  1.00  0.00     0.029 A 
ATOM     57  C   UNL A   1      42.133  30.105  34.928  1.00  0.00     0.049 A 
ATOM     58  H   UNL A   1      40.605  30.874  33.695  1.00  0.00     0.167 HD
ATOM     59  C   UNL A   1      42.284  28.735  32.862  1.00  0.00     0.074 A 
ATOM     60  C   UNL A   1      42.882  27.694  32.051  1.00  0.00     0.031 C 
ATOM     61  C   UNL A   1      42.701  29.065  34.108  1.00  0.00     0.037 A 
BRANCH  48  62
ATOM     62  C   UNL A   1      39.548  33.702  36.706  1.00  0.00     0.064 A 
ATOM     63  C   UNL A   1      40.165  34.962  36.741  1.00  0.00     0.173 A 
ATOM     64  C   UNL A   1      38.742  33.337  37.795  1.00  0.00     0.173 A 
ATOM     65  F   UNL A   1      40.958  35.352  35.732  1.00  0.00    -0.203 F 
ATOM     66  C   UNL A   1      40.012  35.806  37.838  1.00  0.00     0.198 A 
ATOM     67  C   UNL A   1      38.565  34.197  38.876  1.00  0.00     0.198 A 
ATOM     68  F   UNL A   1      38.125  32.146  37.812  1.00  0.00    -0.203 F 
ATOM     69  F   UNL A   1      40.660  36.978  37.873  1.00  0.00    -0.200 F 
ATOM     70  C   UNL A   1      39.207  35.426  38.900  1.00  0.00     0.200 A 
ATOM     71  F   UNL A   1      37.778  33.834  39.898  1.00  0.00    -0.200 F 
ATOM     72  F   UNL A   1      39.058  36.241  39.954  1.00  0.00    -0.200 F 
ENDBRANCH  48  62
BRANCH  49  73
ATOM     73  C   UNL A   1      40.509  27.962  28.573  1.00  0.00     0.064 A 
ATOM     74  C   UNL A   1      39.894  26.705  28.478  1.00  0.00     0.173 A 
ATOM     75  C   UNL A   1      41.279  28.395  27.485  1.00  0.00     0.173 A 
ATOM     76  F   UNL A   1      39.162  26.240  29.500  1.00  0.00    -0.203 F 
ATOM     77  C   UNL A   1      40.062  25.904  27.350  1.00  0.00     0.198 A 
ATOM     78  C   UNL A   1      41.425  27.605  26.347  1.00  0.00     0.198 A 
ATOM     79  F   UNL A   1      41.881  29.593  27.523  1.00  0.00    -0.203 F 
ATOM     80  F   UNL A   1      39.498  24.689  27.304  1.00  0.00    -0.200 F 
ATOM     81  C   UNL A   1      40.823  26.357  26.284  1.00  0.00     0.200 A 
ATOM     82  F   UNL A   1      42.151  28.051  25.313  1.00  0.00    -0.200 F 
ATOM     83  F   UNL A   1      40.983  25.588  25.197  1.00  0.00    -0.200 F 
ENDBRANCH  49  73
BRANCH  61  84
ATOM     84  C   UNL A   1      43.833  28.269  34.685  1.00  0.00     0.064 A 
ATOM     85  C   UNL A   1      43.607  27.075  35.383  1.00  0.00     0.173 A 
ATOM     86  C   UNL A   1      45.159  28.684  34.497  1.00  0.00     0.173 A 
ATOM     87  F   UNL A   1      42.354  26.647  35.602  1.00  0.00    -0.203 F 
ATOM     88  C   UNL A   1      44.671  26.333  35.890  1.00  0.00     0.198 A 
ATOM     89  C   UNL A   1      46.221  27.927  34.981  1.00  0.00     0.198 A 
ATOM     90  F   UNL A   1      45.425  29.817  33.830  1.00  0.00    -0.203 F 
ATOM     91  F   UNL A   1      44.431  25.215  36.590  1.00  0.00    -0.200 F 
ATOM     92  C   UNL A   1      45.975  26.755  35.682  1.00  0.00     0.200 A 
ATOM     93  F   UNL A   1      47.481  28.329  34.770  1.00  0.00    -0.200 F 
ATOM     94  F   UNL A   1      46.998  26.036  36.164  1.00  0.00    -0.200 F 
ENDBRANCH  61  84
ENDBRANCH  35  36
ENDBRANCH  27  30
ENDBRANCH  25  26
ENDBRANCH  24  25
ENDBRANCH   1  24
TORSDOF 15
ENDMDL
