MODEL 1
REMARK VINA RESULT:     -12.1      0.000      0.000
REMARK SMILES O=C(Cc1csc(NC(=O)CS[C@@H]2CCS(=O)(=O)C2)n1)NCCCNC(=O)c1ccc(-c2c3nc(c(-c4c(F)c(F)c(F)c(F)c4F)c4ccc([nH]4)c(-c4c(F)c(F)c(F)c(F)c4F)c4nc(c(-c5c(F)c(F)c(F)c(F)c5F)c5ccc2[nH]5)C=C4)C=C3)cc1
REMARK SMILES IDX 1 1 2 2 21 3 3 5 4 6 5 7 20 8 6 9 7 10 8 11 9 12 10 14 11 15
REMARK SMILES IDX 12 16 13 17 14 18 19 19 15 20 16 21 17 22 18 23 22 24 23 25
REMARK SMILES IDX 24 26 25 27 26 28 27 30 28 31 29 32 90 33 30 34 89 35 31 36
REMARK SMILES IDX 32 37 33 38 83 39 34 40 88 41 82 42 84 43 35 44 87 45 81 46
REMARK SMILES IDX 80 47 36 49 68 50 48 51 67 52 49 53 52 54 66 55 85 56 50 57
REMARK SMILES IDX 51 58 65 60 86 61 53 62 37 63 38 64 46 65 39 66 40 67 44 68
REMARK SMILES IDX 47 69 41 70 42 71 45 72 43 73 69 74 70 75 78 76 71 77 72 78
REMARK SMILES IDX 76 79 79 80 73 81 74 82 77 83 75 84 54 85 55 86 63 87 56 88
REMARK SMILES IDX 57 89 61 90 64 91 58 92 59 93 62 94 60 95
REMARK H PARENT 21 4 8 13 25 29 84 48 52 59
REMARK Flexibility Score: inf
ROOT
ATOM      1  O   UNL A   1      34.124  29.158  25.660  1.00  0.00    -0.275 OA
ATOM      2  C   UNL A   1      33.177  29.318  24.897  1.00  0.00     0.226 C 
ATOM      3  N   UNL A   1      32.028  29.999  25.250  1.00  0.00    -0.356 N 
ATOM      4  H   UNL A   1      31.357  30.185  24.553  1.00  0.00     0.163 HD
ENDROOT
BRANCH   2   5
ATOM      5  C   UNL A   1      33.172  28.810  23.466  1.00  0.00     0.157 C 
BRANCH   5   6
ATOM      6  C   UNL A   1      32.384  27.545  23.325  1.00  0.00     0.063 A 
ATOM      7  C   UNL A   1      32.349  26.684  22.240  1.00  0.00     0.093 A 
ATOM      8  N   UNL A   1      31.626  27.116  24.403  1.00  0.00    -0.224 NA
ATOM      9  S   UNL A   1      31.330  25.351  22.576  1.00  0.00    -0.105 S 
ATOM     10  C   UNL A   1      30.964  26.029  24.090  1.00  0.00     0.189 A 
BRANCH  10  11
ATOM     11  N   UNL A   1      30.173  25.404  25.005  1.00  0.00    -0.301 N 
ATOM     12  C   UNL A   1      30.438  24.792  26.183  1.00  0.00     0.236 C 
ATOM     13  H   UNL A   1      29.219  25.394  24.762  1.00  0.00     0.172 HD
ATOM     14  O   UNL A   1      29.470  24.620  26.934  1.00  0.00    -0.274 OA
BRANCH  12  15
ATOM     15  C   UNL A   1      31.803  24.286  26.612  1.00  0.00     0.170 C 
BRANCH  15  16
ATOM     16  S   UNL A   1      32.248  22.618  26.013  1.00  0.00    -0.148 SA
BRANCH  16  17
ATOM     17  C   UNL A   1      34.043  22.655  25.635  1.00  0.00     0.063 C 
ATOM     18  C   UNL A   1      34.712  24.028  25.729  1.00  0.00     0.031 C 
ATOM     19  C   UNL A   1      34.514  21.948  24.373  1.00  0.00     0.151 C 
ATOM     20  C   UNL A   1      34.865  24.607  24.333  1.00  0.00     0.138 C 
ATOM     21  S   UNL A   1      35.016  23.215  23.232  1.00  0.00     0.151 S 
ATOM     22  O   UNL A   1      34.019  23.304  22.192  1.00  0.00    -0.229 OA
ATOM     23  O   UNL A   1      36.423  23.022  22.932  1.00  0.00    -0.229 OA
ENDBRANCH  16  17
ENDBRANCH  15  16
ENDBRANCH  12  15
ENDBRANCH  10  11
ENDBRANCH   5   6
ENDBRANCH   2   5
BRANCH   3  24
ATOM     24  C   UNL A   1      31.772  30.454  26.601  1.00  0.00     0.117 C 
BRANCH  24  25
ATOM     25  C   UNL A   1      31.577  31.963  26.669  1.00  0.00     0.042 C 
BRANCH  25  26
ATOM     26  C   UNL A   1      32.702  32.724  27.365  1.00  0.00     0.118 C 
BRANCH  26  27
ATOM     27  N   UNL A   1      32.375  34.111  27.660  1.00  0.00    -0.352 N 
ATOM     28  C   UNL A   1      32.959  34.976  28.556  1.00  0.00     0.251 C 
ATOM     29  H   UNL A   1      31.627  34.485  27.141  1.00  0.00     0.163 HD
ATOM     30  O   UNL A   1      32.469  36.083  28.753  1.00  0.00    -0.269 OA
BRANCH  28  31
ATOM     31  C   UNL A   1      34.157  34.557  29.318  1.00  0.00     0.039 A 
ATOM     32  C   UNL A   1      33.984  34.022  30.597  1.00  0.00     0.014 A 
ATOM     33  C   UNL A   1      35.439  34.667  28.771  1.00  0.00     0.014 A 
ATOM     34  C   UNL A   1      35.085  33.509  31.289  1.00  0.00     0.010 A 
ATOM     35  C   UNL A   1      36.523  34.091  29.431  1.00  0.00     0.010 A 
ATOM     36  C   UNL A   1      36.354  33.491  30.690  1.00  0.00    -0.014 A 
BRANCH  36  37
ATOM     37  C   UNL A   1      37.504  32.811  31.340  1.00  0.00     0.031 A 
ATOM     38  C   UNL A   1      38.172  31.638  30.679  1.00  0.00     0.074 A 
ATOM     39  C   UNL A   1      37.898  33.203  32.568  1.00  0.00     0.049 A 
ATOM     40  N   UNL A   1      39.125  30.864  31.134  1.00  0.00    -0.248 NA
ATOM     41  C   UNL A   1      37.689  31.273  29.339  1.00  0.00     0.031 C 
ATOM     42  C   UNL A   1      37.306  34.301  33.335  1.00  0.00     0.029 A 
ATOM     43  N   UNL A   1      38.879  32.713  33.396  1.00  0.00    -0.354 N 
ATOM     44  C   UNL A   1      39.349  29.916  30.143  1.00  0.00     0.074 A 
ATOM     45  C   UNL A   1      38.397  30.181  29.085  1.00  0.00     0.031 C 
ATOM     46  C   UNL A   1      37.945  34.411  34.510  1.00  0.00     0.029 A 
ATOM     47  C   UNL A   1      38.960  33.366  34.601  1.00  0.00     0.049 A 
ATOM     48  H   UNL A   1      39.469  31.964  33.147  1.00  0.00     0.167 HD
ATOM     49  C   UNL A   1      40.275  28.928  30.112  1.00  0.00     0.037 A 
ATOM     50  C   UNL A   1      39.750  33.140  35.668  1.00  0.00     0.037 A 
ATOM     51  C   UNL A   1      41.231  28.676  31.160  1.00  0.00     0.049 A 
ATOM     52  C   UNL A   1      40.749  32.016  35.619  1.00  0.00     0.074 A 
ATOM     53  C   UNL A   1      42.248  27.738  31.192  1.00  0.00     0.029 A 
ATOM     54  N   UNL A   1      41.283  29.360  32.366  1.00  0.00    -0.354 N 
ATOM     55  N   UNL A   1      40.996  31.170  34.649  1.00  0.00    -0.248 NA
ATOM     56  C   UNL A   1      41.580  31.816  36.815  1.00  0.00     0.031 C 
ATOM     57  C   UNL A   1      42.880  27.817  32.437  1.00  0.00     0.029 A 
ATOM     58  C   UNL A   1      42.294  28.843  33.161  1.00  0.00     0.049 A 
ATOM     59  H   UNL A   1      40.690  30.104  32.619  1.00  0.00     0.167 HD
ATOM     60  C   UNL A   1      42.024  30.355  35.106  1.00  0.00     0.074 A 
ATOM     61  C   UNL A   1      42.367  30.820  36.433  1.00  0.00     0.031 C 
ATOM     62  C   UNL A   1      42.627  29.313  34.481  1.00  0.00     0.037 A 
BRANCH  49  63
ATOM     63  C   UNL A   1      40.301  28.038  28.903  1.00  0.00     0.064 A 
ATOM     64  C   UNL A   1      41.042  28.370  27.759  1.00  0.00     0.173 A 
ATOM     65  C   UNL A   1      39.612  26.815  28.904  1.00  0.00     0.173 A 
ATOM     66  F   UNL A   1      41.711  29.532  27.703  1.00  0.00    -0.203 F 
ATOM     67  C   UNL A   1      41.070  27.527  26.652  1.00  0.00     0.198 A 
ATOM     68  C   UNL A   1      39.667  25.959  27.807  1.00  0.00     0.198 A 
ATOM     69  F   UNL A   1      38.893  26.445  29.974  1.00  0.00    -0.203 F 
ATOM     70  F   UNL A   1      41.745  27.890  25.552  1.00  0.00    -0.200 F 
ATOM     71  C   UNL A   1      40.388  26.320  26.679  1.00  0.00     0.200 A 
ATOM     72  F   UNL A   1      39.019  24.787  27.840  1.00  0.00    -0.200 F 
ATOM     73  F   UNL A   1      40.422  25.506  25.615  1.00  0.00    -0.200 F 
ENDBRANCH  49  63
BRANCH  50  74
ATOM     74  C   UNL A   1      39.634  33.999  36.876  1.00  0.00     0.064 A 
ATOM     75  C   UNL A   1      38.839  33.608  37.963  1.00  0.00     0.173 A 
ATOM     76  C   UNL A   1      40.302  35.228  36.965  1.00  0.00     0.173 A 
ATOM     77  F   UNL A   1      38.163  32.452  37.916  1.00  0.00    -0.203 F 
ATOM     78  C   UNL A   1      38.703  34.425  39.084  1.00  0.00     0.198 A 
ATOM     79  C   UNL A   1      40.188  36.030  38.099  1.00  0.00     0.198 A 
ATOM     80  F   UNL A   1      41.077  35.647  35.953  1.00  0.00    -0.203 F 
ATOM     81  F   UNL A   1      37.899  34.050  40.087  1.00  0.00    -0.200 F 
ATOM     82  C   UNL A   1      39.381  35.632  39.153  1.00  0.00     0.200 A 
ATOM     83  F   UNL A   1      40.858  37.189  38.168  1.00  0.00    -0.200 F 
ATOM     84  F   UNL A   1      39.252  36.415  40.233  1.00  0.00    -0.200 F 
ENDBRANCH  50  74
BRANCH  62  85
ATOM     85  C   UNL A   1      43.737  28.619  35.216  1.00  0.00     0.064 A 
ATOM     86  C   UNL A   1      43.494  27.514  36.045  1.00  0.00     0.173 A 
ATOM     87  C   UNL A   1      45.067  29.043  35.061  1.00  0.00     0.173 A 
ATOM     88  F   UNL A   1      42.240  27.080  36.240  1.00  0.00    -0.203 F 
ATOM     89  C   UNL A   1      44.537  26.875  36.710  1.00  0.00     0.198 A 
ATOM     90  C   UNL A   1      46.110  28.381  35.703  1.00  0.00     0.198 A 
ATOM     91  F   UNL A   1      45.355  30.092  34.276  1.00  0.00    -0.203 F 
ATOM     92  F   UNL A   1      44.275  25.851  37.535  1.00  0.00    -0.200 F 
ATOM     93  C   UNL A   1      45.844  27.303  36.532  1.00  0.00     0.200 A 
ATOM     94  F   UNL A   1      47.373  28.788  35.518  1.00  0.00    -0.200 F 
ATOM     95  F   UNL A   1      46.847  26.681  37.167  1.00  0.00    -0.200 F 
ENDBRANCH  62  85
ENDBRANCH  36  37
ENDBRANCH  28  31
ENDBRANCH  26  27
ENDBRANCH  25  26
ENDBRANCH  24  25
ENDBRANCH   3  24
TORSDOF 15
ENDMDL
MODEL 2
REMARK VINA RESULT:     -12.1      5.669     11.180
REMARK SMILES O=C(Cc1csc(NC(=O)CS[C@@H]2CCS(=O)(=O)C2)n1)NCCCNC(=O)c1ccc(-c2c3nc(c(-c4c(F)c(F)c(F)c(F)c4F)c4ccc([nH]4)c(-c4c(F)c(F)c(F)c(F)c4F)c4nc(c(-c5c(F)c(F)c(F)c(F)c5F)c5ccc2[nH]5)C=C4)C=C3)cc1
REMARK SMILES IDX 1 1 2 2 21 3 3 5 4 6 5 7 20 8 6 9 7 10 8 11 9 12 10 14 11 15
REMARK SMILES IDX 12 16 13 17 14 18 19 19 15 20 16 21 17 22 18 23 22 24 23 25
REMARK SMILES IDX 24 26 25 27 26 28 27 30 28 31 29 32 90 33 30 34 89 35 31 36
REMARK SMILES IDX 32 37 33 38 83 39 34 40 88 41 82 42 84 43 35 44 87 45 81 46
REMARK SMILES IDX 80 47 36 49 68 50 48 51 67 52 49 53 52 54 66 55 85 56 50 57
REMARK SMILES IDX 51 58 65 60 86 61 53 62 37 63 38 64 46 65 39 66 40 67 44 68
REMARK SMILES IDX 47 69 41 70 42 71 45 72 43 73 69 74 70 75 78 76 71 77 72 78
REMARK SMILES IDX 76 79 79 80 73 81 74 82 77 83 75 84 54 85 55 86 63 87 56 88
REMARK SMILES IDX 57 89 61 90 64 91 58 92 59 93 62 94 60 95
REMARK H PARENT 21 4 8 13 25 29 84 48 52 59
REMARK Flexibility Score: inf
ROOT
ATOM      1  O   UNL A   1      36.889  23.692  26.121  1.00  0.00    -0.275 OA
ATOM      2  C   UNL A   1      35.967  22.902  25.952  1.00  0.00     0.226 C 
ATOM      3  N   UNL A   1      36.099  21.728  25.235  1.00  0.00    -0.356 N 
ATOM      4  H   UNL A   1      35.349  21.089  25.234  1.00  0.00     0.163 HD
ENDROOT
BRANCH   2   5
ATOM      5  C   UNL A   1      34.581  23.108  26.537  1.00  0.00     0.157 C 
BRANCH   5   6
ATOM      6  C   UNL A   1      33.538  23.236  25.471  1.00  0.00     0.063 A 
ATOM      7  C   UNL A   1      32.209  22.853  25.535  1.00  0.00     0.093 A 
ATOM      8  N   UNL A   1      33.885  23.854  24.280  1.00  0.00    -0.224 NA
ATOM      9  S   UNL A   1      31.410  23.245  24.074  1.00  0.00    -0.105 S 
ATOM     10  C   UNL A   1      32.874  23.832  23.445  1.00  0.00     0.189 A 
BRANCH  10  11
ATOM     11  N   UNL A   1      32.970  24.411  22.216  1.00  0.00    -0.301 N 
ATOM     12  C   UNL A   1      32.794  25.681  21.783  1.00  0.00     0.236 C 
ATOM     13  H   UNL A   1      33.214  23.780  21.501  1.00  0.00     0.172 HD
ATOM     14  O   UNL A   1      33.278  25.947  20.676  1.00  0.00    -0.274 OA
BRANCH  12  15
ATOM     15  C   UNL A   1      32.030  26.757  22.533  1.00  0.00     0.170 C 
BRANCH  15  16
ATOM     16  S   UNL A   1      32.914  28.341  22.754  1.00  0.00    -0.148 SA
BRANCH  16  17
ATOM     17  C   UNL A   1      32.800  28.764  24.536  1.00  0.00     0.063 C 
ATOM     18  C   UNL A   1      33.806  28.062  25.450  1.00  0.00     0.031 C 
ATOM     19  C   UNL A   1      31.422  28.733  25.181  1.00  0.00     0.151 C 
ATOM     20  C   UNL A   1      33.124  26.896  26.144  1.00  0.00     0.138 C 
ATOM     21  S   UNL A   1      31.405  27.339  26.285  1.00  0.00     0.151 S 
ATOM     22  O   UNL A   1      30.584  26.309  25.694  1.00  0.00    -0.229 OA
ATOM     23  O   UNL A   1      31.169  27.831  27.630  1.00  0.00    -0.229 OA
ENDBRANCH  16  17
ENDBRANCH  15  16
ENDBRANCH  12  15
ENDBRANCH  10  11
ENDBRANCH   5   6
ENDBRANCH   2   5
BRANCH   3  24
ATOM     24  C   UNL A   1      37.295  21.398  24.487  1.00  0.00     0.117 C 
BRANCH  24  25
ATOM     25  C   UNL A   1      37.957  20.125  25.000  1.00  0.00     0.042 C 
BRANCH  25  26
ATOM     26  C   UNL A   1      39.160  20.351  25.912  1.00  0.00     0.118 C 
BRANCH  26  27
ATOM     27  N   UNL A   1      40.107  19.246  25.916  1.00  0.00    -0.352 N 
ATOM     28  C   UNL A   1      41.470  19.263  26.093  1.00  0.00     0.251 C 
ATOM     29  H   UNL A   1      39.713  18.355  25.771  1.00  0.00     0.163 HD
ATOM     30  O   UNL A   1      42.124  18.236  25.947  1.00  0.00    -0.269 OA
BRANCH  28  31
ATOM     31  C   UNL A   1      42.160  20.532  26.420  1.00  0.00     0.039 A 
ATOM     32  C   UNL A   1      42.682  21.299  25.375  1.00  0.00     0.014 A 
ATOM     33  C   UNL A   1      42.272  20.976  27.740  1.00  0.00     0.014 A 
ATOM     34  C   UNL A   1      43.230  22.555  25.644  1.00  0.00     0.010 A 
ATOM     35  C   UNL A   1      42.754  22.258  27.998  1.00  0.00     0.010 A 
ATOM     36  C   UNL A   1      43.223  23.068  26.951  1.00  0.00    -0.014 A 
BRANCH  36  37
ATOM     37  C   UNL A   1      43.655  24.461  27.236  1.00  0.00     0.031 A 
ATOM     38  C   UNL A   1      42.665  25.488  27.707  1.00  0.00     0.074 A 
ATOM     39  C   UNL A   1      44.931  24.822  26.992  1.00  0.00     0.049 A 
ATOM     40  N   UNL A   1      42.838  26.769  27.918  1.00  0.00    -0.248 NA
ATOM     41  C   UNL A   1      41.294  25.018  27.954  1.00  0.00     0.031 C 
ATOM     42  C   UNL A   1      45.980  23.930  26.493  1.00  0.00     0.029 A 
ATOM     43  N   UNL A   1      45.560  26.037  27.115  1.00  0.00    -0.354 N 
ATOM     44  C   UNL A   1      41.599  27.259  28.311  1.00  0.00     0.074 A 
ATOM     45  C   UNL A   1      40.672  26.148  28.260  1.00  0.00     0.031 C 
ATOM     46  C   UNL A   1      47.124  24.623  26.370  1.00  0.00     0.029 A 
ATOM     47  C   UNL A   1      46.880  26.015  26.735  1.00  0.00     0.049 A 
ATOM     48  H   UNL A   1      45.107  26.847  27.445  1.00  0.00     0.167 HD
ATOM     49  C   UNL A   1      41.269  28.515  28.695  1.00  0.00     0.037 A 
ATOM     50  C   UNL A   1      47.789  27.007  26.671  1.00  0.00     0.037 A 
ATOM     51  C   UNL A   1      42.197  29.616  28.759  1.00  0.00     0.049 A 
ATOM     52  C   UNL A   1      47.388  28.400  27.075  1.00  0.00     0.074 A 
ATOM     53  C   UNL A   1      41.971  30.909  29.196  1.00  0.00     0.029 A 
ATOM     54  N   UNL A   1      43.526  29.555  28.368  1.00  0.00    -0.354 N 
ATOM     55  N   UNL A   1      46.231  28.835  27.509  1.00  0.00    -0.248 NA
ATOM     56  C   UNL A   1      48.422  29.440  26.979  1.00  0.00     0.031 C 
ATOM     57  C   UNL A   1      43.147  31.645  29.017  1.00  0.00     0.029 A 
ATOM     58  C   UNL A   1      44.124  30.796  28.522  1.00  0.00     0.049 A 
ATOM     59  H   UNL A   1      43.979  28.748  28.030  1.00  0.00     0.167 HD
ATOM     60  C   UNL A   1      46.403  30.190  27.760  1.00  0.00     0.074 A 
ATOM     61  C   UNL A   1      47.782  30.501  27.449  1.00  0.00     0.031 C 
ATOM     62  C   UNL A   1      45.497  31.094  28.208  1.00  0.00     0.037 A 
BRANCH  49  63
ATOM     63  C   UNL A   1      39.840  28.773  29.077  1.00  0.00     0.064 A 
ATOM     64  C   UNL A   1      39.392  28.619  30.398  1.00  0.00     0.173 A 
ATOM     65  C   UNL A   1      38.917  29.222  28.121  1.00  0.00     0.173 A 
ATOM     66  F   UNL A   1      40.231  28.183  31.350  1.00  0.00    -0.203 F 
ATOM     67  C   UNL A   1      38.067  28.877  30.741  1.00  0.00     0.198 A 
ATOM     68  C   UNL A   1      37.600  29.510  28.473  1.00  0.00     0.198 A 
ATOM     69  F   UNL A   1      39.294  29.393  26.845  1.00  0.00    -0.203 F 
ATOM     70  F   UNL A   1      37.651  28.675  31.999  1.00  0.00    -0.200 F 
ATOM     71  C   UNL A   1      37.175  29.328  29.780  1.00  0.00     0.200 A 
ATOM     72  F   UNL A   1      36.744  29.959  27.547  1.00  0.00    -0.200 F 
ATOM     73  F   UNL A   1      35.903  29.584  30.113  1.00  0.00    -0.200 F 
ENDBRANCH  49  63
BRANCH  50  74
ATOM     74  C   UNL A   1      49.173  26.719  26.210  1.00  0.00     0.064 A 
ATOM     75  C   UNL A   1      49.534  26.891  24.866  1.00  0.00     0.173 A 
ATOM     76  C   UNL A   1      50.157  26.257  27.096  1.00  0.00     0.173 A 
ATOM     77  F   UNL A   1      48.623  27.309  23.977  1.00  0.00    -0.203 F 
ATOM     78  C   UNL A   1      50.821  26.593  24.424  1.00  0.00     0.198 A 
ATOM     79  C   UNL A   1      51.452  25.988  26.658  1.00  0.00     0.198 A 
ATOM     80  F   UNL A   1      49.864  26.079  28.393  1.00  0.00    -0.203 F 
ATOM     81  F   UNL A   1      51.126  26.721  23.125  1.00  0.00    -0.200 F 
ATOM     82  C   UNL A   1      51.780  26.148  25.320  1.00  0.00     0.200 A 
ATOM     83  F   UNL A   1      52.380  25.572  27.531  1.00  0.00    -0.200 F 
ATOM     84  F   UNL A   1      53.019  25.865  24.894  1.00  0.00    -0.200 F 
ENDBRANCH  50  74
BRANCH  62  85
ATOM     85  C   UNL A   1      45.975  32.504  28.411  1.00  0.00     0.064 A 
ATOM     86  C   UNL A   1      45.865  33.471  27.402  1.00  0.00     0.173 A 
ATOM     87  C   UNL A   1      46.517  32.900  29.644  1.00  0.00     0.173 A 
ATOM     88  F   UNL A   1      45.370  33.140  26.200  1.00  0.00    -0.203 F 
ATOM     89  C   UNL A   1      46.302  34.777  27.611  1.00  0.00     0.198 A 
ATOM     90  C   UNL A   1      46.923  34.214  29.859  1.00  0.00     0.198 A 
ATOM     91  F   UNL A   1      46.640  32.016  30.645  1.00  0.00    -0.203 F 
ATOM     92  F   UNL A   1      46.231  35.672  26.615  1.00  0.00    -0.200 F 
ATOM     93  C   UNL A   1      46.823  35.149  28.841  1.00  0.00     0.200 A 
ATOM     94  F   UNL A   1      47.413  34.575  31.053  1.00  0.00    -0.200 F 
ATOM     95  F   UNL A   1      47.235  36.408  29.042  1.00  0.00    -0.200 F 
ENDBRANCH  62  85
ENDBRANCH  36  37
ENDBRANCH  28  31
ENDBRANCH  26  27
ENDBRANCH  25  26
ENDBRANCH  24  25
ENDBRANCH   3  24
TORSDOF 15
ENDMDL
MODEL 3
REMARK VINA RESULT:     -12.1      0.508      2.004
REMARK SMILES O=C(Cc1csc(NC(=O)CS[C@@H]2CCS(=O)(=O)C2)n1)NCCCNC(=O)c1ccc(-c2c3nc(c(-c4c(F)c(F)c(F)c(F)c4F)c4ccc([nH]4)c(-c4c(F)c(F)c(F)c(F)c4F)c4nc(c(-c5c(F)c(F)c(F)c(F)c5F)c5ccc2[nH]5)C=C4)C=C3)cc1
REMARK SMILES IDX 1 1 2 2 21 3 3 5 4 6 5 7 20 8 6 9 7 10 8 11 9 12 10 14 11 15
REMARK SMILES IDX 12 16 13 17 14 18 19 19 15 20 16 21 17 22 18 23 22 24 23 25
REMARK SMILES IDX 24 26 25 27 26 28 27 30 28 31 29 32 90 33 30 34 89 35 31 36
REMARK SMILES IDX 32 37 33 38 83 39 34 40 88 41 82 42 84 43 35 44 87 45 81 46
REMARK SMILES IDX 80 47 36 49 68 50 48 51 67 52 49 53 52 54 66 55 85 56 50 57
REMARK SMILES IDX 51 58 65 60 86 61 53 62 37 63 38 64 46 65 39 66 40 67 44 68
REMARK SMILES IDX 47 69 41 70 42 71 45 72 43 73 69 74 70 75 78 76 71 77 72 78
REMARK SMILES IDX 76 79 79 80 73 81 74 82 77 83 75 84 54 85 55 86 63 87 56 88
REMARK SMILES IDX 57 89 61 90 64 91 58 92 59 93 62 94 60 95
REMARK H PARENT 21 4 8 13 25 29 84 48 52 59
REMARK Flexibility Score: inf
ROOT
ATOM      1  O   UNL A   1      34.215  28.842  26.586  1.00  0.00    -0.275 OA
ATOM      2  C   UNL A   1      33.422  28.888  25.652  1.00  0.00     0.226 C 
ATOM      3  N   UNL A   1      32.264  29.641  25.679  1.00  0.00    -0.356 N 
ATOM      4  H   UNL A   1      31.732  29.718  24.854  1.00  0.00     0.163 HD
ENDROOT
BRANCH   2   5
ATOM      5  C   UNL A   1      33.638  28.145  24.345  1.00  0.00     0.157 C 
BRANCH   5   6
ATOM      6  C   UNL A   1      32.581  27.111  24.110  1.00  0.00     0.063 A 
ATOM      7  C   UNL A   1      32.067  26.685  22.896  1.00  0.00     0.093 A 
ATOM      8  N   UNL A   1      32.062  26.436  25.204  1.00  0.00    -0.224 NA
ATOM      9  S   UNL A   1      30.905  25.454  23.145  1.00  0.00    -0.105 S 
ATOM     10  C   UNL A   1      31.116  25.613  24.823  1.00  0.00     0.189 A 
BRANCH  10  11
ATOM     11  N   UNL A   1      30.479  24.815  25.724  1.00  0.00    -0.301 N 
ATOM     12  C   UNL A   1      30.816  23.644  26.314  1.00  0.00     0.236 C 
ATOM     13  H   UNL A   1      29.599  25.157  26.002  1.00  0.00     0.172 HD
ATOM     14  O   UNL A   1      30.177  23.347  27.331  1.00  0.00    -0.274 OA
BRANCH  12  15
ATOM     15  C   UNL A   1      31.872  22.683  25.798  1.00  0.00     0.170 C 
BRANCH  15  16
ATOM     16  S   UNL A   1      33.204  22.272  26.979  1.00  0.00    -0.148 SA
BRANCH  16  17
ATOM     17  C   UNL A   1      34.784  22.387  26.051  1.00  0.00     0.063 C 
ATOM     18  C   UNL A   1      35.422  23.776  25.998  1.00  0.00     0.031 C 
ATOM     19  C   UNL A   1      34.838  21.752  24.669  1.00  0.00     0.151 C 
ATOM     20  C   UNL A   1      35.109  24.420  24.659  1.00  0.00     0.138 C 
ATOM     21  S   UNL A   1      34.925  23.085  23.496  1.00  0.00     0.151 S 
ATOM     22  O   UNL A   1      33.646  23.185  22.835  1.00  0.00    -0.229 OA
ATOM     23  O   UNL A   1      36.165  22.952  22.754  1.00  0.00    -0.229 OA
ENDBRANCH  16  17
ENDBRANCH  15  16
ENDBRANCH  12  15
ENDBRANCH  10  11
ENDBRANCH   5   6
ENDBRANCH   2   5
BRANCH   3  24
ATOM     24  C   UNL A   1      31.802  30.323  26.870  1.00  0.00     0.117 C 
BRANCH  24  25
ATOM     25  C   UNL A   1      31.719  31.830  26.670  1.00  0.00     0.042 C 
BRANCH  25  26
ATOM     26  C   UNL A   1      32.849  32.627  27.316  1.00  0.00     0.118 C 
BRANCH  26  27
ATOM     27  N   UNL A   1      32.493  34.004  27.624  1.00  0.00    -0.352 N 
ATOM     28  C   UNL A   1      33.039  34.861  28.551  1.00  0.00     0.251 C 
ATOM     29  H   UNL A   1      31.755  34.376  27.089  1.00  0.00     0.163 HD
ATOM     30  O   UNL A   1      32.527  35.958  28.751  1.00  0.00    -0.269 OA
BRANCH  28  31
ATOM     31  C   UNL A   1      34.220  34.447  29.341  1.00  0.00     0.039 A 
ATOM     32  C   UNL A   1      34.018  33.900  30.611  1.00  0.00     0.014 A 
ATOM     33  C   UNL A   1      35.514  34.573  28.829  1.00  0.00     0.014 A 
ATOM     34  C   UNL A   1      35.104  33.391  31.327  1.00  0.00     0.010 A 
ATOM     35  C   UNL A   1      36.586  34.001  29.512  1.00  0.00     0.010 A 
ATOM     36  C   UNL A   1      36.389  33.389  30.761  1.00  0.00    -0.014 A 
BRANCH  36  37
ATOM     37  C   UNL A   1      37.528  32.713  31.436  1.00  0.00     0.031 A 
ATOM     38  C   UNL A   1      38.206  31.535  30.796  1.00  0.00     0.074 A 
ATOM     39  C   UNL A   1      37.902  33.115  32.667  1.00  0.00     0.049 A 
ATOM     40  N   UNL A   1      39.151  30.764  31.273  1.00  0.00    -0.248 NA
ATOM     41  C   UNL A   1      37.745  31.159  29.451  1.00  0.00     0.031 C 
ATOM     42  C   UNL A   1      37.297  34.219  33.415  1.00  0.00     0.029 A 
ATOM     43  N   UNL A   1      38.868  32.631  33.515  1.00  0.00    -0.354 N 
ATOM     44  C   UNL A   1      39.391  29.808  30.294  1.00  0.00     0.074 A 
ATOM     45  C   UNL A   1      38.457  30.065  29.218  1.00  0.00     0.031 C 
ATOM     46  C   UNL A   1      37.917  34.340  34.600  1.00  0.00     0.029 A 
ATOM     47  C   UNL A   1      38.930  33.295  34.717  1.00  0.00     0.049 A 
ATOM     48  H   UNL A   1      39.462  31.880  33.283  1.00  0.00     0.167 HD
ATOM     49  C   UNL A   1      40.316  28.819  30.286  1.00  0.00     0.037 A 
ATOM     50  C   UNL A   1      39.702  33.076  35.798  1.00  0.00     0.037 A 
ATOM     51  C   UNL A   1      41.255  28.575  31.352  1.00  0.00     0.049 A 
ATOM     52  C   UNL A   1      40.701  31.952  35.775  1.00  0.00     0.074 A 
ATOM     53  C   UNL A   1      42.271  27.637  31.408  1.00  0.00     0.029 A 
ATOM     54  N   UNL A   1      41.287  29.269  32.553  1.00  0.00    -0.354 N 
ATOM     55  N   UNL A   1      40.964  31.097  34.816  1.00  0.00    -0.248 NA
ATOM     56  C   UNL A   1      41.511  31.761  36.986  1.00  0.00     0.031 C 
ATOM     57  C   UNL A   1      42.882  27.726  32.663  1.00  0.00     0.029 A 
ATOM     58  C   UNL A   1      42.285  28.758  33.369  1.00  0.00     0.049 A 
ATOM     59  H   UNL A   1      40.690  30.015  32.790  1.00  0.00     0.167 HD
ATOM     60  C   UNL A   1      41.983  30.286  35.297  1.00  0.00     0.074 A 
ATOM     61  C   UNL A   1      42.304  30.762  36.626  1.00  0.00     0.031 C 
ATOM     62  C   UNL A   1      42.595  29.239  34.691  1.00  0.00     0.037 A 
BRANCH  49  63
ATOM     63  C   UNL A   1      40.362  27.919  29.085  1.00  0.00     0.064 A 
ATOM     64  C   UNL A   1      39.629  26.724  29.032  1.00  0.00     0.173 A 
ATOM     65  C   UNL A   1      41.114  28.277  27.956  1.00  0.00     0.173 A 
ATOM     66  F   UNL A   1      38.902  26.330  30.089  1.00  0.00    -0.203 F 
ATOM     67  C   UNL A   1      39.669  25.907  27.905  1.00  0.00     0.198 A 
ATOM     68  C   UNL A   1      41.127  27.474  26.818  1.00  0.00     0.198 A 
ATOM     69  F   UNL A   1      41.828  29.412  27.950  1.00  0.00    -0.203 F 
ATOM     70  F   UNL A   1      39.000  24.746  27.897  1.00  0.00    -0.200 F 
ATOM     71  C   UNL A   1      40.412  26.286  26.797  1.00  0.00     0.200 A 
ATOM     72  F   UNL A   1      41.834  27.848  25.744  1.00  0.00    -0.200 F 
ATOM     73  F   UNL A   1      40.443  25.503  25.711  1.00  0.00    -0.200 F 
ENDBRANCH  49  63
BRANCH  50  74
ATOM     74  C   UNL A   1      39.566  33.946  36.997  1.00  0.00     0.064 A 
ATOM     75  C   UNL A   1      40.247  35.168  37.080  1.00  0.00     0.173 A 
ATOM     76  C   UNL A   1      38.765  33.570  38.085  1.00  0.00     0.173 A 
ATOM     77  F   UNL A   1      41.042  35.561  36.074  1.00  0.00    -0.203 F 
ATOM     78  C   UNL A   1      40.148  35.971  38.214  1.00  0.00     0.198 A 
ATOM     79  C   UNL A   1      38.643  34.388  39.206  1.00  0.00     0.198 A 
ATOM     80  F   UNL A   1      38.090  32.412  38.055  1.00  0.00    -0.203 F 
ATOM     81  F   UNL A   1      40.848  37.111  38.287  1.00  0.00    -0.200 F 
ATOM     82  C   UNL A   1      39.342  35.584  39.274  1.00  0.00     0.200 A 
ATOM     83  F   UNL A   1      37.851  34.017  40.221  1.00  0.00    -0.200 F 
ATOM     84  F   UNL A   1      39.244  36.359  40.362  1.00  0.00    -0.200 F 
ENDBRANCH  50  74
BRANCH  62  85
ATOM     85  C   UNL A   1      43.693  28.551  35.450  1.00  0.00     0.064 A 
ATOM     86  C   UNL A   1      45.036  28.933  35.313  1.00  0.00     0.173 A 
ATOM     87  C   UNL A   1      43.394  27.519  36.355  1.00  0.00     0.173 A 
ATOM     88  F   UNL A   1      45.376  29.901  34.448  1.00  0.00    -0.203 F 
ATOM     89  C   UNL A   1      46.040  28.292  36.033  1.00  0.00     0.198 A 
ATOM     90  C   UNL A   1      44.398  26.903  37.097  1.00  0.00     0.198 A 
ATOM     91  F   UNL A   1      42.125  27.119  36.529  1.00  0.00    -0.203 F 
ATOM     92  F   UNL A   1      47.321  28.642  35.848  1.00  0.00    -0.200 F 
ATOM     93  C   UNL A   1      45.720  27.285  36.930  1.00  0.00     0.200 A 
ATOM     94  F   UNL A   1      44.084  25.940  37.974  1.00  0.00    -0.200 F 
ATOM     95  F   UNL A   1      46.688  26.675  37.629  1.00  0.00    -0.200 F 
ENDBRANCH  62  85
ENDBRANCH  36  37
ENDBRANCH  28  31
ENDBRANCH  26  27
ENDBRANCH  25  26
ENDBRANCH  24  25
ENDBRANCH   3  24
TORSDOF 15
ENDMDL
