MODEL 1
REMARK VINA RESULT:     -12.6      0.000      0.000
REMARK SMILES O=C(C[N@@H+]1C[C@@]2([N+](=O)[O-])CC=C(Cl)[C@@]([N+](=O)[O-])(C1)C2)NCCCNC(=O)c1ccc(-c2c3nc(c(-c4c(F)c(F)c(F)c(F)c4F)c4ccc([nH]4)c(-c4c(F)c(F)c(F)c(F)c4F)c4nc(c(-c5c(F)c(F)c(F)c(F)c5F)c5ccc2[nH]5)C=C4)C=C3)cc1
REMARK SMILES IDX 22 1 21 2 20 3 1 4 2 5 3 7 4 8 5 9 18 10 6 12 14 13 10 14
REMARK SMILES IDX 19 15 12 16 11 17 13 18 7 19 8 20 9 21 15 22 16 23 17 24
REMARK SMILES IDX 23 25 24 26 25 27 26 29 27 30 28 31 89 32 29 33 88 34 30 35
REMARK SMILES IDX 31 36 32 37 82 38 33 39 87 40 81 41 83 42 34 43 86 44 80 45
REMARK SMILES IDX 79 46 35 48 67 49 47 50 66 51 48 52 51 53 65 54 84 55 49 56
REMARK SMILES IDX 50 57 64 59 85 60 52 61 36 62 37 63 45 64 38 65 39 66 43 67
REMARK SMILES IDX 46 68 40 69 41 70 44 71 42 72 68 73 69 74 77 75 70 76 71 77
REMARK SMILES IDX 75 78 78 79 72 80 73 81 76 82 74 83 53 84 54 85 62 86 55 87
REMARK SMILES IDX 56 88 60 89 63 90 57 91 58 92 61 93 59 94
REMARK H PARENT 20 6 4 11 24 28 83 47 51 58
REMARK Flexibility Score: inf
ROOT
ATOM      1  C   UNL A   1      31.484  31.734  26.933  1.00  0.00     0.042 C 
ENDROOT
BRANCH   1   2
ATOM      2  C   UNL A   1      30.865  31.900  25.553  1.00  0.00     0.118 C 
BRANCH   2   3
ATOM      3  N   UNL A   1      30.814  30.656  24.813  1.00  0.00    -0.351 N 
ATOM      4  O   UNL A   1      28.855  31.140  23.714  1.00  0.00    -0.269 OA
ATOM      5  C   UNL A   1      29.834  30.416  23.872  1.00  0.00     0.275 C 
ATOM      6  H   UNL A   1      31.496  29.967  24.985  1.00  0.00     0.163 HD
BRANCH   5   7
ATOM      7  C   UNL A   1      30.107  29.189  22.991  1.00  0.00     0.363 C 
BRANCH   7   8
ATOM      8  N   UNL A   1      31.051  28.279  23.678  1.00  0.00    -0.315 N 
ATOM      9  C   UNL A   1      31.883  27.534  22.716  1.00  0.00     0.350 C 
ATOM     10  C   UNL A   1      30.393  27.381  24.660  1.00  0.00     0.356 C 
ATOM     11  H   UNL A   1      31.671  28.876  24.224  1.00  0.00     0.348 HD
ATOM     12  C   UNL A   1      32.903  26.598  23.412  1.00  0.00     0.280 C 
ATOM     13  C   UNL A   1      31.408  26.457  25.387  1.00  0.00     0.311 C 
ATOM     14  C   UNL A   1      33.978  27.349  24.246  1.00  0.00     0.121 C 
ATOM     15  C   UNL A   1      32.151  25.617  24.328  1.00  0.00     0.191 C 
ATOM     16  C   UNL A   1      32.389  27.296  26.188  1.00  0.00     0.097 C 
ATOM     17  C   UNL A   1      33.556  27.700  25.656  1.00  0.00     0.004 C 
ATOM     18  Cl  UNL A   1      31.938  27.855  27.761  1.00  0.00    -0.081 Cl
BRANCH  12  19
ATOM     19  N   UNL A   1      33.588  25.837  22.287  1.00  0.00     0.032 N 
ATOM     20  O   UNL A   1      34.199  24.802  22.578  1.00  0.00    -0.264 OA
ATOM     21  O   UNL A   1      33.542  26.338  21.155  1.00  0.00    -0.264 OA
ENDBRANCH  12  19
BRANCH  13  22
ATOM     22  N   UNL A   1      30.661  25.493  26.303  1.00  0.00     0.038 N 
ATOM     23  O   UNL A   1      29.428  25.601  26.376  1.00  0.00    -0.263 OA
ATOM     24  O   UNL A   1      31.329  24.630  26.889  1.00  0.00    -0.263 OA
ENDBRANCH  13  22
ENDBRANCH   7   8
ENDBRANCH   5   7
ENDBRANCH   2   3
ENDBRANCH   1   2
BRANCH   1  25
ATOM     25  C   UNL A   1      32.697  32.620  27.201  1.00  0.00     0.118 C 
BRANCH  25  26
ATOM     26  N   UNL A   1      32.361  33.996  27.522  1.00  0.00    -0.352 N 
ATOM     27  C   UNL A   1      32.935  34.835  28.450  1.00  0.00     0.251 C 
ATOM     28  H   UNL A   1      31.619  34.383  27.003  1.00  0.00     0.163 HD
ATOM     29  O   UNL A   1      32.441  35.937  28.673  1.00  0.00    -0.269 OA
BRANCH  27  30
ATOM     30  C   UNL A   1      34.120  34.394  29.220  1.00  0.00     0.039 A 
ATOM     31  C   UNL A   1      33.923  33.765  30.452  1.00  0.00     0.014 A 
ATOM     32  C   UNL A   1      35.416  34.578  28.729  1.00  0.00     0.014 A 
ATOM     33  C   UNL A   1      35.015  33.245  31.150  1.00  0.00     0.010 A 
ATOM     34  C   UNL A   1      36.496  33.994  29.390  1.00  0.00     0.010 A 
ATOM     35  C   UNL A   1      36.307  33.315  30.603  1.00  0.00    -0.014 A 
BRANCH  35  36
ATOM     36  C   UNL A   1      37.463  32.661  31.274  1.00  0.00     0.031 A 
ATOM     37  C   UNL A   1      38.188  31.524  30.612  1.00  0.00     0.074 A 
ATOM     38  C   UNL A   1      37.818  33.052  32.515  1.00  0.00     0.049 A 
ATOM     39  N   UNL A   1      39.171  30.790  31.069  1.00  0.00    -0.248 NA
ATOM     40  C   UNL A   1      37.731  31.143  29.267  1.00  0.00     0.031 C 
ATOM     41  C   UNL A   1      37.167  34.109  33.288  1.00  0.00     0.029 A 
ATOM     42  N   UNL A   1      38.810  32.595  33.349  1.00  0.00    -0.354 N 
ATOM     43  C   UNL A   1      39.441  29.857  30.077  1.00  0.00     0.074 A 
ATOM     44  C   UNL A   1      38.485  30.082  29.014  1.00  0.00     0.031 C 
ATOM     45  C   UNL A   1      37.788  34.236  34.472  1.00  0.00     0.029 A 
ATOM     46  C   UNL A   1      38.855  33.244  34.559  1.00  0.00     0.049 A 
ATOM     47  H   UNL A   1      39.429  31.871  33.103  1.00  0.00     0.167 HD
ATOM     48  C   UNL A   1      40.412  28.913  30.045  1.00  0.00     0.037 A 
ATOM     49  C   UNL A   1      39.660  33.056  35.623  1.00  0.00     0.037 A 
ATOM     50  C   UNL A   1      41.379  28.704  31.091  1.00  0.00     0.049 A 
ATOM     51  C   UNL A   1      40.725  31.995  35.564  1.00  0.00     0.074 A 
ATOM     52  C   UNL A   1      42.439  27.815  31.121  1.00  0.00     0.029 A 
ATOM     53  N   UNL A   1      41.402  29.393  32.295  1.00  0.00    -0.354 N 
ATOM     54  N   UNL A   1      41.014  31.166  34.591  1.00  0.00    -0.248 NA
ATOM     55  C   UNL A   1      41.580  31.848  36.751  1.00  0.00     0.031 C 
ATOM     56  C   UNL A   1      43.075  27.931  32.362  1.00  0.00     0.029 A 
ATOM     57  C   UNL A   1      42.444  28.930  33.084  1.00  0.00     0.049 A 
ATOM     58  H   UNL A   1      40.772  30.105  32.550  1.00  0.00     0.167 HD
ATOM     59  C   UNL A   1      42.099  30.422  35.033  1.00  0.00     0.074 A 
ATOM     60  C   UNL A   1      42.425  30.905  36.358  1.00  0.00     0.031 C 
ATOM     61  C   UNL A   1      42.766  29.427  34.398  1.00  0.00     0.037 A 
BRANCH  48  62
ATOM     62  C   UNL A   1      40.482  28.029  28.832  1.00  0.00     0.064 A 
ATOM     63  C   UNL A   1      39.777  26.818  28.762  1.00  0.00     0.173 A 
ATOM     64  C   UNL A   1      41.227  28.420  27.709  1.00  0.00     0.173 A 
ATOM     65  F   UNL A   1      39.057  26.394  29.812  1.00  0.00    -0.203 F 
ATOM     66  C   UNL A   1      39.840  26.017  27.625  1.00  0.00     0.198 A 
ATOM     67  C   UNL A   1      41.262  27.631  26.562  1.00  0.00     0.198 A 
ATOM     68  F   UNL A   1      41.913  29.573  27.719  1.00  0.00    -0.203 F 
ATOM     69  F   UNL A   1      39.198  24.840  27.600  1.00  0.00    -0.200 F 
ATOM     70  C   UNL A   1      40.575  26.427  26.524  1.00  0.00     0.200 A 
ATOM     71  F   UNL A   1      41.962  28.036  25.492  1.00  0.00    -0.200 F 
ATOM     72  F   UNL A   1      40.627  25.659  25.427  1.00  0.00    -0.200 F 
ENDBRANCH  48  62
BRANCH  49  73
ATOM     73  C   UNL A   1      39.504  33.909  36.831  1.00  0.00     0.064 A 
ATOM     74  C   UNL A   1      40.131  35.160  36.914  1.00  0.00     0.173 A 
ATOM     75  C   UNL A   1      38.736  33.490  37.927  1.00  0.00     0.173 A 
ATOM     76  F   UNL A   1      40.895  35.594  35.901  1.00  0.00    -0.203 F 
ATOM     77  C   UNL A   1      40.012  35.951  38.055  1.00  0.00     0.198 A 
ATOM     78  C   UNL A   1      38.593  34.294  39.055  1.00  0.00     0.198 A 
ATOM     79  F   UNL A   1      38.112  32.303  37.896  1.00  0.00    -0.203 F 
ATOM     80  F   UNL A   1      40.660  37.121  38.127  1.00  0.00    -0.200 F 
ATOM     81  C   UNL A   1      39.238  35.519  39.122  1.00  0.00     0.200 A 
ATOM     82  F   UNL A   1      37.833  33.880  40.079  1.00  0.00    -0.200 F 
ATOM     83  F   UNL A   1      39.122  36.282  40.219  1.00  0.00    -0.200 F 
ENDBRANCH  49  73
BRANCH  61  84
ATOM     84  C   UNL A   1      43.938  28.817  35.109  1.00  0.00     0.064 A 
ATOM     85  C   UNL A   1      45.234  29.335  34.974  1.00  0.00     0.173 A 
ATOM     86  C   UNL A   1      43.754  27.725  35.972  1.00  0.00     0.173 A 
ATOM     87  F   UNL A   1      45.466  30.368  34.149  1.00  0.00    -0.203 F 
ATOM     88  C   UNL A   1      46.306  28.767  35.658  1.00  0.00     0.198 A 
ATOM     89  C   UNL A   1      44.823  27.180  36.677  1.00  0.00     0.198 A 
ATOM     90  F   UNL A   1      42.533  27.196  36.142  1.00  0.00    -0.203 F 
ATOM     91  F   UNL A   1      47.544  29.250  35.477  1.00  0.00    -0.200 F 
ATOM     92  C   UNL A   1      46.099  27.697  36.515  1.00  0.00     0.200 A 
ATOM     93  F   UNL A   1      44.617  26.154  37.516  1.00  0.00    -0.200 F 
ATOM     94  F   UNL A   1      47.131  27.157  37.178  1.00  0.00    -0.200 F 
ENDBRANCH  61  84
ENDBRANCH  35  36
ENDBRANCH  27  30
ENDBRANCH  25  26
ENDBRANCH   1  25
TORSDOF 13
ENDMDL
MODEL 2
REMARK VINA RESULT:     -12.5      5.817     11.214
REMARK SMILES O=C(C[N@@H+]1C[C@@]2([N+](=O)[O-])CC=C(Cl)[C@@]([N+](=O)[O-])(C1)C2)NCCCNC(=O)c1ccc(-c2c3nc(c(-c4c(F)c(F)c(F)c(F)c4F)c4ccc([nH]4)c(-c4c(F)c(F)c(F)c(F)c4F)c4nc(c(-c5c(F)c(F)c(F)c(F)c5F)c5ccc2[nH]5)C=C4)C=C3)cc1
REMARK SMILES IDX 22 1 21 2 20 3 1 4 2 5 3 7 4 8 5 9 18 10 6 12 14 13 10 14
REMARK SMILES IDX 19 15 12 16 11 17 13 18 7 19 8 20 9 21 15 22 16 23 17 24
REMARK SMILES IDX 23 25 24 26 25 27 26 29 27 30 28 31 89 32 29 33 88 34 30 35
REMARK SMILES IDX 31 36 32 37 82 38 33 39 87 40 81 41 83 42 34 43 86 44 80 45
REMARK SMILES IDX 79 46 35 48 67 49 47 50 66 51 48 52 51 53 65 54 84 55 49 56
REMARK SMILES IDX 50 57 64 59 85 60 52 61 36 62 37 63 45 64 38 65 39 66 43 67
REMARK SMILES IDX 46 68 40 69 41 70 44 71 42 72 68 73 69 74 77 75 70 76 71 77
REMARK SMILES IDX 75 78 78 79 72 80 73 81 76 82 74 83 53 84 54 85 62 86 55 87
REMARK SMILES IDX 56 88 60 89 63 90 57 91 58 92 61 93 59 94
REMARK H PARENT 20 6 4 11 24 28 83 47 51 58
REMARK Flexibility Score: inf
ROOT
ATOM      1  C   UNL A   1      37.930  20.144  24.683  1.00  0.00     0.042 C 
ENDROOT
BRANCH   1   2
ATOM      2  C   UNL A   1      36.806  19.175  25.018  1.00  0.00     0.118 C 
BRANCH   2   3
ATOM      3  N   UNL A   1      35.505  19.812  25.025  1.00  0.00    -0.351 N 
ATOM      4  O   UNL A   1      34.366  17.982  24.231  1.00  0.00    -0.269 OA
ATOM      5  C   UNL A   1      34.359  19.115  24.703  1.00  0.00     0.275 C 
ATOM      6  H   UNL A   1      35.438  20.764  25.267  1.00  0.00     0.163 HD
BRANCH   5   7
ATOM      7  C   UNL A   1      33.062  19.861  25.047  1.00  0.00     0.363 C 
BRANCH   7   8
ATOM      8  N   UNL A   1      33.309  21.321  25.045  1.00  0.00    -0.315 N 
ATOM      9  C   UNL A   1      32.362  22.032  25.922  1.00  0.00     0.350 C 
ATOM     10  C   UNL A   1      33.355  21.908  23.682  1.00  0.00     0.356 C 
ATOM     11  H   UNL A   1      34.243  21.450  25.431  1.00  0.00     0.348 HD
ATOM     12  C   UNL A   1      32.620  23.559  25.963  1.00  0.00     0.280 C 
ATOM     13  C   UNL A   1      33.643  23.434  23.706  1.00  0.00     0.311 C 
ATOM     14  C   UNL A   1      33.988  23.949  26.590  1.00  0.00     0.121 C 
ATOM     15  C   UNL A   1      32.542  24.127  24.536  1.00  0.00     0.191 C 
ATOM     16  C   UNL A   1      35.011  23.693  24.313  1.00  0.00     0.097 C 
ATOM     17  C   UNL A   1      35.157  23.922  25.630  1.00  0.00     0.004 C 
ATOM     18  Cl  UNL A   1      36.418  23.553  23.317  1.00  0.00    -0.081 Cl
BRANCH  12  19
ATOM     19  N   UNL A   1      31.499  24.137  26.814  1.00  0.00     0.032 N 
ATOM     20  O   UNL A   1      30.686  23.350  27.312  1.00  0.00    -0.264 OA
ATOM     21  O   UNL A   1      31.436  25.371  26.902  1.00  0.00    -0.264 OA
ENDBRANCH  12  19
BRANCH  13  22
ATOM     22  N   UNL A   1      33.575  23.992  22.288  1.00  0.00     0.038 N 
ATOM     23  O   UNL A   1      33.730  25.213  22.138  1.00  0.00    -0.263 OA
ATOM     24  O   UNL A   1      33.409  23.183  21.364  1.00  0.00    -0.263 OA
ENDBRANCH  13  22
ENDBRANCH   7   8
ENDBRANCH   5   7
ENDBRANCH   2   3
ENDBRANCH   1   2
BRANCH   1  25
ATOM     25  C   UNL A   1      38.988  20.298  25.771  1.00  0.00     0.118 C 
BRANCH  25  26
ATOM     26  N   UNL A   1      39.939  19.200  25.826  1.00  0.00    -0.352 N 
ATOM     27  C   UNL A   1      41.296  19.239  26.050  1.00  0.00     0.251 C 
ATOM     28  H   UNL A   1      39.558  18.304  25.683  1.00  0.00     0.163 HD
ATOM     29  O   UNL A   1      41.968  18.216  25.943  1.00  0.00    -0.269 OA
BRANCH  27  30
ATOM     30  C   UNL A   1      41.961  20.521  26.373  1.00  0.00     0.039 A 
ATOM     31  C   UNL A   1      42.318  21.373  25.324  1.00  0.00     0.014 A 
ATOM     32  C   UNL A   1      42.215  20.897  27.695  1.00  0.00     0.014 A 
ATOM     33  C   UNL A   1      42.851  22.634  25.604  1.00  0.00     0.010 A 
ATOM     34  C   UNL A   1      42.677  22.183  27.974  1.00  0.00     0.010 A 
ATOM     35  C   UNL A   1      42.992  23.068  26.932  1.00  0.00    -0.014 A 
BRANCH  35  36
ATOM     36  C   UNL A   1      43.444  24.450  27.246  1.00  0.00     0.031 A 
ATOM     37  C   UNL A   1      42.474  25.469  27.776  1.00  0.00     0.074 A 
ATOM     38  C   UNL A   1      44.718  24.807  26.990  1.00  0.00     0.049 A 
ATOM     39  N   UNL A   1      42.667  26.736  28.043  1.00  0.00    -0.248 NA
ATOM     40  C   UNL A   1      41.097  25.010  28.013  1.00  0.00     0.031 C 
ATOM     41  C   UNL A   1      45.746  23.930  26.430  1.00  0.00     0.029 A 
ATOM     42  N   UNL A   1      45.364  26.009  27.156  1.00  0.00    -0.354 N 
ATOM     43  C   UNL A   1      41.439  27.226  28.467  1.00  0.00     0.074 A 
ATOM     44  C   UNL A   1      40.494  26.134  28.372  1.00  0.00     0.031 C 
ATOM     45  C   UNL A   1      46.897  24.613  26.320  1.00  0.00     0.029 A 
ATOM     46  C   UNL A   1      46.680  25.987  26.763  1.00  0.00     0.049 A 
ATOM     47  H   UNL A   1      44.924  26.810  27.521  1.00  0.00     0.167 HD
ATOM     48  C   UNL A   1      41.132  28.467  28.916  1.00  0.00     0.037 A 
ATOM     49  C   UNL A   1      47.606  26.965  26.753  1.00  0.00     0.037 A 
ATOM     50  C   UNL A   1      42.077  29.546  29.034  1.00  0.00     0.049 A 
ATOM     51  C   UNL A   1      47.236  28.336  27.249  1.00  0.00     0.074 A 
ATOM     52  C   UNL A   1      41.874  30.820  29.536  1.00  0.00     0.029 A 
ATOM     53  N   UNL A   1      43.406  29.480  28.641  1.00  0.00    -0.354 N 
ATOM     54  N   UNL A   1      46.089  28.767  27.713  1.00  0.00    -0.248 NA
ATOM     55  C   UNL A   1      48.294  29.357  27.226  1.00  0.00     0.031 C 
ATOM     56  C   UNL A   1      43.066  31.540  29.403  1.00  0.00     0.029 A 
ATOM     57  C   UNL A   1      44.027  30.699  28.868  1.00  0.00     0.049 A 
ATOM     58  H   UNL A   1      43.843  28.685  28.258  1.00  0.00     0.167 HD
ATOM     59  C   UNL A   1      46.293  30.095  28.063  1.00  0.00     0.074 A 
ATOM     60  C   UNL A   1      47.678  30.396  27.771  1.00  0.00     0.031 C 
ATOM     61  C   UNL A   1      45.410  30.984  28.582  1.00  0.00     0.037 A 
BRANCH  48  62
ATOM     62  C   UNL A   1      39.708  28.727  29.319  1.00  0.00     0.064 A 
ATOM     63  C   UNL A   1      39.259  28.487  30.627  1.00  0.00     0.173 A 
ATOM     64  C   UNL A   1      38.795  29.264  28.400  1.00  0.00     0.173 A 
ATOM     65  F   UNL A   1      40.091  27.965  31.542  1.00  0.00    -0.203 F 
ATOM     66  C   UNL A   1      37.940  28.746  30.990  1.00  0.00     0.198 A 
ATOM     67  C   UNL A   1      37.485  29.551  28.776  1.00  0.00     0.198 A 
ATOM     68  F   UNL A   1      39.174  29.520  27.139  1.00  0.00    -0.203 F 
ATOM     69  F   UNL A   1      37.521  28.464  32.232  1.00  0.00    -0.200 F 
ATOM     70  C   UNL A   1      37.057  29.285  30.068  1.00  0.00     0.200 A 
ATOM     71  F   UNL A   1      36.636  30.086  27.887  1.00  0.00    -0.200 F 
ATOM     72  F   UNL A   1      35.791  29.543  30.421  1.00  0.00    -0.200 F 
ENDBRANCH  48  62
BRANCH  49  73
ATOM     73  C   UNL A   1      48.984  26.676  26.275  1.00  0.00     0.064 A 
ATOM     74  C   UNL A   1      49.942  26.119  27.134  1.00  0.00     0.173 A 
ATOM     75  C   UNL A   1      49.375  26.960  24.958  1.00  0.00     0.173 A 
ATOM     76  F   UNL A   1      49.622  25.852  28.408  1.00  0.00    -0.203 F 
ATOM     77  C   UNL A   1      51.243  25.873  26.699  1.00  0.00     0.198 A 
ATOM     78  C   UNL A   1      50.668  26.687  24.516  1.00  0.00     0.198 A 
ATOM     79  F   UNL A   1      48.496  27.490  24.095  1.00  0.00    -0.203 F 
ATOM     80  F   UNL A   1      52.151  25.383  27.555  1.00  0.00    -0.200 F 
ATOM     81  C   UNL A   1      51.603  26.152  25.390  1.00  0.00     0.200 A 
ATOM     82  F   UNL A   1      51.008  26.944  23.246  1.00  0.00    -0.200 F 
ATOM     83  F   UNL A   1      52.854  25.913  24.971  1.00  0.00    -0.200 F 
ENDBRANCH  49  73
BRANCH  61  84
ATOM     84  C   UNL A   1      45.922  32.358  28.902  1.00  0.00     0.064 A 
ATOM     85  C   UNL A   1      45.845  33.409  27.977  1.00  0.00     0.173 A 
ATOM     86  C   UNL A   1      46.460  32.636  30.169  1.00  0.00     0.173 A 
ATOM     87  F   UNL A   1      45.354  33.191  26.748  1.00  0.00    -0.203 F 
ATOM     88  C   UNL A   1      46.309  34.682  28.300  1.00  0.00     0.198 A 
ATOM     89  C   UNL A   1      46.894  33.917  30.498  1.00  0.00     0.198 A 
ATOM     90  F   UNL A   1      46.551  31.667  31.092  1.00  0.00    -0.203 F 
ATOM     91  F   UNL A   1      46.266  35.659  27.384  1.00  0.00    -0.200 F 
ATOM     92  C   UNL A   1      46.824  34.937  29.562  1.00  0.00     0.200 A 
ATOM     93  F   UNL A   1      47.379  34.164  31.723  1.00  0.00    -0.200 F 
ATOM     94  F   UNL A   1      47.262  36.164  29.873  1.00  0.00    -0.200 F 
ENDBRANCH  61  84
ENDBRANCH  35  36
ENDBRANCH  27  30
ENDBRANCH  25  26
ENDBRANCH   1  25
TORSDOF 13
ENDMDL
MODEL 3
REMARK VINA RESULT:     -12.5      0.610      7.420
REMARK SMILES O=C(C[N@@H+]1C[C@@]2([N+](=O)[O-])CC=C(Cl)[C@@]([N+](=O)[O-])(C1)C2)NCCCNC(=O)c1ccc(-c2c3nc(c(-c4c(F)c(F)c(F)c(F)c4F)c4ccc([nH]4)c(-c4c(F)c(F)c(F)c(F)c4F)c4nc(c(-c5c(F)c(F)c(F)c(F)c5F)c5ccc2[nH]5)C=C4)C=C3)cc1
REMARK SMILES IDX 22 1 21 2 20 3 1 4 2 5 3 7 4 8 5 9 18 10 6 12 14 13 10 14
REMARK SMILES IDX 19 15 12 16 11 17 13 18 7 19 8 20 9 21 15 22 16 23 17 24
REMARK SMILES IDX 23 25 24 26 25 27 26 29 27 30 28 31 89 32 29 33 88 34 30 35
REMARK SMILES IDX 31 36 32 37 82 38 33 39 87 40 81 41 83 42 34 43 86 44 80 45
REMARK SMILES IDX 79 46 35 48 67 49 47 50 66 51 48 52 51 53 65 54 84 55 49 56
REMARK SMILES IDX 50 57 64 59 85 60 52 61 36 62 37 63 45 64 38 65 39 66 43 67
REMARK SMILES IDX 46 68 40 69 41 70 44 71 42 72 68 73 69 74 77 75 70 76 71 77
REMARK SMILES IDX 75 78 78 79 72 80 73 81 76 82 74 83 53 84 54 85 62 86 55 87
REMARK SMILES IDX 56 88 60 89 63 90 57 91 58 92 61 93 59 94
REMARK H PARENT 20 6 4 11 24 28 83 47 51 58
REMARK Flexibility Score: inf
ROOT
ATOM      1  C   UNL A   1      31.402  31.619  26.795  1.00  0.00     0.042 C 
ENDROOT
BRANCH   1   2
ATOM      2  C   UNL A   1      30.770  31.747  25.416  1.00  0.00     0.118 C 
BRANCH   2   3
ATOM      3  N   UNL A   1      30.688  30.478  24.722  1.00  0.00    -0.351 N 
ATOM      4  O   UNL A   1      28.844  31.037  23.471  1.00  0.00    -0.269 OA
ATOM      5  C   UNL A   1      29.760  30.260  23.725  1.00  0.00     0.275 C 
ATOM      6  H   UNL A   1      31.310  29.755  24.968  1.00  0.00     0.163 HD
BRANCH   5   7
ATOM      7  C   UNL A   1      30.012  28.982  22.912  1.00  0.00     0.363 C 
BRANCH   7   8
ATOM      8  N   UNL A   1      30.984  28.120  23.622  1.00  0.00    -0.315 N 
ATOM      9  C   UNL A   1      31.845  27.384  22.680  1.00  0.00     0.350 C 
ATOM     10  C   UNL A   1      30.353  27.221  24.621  1.00  0.00     0.356 C 
ATOM     11  H   UNL A   1      31.580  28.750  24.158  1.00  0.00     0.348 HD
ATOM     12  C   UNL A   1      32.893  26.499  23.399  1.00  0.00     0.280 C 
ATOM     13  C   UNL A   1      31.395  26.348  25.372  1.00  0.00     0.311 C 
ATOM     14  C   UNL A   1      33.938  27.304  24.222  1.00  0.00     0.121 C 
ATOM     15  C   UNL A   1      32.172  25.512  24.333  1.00  0.00     0.191 C 
ATOM     16  C   UNL A   1      32.343  27.237  26.158  1.00  0.00     0.097 C 
ATOM     17  C   UNL A   1      33.498  27.670  25.623  1.00  0.00     0.004 C 
ATOM     18  Cl  UNL A   1      31.865  27.813  27.717  1.00  0.00    -0.081 Cl
BRANCH  12  19
ATOM     19  N   UNL A   1      33.609  25.738  22.294  1.00  0.00     0.032 N 
ATOM     20  O   UNL A   1      33.526  26.178  21.141  1.00  0.00    -0.264 OA
ATOM     21  O   UNL A   1      34.180  24.685  22.610  1.00  0.00    -0.264 OA
ENDBRANCH  12  19
BRANCH  13  22
ATOM     22  N   UNL A   1      30.677  25.378  26.305  1.00  0.00     0.038 N 
ATOM     23  O   UNL A   1      29.450  25.499  26.433  1.00  0.00    -0.263 OA
ATOM     24  O   UNL A   1      31.361  24.499  26.848  1.00  0.00    -0.263 OA
ENDBRANCH  13  22
ENDBRANCH   7   8
ENDBRANCH   5   7
ENDBRANCH   2   3
ENDBRANCH   1   2
BRANCH   1  25
ATOM     25  C   UNL A   1      32.646  32.475  27.011  1.00  0.00     0.118 C 
BRANCH  25  26
ATOM     26  N   UNL A   1      32.357  33.844  27.405  1.00  0.00    -0.352 N 
ATOM     27  C   UNL A   1      32.960  34.613  28.373  1.00  0.00     0.251 C 
ATOM     28  H   UNL A   1      31.626  34.281  26.911  1.00  0.00     0.163 HD
ATOM     29  O   UNL A   1      32.504  35.718  28.657  1.00  0.00    -0.269 OA
BRANCH  27  30
ATOM     30  C   UNL A   1      34.133  34.094  29.113  1.00  0.00     0.039 A 
ATOM     31  C   UNL A   1      33.915  33.275  30.224  1.00  0.00     0.014 A 
ATOM     32  C   UNL A   1      35.438  34.390  28.709  1.00  0.00     0.014 A 
ATOM     33  C   UNL A   1      35.000  32.686  30.877  1.00  0.00     0.010 A 
ATOM     34  C   UNL A   1      36.515  33.744  29.315  1.00  0.00     0.010 A 
ATOM     35  C   UNL A   1      36.307  32.878  30.400  1.00  0.00    -0.014 A 
BRANCH  35  36
ATOM     36  C   UNL A   1      37.462  32.164  31.009  1.00  0.00     0.031 A 
ATOM     37  C   UNL A   1      37.952  32.535  32.379  1.00  0.00     0.074 A 
ATOM     38  C   UNL A   1      38.110  31.221  30.296  1.00  0.00     0.049 A 
ATOM     39  N   UNL A   1      38.981  32.072  33.045  1.00  0.00    -0.248 NA
ATOM     40  C   UNL A   1      37.204  33.585  33.088  1.00  0.00     0.031 C 
ATOM     41  C   UNL A   1      37.766  30.801  28.938  1.00  0.00     0.029 A 
ATOM     42  N   UNL A   1      39.205  30.452  30.613  1.00  0.00    -0.354 N 
ATOM     43  C   UNL A   1      39.009  32.779  34.239  1.00  0.00     0.074 A 
ATOM     44  C   UNL A   1      37.928  33.740  34.187  1.00  0.00     0.031 C 
ATOM     45  C   UNL A   1      38.615  29.837  28.546  1.00  0.00     0.029 A 
ATOM     46  C   UNL A   1      39.588  29.598  29.607  1.00  0.00     0.049 A 
ATOM     47  H   UNL A   1      39.670  30.509  31.478  1.00  0.00     0.167 HD
ATOM     48  C   UNL A   1      39.847  32.627  35.293  1.00  0.00     0.037 A 
ATOM     49  C   UNL A   1      40.613  28.727  29.545  1.00  0.00     0.037 A 
ATOM     50  C   UNL A   1      40.908  31.655  35.355  1.00  0.00     0.049 A 
ATOM     51  C   UNL A   1      41.533  28.583  30.726  1.00  0.00     0.074 A 
ATOM     52  C   UNL A   1      41.768  31.384  36.405  1.00  0.00     0.029 A 
ATOM     53  N   UNL A   1      41.255  30.796  34.323  1.00  0.00    -0.354 N 
ATOM     54  N   UNL A   1      41.507  29.209  31.876  1.00  0.00    -0.248 NA
ATOM     55  C   UNL A   1      42.624  27.605  30.601  1.00  0.00     0.031 C 
ATOM     56  C   UNL A   1      42.667  30.394  35.991  1.00  0.00     0.029 A 
ATOM     57  C   UNL A   1      42.333  30.012  34.703  1.00  0.00     0.049 A 
ATOM     58  H   UNL A   1      40.802  30.751  33.449  1.00  0.00     0.167 HD
ATOM     59  C   UNL A   1      42.553  28.683  32.622  1.00  0.00     0.074 A 
ATOM     60  C   UNL A   1      43.188  27.677  31.798  1.00  0.00     0.031 C 
ATOM     61  C   UNL A   1      42.951  29.005  33.878  1.00  0.00     0.037 A 
BRANCH  48  62
ATOM     62  C   UNL A   1      39.649  33.534  36.474  1.00  0.00     0.064 A 
ATOM     63  C   UNL A   1      40.263  34.793  36.546  1.00  0.00     0.173 A 
ATOM     64  C   UNL A   1      38.800  33.156  37.526  1.00  0.00     0.173 A 
ATOM     65  F   UNL A   1      41.091  35.198  35.571  1.00  0.00    -0.203 F 
ATOM     66  C   UNL A   1      40.059  35.629  37.641  1.00  0.00     0.198 A 
ATOM     67  C   UNL A   1      38.574  34.008  38.605  1.00  0.00     0.198 A 
ATOM     68  F   UNL A   1      38.182  31.967  37.504  1.00  0.00    -0.203 F 
ATOM     69  F   UNL A   1      40.694  36.807  37.711  1.00  0.00    -0.200 F 
ATOM     70  C   UNL A   1      39.209  35.239  38.665  1.00  0.00     0.200 A 
ATOM     71  F   UNL A   1      37.741  33.636  39.587  1.00  0.00    -0.200 F 
ATOM     72  F   UNL A   1      39.005  36.048  39.713  1.00  0.00    -0.200 F 
ENDBRANCH  48  62
BRANCH  49  73
ATOM     73  C   UNL A   1      40.811  27.902  28.323  1.00  0.00     0.064 A 
ATOM     74  C   UNL A   1      40.232  26.630  28.211  1.00  0.00     0.173 A 
ATOM     75  C   UNL A   1      41.589  28.362  27.250  1.00  0.00     0.173 A 
ATOM     76  F   UNL A   1      39.499  26.139  29.220  1.00  0.00    -0.203 F 
ATOM     77  C   UNL A   1      40.438  25.842  27.081  1.00  0.00     0.198 A 
ATOM     78  C   UNL A   1      41.770  27.584  26.108  1.00  0.00     0.198 A 
ATOM     79  F   UNL A   1      42.163  29.572  27.305  1.00  0.00    -0.203 F 
ATOM     80  F   UNL A   1      39.910  24.611  27.020  1.00  0.00    -0.200 F 
ATOM     81  C   UNL A   1      41.202  26.322  26.028  1.00  0.00     0.200 A 
ATOM     82  F   UNL A   1      42.498  28.057  25.086  1.00  0.00    -0.200 F 
ATOM     83  F   UNL A   1      41.397  25.564  24.940  1.00  0.00    -0.200 F 
ENDBRANCH  49  73
BRANCH  61  84
ATOM     84  C   UNL A   1      44.105  28.238  34.454  1.00  0.00     0.064 A 
ATOM     85  C   UNL A   1      45.422  28.714  34.374  1.00  0.00     0.173 A 
ATOM     86  C   UNL A   1      43.883  27.030  35.134  1.00  0.00     0.173 A 
ATOM     87  F   UNL A   1      45.688  29.855  33.721  1.00  0.00    -0.203 F 
ATOM     88  C   UNL A   1      46.476  27.997  34.932  1.00  0.00     0.198 A 
ATOM     89  C   UNL A   1      44.936  26.332  35.717  1.00  0.00     0.198 A 
ATOM     90  F   UNL A   1      42.642  26.534  35.245  1.00  0.00    -0.203 F 
ATOM     91  F   UNL A   1      47.732  28.448  34.803  1.00  0.00    -0.200 F 
ATOM     92  C   UNL A   1      46.233  26.812  35.610  1.00  0.00     0.200 A 
ATOM     93  F   UNL A   1      44.697  25.194  36.384  1.00  0.00    -0.200 F 
ATOM     94  F   UNL A   1      47.249  26.128  36.154  1.00  0.00    -0.200 F 
ENDBRANCH  61  84
ENDBRANCH  35  36
ENDBRANCH  27  30
ENDBRANCH  25  26
ENDBRANCH   1  25
TORSDOF 13
ENDMDL
