MODEL 1
REMARK VINA RESULT:     -11.6      0.000      0.000
REMARK SMILES CC[C@](C)(C(=O)NCCCNC(=O)c1ccc(-c2c3nc(c(-c4c(F)c(F)c(F)c(F)c4F)c4ccc([nH]4)c(-c4c(F)c(F)c(F)c(F)c4F)c4nc(c(-c5c(F)c(F)c(F)c(F)c5F)c5ccc2[nH]5)C=C4)C=C3)cc1)n1nnnc1-c1ccco1
REMARK SMILES IDX 9 1 8 2 7 3 5 4 6 5 3 7 4 8 2 9 1 10 77 11 78 12 81 13 79 14
REMARK SMILES IDX 80 15 82 16 83 17 86 18 84 19 85 20 10 21 11 22 12 23 13 25
REMARK SMILES IDX 14 26 15 27 76 28 16 29 75 30 17 31 18 32 19 33 69 34 20 35
REMARK SMILES IDX 74 36 68 37 70 38 21 39 73 40 67 41 66 42 22 44 54 45 34 46
REMARK SMILES IDX 53 47 35 48 38 49 52 50 71 51 36 52 37 53 51 55 72 56 39 57
REMARK SMILES IDX 23 58 24 59 32 60 25 61 26 62 30 63 33 64 27 65 28 66 31 67
REMARK SMILES IDX 29 68 55 69 56 70 64 71 57 72 58 73 62 74 65 75 59 76 60 77
REMARK SMILES IDX 63 78 61 79 40 80 41 81 49 82 42 83 43 84 47 85 50 86 44 87
REMARK SMILES IDX 45 88 48 89 46 90
REMARK H PARENT 7 6 11 24 70 43 38 54
REMARK Flexibility Score: inf
ROOT
ATOM      1  C   UNL A   1      37.944  19.506  25.001  1.00  0.00     0.042 C 
ENDROOT
BRANCH   1   2
ATOM      2  C   UNL A   1      36.905  20.536  24.569  1.00  0.00     0.117 C 
BRANCH   2   3
ATOM      3  N   UNL A   1      35.849  20.682  25.560  1.00  0.00    -0.354 N 
ATOM      4  C   UNL A   1      35.176  21.759  26.064  1.00  0.00     0.247 C 
ATOM      5  O   UNL A   1      34.565  21.527  27.112  1.00  0.00    -0.272 OA
ATOM      6  H   UNL A   1      35.559  19.826  25.950  1.00  0.00     0.163 HD
BRANCH   4   7
ATOM      7  C   UNL A   1      35.222  23.179  25.421  1.00  0.00     0.142 C 
ATOM      8  C   UNL A   1      34.705  24.155  26.494  1.00  0.00     0.048 C 
BRANCH   7   9
ATOM      9  C   UNL A   1      36.681  23.533  24.991  1.00  0.00     0.037 C 
ATOM     10  C   UNL A   1      37.657  23.825  26.129  1.00  0.00     0.007 C 
ENDBRANCH   7   9
BRANCH   7  11
ATOM     11  N   UNL A   1      34.388  23.156  24.198  1.00  0.00    -0.207 N 
ATOM     12  N   UNL A   1      35.000  23.293  22.992  1.00  0.00    -0.044 NA
ATOM     13  C   UNL A   1      33.028  23.236  23.997  1.00  0.00     0.218 A 
ATOM     14  N   UNL A   1      34.028  23.379  22.099  1.00  0.00    -0.023 NA
ATOM     15  N   UNL A   1      32.803  23.361  22.705  1.00  0.00    -0.105 NA
BRANCH  13  16
ATOM     16  C   UNL A   1      31.994  23.257  24.974  1.00  0.00     0.172 A 
ATOM     17  C   UNL A   1      31.424  22.190  25.653  1.00  0.00     0.054 A 
ATOM     18  O   UNL A   1      31.373  24.411  25.375  1.00  0.00    -0.461 OA
ATOM     19  C   UNL A   1      30.387  22.716  26.462  1.00  0.00     0.043 A 
ATOM     20  C   UNL A   1      30.419  24.077  26.278  1.00  0.00     0.196 A 
ENDBRANCH  13  16
ENDBRANCH   7  11
ENDBRANCH   4   7
ENDBRANCH   2   3
ENDBRANCH   1   2
BRANCH   1  21
ATOM     21  C   UNL A   1      39.121  20.107  25.753  1.00  0.00     0.118 C 
BRANCH  21  22
ATOM     22  N   UNL A   1      40.183  19.137  25.971  1.00  0.00    -0.352 N 
ATOM     23  C   UNL A   1      41.531  19.316  26.126  1.00  0.00     0.251 C 
ATOM     24  H   UNL A   1      39.884  18.200  26.014  1.00  0.00     0.163 HD
ATOM     25  O   UNL A   1      42.275  18.334  26.070  1.00  0.00    -0.269 OA
BRANCH  23  26
ATOM     26  C   UNL A   1      42.111  20.657  26.358  1.00  0.00     0.039 A 
ATOM     27  C   UNL A   1      42.352  21.064  27.675  1.00  0.00     0.014 A 
ATOM     28  C   UNL A   1      42.347  21.547  25.306  1.00  0.00     0.014 A 
ATOM     29  C   UNL A   1      42.843  22.346  27.931  1.00  0.00     0.010 A 
ATOM     30  C   UNL A   1      42.929  22.787  25.555  1.00  0.00     0.010 A 
ATOM     31  C   UNL A   1      43.145  23.214  26.872  1.00  0.00    -0.014 A 
BRANCH  31  32
ATOM     32  C   UNL A   1      43.608  24.601  27.125  1.00  0.00     0.031 A 
ATOM     33  C   UNL A   1      42.641  25.628  27.653  1.00  0.00     0.074 A 
ATOM     34  C   UNL A   1      44.878  24.949  26.849  1.00  0.00     0.049 A 
ATOM     35  N   UNL A   1      42.831  26.899  27.899  1.00  0.00    -0.248 NA
ATOM     36  C   UNL A   1      41.264  25.171  27.906  1.00  0.00     0.031 C 
ATOM     37  C   UNL A   1      45.893  24.061  26.281  1.00  0.00     0.029 A 
ATOM     38  N   UNL A   1      45.529  26.147  27.001  1.00  0.00    -0.354 N 
ATOM     39  C   UNL A   1      41.600  27.392  28.314  1.00  0.00     0.074 A 
ATOM     40  C   UNL A   1      40.655  26.302  28.224  1.00  0.00     0.031 C 
ATOM     41  C   UNL A   1      47.046  24.738  26.155  1.00  0.00     0.029 A 
ATOM     42  C   UNL A   1      46.843  26.111  26.609  1.00  0.00     0.049 A 
ATOM     43  H   UNL A   1      45.094  26.955  27.360  1.00  0.00     0.167 HD
ATOM     44  C   UNL A   1      41.290  28.632  28.762  1.00  0.00     0.037 A 
ATOM     45  C   UNL A   1      47.780  27.079  26.620  1.00  0.00     0.037 A 
ATOM     46  C   UNL A   1      42.239  29.705  28.884  1.00  0.00     0.049 A 
ATOM     47  C   UNL A   1      47.426  28.436  27.164  1.00  0.00     0.074 A 
ATOM     48  C   UNL A   1      42.040  30.988  29.362  1.00  0.00     0.029 A 
ATOM     49  N   UNL A   1      43.578  29.613  28.530  1.00  0.00    -0.354 N 
ATOM     50  N   UNL A   1      46.273  28.874  27.607  1.00  0.00    -0.248 NA
ATOM     51  C   UNL A   1      48.509  29.426  27.230  1.00  0.00     0.031 C 
ATOM     52  C   UNL A   1      43.253  31.681  29.272  1.00  0.00     0.029 A 
ATOM     53  C   UNL A   1      44.217  30.816  28.778  1.00  0.00     0.049 A 
ATOM     54  H   UNL A   1      44.010  28.810  28.158  1.00  0.00     0.167 HD
ATOM     55  C   UNL A   1      46.495  30.177  28.030  1.00  0.00     0.074 A 
ATOM     56  C   UNL A   1      47.899  30.453  27.803  1.00  0.00     0.031 C 
ATOM     57  C   UNL A   1      45.618  31.066  28.558  1.00  0.00     0.037 A 
BRANCH  44  58
ATOM     58  C   UNL A   1      39.864  28.881  29.163  1.00  0.00     0.064 A 
ATOM     59  C   UNL A   1      39.422  28.661  30.478  1.00  0.00     0.173 A 
ATOM     60  C   UNL A   1      38.929  29.351  28.228  1.00  0.00     0.173 A 
ATOM     61  F   UNL A   1      40.271  28.197  31.406  1.00  0.00    -0.203 F 
ATOM     62  C   UNL A   1      38.090  28.863  30.831  1.00  0.00     0.198 A 
ATOM     63  C   UNL A   1      37.605  29.583  28.594  1.00  0.00     0.198 A 
ATOM     64  F   UNL A   1      39.298  29.584  26.960  1.00  0.00    -0.203 F 
ATOM     65  F   UNL A   1      37.680  28.584  32.075  1.00  0.00    -0.200 F 
ATOM     66  C   UNL A   1      37.185  29.330  29.891  1.00  0.00     0.200 A 
ATOM     67  F   UNL A   1      36.733  30.046  27.686  1.00  0.00    -0.200 F 
ATOM     68  F   UNL A   1      35.904  29.524  30.231  1.00  0.00    -0.200 F 
ENDBRANCH  44  58
BRANCH  45  69
ATOM     69  C   UNL A   1      49.154  26.778  26.145  1.00  0.00     0.064 A 
ATOM     70  C   UNL A   1      49.517  26.991  24.809  1.00  0.00     0.173 A 
ATOM     71  C   UNL A   1      50.135  26.284  27.018  1.00  0.00     0.173 A 
ATOM     72  F   UNL A   1      48.609  27.446  23.934  1.00  0.00    -0.203 F 
ATOM     73  C   UNL A   1      50.804  26.705  24.357  1.00  0.00     0.198 A 
ATOM     74  C   UNL A   1      51.428  26.024  26.572  1.00  0.00     0.198 A 
ATOM     75  F   UNL A   1      49.840  26.073  28.309  1.00  0.00    -0.203 F 
ATOM     76  F   UNL A   1      51.114  26.882  23.066  1.00  0.00    -0.200 F 
ATOM     77  C   UNL A   1      51.761  26.228  25.241  1.00  0.00     0.200 A 
ATOM     78  F   UNL A   1      52.355  25.578  27.432  1.00  0.00    -0.200 F 
ATOM     79  F   UNL A   1      53.000  25.961  24.809  1.00  0.00    -0.200 F 
ENDBRANCH  45  69
BRANCH  57  80
ATOM     80  C   UNL A   1      46.160  32.404  28.966  1.00  0.00     0.064 A 
ATOM     81  C   UNL A   1      46.674  32.630  30.251  1.00  0.00     0.173 A 
ATOM     82  C   UNL A   1      46.190  33.464  28.047  1.00  0.00     0.173 A 
ATOM     83  F   UNL A   1      46.654  31.652  31.169  1.00  0.00    -0.203 F 
ATOM     84  C   UNL A   1      47.173  33.879  30.611  1.00  0.00     0.198 A 
ATOM     85  C   UNL A   1      46.716  34.703  28.401  1.00  0.00     0.198 A 
ATOM     86  F   UNL A   1      45.716  33.295  26.804  1.00  0.00    -0.203 F 
ATOM     87  F   UNL A   1      47.614  34.088  31.858  1.00  0.00    -0.200 F 
ATOM     88  C   UNL A   1      47.199  34.912  29.684  1.00  0.00     0.200 A 
ATOM     89  F   UNL A   1      46.751  35.696  27.503  1.00  0.00    -0.200 F 
ATOM     90  F   UNL A   1      47.682  36.113  30.032  1.00  0.00    -0.200 F 
ENDBRANCH  57  80
ENDBRANCH  31  32
ENDBRANCH  23  26
ENDBRANCH  21  22
ENDBRANCH   1  21
TORSDOF 13
ENDMDL
MODEL 2
REMARK VINA RESULT:     -11.5      6.029     11.225
REMARK SMILES CC[C@](C)(C(=O)NCCCNC(=O)c1ccc(-c2c3nc(c(-c4c(F)c(F)c(F)c(F)c4F)c4ccc([nH]4)c(-c4c(F)c(F)c(F)c(F)c4F)c4nc(c(-c5c(F)c(F)c(F)c(F)c5F)c5ccc2[nH]5)C=C4)C=C3)cc1)n1nnnc1-c1ccco1
REMARK SMILES IDX 9 1 8 2 7 3 5 4 6 5 3 7 4 8 2 9 1 10 77 11 78 12 81 13 79 14
REMARK SMILES IDX 80 15 82 16 83 17 86 18 84 19 85 20 10 21 11 22 12 23 13 25
REMARK SMILES IDX 14 26 15 27 76 28 16 29 75 30 17 31 18 32 19 33 69 34 20 35
REMARK SMILES IDX 74 36 68 37 70 38 21 39 73 40 67 41 66 42 22 44 54 45 34 46
REMARK SMILES IDX 53 47 35 48 38 49 52 50 71 51 36 52 37 53 51 55 72 56 39 57
REMARK SMILES IDX 23 58 24 59 32 60 25 61 26 62 30 63 33 64 27 65 28 66 31 67
REMARK SMILES IDX 29 68 55 69 56 70 64 71 57 72 58 73 62 74 65 75 59 76 60 77
REMARK SMILES IDX 63 78 61 79 40 80 41 81 49 82 42 83 43 84 47 85 50 86 44 87
REMARK SMILES IDX 45 88 48 89 46 90
REMARK H PARENT 7 6 11 24 70 43 38 54
REMARK Flexibility Score: inf
ROOT
ATOM      1  C   UNL A   1      31.363  32.208  26.495  1.00  0.00     0.042 C 
ENDROOT
BRANCH   1   2
ATOM      2  C   UNL A   1      31.335  30.688  26.368  1.00  0.00     0.117 C 
BRANCH   2   3
ATOM      3  N   UNL A   1      31.905  30.244  25.106  1.00  0.00    -0.354 N 
ATOM      4  C   UNL A   1      32.712  29.197  24.755  1.00  0.00     0.247 C 
ATOM      5  O   UNL A   1      33.241  29.318  23.645  1.00  0.00    -0.272 OA
ATOM      6  H   UNL A   1      31.660  30.817  24.344  1.00  0.00     0.163 HD
BRANCH   4   7
ATOM      7  C   UNL A   1      33.002  27.985  25.691  1.00  0.00     0.142 C 
ATOM      8  C   UNL A   1      34.245  27.283  25.114  1.00  0.00     0.048 C 
BRANCH   7   9
ATOM      9  C   UNL A   1      33.256  28.476  27.152  1.00  0.00     0.037 C 
ATOM     10  C   UNL A   1      34.591  29.177  27.393  1.00  0.00     0.007 C 
ENDBRANCH   7   9
BRANCH   7  11
ATOM     11  N   UNL A   1      31.799  27.123  25.711  1.00  0.00    -0.207 N 
ATOM     12  N   UNL A   1      31.143  26.951  26.889  1.00  0.00    -0.044 NA
ATOM     13  C   UNL A   1      31.273  26.235  24.798  1.00  0.00     0.218 A 
ATOM     14  N   UNL A   1      30.211  26.041  26.658  1.00  0.00    -0.023 NA
ATOM     15  N   UNL A   1      30.288  25.577  25.374  1.00  0.00    -0.105 NA
BRANCH  13  16
ATOM     16  C   UNL A   1      31.714  25.975  23.471  1.00  0.00     0.172 A 
ATOM     17  C   UNL A   1      31.393  26.652  22.304  1.00  0.00     0.054 A 
ATOM     18  O   UNL A   1      32.550  24.936  23.156  1.00  0.00    -0.461 OA
ATOM     19  C   UNL A   1      32.022  25.967  21.236  1.00  0.00     0.043 A 
ATOM     20  C   UNL A   1      32.739  24.947  21.813  1.00  0.00     0.196 A 
ENDBRANCH  13  16
ENDBRANCH   7  11
ENDBRANCH   4   7
ENDBRANCH   2   3
ENDBRANCH   1   2
BRANCH   1  21
ATOM     21  C   UNL A   1      32.588  32.736  27.225  1.00  0.00     0.118 C 
BRANCH  21  22
ATOM     22  N   UNL A   1      32.437  34.131  27.607  1.00  0.00    -0.352 N 
ATOM     23  C   UNL A   1      33.008  34.838  28.631  1.00  0.00     0.251 C 
ATOM     24  H   UNL A   1      31.825  34.651  27.038  1.00  0.00     0.163 HD
ATOM     25  O   UNL A   1      32.561  35.953  28.909  1.00  0.00    -0.269 OA
BRANCH  23  26
ATOM     26  C   UNL A   1      34.143  34.293  29.407  1.00  0.00     0.039 A 
ATOM     27  C   UNL A   1      35.438  34.454  28.903  1.00  0.00     0.014 A 
ATOM     28  C   UNL A   1      33.945  33.561  30.582  1.00  0.00     0.014 A 
ATOM     29  C   UNL A   1      36.526  33.900  29.581  1.00  0.00     0.010 A 
ATOM     30  C   UNL A   1      35.037  33.093  31.308  1.00  0.00     0.010 A 
ATOM     31  C   UNL A   1      36.335  33.224  30.795  1.00  0.00    -0.014 A 
BRANCH  31  32
ATOM     32  C   UNL A   1      37.469  32.575  31.499  1.00  0.00     0.031 A 
ATOM     33  C   UNL A   1      38.206  31.438  30.840  1.00  0.00     0.074 A 
ATOM     34  C   UNL A   1      37.814  32.976  32.736  1.00  0.00     0.049 A 
ATOM     35  N   UNL A   1      39.191  30.710  31.299  1.00  0.00    -0.248 NA
ATOM     36  C   UNL A   1      37.750  31.046  29.496  1.00  0.00     0.031 C 
ATOM     37  C   UNL A   1      37.142  34.026  33.501  1.00  0.00     0.029 A 
ATOM     38  N   UNL A   1      38.812  32.541  33.569  1.00  0.00    -0.354 N 
ATOM     39  C   UNL A   1      39.456  29.767  30.314  1.00  0.00     0.074 A 
ATOM     40  C   UNL A   1      38.487  29.972  29.261  1.00  0.00     0.031 C 
ATOM     41  C   UNL A   1      37.761  34.170  34.684  1.00  0.00     0.029 A 
ATOM     42  C   UNL A   1      38.855  33.208  34.768  1.00  0.00     0.049 A 
ATOM     43  H   UNL A   1      39.439  31.820  33.330  1.00  0.00     0.167 HD
ATOM     44  C   UNL A   1      40.438  28.835  30.272  1.00  0.00     0.037 A 
ATOM     45  C   UNL A   1      39.691  33.060  35.815  1.00  0.00     0.037 A 
ATOM     46  C   UNL A   1      41.423  28.657  31.304  1.00  0.00     0.049 A 
ATOM     47  C   UNL A   1      40.802  32.051  35.728  1.00  0.00     0.074 A 
ATOM     48  C   UNL A   1      42.484  27.771  31.346  1.00  0.00     0.029 A 
ATOM     49  N   UNL A   1      41.469  29.393  32.481  1.00  0.00    -0.354 N 
ATOM     50  N   UNL A   1      41.078  31.203  34.767  1.00  0.00    -0.248 NA
ATOM     51  C   UNL A   1      41.732  31.992  36.864  1.00  0.00     0.031 C 
ATOM     52  C   UNL A   1      43.157  27.951  32.560  1.00  0.00     0.029 A 
ATOM     53  C   UNL A   1      42.540  28.979  33.255  1.00  0.00     0.049 A 
ATOM     54  H   UNL A   1      40.835  30.104  32.728  1.00  0.00     0.167 HD
ATOM     55  C   UNL A   1      42.226  30.533  35.165  1.00  0.00     0.074 A 
ATOM     56  C   UNL A   1      42.603  31.082  36.451  1.00  0.00     0.031 C 
ATOM     57  C   UNL A   1      42.906  29.550  34.526  1.00  0.00     0.037 A 
BRANCH  44  58
ATOM     58  C   UNL A   1      40.496  27.951  29.059  1.00  0.00     0.064 A 
ATOM     59  C   UNL A   1      41.311  28.263  27.960  1.00  0.00     0.173 A 
ATOM     60  C   UNL A   1      39.734  26.774  28.996  1.00  0.00     0.173 A 
ATOM     61  F   UNL A   1      42.047  29.385  27.964  1.00  0.00    -0.203 F 
ATOM     62  C   UNL A   1      41.331  27.454  26.828  1.00  0.00     0.198 A 
ATOM     63  C   UNL A   1      39.782  25.950  27.874  1.00  0.00     0.198 A 
ATOM     64  F   UNL A   1      38.942  26.424  30.020  1.00  0.00    -0.203 F 
ATOM     65  F   UNL A   1      42.069  27.808  25.767  1.00  0.00    -0.200 F 
ATOM     66  C   UNL A   1      40.572  26.295  26.788  1.00  0.00     0.200 A 
ATOM     67  F   UNL A   1      39.056  24.823  27.842  1.00  0.00    -0.200 F 
ATOM     68  F   UNL A   1      40.592  25.516  25.698  1.00  0.00    -0.200 F 
ENDBRANCH  44  58
BRANCH  45  69
ATOM     69  C   UNL A   1      39.532  33.927  37.010  1.00  0.00     0.064 A 
ATOM     70  C   UNL A   1      38.814  33.486  38.129  1.00  0.00     0.173 A 
ATOM     71  C   UNL A   1      40.105  35.206  37.063  1.00  0.00     0.173 A 
ATOM     72  F   UNL A   1      38.234  32.276  38.118  1.00  0.00    -0.203 F 
ATOM     73  C   UNL A   1      38.659  34.297  39.251  1.00  0.00     0.198 A 
ATOM     74  C   UNL A   1      39.972  36.006  38.195  1.00  0.00     0.198 A 
ATOM     75  F   UNL A   1      40.811  35.669  36.022  1.00  0.00    -0.203 F 
ATOM     76  F   UNL A   1      37.935  33.866  40.292  1.00  0.00    -0.200 F 
ATOM     77  C   UNL A   1      39.243  35.555  39.286  1.00  0.00     0.200 A 
ATOM     78  F   UNL A   1      40.552  37.214  38.231  1.00  0.00    -0.200 F 
ATOM     79  F   UNL A   1      39.100  36.332  40.368  1.00  0.00    -0.200 F 
ENDBRANCH  45  69
BRANCH  57  80
ATOM     80  C   UNL A   1      44.151  29.036  35.187  1.00  0.00     0.064 A 
ATOM     81  C   UNL A   1      44.119  27.963  36.089  1.00  0.00     0.173 A 
ATOM     82  C   UNL A   1      45.398  29.608  34.888  1.00  0.00     0.173 A 
ATOM     83  F   UNL A   1      42.949  27.392  36.418  1.00  0.00    -0.203 F 
ATOM     84  C   UNL A   1      45.286  27.500  36.691  1.00  0.00     0.198 A 
ATOM     85  C   UNL A   1      46.566  29.124  35.469  1.00  0.00     0.198 A 
ATOM     86  F   UNL A   1      45.482  30.632  34.026  1.00  0.00    -0.203 F 
ATOM     87  F   UNL A   1      45.225  26.507  37.588  1.00  0.00    -0.200 F 
ATOM     88  C   UNL A   1      46.508  28.077  36.376  1.00  0.00     0.200 A 
ATOM     89  F   UNL A   1      47.746  29.674  35.156  1.00  0.00    -0.200 F 
ATOM     90  F   UNL A   1      47.630  27.627  36.955  1.00  0.00    -0.200 F 
ENDBRANCH  57  80
ENDBRANCH  31  32
ENDBRANCH  23  26
ENDBRANCH  21  22
ENDBRANCH   1  21
TORSDOF 13
ENDMDL
MODEL 3
REMARK VINA RESULT:     -11.5      5.839      9.828
REMARK SMILES CC[C@](C)(C(=O)NCCCNC(=O)c1ccc(-c2c3nc(c(-c4c(F)c(F)c(F)c(F)c4F)c4ccc([nH]4)c(-c4c(F)c(F)c(F)c(F)c4F)c4nc(c(-c5c(F)c(F)c(F)c(F)c5F)c5ccc2[nH]5)C=C4)C=C3)cc1)n1nnnc1-c1ccco1
REMARK SMILES IDX 9 1 8 2 7 3 5 4 6 5 3 7 4 8 2 9 1 10 77 11 78 12 81 13 79 14
REMARK SMILES IDX 80 15 82 16 83 17 86 18 84 19 85 20 10 21 11 22 12 23 13 25
REMARK SMILES IDX 14 26 15 27 76 28 16 29 75 30 17 31 18 32 19 33 69 34 20 35
REMARK SMILES IDX 74 36 68 37 70 38 21 39 73 40 67 41 66 42 22 44 54 45 34 46
REMARK SMILES IDX 53 47 35 48 38 49 52 50 71 51 36 52 37 53 51 55 72 56 39 57
REMARK SMILES IDX 23 58 24 59 32 60 25 61 26 62 30 63 33 64 27 65 28 66 31 67
REMARK SMILES IDX 29 68 55 69 56 70 64 71 57 72 58 73 62 74 65 75 59 76 60 77
REMARK SMILES IDX 63 78 61 79 40 80 41 81 49 82 42 83 43 84 47 85 50 86 44 87
REMARK SMILES IDX 45 88 48 89 46 90
REMARK H PARENT 7 6 11 24 70 43 38 54
REMARK Flexibility Score: inf
ROOT
ATOM      1  C   UNL A   1      31.354  32.156  26.500  1.00  0.00     0.042 C 
ENDROOT
BRANCH   1   2
ATOM      2  C   UNL A   1      31.338  30.636  26.376  1.00  0.00     0.117 C 
BRANCH   2   3
ATOM      3  N   UNL A   1      31.891  30.194  25.105  1.00  0.00    -0.354 N 
ATOM      4  C   UNL A   1      32.686  29.144  24.740  1.00  0.00     0.247 C 
ATOM      5  O   UNL A   1      33.203  29.267  23.625  1.00  0.00    -0.272 OA
ATOM      6  H   UNL A   1      31.641  30.773  24.350  1.00  0.00     0.163 HD
BRANCH   4   7
ATOM      7  C   UNL A   1      32.978  27.925  25.667  1.00  0.00     0.142 C 
ATOM      8  C   UNL A   1      34.212  27.219  25.073  1.00  0.00     0.048 C 
BRANCH   7   9
ATOM      9  C   UNL A   1      33.250  28.406  27.127  1.00  0.00     0.037 C 
ATOM     10  C   UNL A   1      34.582  29.119  27.354  1.00  0.00     0.007 C 
ENDBRANCH   7   9
BRANCH   7  11
ATOM     11  N   UNL A   1      31.771  27.070  25.694  1.00  0.00    -0.207 N 
ATOM     12  N   UNL A   1      31.096  26.938  26.867  1.00  0.00    -0.044 NA
ATOM     13  C   UNL A   1      31.254  26.158  24.802  1.00  0.00     0.218 A 
ATOM     14  N   UNL A   1      30.163  26.026  26.649  1.00  0.00    -0.023 NA
ATOM     15  N   UNL A   1      30.257  25.522  25.382  1.00  0.00    -0.105 NA
BRANCH  13  16
ATOM     16  C   UNL A   1      31.714  25.854  23.489  1.00  0.00     0.172 A 
ATOM     17  C   UNL A   1      32.461  24.766  23.064  1.00  0.00     0.054 A 
ATOM     18  O   UNL A   1      31.480  26.670  22.414  1.00  0.00    -0.461 OA
ATOM     19  C   UNL A   1      32.728  24.955  21.686  1.00  0.00     0.043 A 
ATOM     20  C   UNL A   1      32.082  26.115  21.333  1.00  0.00     0.196 A 
ENDBRANCH  13  16
ENDBRANCH   7  11
ENDBRANCH   4   7
ENDBRANCH   2   3
ENDBRANCH   1   2
BRANCH   1  21
ATOM     21  C   UNL A   1      32.662  32.710  27.044  1.00  0.00     0.118 C 
BRANCH  21  22
ATOM     22  N   UNL A   1      32.506  34.052  27.583  1.00  0.00    -0.352 N 
ATOM     23  C   UNL A   1      33.097  34.649  28.662  1.00  0.00     0.251 C 
ATOM     24  H   UNL A   1      31.871  34.622  27.091  1.00  0.00     0.163 HD
ATOM     25  O   UNL A   1      32.645  35.721  29.074  1.00  0.00    -0.269 OA
BRANCH  23  26
ATOM     26  C   UNL A   1      34.260  34.040  29.343  1.00  0.00     0.039 A 
ATOM     27  C   UNL A   1      35.546  34.405  28.929  1.00  0.00     0.014 A 
ATOM     28  C   UNL A   1      34.104  33.058  30.326  1.00  0.00     0.014 A 
ATOM     29  C   UNL A   1      36.664  33.804  29.510  1.00  0.00     0.010 A 
ATOM     30  C   UNL A   1      35.219  32.531  30.973  1.00  0.00     0.010 A 
ATOM     31  C   UNL A   1      36.509  32.869  30.544  1.00  0.00    -0.014 A 
BRANCH  31  32
ATOM     32  C   UNL A   1      37.682  32.173  31.131  1.00  0.00     0.031 A 
ATOM     33  C   UNL A   1      38.150  32.534  32.516  1.00  0.00     0.074 A 
ATOM     34  C   UNL A   1      38.346  31.249  30.413  1.00  0.00     0.049 A 
ATOM     35  N   UNL A   1      39.175  32.079  33.191  1.00  0.00    -0.248 NA
ATOM     36  C   UNL A   1      37.382  33.572  33.224  1.00  0.00     0.031 C 
ATOM     37  C   UNL A   1      38.025  30.854  29.041  1.00  0.00     0.029 A 
ATOM     38  N   UNL A   1      39.434  30.481  30.736  1.00  0.00    -0.354 N 
ATOM     39  C   UNL A   1      39.184  32.786  34.387  1.00  0.00     0.074 A 
ATOM     40  C   UNL A   1      38.104  33.746  34.319  1.00  0.00     0.031 C 
ATOM     41  C   UNL A   1      38.883  29.899  28.648  1.00  0.00     0.029 A 
ATOM     42  C   UNL A   1      39.827  29.634  29.729  1.00  0.00     0.049 A 
ATOM     43  H   UNL A   1      39.890  30.530  31.608  1.00  0.00     0.167 HD
ATOM     44  C   UNL A   1      39.996  32.630  35.460  1.00  0.00     0.037 A 
ATOM     45  C   UNL A   1      40.835  28.741  29.689  1.00  0.00     0.037 A 
ATOM     46  C   UNL A   1      41.045  31.651  35.538  1.00  0.00     0.049 A 
ATOM     47  C   UNL A   1      41.696  28.552  30.908  1.00  0.00     0.074 A 
ATOM     48  C   UNL A   1      41.901  31.381  36.591  1.00  0.00     0.029 A 
ATOM     49  N   UNL A   1      41.376  30.770  34.518  1.00  0.00    -0.354 N 
ATOM     50  N   UNL A   1      41.659  29.187  32.054  1.00  0.00    -0.248 NA
ATOM     51  C   UNL A   1      42.725  27.506  30.835  1.00  0.00     0.031 C 
ATOM     52  C   UNL A   1      42.769  30.355  36.198  1.00  0.00     0.029 A 
ATOM     53  C   UNL A   1      42.424  29.957  34.916  1.00  0.00     0.049 A 
ATOM     54  H   UNL A   1      40.932  30.730  33.640  1.00  0.00     0.167 HD
ATOM     55  C   UNL A   1      42.635  28.601  32.847  1.00  0.00     0.074 A 
ATOM     56  C   UNL A   1      43.239  27.550  32.056  1.00  0.00     0.031 C 
ATOM     57  C   UNL A   1      43.001  28.906  34.117  1.00  0.00     0.037 A 
BRANCH  44  58
ATOM     58  C   UNL A   1      39.763  33.535  36.636  1.00  0.00     0.064 A 
ATOM     59  C   UNL A   1      38.888  33.179  37.675  1.00  0.00     0.173 A 
ATOM     60  C   UNL A   1      40.425  34.769  36.731  1.00  0.00     0.173 A 
ATOM     61  F   UNL A   1      38.219  32.018  37.624  1.00  0.00    -0.203 F 
ATOM     62  C   UNL A   1      38.654  34.040  38.743  1.00  0.00     0.198 A 
ATOM     63  C   UNL A   1      40.213  35.613  37.818  1.00  0.00     0.198 A 
ATOM     64  F   UNL A   1      41.276  35.157  35.769  1.00  0.00    -0.203 F 
ATOM     65  F   UNL A   1      37.767  33.704  39.689  1.00  0.00    -0.200 F 
ATOM     66  C   UNL A   1      39.321  35.253  38.818  1.00  0.00     0.200 A 
ATOM     67  F   UNL A   1      40.867  36.781  37.895  1.00  0.00    -0.200 F 
ATOM     68  F   UNL A   1      39.096  36.081  39.846  1.00  0.00    -0.200 F 
ENDBRANCH  44  58
BRANCH  45  69
ATOM     69  C   UNL A   1      41.047  27.927  28.466  1.00  0.00     0.064 A 
ATOM     70  C   UNL A   1      40.387  26.703  28.292  1.00  0.00     0.173 A 
ATOM     71  C   UNL A   1      41.900  28.360  27.440  1.00  0.00     0.173 A 
ATOM     72  F   UNL A   1      39.573  26.240  29.253  1.00  0.00    -0.203 F 
ATOM     73  C   UNL A   1      40.585  25.933  27.148  1.00  0.00     0.198 A 
ATOM     74  C   UNL A   1      42.078  27.602  26.285  1.00  0.00     0.198 A 
ATOM     75  F   UNL A   1      42.547  29.529  27.554  1.00  0.00    -0.203 F 
ATOM     76  F   UNL A   1      39.971  24.749  27.025  1.00  0.00    -0.200 F 
ATOM     77  C   UNL A   1      41.426  26.387  26.142  1.00  0.00     0.200 A 
ATOM     78  F   UNL A   1      42.879  28.051  25.309  1.00  0.00    -0.200 F 
ATOM     79  F   UNL A   1      41.611  25.650  25.039  1.00  0.00    -0.200 F 
ENDBRANCH  45  69
BRANCH  57  80
ATOM     80  C   UNL A   1      44.074  28.065  34.743  1.00  0.00     0.064 A 
ATOM     81  C   UNL A   1      45.425  28.436  34.692  1.00  0.00     0.173 A 
ATOM     82  C   UNL A   1      43.739  26.887  35.428  1.00  0.00     0.173 A 
ATOM     83  F   UNL A   1      45.797  29.546  34.037  1.00  0.00    -0.203 F 
ATOM     84  C   UNL A   1      46.406  27.642  35.281  1.00  0.00     0.198 A 
ATOM     85  C   UNL A   1      44.718  26.111  36.039  1.00  0.00     0.198 A 
ATOM     86  F   UNL A   1      42.459  26.493  35.510  1.00  0.00    -0.203 F 
ATOM     87  F   UNL A   1      47.696  27.989  35.177  1.00  0.00    -0.200 F 
ATOM     88  C   UNL A   1      46.052  26.484  35.958  1.00  0.00     0.200 A 
ATOM     89  F   UNL A   1      44.374  25.000  36.703  1.00  0.00    -0.200 F 
ATOM     90  F   UNL A   1      46.997  25.723  36.526  1.00  0.00    -0.200 F 
ENDBRANCH  57  80
ENDBRANCH  31  32
ENDBRANCH  23  26
ENDBRANCH  21  22
ENDBRANCH   1  21
TORSDOF 13
ENDMDL
