MODEL 1
REMARK VINA RESULT:     -13.3      0.000      0.000
REMARK SMILES CCn1c(C(=O)NCCCNC(=O)c2ccc(-c3c4nc(c(-c5c(F)c(F)c(F)c(F)c5F)c5ccc([nH]5)c(-c5c(F)c(F)c(F)c(F)c5F)c5nc(c(-c6c(F)c(F)c(F)c(F)c6F)c6ccc3[nH]6)C=C5)C=C4)cc2)c(CC(=O)Nc2ccccc2OC)c2ccccc21
REMARK SMILES IDX 8 1 7 2 5 3 6 4 4 6 3 7 95 8 77 9 90 10 94 11 91 12 93 13
REMARK SMILES IDX 92 14 2 15 1 16 78 17 79 18 80 19 81 20 82 22 83 23 87 24
REMARK SMILES IDX 84 25 86 26 85 27 88 28 89 29 9 30 10 31 11 32 12 33 13 35
REMARK SMILES IDX 14 36 15 37 76 38 16 39 75 40 17 41 18 42 19 43 69 44 20 45
REMARK SMILES IDX 74 46 68 47 70 48 21 49 73 50 67 51 66 52 22 54 54 55 34 56
REMARK SMILES IDX 53 57 35 58 38 59 52 60 71 61 36 62 37 63 51 65 72 66 39 67
REMARK SMILES IDX 23 68 24 69 32 70 25 71 26 72 30 73 33 74 27 75 28 76 31 77
REMARK SMILES IDX 29 78 55 79 56 80 64 81 57 82 58 83 62 84 65 85 59 86 60 87
REMARK SMILES IDX 63 88 61 89 40 90 41 91 49 92 42 93 43 94 47 95 50 96 44 97
REMARK SMILES IDX 45 98 48 99 46 100
REMARK H PARENT 7 5 81 21 11 34 70 53 38 64
REMARK Flexibility Score: inf
ROOT
ATOM      1  C   UNL A   1      32.155  27.771  27.172  1.00  0.00     0.118 C 
ENDROOT
BRANCH   1   2
ATOM      2  N   UNL A   1      30.891  27.149  26.863  1.00  0.00    -0.351 N 
ATOM      3  C   UNL A   1      30.561  26.114  26.005  1.00  0.00     0.268 C 
ATOM      4  O   UNL A   1      29.526  25.520  26.354  1.00  0.00    -0.268 OA
ATOM      5  H   UNL A   1      30.123  27.529  27.350  1.00  0.00     0.163 HD
BRANCH   3   6
ATOM      6  C   UNL A   1      31.231  25.760  24.733  1.00  0.00     0.111 A 
ATOM      7  N   UNL A   1      31.573  26.502  23.598  1.00  0.00    -0.337 N 
ATOM      8  C   UNL A   1      32.035  25.663  22.584  1.00  0.00     0.049 A 
ATOM      9  C   UNL A   1      31.737  24.456  24.470  1.00  0.00     0.000 A 
ATOM     10  C   UNL A   1      32.302  24.431  23.157  1.00  0.00     0.004 A 
ATOM     11  C   UNL A   1      32.284  25.907  21.218  1.00  0.00     0.027 A 
ATOM     12  C   UNL A   1      32.945  23.444  22.375  1.00  0.00     0.010 A 
ATOM     13  C   UNL A   1      32.872  24.899  20.452  1.00  0.00     0.002 A 
ATOM     14  C   UNL A   1      33.224  23.688  21.028  1.00  0.00     0.001 A 
BRANCH   7  15
ATOM     15  C   UNL A   1      31.551  27.937  23.358  1.00  0.00     0.119 C 
ATOM     16  C   UNL A   1      30.218  28.647  23.497  1.00  0.00     0.027 C 
ENDBRANCH   7  15
BRANCH   9  17
ATOM     17  C   UNL A   1      31.645  23.232  25.355  1.00  0.00     0.139 C 
BRANCH  17  18
ATOM     18  C   UNL A   1      32.314  23.373  26.725  1.00  0.00     0.229 C 
ATOM     19  O   UNL A   1      31.649  23.593  27.746  1.00  0.00    -0.274 OA
ATOM     20  N   UNL A   1      33.654  23.129  26.889  1.00  0.00    -0.323 N 
ATOM     21  H   UNL A   1      33.976  23.101  27.818  1.00  0.00     0.170 HD
BRANCH  20  22
ATOM     22  C   UNL A   1      34.619  22.914  25.898  1.00  0.00     0.083 A 
ATOM     23  C   UNL A   1      35.393  24.006  25.492  1.00  0.00     0.030 A 
ATOM     24  C   UNL A   1      34.861  21.656  25.328  1.00  0.00     0.142 A 
ATOM     25  C   UNL A   1      36.295  23.898  24.437  1.00  0.00     0.002 A 
ATOM     26  C   UNL A   1      35.747  21.566  24.245  1.00  0.00     0.048 A 
ATOM     27  C   UNL A   1      36.449  22.680  23.791  1.00  0.00     0.004 A 
BRANCH  24  28
ATOM     28  O   UNL A   1      34.250  20.467  25.618  1.00  0.00    -0.495 OA
ATOM     29  C   UNL A   1      33.331  19.955  24.665  1.00  0.00     0.278 C 
ENDBRANCH  24  28
ENDBRANCH  20  22
ENDBRANCH  17  18
ENDBRANCH   9  17
ENDBRANCH   3   6
ENDBRANCH   1   2
BRANCH   1  30
ATOM     30  C   UNL A   1      32.254  29.293  27.246  1.00  0.00     0.042 C 
BRANCH  30  31
ATOM     31  C   UNL A   1      33.513  29.958  26.697  1.00  0.00     0.118 C 
BRANCH  31  32
ATOM     32  N   UNL A   1      33.828  31.231  27.312  1.00  0.00    -0.352 N 
ATOM     33  C   UNL A   1      34.902  31.805  27.929  1.00  0.00     0.251 C 
ATOM     34  H   UNL A   1      33.062  31.848  27.275  1.00  0.00     0.163 HD
ATOM     35  O   UNL A   1      34.764  33.006  28.190  1.00  0.00    -0.269 OA
BRANCH  33  36
ATOM     36  C   UNL A   1      36.175  31.148  28.345  1.00  0.00     0.039 A 
ATOM     37  C   UNL A   1      37.313  31.777  28.845  1.00  0.00     0.014 A 
ATOM     38  C   UNL A   1      36.238  29.755  28.116  1.00  0.00     0.014 A 
ATOM     39  C   UNL A   1      38.494  31.037  29.033  1.00  0.00     0.010 A 
ATOM     40  C   UNL A   1      37.407  29.017  28.312  1.00  0.00     0.010 A 
ATOM     41  C   UNL A   1      38.561  29.662  28.731  1.00  0.00    -0.014 A 
BRANCH  41  42
ATOM     42  C   UNL A   1      39.815  28.928  28.975  1.00  0.00     0.031 A 
ATOM     43  C   UNL A   1      40.139  28.722  30.416  1.00  0.00     0.074 A 
ATOM     44  C   UNL A   1      40.626  28.367  28.047  1.00  0.00     0.049 A 
ATOM     45  N   UNL A   1      41.111  29.251  31.086  1.00  0.00    -0.248 NA
ATOM     46  C   UNL A   1      39.222  27.914  31.233  1.00  0.00     0.031 C 
ATOM     47  C   UNL A   1      40.395  28.190  26.611  1.00  0.00     0.029 A 
ATOM     48  N   UNL A   1      41.850  27.772  28.227  1.00  0.00    -0.354 N 
ATOM     49  C   UNL A   1      41.027  28.735  32.377  1.00  0.00     0.074 A 
ATOM     50  C   UNL A   1      39.784  28.008  32.440  1.00  0.00     0.031 C 
ATOM     51  C   UNL A   1      41.341  27.368  26.094  1.00  0.00     0.029 A 
ATOM     52  C   UNL A   1      42.334  27.085  27.116  1.00  0.00     0.049 A 
ATOM     53  H   UNL A   1      42.347  27.827  29.076  1.00  0.00     0.167 HD
ATOM     54  C   UNL A   1      42.082  28.804  33.236  1.00  0.00     0.037 A 
ATOM     55  C   UNL A   1      43.465  26.335  27.040  1.00  0.00     0.037 A 
ATOM     56  C   UNL A   1      43.049  29.777  32.799  1.00  0.00     0.049 A 
ATOM     57  C   UNL A   1      44.372  26.789  28.118  1.00  0.00     0.074 A 
ATOM     58  C   UNL A   1      43.040  31.143  32.597  1.00  0.00     0.029 A 
ATOM     59  N   UNL A   1      44.179  29.317  32.174  1.00  0.00    -0.354 N 
ATOM     60  N   UNL A   1      44.962  27.949  28.137  1.00  0.00    -0.248 NA
ATOM     61  C   UNL A   1      44.327  26.084  29.387  1.00  0.00     0.031 C 
ATOM     62  C   UNL A   1      43.886  31.355  31.468  1.00  0.00     0.029 A 
ATOM     63  C   UNL A   1      44.398  30.114  31.085  1.00  0.00     0.049 A 
ATOM     64  H   UNL A   1      44.733  28.554  32.459  1.00  0.00     0.167 HD
ATOM     65  C   UNL A   1      44.959  28.313  29.472  1.00  0.00     0.074 A 
ATOM     66  C   UNL A   1      44.658  27.086  30.202  1.00  0.00     0.031 C 
ATOM     67  C   UNL A   1      44.928  29.627  29.835  1.00  0.00     0.037 A 
BRANCH  54  68
ATOM     68  C   UNL A   1      42.434  27.759  34.268  1.00  0.00     0.064 A 
ATOM     69  C   UNL A   1      43.093  26.581  33.854  1.00  0.00     0.173 A 
ATOM     70  C   UNL A   1      41.865  27.714  35.557  1.00  0.00     0.173 A 
ATOM     71  F   UNL A   1      43.666  26.506  32.642  1.00  0.00    -0.203 F 
ATOM     72  C   UNL A   1      43.087  25.418  34.628  1.00  0.00     0.198 A 
ATOM     73  C   UNL A   1      41.905  26.566  36.349  1.00  0.00     0.198 A 
ATOM     74  F   UNL A   1      41.150  28.730  36.053  1.00  0.00    -0.203 F 
ATOM     75  F   UNL A   1      43.602  24.285  34.131  1.00  0.00    -0.200 F 
ATOM     76  C   UNL A   1      42.483  25.409  35.870  1.00  0.00     0.200 A 
ATOM     77  F   UNL A   1      41.299  26.571  37.544  1.00  0.00    -0.200 F 
ATOM     78  F   UNL A   1      42.411  24.278  36.584  1.00  0.00    -0.200 F 
ENDBRANCH  54  68
BRANCH  55  79
ATOM     79  C   UNL A   1      43.723  25.073  26.299  1.00  0.00     0.064 A 
ATOM     80  C   UNL A   1      44.791  24.966  25.387  1.00  0.00     0.173 A 
ATOM     81  C   UNL A   1      43.136  23.863  26.712  1.00  0.00     0.173 A 
ATOM     82  F   UNL A   1      45.439  26.064  24.972  1.00  0.00    -0.203 F 
ATOM     83  C   UNL A   1      45.269  23.723  24.953  1.00  0.00     0.198 A 
ATOM     84  C   UNL A   1      43.611  22.624  26.274  1.00  0.00     0.198 A 
ATOM     85  F   UNL A   1      42.159  23.856  27.629  1.00  0.00    -0.203 F 
ATOM     86  F   UNL A   1      46.336  23.660  24.144  1.00  0.00    -0.200 F 
ATOM     87  C   UNL A   1      44.687  22.553  25.409  1.00  0.00     0.200 A 
ATOM     88  F   UNL A   1      43.065  21.497  26.754  1.00  0.00    -0.200 F 
ATOM     89  F   UNL A   1      45.189  21.362  25.053  1.00  0.00    -0.200 F 
ENDBRANCH  55  79
BRANCH  67  90
ATOM     90  C   UNL A   1      45.224  30.661  28.788  1.00  0.00     0.064 A 
ATOM     91  C   UNL A   1      44.265  31.193  27.911  1.00  0.00     0.173 A 
ATOM     92  C   UNL A   1      46.493  31.255  28.801  1.00  0.00     0.173 A 
ATOM     93  F   UNL A   1      43.006  30.736  27.900  1.00  0.00    -0.203 F 
ATOM     94  C   UNL A   1      44.574  32.265  27.074  1.00  0.00     0.198 A 
ATOM     95  C   UNL A   1      46.786  32.348  27.992  1.00  0.00     0.198 A 
ATOM     96  F   UNL A   1      47.432  30.814  29.652  1.00  0.00    -0.203 F 
ATOM     97  F   UNL A   1      43.642  32.766  26.249  1.00  0.00    -0.200 F 
ATOM     98  C   UNL A   1      45.830  32.850  27.126  1.00  0.00     0.200 A 
ATOM     99  F   UNL A   1      47.986  32.940  28.083  1.00  0.00    -0.200 F 
ATOM    100  F   UNL A   1      46.107  33.919  26.366  1.00  0.00    -0.200 F 
ENDBRANCH  67  90
ENDBRANCH  41  42
ENDBRANCH  33  36
ENDBRANCH  31  32
ENDBRANCH  30  31
ENDBRANCH   1  30
TORSDOF 15
ENDMDL
MODEL 2
REMARK VINA RESULT:     -13.2      3.101      8.872
REMARK SMILES CCn1c(C(=O)NCCCNC(=O)c2ccc(-c3c4nc(c(-c5c(F)c(F)c(F)c(F)c5F)c5ccc([nH]5)c(-c5c(F)c(F)c(F)c(F)c5F)c5nc(c(-c6c(F)c(F)c(F)c(F)c6F)c6ccc3[nH]6)C=C5)C=C4)cc2)c(CC(=O)Nc2ccccc2OC)c2ccccc21
REMARK SMILES IDX 8 1 7 2 5 3 6 4 4 6 3 7 95 8 77 9 90 10 94 11 91 12 93 13
REMARK SMILES IDX 92 14 2 15 1 16 78 17 79 18 80 19 81 20 82 22 83 23 87 24
REMARK SMILES IDX 84 25 86 26 85 27 88 28 89 29 9 30 10 31 11 32 12 33 13 35
REMARK SMILES IDX 14 36 15 37 76 38 16 39 75 40 17 41 18 42 19 43 69 44 20 45
REMARK SMILES IDX 74 46 68 47 70 48 21 49 73 50 67 51 66 52 22 54 54 55 34 56
REMARK SMILES IDX 53 57 35 58 38 59 52 60 71 61 36 62 37 63 51 65 72 66 39 67
REMARK SMILES IDX 23 68 24 69 32 70 25 71 26 72 30 73 33 74 27 75 28 76 31 77
REMARK SMILES IDX 29 78 55 79 56 80 64 81 57 82 58 83 62 84 65 85 59 86 60 87
REMARK SMILES IDX 63 88 61 89 40 90 41 91 49 92 42 93 43 94 47 95 50 96 44 97
REMARK SMILES IDX 45 98 48 99 46 100
REMARK H PARENT 7 5 81 21 11 34 70 53 38 64
REMARK Flexibility Score: inf
ROOT
ATOM      1  C   UNL A   1      37.569  22.275  25.448  1.00  0.00     0.118 C 
ENDROOT
BRANCH   1   2
ATOM      2  N   UNL A   1      36.979  22.278  24.132  1.00  0.00    -0.351 N 
ATOM      3  C   UNL A   1      35.772  22.772  23.668  1.00  0.00     0.268 C 
ATOM      4  O   UNL A   1      35.812  23.058  22.458  1.00  0.00    -0.268 OA
ATOM      5  H   UNL A   1      37.535  21.852  23.439  1.00  0.00     0.163 HD
BRANCH   3   6
ATOM      6  C   UNL A   1      34.499  22.870  24.416  1.00  0.00     0.111 A 
ATOM      7  N   UNL A   1      33.632  21.910  24.951  1.00  0.00    -0.337 N 
ATOM      8  C   UNL A   1      32.462  22.511  25.414  1.00  0.00     0.049 A 
ATOM      9  C   UNL A   1      33.925  24.116  24.795  1.00  0.00     0.000 A 
ATOM     10  C   UNL A   1      32.696  23.874  25.482  1.00  0.00     0.004 A 
ATOM     11  C   UNL A   1      31.233  21.956  25.824  1.00  0.00     0.027 A 
ATOM     12  C   UNL A   1      31.719  24.701  26.083  1.00  0.00     0.010 A 
ATOM     13  C   UNL A   1      30.262  22.799  26.367  1.00  0.00     0.002 A 
ATOM     14  C   UNL A   1      30.510  24.155  26.521  1.00  0.00     0.001 A 
BRANCH   7  15
ATOM     15  C   UNL A   1      33.790  20.473  25.116  1.00  0.00     0.119 C 
ATOM     16  C   UNL A   1      33.123  19.577  24.090  1.00  0.00     0.027 C 
ENDBRANCH   7  15
BRANCH   9  17
ATOM     17  C   UNL A   1      34.438  25.505  24.478  1.00  0.00     0.139 C 
BRANCH  17  18
ATOM     18  C   UNL A   1      33.775  26.179  23.273  1.00  0.00     0.229 C 
ATOM     19  O   UNL A   1      33.806  25.661  22.150  1.00  0.00    -0.274 OA
ATOM     20  N   UNL A   1      33.013  27.309  23.423  1.00  0.00    -0.323 N 
ATOM     21  H   UNL A   1      32.508  27.596  22.630  1.00  0.00     0.170 HD
BRANCH  20  22
ATOM     22  C   UNL A   1      32.865  28.104  24.565  1.00  0.00     0.083 A 
ATOM     23  C   UNL A   1      33.999  28.340  25.350  1.00  0.00     0.030 A 
ATOM     24  C   UNL A   1      31.646  28.694  24.932  1.00  0.00     0.142 A 
ATOM     25  C   UNL A   1      33.910  29.028  26.557  1.00  0.00     0.002 A 
ATOM     26  C   UNL A   1      31.561  29.355  26.166  1.00  0.00     0.048 A 
ATOM     27  C   UNL A   1      32.680  29.509  26.982  1.00  0.00     0.004 A 
BRANCH  24  28
ATOM     28  O   UNL A   1      30.445  28.623  24.281  1.00  0.00    -0.495 OA
ATOM     29  C   UNL A   1      29.968  29.806  23.658  1.00  0.00     0.278 C 
ENDBRANCH  24  28
ENDBRANCH  20  22
ENDBRANCH  17  18
ENDBRANCH   9  17
ENDBRANCH   3   6
ENDBRANCH   1   2
BRANCH   1  30
ATOM     30  C   UNL A   1      38.800  21.413  25.726  1.00  0.00     0.042 C 
BRANCH  30  31
ATOM     31  C   UNL A   1      39.870  21.969  26.660  1.00  0.00     0.118 C 
BRANCH  31  32
ATOM     32  N   UNL A   1      41.153  22.191  26.026  1.00  0.00    -0.352 N 
ATOM     33  C   UNL A   1      42.128  23.147  26.048  1.00  0.00     0.251 C 
ATOM     34  H   UNL A   1      41.386  21.454  25.417  1.00  0.00     0.163 HD
ATOM     35  O   UNL A   1      43.155  22.849  25.427  1.00  0.00    -0.269 OA
BRANCH  33  36
ATOM     36  C   UNL A   1      42.074  24.492  26.692  1.00  0.00     0.039 A 
ATOM     37  C   UNL A   1      42.578  24.838  27.943  1.00  0.00     0.014 A 
ATOM     38  C   UNL A   1      41.354  25.475  25.975  1.00  0.00     0.014 A 
ATOM     39  C   UNL A   1      42.298  26.106  28.482  1.00  0.00     0.010 A 
ATOM     40  C   UNL A   1      41.085  26.738  26.504  1.00  0.00     0.010 A 
ATOM     41  C   UNL A   1      41.517  27.050  27.784  1.00  0.00    -0.014 A 
BRANCH  41  42
ATOM     42  C   UNL A   1      41.280  28.376  28.382  1.00  0.00     0.031 A 
ATOM     43  C   UNL A   1      42.345  29.381  28.099  1.00  0.00     0.074 A 
ATOM     44  C   UNL A   1      40.182  28.777  29.067  1.00  0.00     0.049 A 
ATOM     45  N   UNL A   1      43.178  29.900  28.941  1.00  0.00    -0.248 NA
ATOM     46  C   UNL A   1      42.578  29.781  26.704  1.00  0.00     0.031 C 
ATOM     47  C   UNL A   1      38.902  28.085  29.240  1.00  0.00     0.029 A 
ATOM     48  N   UNL A   1      39.971  29.962  29.726  1.00  0.00    -0.354 N 
ATOM     49  C   UNL A   1      43.952  30.807  28.221  1.00  0.00     0.074 A 
ATOM     50  C   UNL A   1      43.616  30.611  26.833  1.00  0.00     0.031 C 
ATOM     51  C   UNL A   1      37.995  28.933  29.781  1.00  0.00     0.029 A 
ATOM     52  C   UNL A   1      38.658  30.175  30.140  1.00  0.00     0.049 A 
ATOM     53  H   UNL A   1      40.692  30.611  29.895  1.00  0.00     0.167 HD
ATOM     54  C   UNL A   1      44.679  31.772  28.850  1.00  0.00     0.037 A 
ATOM     55  C   UNL A   1      38.149  31.289  30.728  1.00  0.00     0.037 A 
ATOM     56  C   UNL A   1      44.852  31.468  30.247  1.00  0.00     0.049 A 
ATOM     57  C   UNL A   1      39.278  32.014  31.354  1.00  0.00     0.074 A 
ATOM     58  C   UNL A   1      45.459  30.454  30.960  1.00  0.00     0.029 A 
ATOM     59  N   UNL A   1      44.056  32.129  31.147  1.00  0.00    -0.354 N 
ATOM     60  N   UNL A   1      39.939  31.585  32.389  1.00  0.00    -0.248 NA
ATOM     61  C   UNL A   1      39.925  33.060  30.582  1.00  0.00     0.031 C 
ATOM     62  C   UNL A   1      44.633  30.263  32.107  1.00  0.00     0.029 A 
ATOM     63  C   UNL A   1      43.605  31.206  32.049  1.00  0.00     0.049 A 
ATOM     64  H   UNL A   1      43.848  33.092  31.144  1.00  0.00     0.167 HD
ATOM     65  C   UNL A   1      41.246  31.971  32.146  1.00  0.00     0.074 A 
ATOM     66  C   UNL A   1      41.158  32.964  31.081  1.00  0.00     0.031 C 
ATOM     67  C   UNL A   1      42.290  31.245  32.639  1.00  0.00     0.037 A 
BRANCH  54  68
ATOM     68  C   UNL A   1      44.932  33.161  28.313  1.00  0.00     0.064 A 
ATOM     69  C   UNL A   1      46.263  33.590  28.120  1.00  0.00     0.173 A 
ATOM     70  C   UNL A   1      43.959  34.180  28.301  1.00  0.00     0.173 A 
ATOM     71  F   UNL A   1      47.275  32.707  28.120  1.00  0.00    -0.203 F 
ATOM     72  C   UNL A   1      46.599  34.943  28.030  1.00  0.00     0.198 A 
ATOM     73  C   UNL A   1      44.293  35.527  28.160  1.00  0.00     0.198 A 
ATOM     74  F   UNL A   1      42.666  33.931  28.542  1.00  0.00    -0.203 F 
ATOM     75  F   UNL A   1      47.888  35.308  27.991  1.00  0.00    -0.200 F 
ATOM     76  C   UNL A   1      45.614  35.911  28.062  1.00  0.00     0.200 A 
ATOM     77  F   UNL A   1      43.325  36.454  28.211  1.00  0.00    -0.200 F 
ATOM     78  F   UNL A   1      45.936  37.212  28.050  1.00  0.00    -0.200 F 
ENDBRANCH  54  68
BRANCH  55  79
ATOM     79  C   UNL A   1      36.819  31.931  30.564  1.00  0.00     0.064 A 
ATOM     80  C   UNL A   1      35.893  31.976  31.624  1.00  0.00     0.173 A 
ATOM     81  C   UNL A   1      36.566  32.792  29.481  1.00  0.00     0.173 A 
ATOM     82  F   UNL A   1      36.078  31.221  32.716  1.00  0.00    -0.203 F 
ATOM     83  C   UNL A   1      34.806  32.859  31.617  1.00  0.00     0.198 A 
ATOM     84  C   UNL A   1      35.478  33.671  29.474  1.00  0.00     0.198 A 
ATOM     85  F   UNL A   1      37.426  32.874  28.456  1.00  0.00    -0.203 F 
ATOM     86  F   UNL A   1      33.989  32.926  32.678  1.00  0.00    -0.200 F 
ATOM     87  C   UNL A   1      34.610  33.716  30.548  1.00  0.00     0.200 A 
ATOM     88  F   UNL A   1      35.321  34.524  28.452  1.00  0.00    -0.200 F 
ATOM     89  F   UNL A   1      33.615  34.615  30.573  1.00  0.00    -0.200 F 
ENDBRANCH  55  79
BRANCH  67  90
ATOM     90  C   UNL A   1      42.006  30.228  33.706  1.00  0.00     0.064 A 
ATOM     91  C   UNL A   1      41.615  28.903  33.449  1.00  0.00     0.173 A 
ATOM     92  C   UNL A   1      42.318  30.569  35.029  1.00  0.00     0.173 A 
ATOM     93  F   UNL A   1      41.383  28.478  32.201  1.00  0.00    -0.203 F 
ATOM     94  C   UNL A   1      41.526  27.969  34.481  1.00  0.00     0.198 A 
ATOM     95  C   UNL A   1      42.263  29.625  36.049  1.00  0.00     0.198 A 
ATOM     96  F   UNL A   1      42.740  31.809  35.321  1.00  0.00    -0.203 F 
ATOM     97  F   UNL A   1      41.158  26.706  34.216  1.00  0.00    -0.200 F 
ATOM     98  C   UNL A   1      41.864  28.328  35.777  1.00  0.00     0.200 A 
ATOM     99  F   UNL A   1      42.639  29.965  37.291  1.00  0.00    -0.200 F 
ATOM    100  F   UNL A   1      41.838  27.413  36.757  1.00  0.00    -0.200 F 
ENDBRANCH  67  90
ENDBRANCH  41  42
ENDBRANCH  33  36
ENDBRANCH  31  32
ENDBRANCH  30  31
ENDBRANCH   1  30
TORSDOF 15
ENDMDL
MODEL 3
REMARK VINA RESULT:     -12.9      3.135      8.785
REMARK SMILES CCn1c(C(=O)NCCCNC(=O)c2ccc(-c3c4nc(c(-c5c(F)c(F)c(F)c(F)c5F)c5ccc([nH]5)c(-c5c(F)c(F)c(F)c(F)c5F)c5nc(c(-c6c(F)c(F)c(F)c(F)c6F)c6ccc3[nH]6)C=C5)C=C4)cc2)c(CC(=O)Nc2ccccc2OC)c2ccccc21
REMARK SMILES IDX 8 1 7 2 5 3 6 4 4 6 3 7 95 8 77 9 90 10 94 11 91 12 93 13
REMARK SMILES IDX 92 14 2 15 1 16 78 17 79 18 80 19 81 20 82 22 83 23 87 24
REMARK SMILES IDX 84 25 86 26 85 27 88 28 89 29 9 30 10 31 11 32 12 33 13 35
REMARK SMILES IDX 14 36 15 37 76 38 16 39 75 40 17 41 18 42 19 43 69 44 20 45
REMARK SMILES IDX 74 46 68 47 70 48 21 49 73 50 67 51 66 52 22 54 54 55 34 56
REMARK SMILES IDX 53 57 35 58 38 59 52 60 71 61 36 62 37 63 51 65 72 66 39 67
REMARK SMILES IDX 23 68 24 69 32 70 25 71 26 72 30 73 33 74 27 75 28 76 31 77
REMARK SMILES IDX 29 78 55 79 56 80 64 81 57 82 58 83 62 84 65 85 59 86 60 87
REMARK SMILES IDX 63 88 61 89 40 90 41 91 49 92 42 93 43 94 47 95 50 96 44 97
REMARK SMILES IDX 45 98 48 99 46 100
REMARK H PARENT 7 5 81 21 11 34 70 53 38 64
REMARK Flexibility Score: inf
ROOT
ATOM      1  C   UNL A   1      36.535  22.974  24.020  1.00  0.00     0.118 C 
ENDROOT
BRANCH   1   2
ATOM      2  N   UNL A   1      35.591  22.673  22.972  1.00  0.00    -0.351 N 
ATOM      3  C   UNL A   1      34.321  23.159  22.711  1.00  0.00     0.268 C 
ATOM      4  O   UNL A   1      34.021  23.079  21.507  1.00  0.00    -0.268 OA
ATOM      5  H   UNL A   1      35.906  22.001  22.324  1.00  0.00     0.163 HD
BRANCH   3   6
ATOM      6  C   UNL A   1      33.323  23.624  23.700  1.00  0.00     0.111 A 
ATOM      7  N   UNL A   1      32.439  22.951  24.550  1.00  0.00    -0.337 N 
ATOM      8  C   UNL A   1      31.569  23.852  25.165  1.00  0.00     0.049 A 
ATOM      9  C   UNL A   1      33.129  25.000  24.005  1.00  0.00     0.000 A 
ATOM     10  C   UNL A   1      32.087  25.122  24.975  1.00  0.00     0.004 A 
ATOM     11  C   UNL A   1      30.394  23.643  25.916  1.00  0.00     0.027 A 
ATOM     12  C   UNL A   1      31.482  26.208  25.647  1.00  0.00     0.010 A 
ATOM     13  C   UNL A   1      29.783  24.738  26.528  1.00  0.00     0.002 A 
ATOM     14  C   UNL A   1      30.334  26.006  26.418  1.00  0.00     0.001 A 
BRANCH   7  15
ATOM     15  C   UNL A   1      32.334  21.540  24.889  1.00  0.00     0.119 C 
ATOM     16  C   UNL A   1      33.347  20.982  25.871  1.00  0.00     0.027 C 
ENDBRANCH   7  15
BRANCH   9  17
ATOM     17  C   UNL A   1      33.820  26.193  23.378  1.00  0.00     0.139 C 
BRANCH  17  18
ATOM     18  C   UNL A   1      33.161  26.725  22.103  1.00  0.00     0.229 C 
ATOM     19  O   UNL A   1      33.283  26.135  21.022  1.00  0.00    -0.274 OA
ATOM     20  N   UNL A   1      32.305  27.797  22.141  1.00  0.00    -0.323 N 
ATOM     21  H   UNL A   1      31.815  27.985  21.309  1.00  0.00     0.170 HD
BRANCH  20  22
ATOM     22  C   UNL A   1      32.043  28.654  23.215  1.00  0.00     0.083 A 
ATOM     23  C   UNL A   1      33.099  28.964  24.077  1.00  0.00     0.030 A 
ATOM     24  C   UNL A   1      30.786  29.234  23.439  1.00  0.00     0.142 A 
ATOM     25  C   UNL A   1      32.893  29.719  25.229  1.00  0.00     0.002 A 
ATOM     26  C   UNL A   1      30.581  29.965  24.619  1.00  0.00     0.048 A 
ATOM     27  C   UNL A   1      31.622  30.194  25.517  1.00  0.00     0.004 A 
BRANCH  24  28
ATOM     28  O   UNL A   1      29.647  29.095  22.694  1.00  0.00    -0.495 OA
ATOM     29  C   UNL A   1      29.397  30.072  21.695  1.00  0.00     0.278 C 
ENDBRANCH  24  28
ENDBRANCH  20  22
ENDBRANCH  17  18
ENDBRANCH   9  17
ENDBRANCH   3   6
ENDBRANCH   1   2
BRANCH   1  30
ATOM     30  C   UNL A   1      37.485  21.887  24.520  1.00  0.00     0.042 C 
BRANCH  30  31
ATOM     31  C   UNL A   1      38.053  22.023  25.929  1.00  0.00     0.118 C 
BRANCH  31  32
ATOM     32  N   UNL A   1      39.498  21.953  25.996  1.00  0.00    -0.352 N 
ATOM     33  C   UNL A   1      40.513  22.698  26.526  1.00  0.00     0.251 C 
ATOM     34  H   UNL A   1      39.841  21.152  25.538  1.00  0.00     0.163 HD
ATOM     35  O   UNL A   1      41.629  22.171  26.456  1.00  0.00    -0.269 OA
BRANCH  33  36
ATOM     36  C   UNL A   1      40.427  24.061  27.128  1.00  0.00     0.039 A 
ATOM     37  C   UNL A   1      39.471  25.035  26.851  1.00  0.00     0.014 A 
ATOM     38  C   UNL A   1      41.485  24.403  27.999  1.00  0.00     0.014 A 
ATOM     39  C   UNL A   1      39.624  26.332  27.373  1.00  0.00     0.010 A 
ATOM     40  C   UNL A   1      41.633  25.686  28.528  1.00  0.00     0.010 A 
ATOM     41  C   UNL A   1      40.725  26.677  28.183  1.00  0.00    -0.014 A 
BRANCH  41  42
ATOM     42  C   UNL A   1      40.820  28.042  28.730  1.00  0.00     0.031 A 
ATOM     43  C   UNL A   1      42.025  28.802  28.288  1.00  0.00     0.074 A 
ATOM     44  C   UNL A   1      39.905  28.678  29.499  1.00  0.00     0.049 A 
ATOM     45  N   UNL A   1      43.031  29.170  29.012  1.00  0.00    -0.248 NA
ATOM     46  C   UNL A   1      42.177  29.102  26.857  1.00  0.00     0.031 C 
ATOM     47  C   UNL A   1      38.541  28.264  29.838  1.00  0.00     0.029 A 
ATOM     48  N   UNL A   1      40.004  29.902  30.113  1.00  0.00    -0.354 N 
ATOM     49  C   UNL A   1      43.884  29.879  28.169  1.00  0.00     0.074 A 
ATOM     50  C   UNL A   1      43.366  29.710  26.836  1.00  0.00     0.031 C 
ATOM     51  C   UNL A   1      37.882  29.294  30.422  1.00  0.00     0.029 A 
ATOM     52  C   UNL A   1      38.812  30.388  30.644  1.00  0.00     0.049 A 
ATOM     53  H   UNL A   1      40.854  30.398  30.172  1.00  0.00     0.167 HD
ATOM     54  C   UNL A   1      44.852  30.697  28.670  1.00  0.00     0.037 A 
ATOM     55  C   UNL A   1      38.601  31.600  31.220  1.00  0.00     0.037 A 
ATOM     56  C   UNL A   1      45.114  30.410  30.056  1.00  0.00     0.049 A 
ATOM     57  C   UNL A   1      39.911  32.104  31.689  1.00  0.00     0.074 A 
ATOM     58  C   UNL A   1      45.583  29.318  30.758  1.00  0.00     0.029 A 
ATOM     59  N   UNL A   1      44.567  31.247  30.995  1.00  0.00    -0.354 N 
ATOM     60  N   UNL A   1      40.585  31.584  32.674  1.00  0.00    -0.248 NA
ATOM     61  C   UNL A   1      40.664  32.972  30.800  1.00  0.00     0.031 C 
ATOM     62  C   UNL A   1      44.867  29.335  31.991  1.00  0.00     0.029 A 
ATOM     63  C   UNL A   1      44.044  30.463  31.986  1.00  0.00     0.049 A 
ATOM     64  H   UNL A   1      44.553  32.231  30.961  1.00  0.00     0.167 HD
ATOM     65  C   UNL A   1      41.907  31.691  32.279  1.00  0.00     0.074 A 
ATOM     66  C   UNL A   1      41.901  32.646  31.177  1.00  0.00     0.031 C 
ATOM     67  C   UNL A   1      42.835  30.786  32.703  1.00  0.00     0.037 A 
BRANCH  54  68
ATOM     68  C   UNL A   1      45.313  31.989  28.036  1.00  0.00     0.064 A 
ATOM     69  C   UNL A   1      44.352  32.967  27.698  1.00  0.00     0.173 A 
ATOM     70  C   UNL A   1      46.584  32.161  27.454  1.00  0.00     0.173 A 
ATOM     71  F   UNL A   1      43.104  32.901  28.188  1.00  0.00    -0.203 F 
ATOM     72  C   UNL A   1      44.617  33.974  26.767  1.00  0.00     0.198 A 
ATOM     73  C   UNL A   1      46.860  33.198  26.562  1.00  0.00     0.198 A 
ATOM     74  F   UNL A   1      47.571  31.274  27.627  1.00  0.00    -0.203 F 
ATOM     75  F   UNL A   1      43.632  34.792  26.371  1.00  0.00    -0.200 F 
ATOM     76  C   UNL A   1      45.868  34.081  26.190  1.00  0.00     0.200 A 
ATOM     77  F   UNL A   1      48.075  33.276  26.000  1.00  0.00    -0.200 F 
ATOM     78  F   UNL A   1      46.106  34.998  25.243  1.00  0.00    -0.200 F 
ENDBRANCH  54  68
BRANCH  55  79
ATOM     79  C   UNL A   1      37.413  32.492  31.157  1.00  0.00     0.064 A 
ATOM     80  C   UNL A   1      37.087  33.194  29.981  1.00  0.00     0.173 A 
ATOM     81  C   UNL A   1      36.405  32.416  32.135  1.00  0.00     0.173 A 
ATOM     82  F   UNL A   1      37.972  33.282  28.978  1.00  0.00    -0.203 F 
ATOM     83  C   UNL A   1      35.816  33.745  29.779  1.00  0.00     0.198 A 
ATOM     84  C   UNL A   1      35.137  32.970  31.933  1.00  0.00     0.198 A 
ATOM     85  F   UNL A   1      36.594  31.711  33.259  1.00  0.00    -0.203 F 
ATOM     86  F   UNL A   1      35.520  34.341  28.615  1.00  0.00    -0.200 F 
ATOM     87  C   UNL A   1      34.838  33.619  30.750  1.00  0.00     0.200 A 
ATOM     88  F   UNL A   1      34.186  32.806  32.864  1.00  0.00    -0.200 F 
ATOM     89  F   UNL A   1      33.598  34.080  30.529  1.00  0.00    -0.200 F 
ENDBRANCH  55  79
BRANCH  67  90
ATOM     90  C   UNL A   1      42.476  29.882  33.846  1.00  0.00     0.064 A 
ATOM     91  C   UNL A   1      41.784  28.668  33.705  1.00  0.00     0.173 A 
ATOM     92  C   UNL A   1      43.013  30.181  35.105  1.00  0.00     0.173 A 
ATOM     93  F   UNL A   1      41.315  28.272  32.514  1.00  0.00    -0.203 F 
ATOM     94  C   UNL A   1      41.626  27.801  34.786  1.00  0.00     0.198 A 
ATOM     95  C   UNL A   1      42.886  29.297  36.172  1.00  0.00     0.198 A 
ATOM     96  F   UNL A   1      43.722  31.306  35.283  1.00  0.00    -0.203 F 
ATOM     97  F   UNL A   1      40.969  26.642  34.630  1.00  0.00    -0.200 F 
ATOM     98  C   UNL A   1      42.190  28.111  36.015  1.00  0.00     0.200 A 
ATOM     99  F   UNL A   1      43.475  29.579  37.343  1.00  0.00    -0.200 F 
ATOM    100  F   UNL A   1      42.091  27.249  37.037  1.00  0.00    -0.200 F 
ENDBRANCH  67  90
ENDBRANCH  41  42
ENDBRANCH  33  36
ENDBRANCH  31  32
ENDBRANCH  30  31
ENDBRANCH   1  30
TORSDOF 15
ENDMDL
