MODEL 1
REMARK VINA RESULT:     -11.7      0.000      0.000
REMARK SMILES CC[C@@H](C)[C@H](C(=O)NCCCNC(=O)c1ccc(-c2c3nc(c(-c4c(F)c(F)c(F)c(F)c4F)c4ccc([nH]4)c(-c4c(F)c(F)c(F)c(F)c4F)c4nc(c(-c5c(F)c(F)c(F)c(F)c5F)c5ccc2[nH]5)C=C4)C=C3)cc1)S(=O)(=O)c1cccc(OC)c1
REMARK SMILES IDX 9 1 8 2 6 3 7 4 5 6 3 7 4 8 2 9 1 10 78 11 79 12 80 13 81 14
REMARK SMILES IDX 82 15 88 16 83 17 85 18 84 19 86 20 87 21 10 22 11 23 12 24
REMARK SMILES IDX 13 25 14 27 15 28 16 29 77 30 17 31 76 32 18 33 19 34 20 35
REMARK SMILES IDX 70 36 21 37 75 38 69 39 71 40 22 41 74 42 68 43 67 44 23 46
REMARK SMILES IDX 55 47 35 48 54 49 36 50 39 51 53 52 72 53 37 54 38 55 52 57
REMARK SMILES IDX 73 58 40 59 24 60 25 61 33 62 26 63 27 64 31 65 34 66 28 67
REMARK SMILES IDX 29 68 32 69 30 70 56 71 57 72 65 73 58 74 59 75 63 76 66 77
REMARK SMILES IDX 60 78 61 79 64 80 62 81 41 82 42 83 50 84 43 85 44 86 48 87
REMARK SMILES IDX 51 88 45 89 46 90 49 91 47 92
REMARK H PARENT 8 5 12 26 71 45 39 56
REMARK Flexibility Score: inf
ROOT
ATOM      1  C   UNL A   1      31.526  30.649  26.404  1.00  0.00     0.117 C 
ENDROOT
BRANCH   1   2
ATOM      2  N   UNL A   1      32.340  30.241  25.268  1.00  0.00    -0.355 N 
ATOM      3  C   UNL A   1      32.385  29.045  24.599  1.00  0.00     0.239 C 
ATOM      4  O   UNL A   1      33.086  29.009  23.591  1.00  0.00    -0.274 OA
ATOM      5  H   UNL A   1      32.952  30.931  24.926  1.00  0.00     0.163 HD
BRANCH   3   6
ATOM      6  C   UNL A   1      31.525  27.894  25.078  1.00  0.00     0.205 C 
BRANCH   6   7
ATOM      7  C   UNL A   1      30.858  27.180  23.868  1.00  0.00     0.014 C 
ATOM      8  C   UNL A   1      30.103  28.141  22.947  1.00  0.00     0.009 C 
BRANCH   7   9
ATOM      9  C   UNL A   1      30.029  25.938  24.221  1.00  0.00     0.002 C 
ATOM     10  C   UNL A   1      30.386  24.709  23.397  1.00  0.00     0.004 C 
ENDBRANCH   7   9
ENDBRANCH   6   7
BRANCH   6  11
ATOM     11  S   UNL A   1      32.377  26.922  26.308  1.00  0.00     0.190 S 
ATOM     12  O   UNL A   1      33.462  27.722  26.851  1.00  0.00    -0.223 OA
ATOM     13  O   UNL A   1      31.378  26.423  27.239  1.00  0.00    -0.223 OA
BRANCH  11  14
ATOM     14  C   UNL A   1      33.104  25.486  25.551  1.00  0.00     0.071 A 
ATOM     15  C   UNL A   1      33.950  25.619  24.448  1.00  0.00     0.020 A 
ATOM     16  C   UNL A   1      32.866  24.224  26.106  1.00  0.00     0.066 A 
ATOM     17  C   UNL A   1      34.472  24.477  23.836  1.00  0.00     0.005 A 
ATOM     18  C   UNL A   1      33.318  23.088  25.439  1.00  0.00     0.120 A 
ATOM     19  C   UNL A   1      34.139  23.211  24.321  1.00  0.00     0.046 A 
BRANCH  18  20
ATOM     20  O   UNL A   1      33.008  21.822  25.859  1.00  0.00    -0.497 OA
ATOM     21  C   UNL A   1      32.182  21.132  24.918  1.00  0.00     0.278 C 
ENDBRANCH  18  20
ENDBRANCH  11  14
ENDBRANCH   6  11
ENDBRANCH   3   6
ENDBRANCH   1   2
BRANCH   1  22
ATOM     22  C   UNL A   1      31.410  32.158  26.530  1.00  0.00     0.042 C 
BRANCH  22  23
ATOM     23  C   UNL A   1      32.545  32.811  27.306  1.00  0.00     0.118 C 
BRANCH  23  24
ATOM     24  N   UNL A   1      32.294  34.210  27.625  1.00  0.00    -0.352 N 
ATOM     25  C   UNL A   1      32.918  35.029  28.536  1.00  0.00     0.251 C 
ATOM     26  H   UNL A   1      31.570  34.633  27.110  1.00  0.00     0.163 HD
ATOM     27  O   UNL A   1      32.468  36.148  28.759  1.00  0.00    -0.269 OA
BRANCH  25  28
ATOM     28  C   UNL A   1      34.109  34.553  29.279  1.00  0.00     0.039 A 
ATOM     29  C   UNL A   1      33.934  34.009  30.554  1.00  0.00     0.014 A 
ATOM     30  C   UNL A   1      35.388  34.632  28.725  1.00  0.00     0.014 A 
ATOM     31  C   UNL A   1      35.030  33.470  31.236  1.00  0.00     0.010 A 
ATOM     32  C   UNL A   1      36.460  34.014  29.363  1.00  0.00     0.010 A 
ATOM     33  C   UNL A   1      36.294  33.427  30.626  1.00  0.00    -0.014 A 
BRANCH  33  34
ATOM     34  C   UNL A   1      37.452  32.770  31.287  1.00  0.00     0.031 A 
ATOM     35  C   UNL A   1      38.128  31.594  30.635  1.00  0.00     0.074 A 
ATOM     36  C   UNL A   1      37.846  33.180  32.510  1.00  0.00     0.049 A 
ATOM     37  N   UNL A   1      39.093  30.836  31.092  1.00  0.00    -0.248 NA
ATOM     38  C   UNL A   1      37.633  31.196  29.308  1.00  0.00     0.031 C 
ATOM     39  C   UNL A   1      37.233  34.268  33.276  1.00  0.00     0.029 A 
ATOM     40  N   UNL A   1      38.842  32.717  33.333  1.00  0.00    -0.354 N 
ATOM     41  C   UNL A   1      39.298  29.860  30.125  1.00  0.00     0.074 A 
ATOM     42  C   UNL A   1      38.331  30.094  29.075  1.00  0.00     0.031 C 
ATOM     43  C   UNL A   1      37.874  34.395  34.449  1.00  0.00     0.029 A 
ATOM     44  C   UNL A   1      38.916  33.377  34.537  1.00  0.00     0.049 A 
ATOM     45  H   UNL A   1      39.446  31.979  33.086  1.00  0.00     0.167 HD
ATOM     46  C   UNL A   1      40.223  28.872  30.105  1.00  0.00     0.037 A 
ATOM     47  C   UNL A   1      39.724  33.177  35.596  1.00  0.00     0.037 A 
ATOM     48  C   UNL A   1      41.216  28.671  31.128  1.00  0.00     0.049 A 
ATOM     49  C   UNL A   1      40.760  32.087  35.533  1.00  0.00     0.074 A 
ATOM     50  C   UNL A   1      42.257  27.760  31.150  1.00  0.00     0.029 A 
ATOM     51  N   UNL A   1      41.287  29.390  32.311  1.00  0.00    -0.354 N 
ATOM     52  N   UNL A   1      41.007  31.233  34.570  1.00  0.00    -0.248 NA
ATOM     53  C   UNL A   1      41.640  31.940  36.702  1.00  0.00     0.031 C 
ATOM     54  C   UNL A   1      42.929  27.892  32.369  1.00  0.00     0.029 A 
ATOM     55  C   UNL A   1      42.340  28.923  33.083  1.00  0.00     0.049 A 
ATOM     56  H   UNL A   1      40.682  30.123  32.566  1.00  0.00     0.167 HD
ATOM     57  C   UNL A   1      42.083  30.469  35.002  1.00  0.00     0.074 A 
ATOM     58  C   UNL A   1      42.455  30.972  36.307  1.00  0.00     0.031 C 
ATOM     59  C   UNL A   1      42.706  29.442  34.375  1.00  0.00     0.037 A 
BRANCH  46  60
ATOM     60  C   UNL A   1      40.218  27.927  28.939  1.00  0.00     0.064 A 
ATOM     61  C   UNL A   1      40.937  28.198  27.765  1.00  0.00     0.173 A 
ATOM     62  C   UNL A   1      39.539  26.701  29.025  1.00  0.00     0.173 A 
ATOM     63  F   UNL A   1      41.593  29.359  27.629  1.00  0.00    -0.203 F 
ATOM     64  C   UNL A   1      40.957  27.287  26.712  1.00  0.00     0.198 A 
ATOM     65  C   UNL A   1      39.588  25.780  27.982  1.00  0.00     0.198 A 
ATOM     66  F   UNL A   1      38.842  26.390  30.128  1.00  0.00    -0.203 F 
ATOM     67  F   UNL A   1      41.619  27.585  25.584  1.00  0.00    -0.200 F 
ATOM     68  C   UNL A   1      40.292  26.075  26.825  1.00  0.00     0.200 A 
ATOM     69  F   UNL A   1      38.956  24.605  28.099  1.00  0.00    -0.200 F 
ATOM     70  F   UNL A   1      40.327  25.193  25.817  1.00  0.00    -0.200 F 
ENDBRANCH  46  60
BRANCH  47  71
ATOM     71  C   UNL A   1      39.594  34.029  36.808  1.00  0.00     0.064 A 
ATOM     72  C   UNL A   1      40.249  35.266  36.896  1.00  0.00     0.173 A 
ATOM     73  C   UNL A   1      38.836  33.614  37.913  1.00  0.00     0.173 A 
ATOM     74  F   UNL A   1      41.002  35.697  35.874  1.00  0.00    -0.203 F 
ATOM     75  C   UNL A   1      40.177  36.039  38.052  1.00  0.00     0.198 A 
ATOM     76  C   UNL A   1      38.738  34.403  39.057  1.00  0.00     0.198 A 
ATOM     77  F   UNL A   1      38.184  32.443  37.879  1.00  0.00    -0.203 F 
ATOM     78  F   UNL A   1      40.861  37.188  38.129  1.00  0.00    -0.200 F 
ATOM     79  C   UNL A   1      39.419  35.609  39.131  1.00  0.00     0.200 A 
ATOM     80  F   UNL A   1      37.992  33.991  40.091  1.00  0.00    -0.200 F 
ATOM     81  F   UNL A   1      39.351  36.352  40.243  1.00  0.00    -0.200 F 
ENDBRANCH  47  71
BRANCH  59  82
ATOM     82  C   UNL A   1      43.881  28.818  35.072  1.00  0.00     0.064 A 
ATOM     83  C   UNL A   1      43.730  27.719  35.928  1.00  0.00     0.173 A 
ATOM     84  C   UNL A   1      45.178  29.303  34.847  1.00  0.00     0.173 A 
ATOM     85  F   UNL A   1      42.510  27.226  36.189  1.00  0.00    -0.203 F 
ATOM     86  C   UNL A   1      44.833  27.144  36.556  1.00  0.00     0.198 A 
ATOM     87  C   UNL A   1      46.281  28.707  35.449  1.00  0.00     0.198 A 
ATOM     88  F   UNL A   1      45.376  30.350  34.029  1.00  0.00    -0.203 F 
ATOM     89  F   UNL A   1      44.661  26.125  37.409  1.00  0.00    -0.200 F 
ATOM     90  C   UNL A   1      46.107  27.634  36.309  1.00  0.00     0.200 A 
ATOM     91  F   UNL A   1      47.513  29.172  35.197  1.00  0.00    -0.200 F 
ATOM     92  F   UNL A   1      47.168  27.075  36.907  1.00  0.00    -0.200 F 
ENDBRANCH  59  82
ENDBRANCH  33  34
ENDBRANCH  25  28
ENDBRANCH  23  24
ENDBRANCH  22  23
ENDBRANCH   1  22
TORSDOF 15
ENDMDL
MODEL 2
REMARK VINA RESULT:     -11.6      5.752     11.010
REMARK SMILES CC[C@@H](C)[C@H](C(=O)NCCCNC(=O)c1ccc(-c2c3nc(c(-c4c(F)c(F)c(F)c(F)c4F)c4ccc([nH]4)c(-c4c(F)c(F)c(F)c(F)c4F)c4nc(c(-c5c(F)c(F)c(F)c(F)c5F)c5ccc2[nH]5)C=C4)C=C3)cc1)S(=O)(=O)c1cccc(OC)c1
REMARK SMILES IDX 9 1 8 2 6 3 7 4 5 6 3 7 4 8 2 9 1 10 78 11 79 12 80 13 81 14
REMARK SMILES IDX 82 15 88 16 83 17 85 18 84 19 86 20 87 21 10 22 11 23 12 24
REMARK SMILES IDX 13 25 14 27 15 28 16 29 77 30 17 31 76 32 18 33 19 34 20 35
REMARK SMILES IDX 70 36 21 37 75 38 69 39 71 40 22 41 74 42 68 43 67 44 23 46
REMARK SMILES IDX 55 47 35 48 54 49 36 50 39 51 53 52 72 53 37 54 38 55 52 57
REMARK SMILES IDX 73 58 40 59 24 60 25 61 33 62 26 63 27 64 31 65 34 66 28 67
REMARK SMILES IDX 29 68 32 69 30 70 56 71 57 72 65 73 58 74 59 75 63 76 66 77
REMARK SMILES IDX 60 78 61 79 64 80 62 81 41 82 42 83 50 84 43 85 44 86 48 87
REMARK SMILES IDX 51 88 45 89 46 90 49 91 47 92
REMARK H PARENT 8 5 12 26 71 45 39 56
REMARK Flexibility Score: inf
ROOT
ATOM      1  C   UNL A   1      36.692  20.905  24.814  1.00  0.00     0.117 C 
ENDROOT
BRANCH   1   2
ATOM      2  N   UNL A   1      35.522  20.347  25.476  1.00  0.00    -0.355 N 
ATOM      3  C   UNL A   1      34.231  20.808  25.524  1.00  0.00     0.239 C 
ATOM      4  O   UNL A   1      33.409  20.072  26.062  1.00  0.00    -0.274 OA
ATOM      5  H   UNL A   1      35.682  19.509  25.966  1.00  0.00     0.163 HD
BRANCH   3   6
ATOM      6  C   UNL A   1      33.886  22.120  24.852  1.00  0.00     0.205 C 
BRANCH   6   7
ATOM      7  C   UNL A   1      32.508  22.013  24.138  1.00  0.00     0.014 C 
ATOM      8  C   UNL A   1      32.614  22.104  22.614  1.00  0.00     0.009 C 
BRANCH   7   9
ATOM      9  C   UNL A   1      31.411  22.926  24.702  1.00  0.00     0.002 C 
ATOM     10  C   UNL A   1      30.706  23.762  23.643  1.00  0.00     0.004 C 
ENDBRANCH   7   9
ENDBRANCH   6   7
BRANCH   6  11
ATOM     11  S   UNL A   1      34.208  23.501  25.933  1.00  0.00     0.190 S 
ATOM     12  O   UNL A   1      33.285  23.429  27.053  1.00  0.00    -0.223 OA
ATOM     13  O   UNL A   1      35.631  23.499  26.233  1.00  0.00    -0.223 OA
BRANCH  11  14
ATOM     14  C   UNL A   1      33.889  25.028  25.079  1.00  0.00     0.071 A 
ATOM     15  C   UNL A   1      33.483  26.164  25.785  1.00  0.00     0.020 A 
ATOM     16  C   UNL A   1      34.104  25.100  23.699  1.00  0.00     0.066 A 
ATOM     17  C   UNL A   1      33.190  27.340  25.091  1.00  0.00     0.005 A 
ATOM     18  C   UNL A   1      33.726  26.247  23.006  1.00  0.00     0.120 A 
ATOM     19  C   UNL A   1      33.292  27.375  23.700  1.00  0.00     0.046 A 
BRANCH  18  20
ATOM     20  O   UNL A   1      33.789  26.332  21.641  1.00  0.00    -0.497 OA
ATOM     21  C   UNL A   1      32.706  25.644  21.011  1.00  0.00     0.278 C 
ENDBRANCH  18  20
ENDBRANCH  11  14
ENDBRANCH   6  11
ENDBRANCH   3   6
ENDBRANCH   1   2
BRANCH   1  22
ATOM     22  C   UNL A   1      37.852  19.927  24.749  1.00  0.00     0.042 C 
BRANCH  22  23
ATOM     23  C   UNL A   1      39.002  20.256  25.690  1.00  0.00     0.118 C 
BRANCH  23  24
ATOM     24  N   UNL A   1      39.969  19.175  25.817  1.00  0.00    -0.352 N 
ATOM     25  C   UNL A   1      41.318  19.228  26.080  1.00  0.00     0.251 C 
ATOM     26  H   UNL A   1      39.602  18.269  25.697  1.00  0.00     0.163 HD
ATOM     27  O   UNL A   1      41.994  18.207  26.010  1.00  0.00    -0.269 OA
BRANCH  25  28
ATOM     28  C   UNL A   1      41.965  20.519  26.410  1.00  0.00     0.039 A 
ATOM     29  C   UNL A   1      42.363  21.359  25.367  1.00  0.00     0.014 A 
ATOM     30  C   UNL A   1      42.175  20.906  27.735  1.00  0.00     0.014 A 
ATOM     31  C   UNL A   1      42.892  22.621  25.655  1.00  0.00     0.010 A 
ATOM     32  C   UNL A   1      42.615  22.196  28.020  1.00  0.00     0.010 A 
ATOM     33  C   UNL A   1      42.981  23.068  26.983  1.00  0.00    -0.014 A 
BRANCH  33  34
ATOM     34  C   UNL A   1      43.445  24.441  27.311  1.00  0.00     0.031 A 
ATOM     35  C   UNL A   1      42.466  25.476  27.798  1.00  0.00     0.074 A 
ATOM     36  C   UNL A   1      44.731  24.783  27.094  1.00  0.00     0.049 A 
ATOM     37  N   UNL A   1      42.660  26.745  28.052  1.00  0.00    -0.248 NA
ATOM     38  C   UNL A   1      41.076  25.032  27.997  1.00  0.00     0.031 C 
ATOM     39  C   UNL A   1      45.766  23.891  26.565  1.00  0.00     0.029 A 
ATOM     40  N   UNL A   1      45.385  25.977  27.272  1.00  0.00    -0.354 N 
ATOM     41  C   UNL A   1      41.418  27.254  28.410  1.00  0.00     0.074 A 
ATOM     42  C   UNL A   1      40.468  26.169  28.300  1.00  0.00     0.031 C 
ATOM     43  C   UNL A   1      46.924  24.564  26.474  1.00  0.00     0.029 A 
ATOM     44  C   UNL A   1      46.708  25.943  26.900  1.00  0.00     0.049 A 
ATOM     45  H   UNL A   1      44.947  26.782  27.631  1.00  0.00     0.167 HD
ATOM     46  C   UNL A   1      41.104  28.508  28.813  1.00  0.00     0.037 A 
ATOM     47  C   UNL A   1      47.639  26.917  26.892  1.00  0.00     0.037 A 
ATOM     48  C   UNL A   1      42.060  29.573  28.968  1.00  0.00     0.049 A 
ATOM     49  C   UNL A   1      47.265  28.294  27.372  1.00  0.00     0.074 A 
ATOM     50  C   UNL A   1      41.854  30.848  29.464  1.00  0.00     0.029 A 
ATOM     51  N   UNL A   1      43.400  29.487  28.624  1.00  0.00    -0.354 N 
ATOM     52  N   UNL A   1      46.108  28.737  27.799  1.00  0.00    -0.248 NA
ATOM     53  C   UNL A   1      48.331  29.307  27.377  1.00  0.00     0.031 C 
ATOM     54  C   UNL A   1      43.059  31.552  29.373  1.00  0.00     0.029 A 
ATOM     55  C   UNL A   1      44.028  30.698  28.872  1.00  0.00     0.049 A 
ATOM     56  H   UNL A   1      43.841  28.686  28.259  1.00  0.00     0.167 HD
ATOM     57  C   UNL A   1      46.312  30.064  28.151  1.00  0.00     0.074 A 
ATOM     58  C   UNL A   1      47.709  30.352  27.904  1.00  0.00     0.031 C 
ATOM     59  C   UNL A   1      45.422  30.966  28.633  1.00  0.00     0.037 A 
BRANCH  46  60
ATOM     60  C   UNL A   1      39.667  28.806  29.125  1.00  0.00     0.064 A 
ATOM     61  C   UNL A   1      39.137  28.632  30.412  1.00  0.00     0.173 A 
ATOM     62  C   UNL A   1      38.824  29.339  28.136  1.00  0.00     0.173 A 
ATOM     63  F   UNL A   1      39.897  28.116  31.390  1.00  0.00    -0.203 F 
ATOM     64  C   UNL A   1      37.813  28.958  30.693  1.00  0.00     0.198 A 
ATOM     65  C   UNL A   1      37.510  29.694  28.429  1.00  0.00     0.198 A 
ATOM     66  F   UNL A   1      39.282  29.532  26.890  1.00  0.00    -0.203 F 
ATOM     67  F   UNL A   1      37.319  28.746  31.921  1.00  0.00    -0.200 F 
ATOM     68  C   UNL A   1      37.004  29.498  29.704  1.00  0.00     0.200 A 
ATOM     69  F   UNL A   1      36.733  30.227  27.476  1.00  0.00    -0.200 F 
ATOM     70  F   UNL A   1      35.735  29.827  29.981  1.00  0.00    -0.200 F 
ENDBRANCH  46  60
BRANCH  47  71
ATOM     71  C   UNL A   1      49.019  26.629  26.420  1.00  0.00     0.064 A 
ATOM     72  C   UNL A   1      49.987  26.106  27.291  1.00  0.00     0.173 A 
ATOM     73  C   UNL A   1      49.409  26.894  25.099  1.00  0.00     0.173 A 
ATOM     74  F   UNL A   1      49.669  25.854  28.569  1.00  0.00    -0.203 F 
ATOM     75  C   UNL A   1      51.296  25.890  26.868  1.00  0.00     0.198 A 
ATOM     76  C   UNL A   1      50.711  26.648  24.668  1.00  0.00     0.198 A 
ATOM     77  F   UNL A   1      48.522  27.390  24.223  1.00  0.00    -0.203 F 
ATOM     78  F   UNL A   1      52.213  25.445  27.737  1.00  0.00    -0.200 F 
ATOM     79  C   UNL A   1      51.657  26.158  25.556  1.00  0.00     0.200 A 
ATOM     80  F   UNL A   1      51.051  26.893  23.396  1.00  0.00    -0.200 F 
ATOM     81  F   UNL A   1      52.916  25.951  25.150  1.00  0.00    -0.200 F 
ENDBRANCH  47  71
BRANCH  59  82
ATOM     82  C   UNL A   1      45.938  32.336  28.965  1.00  0.00     0.064 A 
ATOM     83  C   UNL A   1      46.481  32.635  30.222  1.00  0.00     0.173 A 
ATOM     84  C   UNL A   1      45.923  33.352  27.997  1.00  0.00     0.173 A 
ATOM     85  F   UNL A   1      46.504  31.703  31.187  1.00  0.00    -0.203 F 
ATOM     86  C   UNL A   1      46.967  33.909  30.508  1.00  0.00     0.198 A 
ATOM     87  C   UNL A   1      46.439  34.614  28.274  1.00  0.00     0.198 A 
ATOM     88  F   UNL A   1      45.420  33.114  26.775  1.00  0.00    -0.203 F 
ATOM     89  F   UNL A   1      47.437  34.186  31.731  1.00  0.00    -0.200 F 
ATOM     90  C   UNL A   1      46.952  34.893  29.531  1.00  0.00     0.200 A 
ATOM     91  F   UNL A   1      46.438  35.560  27.324  1.00  0.00    -0.200 F 
ATOM     92  F   UNL A   1      47.429  36.116  29.804  1.00  0.00    -0.200 F 
ENDBRANCH  59  82
ENDBRANCH  33  34
ENDBRANCH  25  28
ENDBRANCH  23  24
ENDBRANCH  22  23
ENDBRANCH   1  22
TORSDOF 15
ENDMDL
MODEL 3
REMARK VINA RESULT:     -11.5      0.733      1.868
REMARK SMILES CC[C@@H](C)[C@H](C(=O)NCCCNC(=O)c1ccc(-c2c3nc(c(-c4c(F)c(F)c(F)c(F)c4F)c4ccc([nH]4)c(-c4c(F)c(F)c(F)c(F)c4F)c4nc(c(-c5c(F)c(F)c(F)c(F)c5F)c5ccc2[nH]5)C=C4)C=C3)cc1)S(=O)(=O)c1cccc(OC)c1
REMARK SMILES IDX 9 1 8 2 6 3 7 4 5 6 3 7 4 8 2 9 1 10 78 11 79 12 80 13 81 14
REMARK SMILES IDX 82 15 88 16 83 17 85 18 84 19 86 20 87 21 10 22 11 23 12 24
REMARK SMILES IDX 13 25 14 27 15 28 16 29 77 30 17 31 76 32 18 33 19 34 20 35
REMARK SMILES IDX 70 36 21 37 75 38 69 39 71 40 22 41 74 42 68 43 67 44 23 46
REMARK SMILES IDX 55 47 35 48 54 49 36 50 39 51 53 52 72 53 37 54 38 55 52 57
REMARK SMILES IDX 73 58 40 59 24 60 25 61 33 62 26 63 27 64 31 65 34 66 28 67
REMARK SMILES IDX 29 68 32 69 30 70 56 71 57 72 65 73 58 74 59 75 63 76 66 77
REMARK SMILES IDX 60 78 61 79 64 80 62 81 41 82 42 83 50 84 43 85 44 86 48 87
REMARK SMILES IDX 51 88 45 89 46 90 49 91 47 92
REMARK H PARENT 8 5 12 26 71 45 39 56
REMARK Flexibility Score: inf
ROOT
ATOM      1  C   UNL A   1      31.860  30.524  26.232  1.00  0.00     0.117 C 
ENDROOT
BRANCH   1   2
ATOM      2  N   UNL A   1      31.319  30.348  24.891  1.00  0.00    -0.355 N 
ATOM      3  C   UNL A   1      31.106  29.202  24.170  1.00  0.00     0.239 C 
ATOM      4  O   UNL A   1      30.523  29.333  23.097  1.00  0.00    -0.274 OA
ATOM      5  H   UNL A   1      31.068  31.181  24.432  1.00  0.00     0.163 HD
BRANCH   3   6
ATOM      6  C   UNL A   1      31.511  27.867  24.759  1.00  0.00     0.205 C 
BRANCH   6   7
ATOM      7  C   UNL A   1      30.449  26.783  24.418  1.00  0.00     0.014 C 
ATOM      8  C   UNL A   1      30.051  25.933  25.627  1.00  0.00     0.009 C 
BRANCH   7   9
ATOM      9  C   UNL A   1      30.763  25.930  23.182  1.00  0.00     0.002 C 
ATOM     10  C   UNL A   1      30.458  24.450  23.367  1.00  0.00     0.004 C 
ENDBRANCH   7   9
ENDBRANCH   6   7
BRANCH   6  11
ATOM     11  S   UNL A   1      33.236  27.529  24.458  1.00  0.00     0.190 S 
ATOM     12  O   UNL A   1      33.525  27.830  23.066  1.00  0.00    -0.223 OA
ATOM     13  O   UNL A   1      34.003  28.234  25.473  1.00  0.00    -0.223 OA
BRANCH  11  14
ATOM     14  C   UNL A   1      33.568  25.799  24.708  1.00  0.00     0.071 A 
ATOM     15  C   UNL A   1      34.131  25.031  23.686  1.00  0.00     0.020 A 
ATOM     16  C   UNL A   1      33.313  25.225  25.958  1.00  0.00     0.066 A 
ATOM     17  C   UNL A   1      34.338  23.664  23.883  1.00  0.00     0.005 A 
ATOM     18  C   UNL A   1      33.441  23.847  26.117  1.00  0.00     0.120 A 
ATOM     19  C   UNL A   1      33.974  23.069  25.092  1.00  0.00     0.046 A 
BRANCH  18  20
ATOM     20  O   UNL A   1      33.083  23.209  27.274  1.00  0.00    -0.497 OA
ATOM     21  C   UNL A   1      34.043  22.222  27.660  1.00  0.00     0.278 C 
ENDBRANCH  18  20
ENDBRANCH  11  14
ENDBRANCH   6  11
ENDBRANCH   3   6
ENDBRANCH   1   2
BRANCH   1  22
ATOM     22  C   UNL A   1      31.534  31.885  26.821  1.00  0.00     0.042 C 
BRANCH  22  23
ATOM     23  C   UNL A   1      32.754  32.714  27.196  1.00  0.00     0.118 C 
BRANCH  23  24
ATOM     24  N   UNL A   1      32.429  34.085  27.565  1.00  0.00    -0.352 N 
ATOM     25  C   UNL A   1      32.976  34.887  28.538  1.00  0.00     0.251 C 
ATOM     26  H   UNL A   1      31.709  34.500  27.036  1.00  0.00     0.163 HD
ATOM     27  O   UNL A   1      32.467  35.975  28.789  1.00  0.00    -0.269 OA
BRANCH  25  28
ATOM     28  C   UNL A   1      34.153  34.429  29.312  1.00  0.00     0.039 A 
ATOM     29  C   UNL A   1      33.946  33.792  30.538  1.00  0.00     0.014 A 
ATOM     30  C   UNL A   1      35.451  34.616  28.835  1.00  0.00     0.014 A 
ATOM     31  C   UNL A   1      35.035  33.269  31.242  1.00  0.00     0.010 A 
ATOM     32  C   UNL A   1      36.524  34.017  29.489  1.00  0.00     0.010 A 
ATOM     33  C   UNL A   1      36.329  33.338  30.701  1.00  0.00    -0.014 A 
BRANCH  33  34
ATOM     34  C   UNL A   1      37.489  32.703  31.380  1.00  0.00     0.031 A 
ATOM     35  C   UNL A   1      38.197  31.539  30.740  1.00  0.00     0.074 A 
ATOM     36  C   UNL A   1      37.855  33.119  32.609  1.00  0.00     0.049 A 
ATOM     37  N   UNL A   1      39.169  30.800  31.212  1.00  0.00    -0.248 NA
ATOM     38  C   UNL A   1      37.731  31.132  29.404  1.00  0.00     0.031 C 
ATOM     39  C   UNL A   1      37.210  34.195  33.365  1.00  0.00     0.029 A 
ATOM     40  N   UNL A   1      38.847  32.675  33.449  1.00  0.00    -0.354 N 
ATOM     41  C   UNL A   1      39.408  29.828  30.248  1.00  0.00     0.074 A 
ATOM     42  C   UNL A   1      38.454  30.044  29.183  1.00  0.00     0.031 C 
ATOM     43  C   UNL A   1      37.829  34.335  34.548  1.00  0.00     0.029 A 
ATOM     44  C   UNL A   1      38.889  33.337  34.653  1.00  0.00     0.049 A 
ATOM     45  H   UNL A   1      39.469  31.950  33.211  1.00  0.00     0.167 HD
ATOM     46  C   UNL A   1      40.352  28.858  30.243  1.00  0.00     0.037 A 
ATOM     47  C   UNL A   1      39.684  33.152  35.724  1.00  0.00     0.037 A 
ATOM     48  C   UNL A   1      41.332  28.676  31.282  1.00  0.00     0.049 A 
ATOM     49  C   UNL A   1      40.742  32.082  35.678  1.00  0.00     0.074 A 
ATOM     50  C   UNL A   1      42.390  27.784  31.320  1.00  0.00     0.029 A 
ATOM     51  N   UNL A   1      41.371  29.396  32.466  1.00  0.00    -0.354 N 
ATOM     52  N   UNL A   1      41.020  31.232  34.720  1.00  0.00    -0.248 NA
ATOM     53  C   UNL A   1      41.605  31.951  36.861  1.00  0.00     0.031 C 
ATOM     54  C   UNL A   1      43.039  27.929  32.550  1.00  0.00     0.029 A 
ATOM     55  C   UNL A   1      42.420  28.948  33.255  1.00  0.00     0.049 A 
ATOM     56  H   UNL A   1      40.747  30.117  32.711  1.00  0.00     0.167 HD
ATOM     57  C   UNL A   1      42.103  30.490  35.168  1.00  0.00     0.074 A 
ATOM     58  C   UNL A   1      42.445  30.999  36.479  1.00  0.00     0.031 C 
ATOM     59  C   UNL A   1      42.756  29.474  34.552  1.00  0.00     0.037 A 
BRANCH  46  60
ATOM     60  C   UNL A   1      40.383  27.913  29.078  1.00  0.00     0.064 A 
ATOM     61  C   UNL A   1      39.605  26.747  29.050  1.00  0.00     0.173 A 
ATOM     62  C   UNL A   1      41.152  28.216  27.942  1.00  0.00     0.173 A 
ATOM     63  F   UNL A   1      38.861  26.407  30.113  1.00  0.00    -0.203 F 
ATOM     64  C   UNL A   1      39.612  25.907  27.939  1.00  0.00     0.198 A 
ATOM     65  C   UNL A   1      41.132  27.390  26.822  1.00  0.00     0.198 A 
ATOM     66  F   UNL A   1      41.909  29.323  27.914  1.00  0.00    -0.203 F 
ATOM     67  F   UNL A   1      38.890  24.777  27.951  1.00  0.00    -0.200 F 
ATOM     68  C   UNL A   1      40.367  26.234  26.822  1.00  0.00     0.200 A 
ATOM     69  F   UNL A   1      41.852  27.715  25.739  1.00  0.00    -0.200 F 
ATOM     70  F   UNL A   1      40.360  25.433  25.748  1.00  0.00    -0.200 F 
ENDBRANCH  46  60
BRANCH  47  71
ATOM     71  C   UNL A   1      39.519  34.001  36.934  1.00  0.00     0.064 A 
ATOM     72  C   UNL A   1      40.146  35.251  37.031  1.00  0.00     0.173 A 
ATOM     73  C   UNL A   1      38.754  33.571  38.028  1.00  0.00     0.173 A 
ATOM     74  F   UNL A   1      40.904  35.698  36.020  1.00  0.00    -0.203 F 
ATOM     75  C   UNL A   1      40.041  36.023  38.186  1.00  0.00     0.198 A 
ATOM     76  C   UNL A   1      38.623  34.357  39.171  1.00  0.00     0.198 A 
ATOM     77  F   UNL A   1      38.127  32.385  37.986  1.00  0.00    -0.203 F 
ATOM     78  F   UNL A   1      40.699  37.187  38.273  1.00  0.00    -0.200 F 
ATOM     79  C   UNL A   1      39.277  35.577  39.254  1.00  0.00     0.200 A 
ATOM     80  F   UNL A   1      37.871  33.930  40.194  1.00  0.00    -0.200 F 
ATOM     81  F   UNL A   1      39.177  36.319  40.365  1.00  0.00    -0.200 F 
ENDBRANCH  47  71
BRANCH  59  82
ATOM     82  C   UNL A   1      43.931  28.873  35.267  1.00  0.00     0.064 A 
ATOM     83  C   UNL A   1      45.234  29.354  35.078  1.00  0.00     0.173 A 
ATOM     84  C   UNL A   1      43.742  27.827  36.184  1.00  0.00     0.173 A 
ATOM     85  F   UNL A   1      45.469  30.341  34.202  1.00  0.00    -0.203 F 
ATOM     86  C   UNL A   1      46.310  28.792  35.761  1.00  0.00     0.198 A 
ATOM     87  C   UNL A   1      44.814  27.290  36.889  1.00  0.00     0.198 A 
ATOM     88  F   UNL A   1      42.513  27.336  36.407  1.00  0.00    -0.203 F 
ATOM     89  F   UNL A   1      47.553  29.234  35.528  1.00  0.00    -0.200 F 
ATOM     90  C   UNL A   1      46.098  27.766  36.670  1.00  0.00     0.200 A 
ATOM     91  F   UNL A   1      44.605  26.310  37.779  1.00  0.00    -0.200 F 
ATOM     92  F   UNL A   1      47.133  27.233  37.333  1.00  0.00    -0.200 F 
ENDBRANCH  59  82
ENDBRANCH  33  34
ENDBRANCH  25  28
ENDBRANCH  23  24
ENDBRANCH  22  23
ENDBRANCH   1  22
TORSDOF 15
ENDMDL
