MODEL 1
REMARK VINA RESULT:     -12.6      0.000      0.000
REMARK SMILES O=C(NCCCNC(=O)c1ncoc1-c1cc(F)cc(F)c1)c1ccc(-c2c3nc(c(-c4c(F)c(F)c(F)c(F)c4F)c4ccc([nH]4)c(-c4c(F)c(F)c(F)c(F)c4F)c4nc(c(-c5c(F)c(F)c(F)c(F)c5F)c5ccc2[nH]5)C=C4)C=C3)cc1
REMARK SMILES IDX 4 1 3 2 1 3 2 4 23 6 24 7 85 8 25 9 84 10 26 11 27 12 28 13
REMARK SMILES IDX 78 14 29 15 83 16 77 17 79 18 30 19 82 20 76 21 75 22 31 24
REMARK SMILES IDX 63 25 43 26 62 27 44 28 47 29 61 30 80 31 45 32 46 33 60 35
REMARK SMILES IDX 81 36 48 37 32 38 33 39 41 40 34 41 35 42 39 43 42 44 36 45
REMARK SMILES IDX 37 46 40 47 38 48 64 49 65 50 73 51 66 52 67 53 71 54 74 55
REMARK SMILES IDX 68 56 69 57 72 58 70 59 49 60 50 61 58 62 51 63 52 64 56 65
REMARK SMILES IDX 59 66 53 67 54 68 57 69 55 70 5 71 6 72 7 73 8 74 9 76 10 77
REMARK SMILES IDX 11 78 14 79 12 80 13 81 15 82 16 83 22 84 17 85 20 86 18 87
REMARK SMILES IDX 19 88 21 89
REMARK H PARENT 3 5 79 23 47 34 7 75
REMARK Flexibility Score: inf
ROOT
ATOM      1  C   UNL A   1      32.671  32.215  26.903  1.00  0.00     0.118 C 
ENDROOT
BRANCH   1   2
ATOM      2  N   UNL A   1      32.498  33.606  27.292  1.00  0.00    -0.352 N 
ATOM      3  O   UNL A   1      32.625  35.452  28.557  1.00  0.00    -0.269 OA
ATOM      4  C   UNL A   1      33.067  34.333  28.304  1.00  0.00     0.251 C 
ATOM      5  H   UNL A   1      31.865  34.111  26.733  1.00  0.00     0.163 HD
BRANCH   4   6
ATOM      6  C   UNL A   1      34.200  33.809  29.100  1.00  0.00     0.039 A 
ATOM      7  C   UNL A   1      34.023  32.820  30.071  1.00  0.00     0.014 A 
ATOM      8  C   UNL A   1      35.492  34.241  28.772  1.00  0.00     0.014 A 
ATOM      9  C   UNL A   1      35.131  32.305  30.752  1.00  0.00     0.010 A 
ATOM     10  C   UNL A   1      36.601  33.706  29.433  1.00  0.00     0.010 A 
ATOM     11  C   UNL A   1      36.428  32.740  30.432  1.00  0.00    -0.014 A 
BRANCH  11  12
ATOM     12  C   UNL A   1      37.606  32.148  31.111  1.00  0.00     0.031 A 
ATOM     13  C   UNL A   1      38.436  31.102  30.429  1.00  0.00     0.074 A 
ATOM     14  C   UNL A   1      37.930  32.559  32.351  1.00  0.00     0.049 A 
ATOM     15  N   UNL A   1      39.478  30.449  30.881  1.00  0.00    -0.248 NA
ATOM     16  C   UNL A   1      38.047  30.739  29.058  1.00  0.00     0.031 C 
ATOM     17  C   UNL A   1      37.207  33.571  33.122  1.00  0.00     0.029 A 
ATOM     18  N   UNL A   1      38.961  32.182  33.176  1.00  0.00    -0.354 N 
ATOM     19  C   UNL A   1      39.864  29.596  29.859  1.00  0.00     0.074 A 
ATOM     20  C   UNL A   1      38.941  29.804  28.762  1.00  0.00     0.031 C 
ATOM     21  C   UNL A   1      37.835  33.759  34.293  1.00  0.00     0.029 A 
ATOM     22  C   UNL A   1      38.985  32.863  34.366  1.00  0.00     0.049 A 
ATOM     23  H   UNL A   1      39.619  31.491  32.936  1.00  0.00     0.167 HD
ATOM     24  C   UNL A   1      40.896  28.719  29.837  1.00  0.00     0.037 A 
ATOM     25  C   UNL A   1      39.840  32.773  35.403  1.00  0.00     0.037 A 
ATOM     26  C   UNL A   1      41.817  28.504  30.919  1.00  0.00     0.049 A 
ATOM     27  C   UNL A   1      40.972  31.789  35.352  1.00  0.00     0.074 A 
ATOM     28  C   UNL A   1      42.868  27.606  30.995  1.00  0.00     0.029 A 
ATOM     29  N   UNL A   1      41.803  29.205  32.115  1.00  0.00    -0.354 N 
ATOM     30  N   UNL A   1      41.303  30.960  34.394  1.00  0.00    -0.248 NA
ATOM     31  C   UNL A   1      41.843  31.721  36.535  1.00  0.00     0.031 C 
ATOM     32  C   UNL A   1      43.489  27.762  32.241  1.00  0.00     0.029 A 
ATOM     33  C   UNL A   1      42.830  28.765  32.932  1.00  0.00     0.049 A 
ATOM     34  H   UNL A   1      41.157  29.911  32.348  1.00  0.00     0.167 HD
ATOM     35  C   UNL A   1      42.413  30.271  34.855  1.00  0.00     0.074 A 
ATOM     36  C   UNL A   1      42.715  30.788  36.173  1.00  0.00     0.031 C 
ATOM     37  C   UNL A   1      43.115  29.289  34.241  1.00  0.00     0.037 A 
BRANCH  24  38
ATOM     38  C   UNL A   1      41.081  27.913  28.590  1.00  0.00     0.064 A 
ATOM     39  C   UNL A   1      41.937  28.357  27.573  1.00  0.00     0.173 A 
ATOM     40  C   UNL A   1      40.372  26.721  28.390  1.00  0.00     0.173 A 
ATOM     41  F   UNL A   1      42.636  29.492  27.724  1.00  0.00    -0.203 F 
ATOM     42  C   UNL A   1      42.073  27.634  26.390  1.00  0.00     0.198 A 
ATOM     43  C   UNL A   1      40.519  25.996  27.211  1.00  0.00     0.198 A 
ATOM     44  F   UNL A   1      39.553  26.254  29.345  1.00  0.00    -0.203 F 
ATOM     45  F   UNL A   1      42.890  28.078  25.425  1.00  0.00    -0.200 F 
ATOM     46  C   UNL A   1      41.364  26.455  26.211  1.00  0.00     0.200 A 
ATOM     47  F   UNL A   1      39.846  24.848  27.046  1.00  0.00    -0.200 F 
ATOM     48  F   UNL A   1      41.502  25.756  25.076  1.00  0.00    -0.200 F 
ENDBRANCH  24  38
BRANCH  25  49
ATOM     49  C   UNL A   1      39.665  33.663  36.572  1.00  0.00     0.064 A 
ATOM     50  C   UNL A   1      38.866  33.285  37.660  1.00  0.00     0.173 A 
ATOM     51  C   UNL A   1      40.284  34.918  36.610  1.00  0.00     0.173 A 
ATOM     52  F   UNL A   1      38.258  32.090  37.664  1.00  0.00    -0.203 F 
ATOM     53  C   UNL A   1      38.685  34.142  38.743  1.00  0.00     0.198 A 
ATOM     54  C   UNL A   1      40.111  35.769  37.697  1.00  0.00     0.198 A 
ATOM     55  F   UNL A   1      41.073  35.306  35.596  1.00  0.00    -0.203 F 
ATOM     56  F   UNL A   1      37.907  33.767  39.767  1.00  0.00    -0.200 F 
ATOM     57  C   UNL A   1      39.308  35.382  38.761  1.00  0.00     0.200 A 
ATOM     58  F   UNL A   1      40.728  36.958  37.720  1.00  0.00    -0.200 F 
ATOM     59  F   UNL A   1      39.140  36.202  39.807  1.00  0.00    -0.200 F 
ENDBRANCH  25  49
BRANCH  37  60
ATOM     60  C   UNL A   1      44.272  28.710  34.988  1.00  0.00     0.064 A 
ATOM     61  C   UNL A   1      44.098  27.604  35.831  1.00  0.00     0.173 A 
ATOM     62  C   UNL A   1      45.550  29.279  34.892  1.00  0.00     0.173 A 
ATOM     63  F   UNL A   1      42.892  27.028  35.949  1.00  0.00    -0.203 F 
ATOM     64  C   UNL A   1      45.167  27.087  36.557  1.00  0.00     0.198 A 
ATOM     65  C   UNL A   1      46.619  28.753  35.612  1.00  0.00     0.198 A 
ATOM     66  F   UNL A   1      45.762  30.329  34.085  1.00  0.00    -0.203 F 
ATOM     67  F   UNL A   1      44.982  26.030  37.361  1.00  0.00    -0.200 F 
ATOM     68  C   UNL A   1      46.426  27.661  36.445  1.00  0.00     0.200 A 
ATOM     69  F   UNL A   1      47.838  29.299  35.492  1.00  0.00    -0.200 F 
ATOM     70  F   UNL A   1      47.457  27.156  37.138  1.00  0.00    -0.200 F 
ENDBRANCH  37  60
ENDBRANCH  11  12
ENDBRANCH   4   6
ENDBRANCH   1   2
BRANCH   1  71
ATOM     71  C   UNL A   1      31.367  31.577  26.413  1.00  0.00     0.042 C 
BRANCH  71  72
ATOM     72  C   UNL A   1      31.492  30.106  26.005  1.00  0.00     0.118 C 
BRANCH  72  73
ATOM     73  N   UNL A   1      32.183  29.954  24.738  1.00  0.00    -0.351 N 
ATOM     74  C   UNL A   1      31.917  29.135  23.668  1.00  0.00     0.273 C 
ATOM     75  H   UNL A   1      32.972  30.533  24.626  1.00  0.00     0.163 HD
ATOM     76  O   UNL A   1      32.795  29.033  22.808  1.00  0.00    -0.267 OA
BRANCH  74  77
ATOM     77  C   UNL A   1      30.649  28.421  23.565  1.00  0.00     0.174 A 
ATOM     78  N   UNL A   1      30.428  27.105  23.949  1.00  0.00    -0.211 NA
ATOM     79  C   UNL A   1      29.443  28.974  23.162  1.00  0.00     0.167 A 
ATOM     80  C   UNL A   1      29.136  26.939  23.789  1.00  0.00     0.309 A 
ATOM     81  O   UNL A   1      28.469  28.023  23.317  1.00  0.00    -0.443 OA
BRANCH  79  82
ATOM     82  C   UNL A   1      28.999  30.244  22.617  1.00  0.00     0.026 A 
ATOM     83  C   UNL A   1      29.163  31.427  23.349  1.00  0.00     0.051 A 
ATOM     84  C   UNL A   1      28.414  30.309  21.345  1.00  0.00     0.051 A 
ATOM     85  C   UNL A   1      28.747  32.642  22.810  1.00  0.00     0.126 A 
ATOM     86  C   UNL A   1      27.997  31.536  20.834  1.00  0.00     0.126 A 
ATOM     87  F   UNL A   1      28.925  33.766  23.516  1.00  0.00    -0.207 F 
ATOM     88  C   UNL A   1      28.160  32.709  21.556  1.00  0.00     0.078 A 
ATOM     89  F   UNL A   1      27.430  31.583  19.622  1.00  0.00    -0.207 F 
ENDBRANCH  79  82
ENDBRANCH  74  77
ENDBRANCH  72  73
ENDBRANCH  71  72
ENDBRANCH   1  71
TORSDOF 11
ENDMDL
MODEL 2
REMARK VINA RESULT:     -12.6      0.143      1.162
REMARK SMILES O=C(NCCCNC(=O)c1ncoc1-c1cc(F)cc(F)c1)c1ccc(-c2c3nc(c(-c4c(F)c(F)c(F)c(F)c4F)c4ccc([nH]4)c(-c4c(F)c(F)c(F)c(F)c4F)c4nc(c(-c5c(F)c(F)c(F)c(F)c5F)c5ccc2[nH]5)C=C4)C=C3)cc1
REMARK SMILES IDX 4 1 3 2 1 3 2 4 23 6 24 7 85 8 25 9 84 10 26 11 27 12 28 13
REMARK SMILES IDX 78 14 29 15 83 16 77 17 79 18 30 19 82 20 76 21 75 22 31 24
REMARK SMILES IDX 63 25 43 26 62 27 44 28 47 29 61 30 80 31 45 32 46 33 60 35
REMARK SMILES IDX 81 36 48 37 32 38 33 39 41 40 34 41 35 42 39 43 42 44 36 45
REMARK SMILES IDX 37 46 40 47 38 48 64 49 65 50 73 51 66 52 67 53 71 54 74 55
REMARK SMILES IDX 68 56 69 57 72 58 70 59 49 60 50 61 58 62 51 63 52 64 56 65
REMARK SMILES IDX 59 66 53 67 54 68 57 69 55 70 5 71 6 72 7 73 8 74 9 76 10 77
REMARK SMILES IDX 11 78 14 79 12 80 13 81 15 82 16 83 22 84 17 85 20 86 18 87
REMARK SMILES IDX 19 88 21 89
REMARK H PARENT 3 5 79 23 47 34 7 75
REMARK Flexibility Score: inf
ROOT
ATOM      1  C   UNL A   1      32.688  32.213  26.876  1.00  0.00     0.118 C 
ENDROOT
BRANCH   1   2
ATOM      2  N   UNL A   1      32.532  33.605  27.266  1.00  0.00    -0.352 N 
ATOM      3  O   UNL A   1      32.677  35.449  28.532  1.00  0.00    -0.269 OA
ATOM      4  C   UNL A   1      33.106  34.324  28.281  1.00  0.00     0.251 C 
ATOM      5  H   UNL A   1      31.908  34.119  26.704  1.00  0.00     0.163 HD
BRANCH   4   6
ATOM      6  C   UNL A   1      34.227  33.784  29.082  1.00  0.00     0.039 A 
ATOM      7  C   UNL A   1      34.029  32.812  30.066  1.00  0.00     0.014 A 
ATOM      8  C   UNL A   1      35.528  34.180  28.747  1.00  0.00     0.014 A 
ATOM      9  C   UNL A   1      35.125  32.280  30.753  1.00  0.00     0.010 A 
ATOM     10  C   UNL A   1      36.625  33.629  29.413  1.00  0.00     0.010 A 
ATOM     11  C   UNL A   1      36.432  32.680  30.426  1.00  0.00    -0.014 A 
BRANCH  11  12
ATOM     12  C   UNL A   1      37.596  32.069  31.110  1.00  0.00     0.031 A 
ATOM     13  C   UNL A   1      38.418  31.016  30.429  1.00  0.00     0.074 A 
ATOM     14  C   UNL A   1      37.916  32.470  32.355  1.00  0.00     0.049 A 
ATOM     15  N   UNL A   1      39.448  30.347  30.887  1.00  0.00    -0.248 NA
ATOM     16  C   UNL A   1      38.035  30.665  29.054  1.00  0.00     0.031 C 
ATOM     17  C   UNL A   1      37.200  33.487  33.125  1.00  0.00     0.029 A 
ATOM     18  N   UNL A   1      38.935  32.075  33.186  1.00  0.00    -0.354 N 
ATOM     19  C   UNL A   1      39.831  29.495  29.863  1.00  0.00     0.074 A 
ATOM     20  C   UNL A   1      38.919  29.720  28.760  1.00  0.00     0.031 C 
ATOM     21  C   UNL A   1      37.821  33.661  34.302  1.00  0.00     0.029 A 
ATOM     22  C   UNL A   1      38.959  32.749  34.380  1.00  0.00     0.049 A 
ATOM     23  H   UNL A   1      39.586  31.377  32.947  1.00  0.00     0.167 HD
ATOM     24  C   UNL A   1      40.851  28.605  29.844  1.00  0.00     0.037 A 
ATOM     25  C   UNL A   1      39.804  32.643  35.423  1.00  0.00     0.037 A 
ATOM     26  C   UNL A   1      41.761  28.372  30.933  1.00  0.00     0.049 A 
ATOM     27  C   UNL A   1      40.924  31.645  35.376  1.00  0.00     0.074 A 
ATOM     28  C   UNL A   1      42.800  27.460  31.013  1.00  0.00     0.029 A 
ATOM     29  N   UNL A   1      41.746  29.067  32.132  1.00  0.00    -0.354 N 
ATOM     30  N   UNL A   1      41.251  30.817  34.416  1.00  0.00    -0.248 NA
ATOM     31  C   UNL A   1      41.784  31.560  36.566  1.00  0.00     0.031 C 
ATOM     32  C   UNL A   1      43.413  27.601  32.264  1.00  0.00     0.029 A 
ATOM     33  C   UNL A   1      42.761  28.610  32.955  1.00  0.00     0.049 A 
ATOM     34  H   UNL A   1      41.108  29.780  32.364  1.00  0.00     0.167 HD
ATOM     35  C   UNL A   1      42.348  30.111  34.883  1.00  0.00     0.074 A 
ATOM     36  C   UNL A   1      42.647  30.618  36.205  1.00  0.00     0.031 C 
ATOM     37  C   UNL A   1      43.042  29.123  34.269  1.00  0.00     0.037 A 
BRANCH  24  38
ATOM     38  C   UNL A   1      41.036  27.802  28.595  1.00  0.00     0.064 A 
ATOM     39  C   UNL A   1      41.902  28.243  27.584  1.00  0.00     0.173 A 
ATOM     40  C   UNL A   1      40.317  26.618  28.386  1.00  0.00     0.173 A 
ATOM     41  F   UNL A   1      42.610  29.371  27.744  1.00  0.00    -0.203 F 
ATOM     42  C   UNL A   1      42.037  27.525  26.399  1.00  0.00     0.198 A 
ATOM     43  C   UNL A   1      40.464  25.897  27.204  1.00  0.00     0.198 A 
ATOM     44  F   UNL A   1      39.489  26.154  29.334  1.00  0.00    -0.203 F 
ATOM     45  F   UNL A   1      42.864  27.965  25.441  1.00  0.00    -0.200 F 
ATOM     46  C   UNL A   1      41.319  26.353  26.211  1.00  0.00     0.200 A 
ATOM     47  F   UNL A   1      39.782  24.756  27.030  1.00  0.00    -0.200 F 
ATOM     48  F   UNL A   1      41.457  25.658  25.074  1.00  0.00    -0.200 F 
ENDBRANCH  24  38
BRANCH  25  49
ATOM     49  C   UNL A   1      39.631  33.529  36.595  1.00  0.00     0.064 A 
ATOM     50  C   UNL A   1      38.816  33.157  37.674  1.00  0.00     0.173 A 
ATOM     51  C   UNL A   1      40.267  34.775  36.645  1.00  0.00     0.173 A 
ATOM     52  F   UNL A   1      38.192  31.971  37.666  1.00  0.00    -0.203 F 
ATOM     53  C   UNL A   1      38.638  34.011  38.760  1.00  0.00     0.198 A 
ATOM     54  C   UNL A   1      40.097  35.623  37.736  1.00  0.00     0.198 A 
ATOM     55  F   UNL A   1      41.071  35.157  35.641  1.00  0.00    -0.203 F 
ATOM     56  F   UNL A   1      37.846  33.642  39.775  1.00  0.00    -0.200 F 
ATOM     57  C   UNL A   1      39.279  35.242  38.790  1.00  0.00     0.200 A 
ATOM     58  F   UNL A   1      40.731  36.803  37.770  1.00  0.00    -0.200 F 
ATOM     59  F   UNL A   1      39.113  36.059  39.839  1.00  0.00    -0.200 F 
ENDBRANCH  25  49
BRANCH  37  60
ATOM     60  C   UNL A   1      44.186  28.526  35.022  1.00  0.00     0.064 A 
ATOM     61  C   UNL A   1      45.481  29.048  34.889  1.00  0.00     0.173 A 
ATOM     62  C   UNL A   1      44.000  27.410  35.851  1.00  0.00     0.173 A 
ATOM     63  F   UNL A   1      45.701  30.116  34.109  1.00  0.00    -0.203 F 
ATOM     64  C   UNL A   1      46.554  28.470  35.562  1.00  0.00     0.198 A 
ATOM     65  C   UNL A   1      45.075  26.841  36.529  1.00  0.00     0.198 A 
ATOM     66  F   UNL A   1      42.776  26.890  36.017  1.00  0.00    -0.203 F 
ATOM     67  F   UNL A   1      47.785  28.980  35.420  1.00  0.00    -0.200 F 
ATOM     68  C   UNL A   1      46.349  27.368  36.381  1.00  0.00     0.200 A 
ATOM     69  F   UNL A   1      44.874  25.787  37.332  1.00  0.00    -0.200 F 
ATOM     70  F   UNL A   1      47.382  26.818  37.035  1.00  0.00    -0.200 F 
ENDBRANCH  37  60
ENDBRANCH  11  12
ENDBRANCH   4   6
ENDBRANCH   1   2
BRANCH   1  71
ATOM     71  C   UNL A   1      31.365  31.574  26.439  1.00  0.00     0.042 C 
BRANCH  71  72
ATOM     72  C   UNL A   1      31.467  30.096  26.053  1.00  0.00     0.118 C 
BRANCH  72  73
ATOM     73  N   UNL A   1      32.156  29.914  24.788  1.00  0.00    -0.351 N 
ATOM     74  C   UNL A   1      31.872  29.089  23.727  1.00  0.00     0.273 C 
ATOM     75  H   UNL A   1      32.956  30.476  24.670  1.00  0.00     0.163 HD
ATOM     76  O   UNL A   1      32.748  28.958  22.869  1.00  0.00    -0.267 OA
BRANCH  74  77
ATOM     77  C   UNL A   1      30.589  28.401  23.632  1.00  0.00     0.174 A 
ATOM     78  N   UNL A   1      30.339  27.096  24.038  1.00  0.00    -0.211 NA
ATOM     79  C   UNL A   1      29.397  28.973  23.216  1.00  0.00     0.167 A 
ATOM     80  C   UNL A   1      29.045  26.955  23.877  1.00  0.00     0.309 A 
ATOM     81  O   UNL A   1      28.402  28.046  23.384  1.00  0.00    -0.443 OA
BRANCH  79  82
ATOM     82  C   UNL A   1      28.982  30.242  22.648  1.00  0.00     0.026 A 
ATOM     83  C   UNL A   1      29.155  31.432  23.367  1.00  0.00     0.051 A 
ATOM     84  C   UNL A   1      28.417  30.300  21.368  1.00  0.00     0.051 A 
ATOM     85  C   UNL A   1      28.767  32.646  22.807  1.00  0.00     0.126 A 
ATOM     86  C   UNL A   1      28.027  31.527  20.835  1.00  0.00     0.126 A 
ATOM     87  F   UNL A   1      28.954  33.777  23.501  1.00  0.00    -0.207 F 
ATOM     88  C   UNL A   1      28.200  32.707  21.544  1.00  0.00     0.078 A 
ATOM     89  F   UNL A   1      27.478  31.567  19.614  1.00  0.00    -0.207 F 
ENDBRANCH  79  82
ENDBRANCH  74  77
ENDBRANCH  72  73
ENDBRANCH  71  72
ENDBRANCH   1  71
TORSDOF 11
ENDMDL
MODEL 3
REMARK VINA RESULT:     -12.6      0.536      7.516
REMARK SMILES O=C(NCCCNC(=O)c1ncoc1-c1cc(F)cc(F)c1)c1ccc(-c2c3nc(c(-c4c(F)c(F)c(F)c(F)c4F)c4ccc([nH]4)c(-c4c(F)c(F)c(F)c(F)c4F)c4nc(c(-c5c(F)c(F)c(F)c(F)c5F)c5ccc2[nH]5)C=C4)C=C3)cc1
REMARK SMILES IDX 4 1 3 2 1 3 2 4 23 6 24 7 85 8 25 9 84 10 26 11 27 12 28 13
REMARK SMILES IDX 78 14 29 15 83 16 77 17 79 18 30 19 82 20 76 21 75 22 31 24
REMARK SMILES IDX 63 25 43 26 62 27 44 28 47 29 61 30 80 31 45 32 46 33 60 35
REMARK SMILES IDX 81 36 48 37 32 38 33 39 41 40 34 41 35 42 39 43 42 44 36 45
REMARK SMILES IDX 37 46 40 47 38 48 64 49 65 50 73 51 66 52 67 53 71 54 74 55
REMARK SMILES IDX 68 56 69 57 72 58 70 59 49 60 50 61 58 62 51 63 52 64 56 65
REMARK SMILES IDX 59 66 53 67 54 68 57 69 55 70 5 71 6 72 7 73 8 74 9 76 10 77
REMARK SMILES IDX 11 78 14 79 12 80 13 81 15 82 16 83 22 84 17 85 20 86 18 87
REMARK SMILES IDX 19 88 21 89
REMARK H PARENT 3 5 79 23 47 34 7 75
REMARK Flexibility Score: inf
ROOT
ATOM      1  C   UNL A   1      32.662  32.381  26.876  1.00  0.00     0.118 C 
ENDROOT
BRANCH   1   2
ATOM      2  N   UNL A   1      32.522  33.743  27.365  1.00  0.00    -0.352 N 
ATOM      3  O   UNL A   1      32.709  35.495  28.751  1.00  0.00    -0.269 OA
ATOM      4  C   UNL A   1      33.126  34.389  28.411  1.00  0.00     0.251 C 
ATOM      5  H   UNL A   1      31.887  34.297  26.856  1.00  0.00     0.163 HD
BRANCH   4   6
ATOM      6  C   UNL A   1      34.265  33.792  29.143  1.00  0.00     0.039 A 
ATOM      7  C   UNL A   1      34.083  32.790  30.101  1.00  0.00     0.014 A 
ATOM      8  C   UNL A   1      35.561  34.168  28.766  1.00  0.00     0.014 A 
ATOM      9  C   UNL A   1      35.192  32.207  30.720  1.00  0.00     0.010 A 
ATOM     10  C   UNL A   1      36.670  33.565  29.365  1.00  0.00     0.010 A 
ATOM     11  C   UNL A   1      36.494  32.585  30.351  1.00  0.00    -0.014 A 
BRANCH  11  12
ATOM     12  C   UNL A   1      37.670  31.921  30.962  1.00  0.00     0.031 A 
ATOM     13  C   UNL A   1      38.087  32.243  32.366  1.00  0.00     0.074 A 
ATOM     14  C   UNL A   1      38.367  31.018  30.245  1.00  0.00     0.049 A 
ATOM     15  N   UNL A   1      39.107  31.788  33.050  1.00  0.00    -0.248 NA
ATOM     16  C   UNL A   1      37.250  33.204  33.100  1.00  0.00     0.031 C 
ATOM     17  C   UNL A   1      38.063  30.614  28.873  1.00  0.00     0.029 A 
ATOM     18  N   UNL A   1      39.467  30.270  30.581  1.00  0.00    -0.354 N 
ATOM     19  C   UNL A   1      39.039  32.408  34.288  1.00  0.00     0.074 A 
ATOM     20  C   UNL A   1      37.884  33.281  34.263  1.00  0.00     0.031 C 
ATOM     21  C   UNL A   1      38.935  29.667  28.493  1.00  0.00     0.029 A 
ATOM     22  C   UNL A   1      39.874  29.419  29.584  1.00  0.00     0.049 A 
ATOM     23  H   UNL A   1      39.920  30.336  31.452  1.00  0.00     0.167 HD
ATOM     24  C   UNL A   1      39.866  32.261  35.351  1.00  0.00     0.037 A 
ATOM     25  C   UNL A   1      40.891  28.538  29.553  1.00  0.00     0.037 A 
ATOM     26  C   UNL A   1      41.016  31.399  35.387  1.00  0.00     0.049 A 
ATOM     27  C   UNL A   1      41.794  28.400  30.744  1.00  0.00     0.074 A 
ATOM     28  C   UNL A   1      41.931  31.219  36.410  1.00  0.00     0.029 A 
ATOM     29  N   UNL A   1      41.403  30.561  34.354  1.00  0.00    -0.354 N 
ATOM     30  N   UNL A   1      41.742  29.022  31.895  1.00  0.00    -0.248 NA
ATOM     31  C   UNL A   1      42.906  27.445  30.625  1.00  0.00     0.031 C 
ATOM     32  C   UNL A   1      42.876  30.274  35.993  1.00  0.00     0.029 A 
ATOM     33  C   UNL A   1      42.538  29.857  34.716  1.00  0.00     0.049 A 
ATOM     34  H   UNL A   1      40.938  30.478  33.489  1.00  0.00     0.167 HD
ATOM     35  C   UNL A   1      42.810  28.539  32.635  1.00  0.00     0.074 A 
ATOM     36  C   UNL A   1      43.486  27.558  31.813  1.00  0.00     0.031 C 
ATOM     37  C   UNL A   1      43.199  28.887  33.885  1.00  0.00     0.037 A 
BRANCH  24  38
ATOM     38  C   UNL A   1      39.557  33.066  36.574  1.00  0.00     0.064 A 
ATOM     39  C   UNL A   1      38.621  32.609  37.512  1.00  0.00     0.173 A 
ATOM     40  C   UNL A   1      40.160  34.313  36.789  1.00  0.00     0.173 A 
ATOM     41  F   UNL A   1      38.022  31.420  37.346  1.00  0.00    -0.203 F 
ATOM     42  C   UNL A   1      38.294  33.379  38.625  1.00  0.00     0.198 A 
ATOM     43  C   UNL A   1      39.838  35.075  37.908  1.00  0.00     0.198 A 
ATOM     44  F   UNL A   1      41.071  34.780  35.922  1.00  0.00    -0.203 F 
ATOM     45  F   UNL A   1      37.391  32.929  39.508  1.00  0.00    -0.200 F 
ATOM     46  C   UNL A   1      38.903  34.609  38.822  1.00  0.00     0.200 A 
ATOM     47  F   UNL A   1      40.439  36.256  38.106  1.00  0.00    -0.200 F 
ATOM     48  F   UNL A   1      38.594  35.346  39.898  1.00  0.00    -0.200 F 
ENDBRANCH  24  38
BRANCH  25  49
ATOM     49  C   UNL A   1      41.093  27.699  28.351  1.00  0.00     0.064 A 
ATOM     50  C   UNL A   1      40.451  26.462  28.211  1.00  0.00     0.173 A 
ATOM     51  C   UNL A   1      41.951  28.120  27.327  1.00  0.00     0.173 A 
ATOM     52  F   UNL A   1      39.620  26.025  29.168  1.00  0.00    -0.203 F 
ATOM     53  C   UNL A   1      40.671  25.667  27.088  1.00  0.00     0.198 A 
ATOM     54  C   UNL A   1      42.161  27.330  26.200  1.00  0.00     0.198 A 
ATOM     55  F   UNL A   1      42.567  29.308  27.416  1.00  0.00    -0.203 F 
ATOM     56  F   UNL A   1      40.057  24.481  26.980  1.00  0.00    -0.200 F 
ATOM     57  C   UNL A   1      41.524  26.102  26.084  1.00  0.00     0.200 A 
ATOM     58  F   UNL A   1      42.972  27.761  25.224  1.00  0.00    -0.200 F 
ATOM     59  F   UNL A   1      41.728  25.341  25.001  1.00  0.00    -0.200 F 
ENDBRANCH  25  49
BRANCH  37  60
ATOM     60  C   UNL A   1      44.410  28.205  34.435  1.00  0.00     0.064 A 
ATOM     61  C   UNL A   1      44.292  27.004  35.148  1.00  0.00     0.173 A 
ATOM     62  C   UNL A   1      45.686  28.766  34.280  1.00  0.00     0.173 A 
ATOM     63  F   UNL A   1      43.090  26.433  35.316  1.00  0.00    -0.203 F 
ATOM     64  C   UNL A   1      45.415  26.387  35.693  1.00  0.00     0.198 A 
ATOM     65  C   UNL A   1      46.807  28.141  34.818  1.00  0.00     0.198 A 
ATOM     66  F   UNL A   1      45.843  29.906  33.592  1.00  0.00    -0.203 F 
ATOM     67  F   UNL A   1      45.283  25.241  36.375  1.00  0.00    -0.200 F 
ATOM     68  C   UNL A   1      46.670  26.956  35.526  1.00  0.00     0.200 A 
ATOM     69  F   UNL A   1      48.021  28.682  34.644  1.00  0.00    -0.200 F 
ATOM     70  F   UNL A   1      47.752  26.355  36.043  1.00  0.00    -0.200 F 
ENDBRANCH  37  60
ENDBRANCH  11  12
ENDBRANCH   4   6
ENDBRANCH   1   2
BRANCH   1  71
ATOM     71  C   UNL A   1      31.328  31.783  26.416  1.00  0.00     0.042 C 
BRANCH  71  72
ATOM     72  C   UNL A   1      31.389  30.299  26.046  1.00  0.00     0.118 C 
BRANCH  72  73
ATOM     73  N   UNL A   1      32.138  30.078  24.822  1.00  0.00    -0.351 N 
ATOM     74  C   UNL A   1      31.921  29.201  23.787  1.00  0.00     0.273 C 
ATOM     75  H   UNL A   1      32.931  30.652  24.715  1.00  0.00     0.163 HD
ATOM     76  O   UNL A   1      32.838  29.054  22.976  1.00  0.00    -0.267 OA
BRANCH  74  77
ATOM     77  C   UNL A   1      30.659  28.480  23.665  1.00  0.00     0.174 A 
ATOM     78  N   UNL A   1      30.434  27.169  24.064  1.00  0.00    -0.211 NA
ATOM     79  C   UNL A   1      29.461  29.022  23.225  1.00  0.00     0.167 A 
ATOM     80  C   UNL A   1      29.147  26.995  23.876  1.00  0.00     0.309 A 
ATOM     81  O   UNL A   1      28.487  28.069  23.371  1.00  0.00    -0.443 OA
BRANCH  79  82
ATOM     82  C   UNL A   1      29.025  30.281  22.650  1.00  0.00     0.026 A 
ATOM     83  C   UNL A   1      28.456  30.317  21.371  1.00  0.00     0.051 A 
ATOM     84  C   UNL A   1      29.154  31.476  23.368  1.00  0.00     0.051 A 
ATOM     85  C   UNL A   1      28.028  31.529  20.833  1.00  0.00     0.126 A 
ATOM     86  C   UNL A   1      28.728  32.676  22.804  1.00  0.00     0.126 A 
ATOM     87  F   UNL A   1      27.471  31.544  19.615  1.00  0.00    -0.207 F 
ATOM     88  C   UNL A   1      28.161  32.715  21.538  1.00  0.00     0.078 A 
ATOM     89  F   UNL A   1      28.867  33.814  23.497  1.00  0.00    -0.207 F 
ENDBRANCH  79  82
ENDBRANCH  74  77
ENDBRANCH  72  73
ENDBRANCH  71  72
ENDBRANCH   1  71
TORSDOF 11
ENDMDL
