MODEL 1
REMARK VINA RESULT:     -12.2      0.000      0.000
REMARK SMILES C[C@](Nc1ccc(S(N)(=O)=O)cc1)(C(=O)NCCCNC(=O)c1ccc(-c2c3nc(c(-c4c(F)c(F)c(F)c(F)c4F)c4ccc([nH]4)c(-c4c(F)c(F)c(F)c(F)c4F)c4nc(c(-c5c(F)c(F)c(F)c(F)c5F)c5ccc2[nH]5)C=C4)C=C3)cc1)C(F)(F)F
REMARK SMILES IDX 17 1 16 2 14 3 15 4 2 6 1 7 86 8 87 9 88 10 89 11 3 12 4 14
REMARK SMILES IDX 5 15 13 16 6 17 12 18 7 19 8 20 10 21 11 22 9 23 18 26 19 27
REMARK SMILES IDX 20 28 21 29 22 31 23 32 24 33 85 34 25 35 84 36 26 37 27 38
REMARK SMILES IDX 28 39 78 40 29 41 83 42 77 43 79 44 30 45 82 46 76 47 75 48
REMARK SMILES IDX 31 50 63 51 43 52 62 53 44 54 47 55 61 56 80 57 45 58 46 59
REMARK SMILES IDX 60 61 81 62 48 63 32 64 33 65 41 66 34 67 35 68 39 69 42 70
REMARK SMILES IDX 36 71 37 72 40 73 38 74 64 75 65 76 73 77 66 78 67 79 71 80
REMARK SMILES IDX 74 81 68 82 69 83 72 84 70 85 49 86 50 87 58 88 51 89 52 90
REMARK SMILES IDX 56 91 59 92 53 93 54 94 57 95 55 96
REMARK H PARENT 16 5 3 13 9 24 9 25 20 30 79 49 47 60
REMARK Flexibility Score: inf
ROOT
ATOM      1  C   UNL A   1      31.777  30.532  26.038  1.00  0.00     0.117 C 
ENDROOT
BRANCH   1   2
ATOM      2  N   UNL A   1      31.017  30.265  24.832  1.00  0.00    -0.354 N 
ATOM      3  C   UNL A   1      31.051  29.257  23.912  1.00  0.00     0.254 C 
ATOM      4  O   UNL A   1      30.328  29.444  22.930  1.00  0.00    -0.272 OA
ATOM      5  H   UNL A   1      30.337  30.950  24.638  1.00  0.00     0.163 HD
BRANCH   3   6
ATOM      6  C   UNL A   1      31.958  28.013  24.078  1.00  0.00     0.210 C 
ATOM      7  C   UNL A   1      31.624  26.958  23.005  1.00  0.00     0.055 C 
BRANCH   6   8
ATOM      8  C   UNL A   1      33.390  28.534  23.766  1.00  0.00     0.420 C 
ATOM      9  F   UNL A   1      34.108  28.819  24.875  1.00  0.00    -0.168 F 
ATOM     10  F   UNL A   1      34.109  27.622  23.057  1.00  0.00    -0.168 F 
ATOM     11  F   UNL A   1      33.371  29.641  22.980  1.00  0.00    -0.168 F 
ENDBRANCH   6   8
BRANCH   6  12
ATOM     12  N   UNL A   1      31.729  27.456  25.468  1.00  0.00    -0.364 N 
ATOM     13  H   UNL A   1      31.313  28.031  26.150  1.00  0.00     0.161 HD
BRANCH  12  14
ATOM     14  C   UNL A   1      32.088  26.161  25.807  1.00  0.00     0.035 A 
ATOM     15  C   UNL A   1      31.102  25.183  25.988  1.00  0.00     0.027 A 
ATOM     16  C   UNL A   1      33.427  25.767  25.858  1.00  0.00     0.027 A 
ATOM     17  C   UNL A   1      31.445  23.831  26.120  1.00  0.00     0.024 A 
ATOM     18  C   UNL A   1      33.784  24.425  25.968  1.00  0.00     0.024 A 
ATOM     19  C   UNL A   1      32.788  23.457  26.079  1.00  0.00     0.082 A 
BRANCH  19  20
ATOM     20  S   UNL A   1      33.247  21.752  26.038  1.00  0.00     0.238 S 
ATOM     21  O   UNL A   1      34.061  21.511  24.868  1.00  0.00    -0.207 OA
ATOM     22  O   UNL A   1      33.652  21.337  27.360  1.00  0.00    -0.207 OA
BRANCH  20  23
ATOM     23  N   UNL A   1      31.778  20.997  25.751  1.00  0.00    -0.225 NA
ATOM     24  H   UNL A   1      31.931  19.998  25.609  1.00  0.00     0.137 HD
ATOM     25  H   UNL A   1      31.348  21.396  24.916  1.00  0.00     0.137 HD
ENDBRANCH  20  23
ENDBRANCH  19  20
ENDBRANCH  12  14
ENDBRANCH   6  12
ENDBRANCH   3   6
ENDBRANCH   1   2
BRANCH   1  26
ATOM     26  C   UNL A   1      31.477  31.917  26.593  1.00  0.00     0.042 C 
BRANCH  26  27
ATOM     27  C   UNL A   1      32.667  32.597  27.257  1.00  0.00     0.118 C 
BRANCH  27  28
ATOM     28  N   UNL A   1      32.420  33.997  27.569  1.00  0.00    -0.352 N 
ATOM     29  C   UNL A   1      32.997  34.801  28.521  1.00  0.00     0.251 C 
ATOM     30  H   UNL A   1      31.736  34.433  27.013  1.00  0.00     0.163 HD
ATOM     31  O   UNL A   1      32.528  35.910  28.751  1.00  0.00    -0.269 OA
BRANCH  29  32
ATOM     32  C   UNL A   1      34.162  34.317  29.292  1.00  0.00     0.039 A 
ATOM     33  C   UNL A   1      33.946  33.670  30.511  1.00  0.00     0.014 A 
ATOM     34  C   UNL A   1      35.463  34.490  28.813  1.00  0.00     0.014 A 
ATOM     35  C   UNL A   1      35.027  33.127  31.207  1.00  0.00     0.010 A 
ATOM     36  C   UNL A   1      36.526  33.862  29.455  1.00  0.00     0.010 A 
ATOM     37  C   UNL A   1      36.321  33.176  30.661  1.00  0.00    -0.014 A 
BRANCH  37  38
ATOM     38  C   UNL A   1      37.468  32.512  31.332  1.00  0.00     0.031 A 
ATOM     39  C   UNL A   1      38.168  31.358  30.670  1.00  0.00     0.074 A 
ATOM     40  C   UNL A   1      37.836  32.907  32.566  1.00  0.00     0.049 A 
ATOM     41  N   UNL A   1      39.144  30.612  31.123  1.00  0.00    -0.248 NA
ATOM     42  C   UNL A   1      37.690  30.972  29.332  1.00  0.00     0.031 C 
ATOM     43  C   UNL A   1      37.203  33.981  33.335  1.00  0.00     0.029 A 
ATOM     44  N   UNL A   1      38.827  32.447  33.397  1.00  0.00    -0.354 N 
ATOM     45  C   UNL A   1      39.386  29.666  30.135  1.00  0.00     0.074 A 
ATOM     46  C   UNL A   1      38.415  29.891  29.087  1.00  0.00     0.031 C 
ATOM     47  C   UNL A   1      37.838  34.116  34.509  1.00  0.00     0.029 A 
ATOM     48  C   UNL A   1      38.892  33.109  34.599  1.00  0.00     0.049 A 
ATOM     49  H   UNL A   1      39.435  31.711  33.155  1.00  0.00     0.167 HD
ATOM     50  C   UNL A   1      40.348  28.714  30.094  1.00  0.00     0.037 A 
ATOM     51  C   UNL A   1      39.701  32.920  35.658  1.00  0.00     0.037 A 
ATOM     52  C   UNL A   1      41.324  28.506  31.132  1.00  0.00     0.049 A 
ATOM     53  C   UNL A   1      40.748  31.840  35.596  1.00  0.00     0.074 A 
ATOM     54  C   UNL A   1      42.375  27.606  31.160  1.00  0.00     0.029 A 
ATOM     55  N   UNL A   1      41.362  29.203  32.331  1.00  0.00    -0.354 N 
ATOM     56  N   UNL A   1      41.016  31.001  34.625  1.00  0.00    -0.248 NA
ATOM     57  C   UNL A   1      41.609  31.683  36.777  1.00  0.00     0.031 C 
ATOM     58  C   UNL A   1      43.010  27.716  32.400  1.00  0.00     0.029 A 
ATOM     59  C   UNL A   1      42.400  28.731  33.118  1.00  0.00     0.049 A 
ATOM     60  H   UNL A   1      40.743  29.925  32.586  1.00  0.00     0.167 HD
ATOM     61  C   UNL A   1      42.094  30.243  35.062  1.00  0.00     0.074 A 
ATOM     62  C   UNL A   1      42.440  30.730  36.379  1.00  0.00     0.031 C 
ATOM     63  C   UNL A   1      42.740  29.233  34.426  1.00  0.00     0.037 A 
BRANCH  50  64
ATOM     64  C   UNL A   1      40.394  27.821  28.886  1.00  0.00     0.064 A 
ATOM     65  C   UNL A   1      39.653  26.630  28.820  1.00  0.00     0.173 A 
ATOM     66  C   UNL A   1      41.157  28.177  27.765  1.00  0.00     0.173 A 
ATOM     67  F   UNL A   1      38.914  26.234  29.869  1.00  0.00    -0.203 F 
ATOM     68  C   UNL A   1      39.701  25.816  27.691  1.00  0.00     0.198 A 
ATOM     69  C   UNL A   1      41.174  27.380  26.623  1.00  0.00     0.198 A 
ATOM     70  F   UNL A   1      41.880  29.308  27.770  1.00  0.00    -0.203 F 
ATOM     71  F   UNL A   1      39.028  24.657  27.675  1.00  0.00    -0.200 F 
ATOM     72  C   UNL A   1      40.453  26.195  26.591  1.00  0.00     0.200 A 
ATOM     73  F   UNL A   1      41.890  27.757  25.555  1.00  0.00    -0.200 F 
ATOM     74  F   UNL A   1      40.491  25.416  25.501  1.00  0.00    -0.200 F 
ENDBRANCH  50  64
BRANCH  51  75
ATOM     75  C   UNL A   1      39.568  33.783  36.863  1.00  0.00     0.064 A 
ATOM     76  C   UNL A   1      38.774  33.389  37.950  1.00  0.00     0.173 A 
ATOM     77  C   UNL A   1      40.220  35.022  36.950  1.00  0.00     0.173 A 
ATOM     78  F   UNL A   1      38.115  32.221  37.907  1.00  0.00    -0.203 F 
ATOM     79  C   UNL A   1      38.616  34.211  39.063  1.00  0.00     0.198 A 
ATOM     80  C   UNL A   1      40.089  35.829  38.078  1.00  0.00     0.198 A 
ATOM     81  F   UNL A   1      40.998  35.445  35.943  1.00  0.00    -0.203 F 
ATOM     82  F   UNL A   1      37.809  33.832  40.063  1.00  0.00    -0.200 F 
ATOM     83  C   UNL A   1      39.278  35.428  39.130  1.00  0.00     0.200 A 
ATOM     84  F   UNL A   1      40.745  36.994  38.146  1.00  0.00    -0.200 F 
ATOM     85  F   UNL A   1      39.130  36.217  40.202  1.00  0.00    -0.200 F 
ENDBRANCH  51  75
BRANCH  63  86
ATOM     86  C   UNL A   1      43.917  28.616  35.126  1.00  0.00     0.064 A 
ATOM     87  C   UNL A   1      45.216  29.125  34.982  1.00  0.00     0.173 A 
ATOM     88  C   UNL A   1      43.733  27.525  35.991  1.00  0.00     0.173 A 
ATOM     89  F   UNL A   1      45.449  30.157  34.156  1.00  0.00    -0.203 F 
ATOM     90  C   UNL A   1      46.290  28.549  35.655  1.00  0.00     0.198 A 
ATOM     91  C   UNL A   1      44.803  26.975  36.690  1.00  0.00     0.198 A 
ATOM     92  F   UNL A   1      42.511  27.005  36.172  1.00  0.00    -0.203 F 
ATOM     93  F   UNL A   1      47.530  29.019  35.461  1.00  0.00    -0.200 F 
ATOM     94  C   UNL A   1      46.082  27.481  36.515  1.00  0.00     0.200 A 
ATOM     95  F   UNL A   1      44.596  25.955  37.534  1.00  0.00    -0.200 F 
ATOM     96  F   UNL A   1      47.115  26.935  37.171  1.00  0.00    -0.200 F 
ENDBRANCH  63  86
ENDBRANCH  37  38
ENDBRANCH  29  32
ENDBRANCH  27  28
ENDBRANCH  26  27
ENDBRANCH   1  26
TORSDOF 15
ENDMDL
MODEL 2
REMARK VINA RESULT:     -12.1      0.141      1.599
REMARK SMILES C[C@](Nc1ccc(S(N)(=O)=O)cc1)(C(=O)NCCCNC(=O)c1ccc(-c2c3nc(c(-c4c(F)c(F)c(F)c(F)c4F)c4ccc([nH]4)c(-c4c(F)c(F)c(F)c(F)c4F)c4nc(c(-c5c(F)c(F)c(F)c(F)c5F)c5ccc2[nH]5)C=C4)C=C3)cc1)C(F)(F)F
REMARK SMILES IDX 17 1 16 2 14 3 15 4 2 6 1 7 86 8 87 9 88 10 89 11 3 12 4 14
REMARK SMILES IDX 5 15 13 16 6 17 12 18 7 19 8 20 10 21 11 22 9 23 18 26 19 27
REMARK SMILES IDX 20 28 21 29 22 31 23 32 24 33 85 34 25 35 84 36 26 37 27 38
REMARK SMILES IDX 28 39 78 40 29 41 83 42 77 43 79 44 30 45 82 46 76 47 75 48
REMARK SMILES IDX 31 50 63 51 43 52 62 53 44 54 47 55 61 56 80 57 45 58 46 59
REMARK SMILES IDX 60 61 81 62 48 63 32 64 33 65 41 66 34 67 35 68 39 69 42 70
REMARK SMILES IDX 36 71 37 72 40 73 38 74 64 75 65 76 73 77 66 78 67 79 71 80
REMARK SMILES IDX 74 81 68 82 69 83 72 84 70 85 49 86 50 87 58 88 51 89 52 90
REMARK SMILES IDX 56 91 59 92 53 93 54 94 57 95 55 96
REMARK H PARENT 16 5 3 13 9 24 9 25 20 30 79 49 47 60
REMARK Flexibility Score: inf
ROOT
ATOM      1  C   UNL A   1      31.784  30.456  25.950  1.00  0.00     0.117 C 
ENDROOT
BRANCH   1   2
ATOM      2  N   UNL A   1      31.020  30.179  24.749  1.00  0.00    -0.354 N 
ATOM      3  C   UNL A   1      31.056  29.167  23.832  1.00  0.00     0.254 C 
ATOM      4  O   UNL A   1      30.328  29.345  22.853  1.00  0.00    -0.272 OA
ATOM      5  H   UNL A   1      30.335  30.859  24.554  1.00  0.00     0.163 HD
BRANCH   3   6
ATOM      6  C   UNL A   1      31.972  27.930  24.000  1.00  0.00     0.210 C 
ATOM      7  C   UNL A   1      31.551  26.815  23.022  1.00  0.00     0.055 C 
BRANCH   6   8
ATOM      8  C   UNL A   1      33.375  28.421  23.543  1.00  0.00     0.420 C 
ATOM      9  F   UNL A   1      34.183  28.761  24.573  1.00  0.00    -0.168 F 
ATOM     10  F   UNL A   1      34.031  27.467  22.829  1.00  0.00    -0.168 F 
ATOM     11  F   UNL A   1      33.295  29.484  22.702  1.00  0.00    -0.168 F 
ENDBRANCH   6   8
BRANCH   6  12
ATOM     12  N   UNL A   1      31.854  27.458  25.435  1.00  0.00    -0.364 N 
ATOM     13  H   UNL A   1      31.511  28.080  26.115  1.00  0.00     0.161 HD
BRANCH  12  14
ATOM     14  C   UNL A   1      32.217  26.176  25.817  1.00  0.00     0.035 A 
ATOM     15  C   UNL A   1      31.237  25.257  26.213  1.00  0.00     0.027 A 
ATOM     16  C   UNL A   1      33.535  25.729  25.706  1.00  0.00     0.027 A 
ATOM     17  C   UNL A   1      31.552  23.904  26.398  1.00  0.00     0.024 A 
ATOM     18  C   UNL A   1      33.861  24.384  25.866  1.00  0.00     0.024 A 
ATOM     19  C   UNL A   1      32.862  23.471  26.192  1.00  0.00     0.082 A 
BRANCH  19  20
ATOM     20  S   UNL A   1      33.255  21.750  26.218  1.00  0.00     0.238 S 
ATOM     21  O   UNL A   1      34.200  21.467  25.161  1.00  0.00    -0.207 OA
ATOM     22  O   UNL A   1      33.473  21.331  27.582  1.00  0.00    -0.207 OA
BRANCH  20  23
ATOM     23  N   UNL A   1      31.805  21.048  25.750  1.00  0.00    -0.225 NA
ATOM     24  H   UNL A   1      31.498  21.459  24.868  1.00  0.00     0.137 HD
ATOM     25  H   UNL A   1      31.099  21.217  26.467  1.00  0.00     0.137 HD
ENDBRANCH  20  23
ENDBRANCH  19  20
ENDBRANCH  12  14
ENDBRANCH   6  12
ENDBRANCH   3   6
ENDBRANCH   1   2
BRANCH   1  26
ATOM     26  C   UNL A   1      31.467  31.836  26.508  1.00  0.00     0.042 C 
BRANCH  26  27
ATOM     27  C   UNL A   1      32.624  32.492  27.251  1.00  0.00     0.118 C 
BRANCH  27  28
ATOM     28  N   UNL A   1      32.393  33.901  27.531  1.00  0.00    -0.352 N 
ATOM     29  C   UNL A   1      32.985  34.721  28.460  1.00  0.00     0.251 C 
ATOM     30  H   UNL A   1      31.708  34.331  26.971  1.00  0.00     0.163 HD
ATOM     31  O   UNL A   1      32.528  35.841  28.667  1.00  0.00    -0.269 OA
BRANCH  29  32
ATOM     32  C   UNL A   1      34.152  34.245  29.233  1.00  0.00     0.039 A 
ATOM     33  C   UNL A   1      33.937  33.597  30.451  1.00  0.00     0.014 A 
ATOM     34  C   UNL A   1      35.452  34.425  28.755  1.00  0.00     0.014 A 
ATOM     35  C   UNL A   1      35.021  33.061  31.149  1.00  0.00     0.010 A 
ATOM     36  C   UNL A   1      36.518  33.804  29.399  1.00  0.00     0.010 A 
ATOM     37  C   UNL A   1      36.315  33.117  30.604  1.00  0.00    -0.014 A 
BRANCH  37  38
ATOM     38  C   UNL A   1      37.465  32.461  31.277  1.00  0.00     0.031 A 
ATOM     39  C   UNL A   1      38.168  31.306  30.620  1.00  0.00     0.074 A 
ATOM     40  C   UNL A   1      37.834  32.863  32.509  1.00  0.00     0.049 A 
ATOM     41  N   UNL A   1      39.147  30.565  31.076  1.00  0.00    -0.248 NA
ATOM     42  C   UNL A   1      37.690  30.910  29.285  1.00  0.00     0.031 C 
ATOM     43  C   UNL A   1      37.198  33.939  33.274  1.00  0.00     0.029 A 
ATOM     44  N   UNL A   1      38.827  32.410  33.342  1.00  0.00    -0.354 N 
ATOM     45  C   UNL A   1      39.391  29.615  30.093  1.00  0.00     0.074 A 
ATOM     46  C   UNL A   1      38.418  29.831  29.045  1.00  0.00     0.031 C 
ATOM     47  C   UNL A   1      37.834  34.082  34.446  1.00  0.00     0.029 A 
ATOM     48  C   UNL A   1      38.891  33.079  34.540  1.00  0.00     0.049 A 
ATOM     49  H   UNL A   1      39.437  31.675  33.102  1.00  0.00     0.167 HD
ATOM     50  C   UNL A   1      40.356  28.665  30.055  1.00  0.00     0.037 A 
ATOM     51  C   UNL A   1      39.703  32.897  35.599  1.00  0.00     0.037 A 
ATOM     52  C   UNL A   1      41.334  28.466  31.093  1.00  0.00     0.049 A 
ATOM     53  C   UNL A   1      40.752  31.820  35.541  1.00  0.00     0.074 A 
ATOM     54  C   UNL A   1      42.387  27.570  31.124  1.00  0.00     0.029 A 
ATOM     55  N   UNL A   1      41.371  29.169  32.289  1.00  0.00    -0.354 N 
ATOM     56  N   UNL A   1      41.022  30.977  34.574  1.00  0.00    -0.248 NA
ATOM     57  C   UNL A   1      41.615  31.672  36.722  1.00  0.00     0.031 C 
ATOM     58  C   UNL A   1      43.024  27.687  32.363  1.00  0.00     0.029 A 
ATOM     59  C   UNL A   1      42.412  28.705  33.077  1.00  0.00     0.049 A 
ATOM     60  H   UNL A   1      40.750  29.890  32.540  1.00  0.00     0.167 HD
ATOM     61  C   UNL A   1      42.103  30.225  35.013  1.00  0.00     0.074 A 
ATOM     62  C   UNL A   1      42.449  30.720  36.328  1.00  0.00     0.031 C 
ATOM     63  C   UNL A   1      42.752  29.214  34.382  1.00  0.00     0.037 A 
BRANCH  50  64
ATOM     64  C   UNL A   1      40.403  27.766  28.852  1.00  0.00     0.064 A 
ATOM     65  C   UNL A   1      41.198  28.069  27.735  1.00  0.00     0.173 A 
ATOM     66  C   UNL A   1      39.676  26.567  28.829  1.00  0.00     0.173 A 
ATOM     67  F   UNL A   1      41.907  29.208  27.698  1.00  0.00    -0.203 F 
ATOM     68  C   UNL A   1      41.237  27.222  26.630  1.00  0.00     0.198 A 
ATOM     69  C   UNL A   1      39.745  25.705  27.738  1.00  0.00     0.198 A 
ATOM     70  F   UNL A   1      38.904  26.224  29.872  1.00  0.00    -0.203 F 
ATOM     71  F   UNL A   1      41.960  27.561  25.554  1.00  0.00    -0.200 F 
ATOM     72  C   UNL A   1      40.518  26.038  26.636  1.00  0.00     0.200 A 
ATOM     73  F   UNL A   1      39.061  24.552  27.753  1.00  0.00    -0.200 F 
ATOM     74  F   UNL A   1      40.563  25.218  25.576  1.00  0.00    -0.200 F 
ENDBRANCH  50  64
BRANCH  51  75
ATOM     75  C   UNL A   1      39.568  33.766  36.800  1.00  0.00     0.064 A 
ATOM     76  C   UNL A   1      38.771  33.377  37.887  1.00  0.00     0.173 A 
ATOM     77  C   UNL A   1      40.221  35.005  36.882  1.00  0.00     0.173 A 
ATOM     78  F   UNL A   1      38.112  32.210  37.848  1.00  0.00    -0.203 F 
ATOM     79  C   UNL A   1      38.613  34.205  38.996  1.00  0.00     0.198 A 
ATOM     80  C   UNL A   1      40.089  35.817  38.006  1.00  0.00     0.198 A 
ATOM     81  F   UNL A   1      41.001  35.422  35.874  1.00  0.00    -0.203 F 
ATOM     82  F   UNL A   1      37.803  33.831  39.996  1.00  0.00    -0.200 F 
ATOM     83  C   UNL A   1      39.276  35.421  39.058  1.00  0.00     0.200 A 
ATOM     84  F   UNL A   1      40.746  36.982  38.070  1.00  0.00    -0.200 F 
ATOM     85  F   UNL A   1      39.126  36.215  40.127  1.00  0.00    -0.200 F 
ENDBRANCH  51  75
BRANCH  63  86
ATOM     86  C   UNL A   1      43.932  28.605  35.084  1.00  0.00     0.064 A 
ATOM     87  C   UNL A   1      43.799  27.493  35.928  1.00  0.00     0.173 A 
ATOM     88  C   UNL A   1      45.222  29.115  34.870  1.00  0.00     0.173 A 
ATOM     89  F   UNL A   1      42.586  26.976  36.178  1.00  0.00    -0.203 F 
ATOM     90  C   UNL A   1      44.909  26.933  36.555  1.00  0.00     0.198 A 
ATOM     91  C   UNL A   1      46.334  28.530  35.469  1.00  0.00     0.198 A 
ATOM     92  F   UNL A   1      45.407  30.172  34.066  1.00  0.00    -0.203 F 
ATOM     93  F   UNL A   1      44.751  25.904  37.399  1.00  0.00    -0.200 F 
ATOM     94  C   UNL A   1      46.176  27.445  36.317  1.00  0.00     0.200 A 
ATOM     95  F   UNL A   1      47.558  29.015  35.223  1.00  0.00    -0.200 F 
ATOM     96  F   UNL A   1      47.244  26.897  36.911  1.00  0.00    -0.200 F 
ENDBRANCH  63  86
ENDBRANCH  37  38
ENDBRANCH  29  32
ENDBRANCH  27  28
ENDBRANCH  26  27
ENDBRANCH   1  26
TORSDOF 15
ENDMDL
MODEL 3
REMARK VINA RESULT:     -12.1      5.620     11.184
REMARK SMILES C[C@](Nc1ccc(S(N)(=O)=O)cc1)(C(=O)NCCCNC(=O)c1ccc(-c2c3nc(c(-c4c(F)c(F)c(F)c(F)c4F)c4ccc([nH]4)c(-c4c(F)c(F)c(F)c(F)c4F)c4nc(c(-c5c(F)c(F)c(F)c(F)c5F)c5ccc2[nH]5)C=C4)C=C3)cc1)C(F)(F)F
REMARK SMILES IDX 17 1 16 2 14 3 15 4 2 6 1 7 86 8 87 9 88 10 89 11 3 12 4 14
REMARK SMILES IDX 5 15 13 16 6 17 12 18 7 19 8 20 10 21 11 22 9 23 18 26 19 27
REMARK SMILES IDX 20 28 21 29 22 31 23 32 24 33 85 34 25 35 84 36 26 37 27 38
REMARK SMILES IDX 28 39 78 40 29 41 83 42 77 43 79 44 30 45 82 46 76 47 75 48
REMARK SMILES IDX 31 50 63 51 43 52 62 53 44 54 47 55 61 56 80 57 45 58 46 59
REMARK SMILES IDX 60 61 81 62 48 63 32 64 33 65 41 66 34 67 35 68 39 69 42 70
REMARK SMILES IDX 36 71 37 72 40 73 38 74 64 75 65 76 73 77 66 78 67 79 71 80
REMARK SMILES IDX 74 81 68 82 69 83 72 84 70 85 49 86 50 87 58 88 51 89 52 90
REMARK SMILES IDX 56 91 59 92 53 93 54 94 57 95 55 96
REMARK H PARENT 16 5 3 13 9 24 9 25 20 30 79 49 47 60
REMARK Flexibility Score: inf
ROOT
ATOM      1  C   UNL A   1      36.724  20.868  25.130  1.00  0.00     0.117 C 
ENDROOT
BRANCH   1   2
ATOM      2  N   UNL A   1      35.463  20.158  25.028  1.00  0.00    -0.354 N 
ATOM      3  C   UNL A   1      34.162  20.540  25.185  1.00  0.00     0.254 C 
ATOM      4  O   UNL A   1      33.353  19.610  25.148  1.00  0.00    -0.272 OA
ATOM      5  H   UNL A   1      35.567  19.206  24.798  1.00  0.00     0.163 HD
BRANCH   3   6
ATOM      6  C   UNL A   1      33.755  22.014  25.431  1.00  0.00     0.210 C 
ATOM      7  C   UNL A   1      32.241  22.197  25.206  1.00  0.00     0.055 C 
BRANCH   6   8
ATOM      8  C   UNL A   1      34.014  22.239  26.948  1.00  0.00     0.420 C 
ATOM      9  F   UNL A   1      34.033  21.091  27.662  1.00  0.00    -0.168 F 
ATOM     10  F   UNL A   1      35.207  22.856  27.165  1.00  0.00    -0.168 F 
ATOM     11  F   UNL A   1      33.094  23.067  27.506  1.00  0.00    -0.168 F 
ENDBRANCH   6   8
BRANCH   6  12
ATOM     12  N   UNL A   1      34.548  22.879  24.473  1.00  0.00    -0.364 N 
ATOM     13  H   UNL A   1      35.329  22.492  24.015  1.00  0.00     0.161 HD
BRANCH  12  14
ATOM     14  C   UNL A   1      34.208  24.199  24.223  1.00  0.00     0.035 A 
ATOM     15  C   UNL A   1      33.595  24.550  23.013  1.00  0.00     0.027 A 
ATOM     16  C   UNL A   1      34.350  25.185  25.202  1.00  0.00     0.027 A 
ATOM     17  C   UNL A   1      33.053  25.828  22.826  1.00  0.00     0.024 A 
ATOM     18  C   UNL A   1      33.798  26.454  25.039  1.00  0.00     0.024 A 
ATOM     19  C   UNL A   1      33.132  26.765  23.856  1.00  0.00     0.082 A 
BRANCH  19  20
ATOM     20  S   UNL A   1      32.287  28.311  23.735  1.00  0.00     0.238 S 
ATOM     21  O   UNL A   1      31.552  28.348  22.491  1.00  0.00    -0.207 OA
ATOM     22  O   UNL A   1      31.674  28.620  25.004  1.00  0.00    -0.207 OA
BRANCH  20  23
ATOM     23  N   UNL A   1      33.555  29.395  23.562  1.00  0.00    -0.225 NA
ATOM     24  H   UNL A   1      33.687  29.609  22.573  1.00  0.00     0.137 HD
ATOM     25  H   UNL A   1      34.409  28.982  23.937  1.00  0.00     0.137 HD
ENDBRANCH  20  23
ENDBRANCH  19  20
ENDBRANCH  12  14
ENDBRANCH   6  12
ENDBRANCH   3   6
ENDBRANCH   1   2
BRANCH   1  26
ATOM     26  C   UNL A   1      37.909  19.927  24.968  1.00  0.00     0.042 C 
BRANCH  26  27
ATOM     27  C   UNL A   1      39.137  20.321  25.779  1.00  0.00     0.118 C 
BRANCH  27  28
ATOM     28  N   UNL A   1      40.115  19.249  25.885  1.00  0.00    -0.352 N 
ATOM     29  C   UNL A   1      41.474  19.314  26.078  1.00  0.00     0.251 C 
ATOM     30  H   UNL A   1      39.748  18.339  25.805  1.00  0.00     0.163 HD
ATOM     31  O   UNL A   1      42.158  18.303  25.960  1.00  0.00    -0.269 OA
BRANCH  29  32
ATOM     32  C   UNL A   1      42.116  20.608  26.394  1.00  0.00     0.039 A 
ATOM     33  C   UNL A   1      42.563  21.416  25.347  1.00  0.00     0.014 A 
ATOM     34  C   UNL A   1      42.268  21.030  27.717  1.00  0.00     0.014 A 
ATOM     35  C   UNL A   1      43.088  22.679  25.624  1.00  0.00     0.010 A 
ATOM     36  C   UNL A   1      42.697  22.326  27.985  1.00  0.00     0.010 A 
ATOM     37  C   UNL A   1      43.114  23.164  26.942  1.00  0.00    -0.014 A 
BRANCH  37  38
ATOM     38  C   UNL A   1      43.569  24.545  27.247  1.00  0.00     0.031 A 
ATOM     39  C   UNL A   1      42.596  25.565  27.770  1.00  0.00     0.074 A 
ATOM     40  C   UNL A   1      44.845  24.898  26.991  1.00  0.00     0.049 A 
ATOM     41  N   UNL A   1      42.789  26.833  28.035  1.00  0.00    -0.248 NA
ATOM     42  C   UNL A   1      41.216  25.108  28.000  1.00  0.00     0.031 C 
ATOM     43  C   UNL A   1      45.872  24.014  26.436  1.00  0.00     0.029 A 
ATOM     44  N   UNL A   1      45.495  26.095  27.156  1.00  0.00    -0.354 N 
ATOM     45  C   UNL A   1      41.557  27.323  28.448  1.00  0.00     0.074 A 
ATOM     46  C   UNL A   1      40.610  26.235  28.340  1.00  0.00     0.031 C 
ATOM     47  C   UNL A   1      47.027  24.689  26.334  1.00  0.00     0.029 A 
ATOM     48  C   UNL A   1      46.813  26.066  26.770  1.00  0.00     0.049 A 
ATOM     49  H   UNL A   1      45.057  26.900  27.517  1.00  0.00     0.167 HD
ATOM     50  C   UNL A   1      41.248  28.561  28.903  1.00  0.00     0.037 A 
ATOM     51  C   UNL A   1      47.742  27.041  26.759  1.00  0.00     0.037 A 
ATOM     52  C   UNL A   1      42.198  29.636  29.026  1.00  0.00     0.049 A 
ATOM     53  C   UNL A   1      47.368  28.414  27.249  1.00  0.00     0.074 A 
ATOM     54  C   UNL A   1      41.999  30.909  29.529  1.00  0.00     0.029 A 
ATOM     55  N   UNL A   1      43.527  29.565  28.633  1.00  0.00    -0.354 N 
ATOM     56  N   UNL A   1      46.219  28.845  27.708  1.00  0.00    -0.248 NA
ATOM     57  C   UNL A   1      48.423  29.437  27.222  1.00  0.00     0.031 C 
ATOM     58  C   UNL A   1      43.189  31.628  29.383  1.00  0.00     0.029 A 
ATOM     59  C   UNL A   1      44.151  30.782  28.854  1.00  0.00     0.049 A 
ATOM     60  H   UNL A   1      43.962  28.768  28.252  1.00  0.00     0.167 HD
ATOM     61  C   UNL A   1      46.420  30.174  28.057  1.00  0.00     0.074 A 
ATOM     62  C   UNL A   1      47.806  30.474  27.769  1.00  0.00     0.031 C 
ATOM     63  C   UNL A   1      45.536  31.065  28.571  1.00  0.00     0.037 A 
BRANCH  50  64
ATOM     64  C   UNL A   1      39.823  28.823  29.302  1.00  0.00     0.064 A 
ATOM     65  C   UNL A   1      38.878  29.310  28.385  1.00  0.00     0.173 A 
ATOM     66  C   UNL A   1      39.386  28.548  30.605  1.00  0.00     0.173 A 
ATOM     67  F   UNL A   1      39.244  29.601  27.126  1.00  0.00    -0.203 F 
ATOM     68  C   UNL A   1      37.559  29.541  28.768  1.00  0.00     0.198 A 
ATOM     69  C   UNL A   1      38.058  28.745  30.975  1.00  0.00     0.198 A 
ATOM     70  F   UNL A   1      40.244  28.074  31.522  1.00  0.00    -0.203 F 
ATOM     71  F   UNL A   1      36.690  30.060  27.889  1.00  0.00    -0.200 F 
ATOM     72  C   UNL A   1      37.148  29.251  30.058  1.00  0.00     0.200 A 
ATOM     73  F   UNL A   1      37.659  28.448  32.220  1.00  0.00    -0.200 F 
ATOM     74  F   UNL A   1      35.877  29.465  30.423  1.00  0.00    -0.200 F 
ENDBRANCH  50  64
BRANCH  51  75
ATOM     75  C   UNL A   1      49.122  26.750  26.285  1.00  0.00     0.064 A 
ATOM     76  C   UNL A   1      49.491  26.982  24.952  1.00  0.00     0.173 A 
ATOM     77  C   UNL A   1      50.096  26.227  27.148  1.00  0.00     0.173 A 
ATOM     78  F   UNL A   1      48.590  27.465  24.083  1.00  0.00    -0.203 F 
ATOM     79  C   UNL A   1      50.771  26.677  24.495  1.00  0.00     0.198 A 
ATOM     80  C   UNL A   1      51.386  25.952  26.698  1.00  0.00     0.198 A 
ATOM     81  F   UNL A   1      49.799  25.993  28.434  1.00  0.00    -0.203 F 
ATOM     82  F   UNL A   1      51.079  26.858  23.204  1.00  0.00    -0.200 F 
ATOM     83  C   UNL A   1      51.720  26.167  25.369  1.00  0.00     0.200 A 
ATOM     84  F   UNL A   1      52.304  25.479  27.550  1.00  0.00    -0.200 F 
ATOM     85  F   UNL A   1      52.952  25.877  24.930  1.00  0.00    -0.200 F 
ENDBRANCH  51  75
BRANCH  63  86
ATOM     86  C   UNL A   1      46.049  32.438  28.899  1.00  0.00     0.064 A 
ATOM     87  C   UNL A   1      46.622  32.737  30.144  1.00  0.00     0.173 A 
ATOM     88  C   UNL A   1      46.005  33.458  27.935  1.00  0.00     0.173 A 
ATOM     89  F   UNL A   1      46.674  31.803  31.105  1.00  0.00    -0.203 F 
ATOM     90  C   UNL A   1      47.108  34.013  30.420  1.00  0.00     0.198 A 
ATOM     91  C   UNL A   1      46.525  34.721  28.202  1.00  0.00     0.198 A 
ATOM     92  F   UNL A   1      45.475  33.223  26.726  1.00  0.00    -0.203 F 
ATOM     93  F   UNL A   1      47.603  34.290  31.634  1.00  0.00    -0.200 F 
ATOM     94  C   UNL A   1      47.068  35.000  29.447  1.00  0.00     0.200 A 
ATOM     95  F   UNL A   1      46.502  35.667  27.254  1.00  0.00    -0.200 F 
ATOM     96  F   UNL A   1      47.547  36.223  29.711  1.00  0.00    -0.200 F 
ENDBRANCH  63  86
ENDBRANCH  37  38
ENDBRANCH  29  32
ENDBRANCH  27  28
ENDBRANCH  26  27
ENDBRANCH   1  26
TORSDOF 15
ENDMDL
