MODEL 1
REMARK VINA RESULT:     -11.0      0.000      0.000
REMARK SMILES C=CC[N@@H+](CC(=O)NCCCNC(=O)c1ccc(-c2c3nc(c(-c4c(F)c(F)c(F)c(F)c4F)c4ccc([nH]4)c(-c4c(F)c(F)c(F)c(F)c4F)c4nc(c(-c5c(F)c(F)c(F)c(F)c5F)c5ccc2[nH]5)C=C4)C=C3)cc1)Cc1ccnc(C#N)c1
REMARK SMILES IDX 9 1 8 2 6 3 7 4 5 6 4 7 3 9 2 10 1 11 78 12 79 13 80 14
REMARK SMILES IDX 86 15 81 16 83 17 82 18 84 19 85 20 10 21 11 22 12 23 13 24
REMARK SMILES IDX 14 26 15 27 16 28 77 29 17 30 76 31 18 32 19 33 20 34 70 35
REMARK SMILES IDX 21 36 75 37 69 38 71 39 22 40 74 41 68 42 67 43 23 45 55 46
REMARK SMILES IDX 35 47 54 48 36 49 39 50 53 51 72 52 37 53 38 54 52 56 73 57
REMARK SMILES IDX 40 58 24 59 25 60 33 61 26 62 27 63 31 64 34 65 28 66 29 67
REMARK SMILES IDX 32 68 30 69 56 70 57 71 65 72 58 73 59 74 63 75 66 76 60 77
REMARK SMILES IDX 61 78 64 79 62 80 41 81 42 82 50 83 43 84 44 85 48 86 51 87
REMARK SMILES IDX 45 88 46 89 49 90 47 91
REMARK H PARENT 8 5 4 8 12 25 71 44 39 55
REMARK Flexibility Score: inf
ROOT
ATOM      1  C   UNL A   1      31.308  30.701  25.641  1.00  0.00     0.118 C 
ENDROOT
BRANCH   1   2
ATOM      2  N   UNL A   1      32.271  29.708  26.093  1.00  0.00    -0.351 N 
ATOM      3  C   UNL A   1      33.052  28.816  25.415  1.00  0.00     0.275 C 
ATOM      4  O   UNL A   1      34.015  28.349  26.035  1.00  0.00    -0.269 OA
ATOM      5  H   UNL A   1      32.381  29.673  27.070  1.00  0.00     0.163 HD
BRANCH   3   6
ATOM      6  C   UNL A   1      32.800  28.405  23.958  1.00  0.00     0.364 C 
BRANCH   6   7
ATOM      7  N   UNL A   1      31.589  27.591  23.700  1.00  0.00    -0.320 N 
ATOM      8  H   UNL A   1      30.928  27.870  24.426  1.00  0.00     0.349 HD
BRANCH   7   9
ATOM      9  C   UNL A   1      31.808  26.183  23.938  1.00  0.00     0.291 C 
BRANCH   9  10
ATOM     10  C   UNL A   1      30.616  25.279  23.930  1.00  0.00     0.025 C 
ATOM     11  C   UNL A   1      30.629  24.057  23.374  1.00  0.00     0.010 C 
ENDBRANCH   9  10
ENDBRANCH   7   9
BRANCH   7  12
ATOM     12  C   UNL A   1      30.782  27.954  22.529  1.00  0.00     0.299 C 
BRANCH  12  13
ATOM     13  C   UNL A   1      29.541  28.808  22.699  1.00  0.00     0.011 A 
ATOM     14  C   UNL A   1      28.329  28.187  23.037  1.00  0.00     0.030 A 
ATOM     15  C   UNL A   1      29.517  30.191  22.503  1.00  0.00     0.049 A 
ATOM     16  C   UNL A   1      27.187  28.957  23.204  1.00  0.00     0.113 A 
ATOM     17  C   UNL A   1      28.325  30.884  22.710  1.00  0.00     0.140 A 
ATOM     18  N   UNL A   1      27.157  30.294  23.051  1.00  0.00    -0.246 NA
BRANCH  17  19
ATOM     19  C   UNL A   1      28.275  32.316  22.595  1.00  0.00     0.119 C 
ATOM     20  N   UNL A   1      28.231  33.465  22.451  1.00  0.00    -0.191 NA
ENDBRANCH  17  19
ENDBRANCH  12  13
ENDBRANCH   7  12
ENDBRANCH   6   7
ENDBRANCH   3   6
ENDBRANCH   1   2
BRANCH   1  21
ATOM     21  C   UNL A   1      31.278  31.998  26.463  1.00  0.00     0.042 C 
BRANCH  21  22
ATOM     22  C   UNL A   1      32.579  32.366  27.164  1.00  0.00     0.118 C 
BRANCH  22  23
ATOM     23  N   UNL A   1      32.598  33.764  27.546  1.00  0.00    -0.352 N 
ATOM     24  C   UNL A   1      33.363  34.400  28.494  1.00  0.00     0.251 C 
ATOM     25  H   UNL A   1      31.971  34.343  27.055  1.00  0.00     0.163 HD
ATOM     26  O   UNL A   1      33.038  35.524  28.868  1.00  0.00    -0.269 OA
BRANCH  24  27
ATOM     27  C   UNL A   1      34.559  33.750  29.088  1.00  0.00     0.039 A 
ATOM     28  C   UNL A   1      34.375  32.698  29.989  1.00  0.00     0.014 A 
ATOM     29  C   UNL A   1      35.853  34.208  28.830  1.00  0.00     0.014 A 
ATOM     30  C   UNL A   1      35.480  32.095  30.599  1.00  0.00     0.010 A 
ATOM     31  C   UNL A   1      36.960  33.544  29.365  1.00  0.00     0.010 A 
ATOM     32  C   UNL A   1      36.790  32.493  30.276  1.00  0.00    -0.014 A 
BRANCH  32  33
ATOM     33  C   UNL A   1      37.965  31.823  30.904  1.00  0.00     0.031 A 
ATOM     34  C   UNL A   1      38.399  32.174  32.303  1.00  0.00     0.074 A 
ATOM     35  C   UNL A   1      38.659  30.901  30.207  1.00  0.00     0.049 A 
ATOM     36  N   UNL A   1      39.377  31.672  33.019  1.00  0.00    -0.248 NA
ATOM     37  C   UNL A   1      37.652  33.241  32.985  1.00  0.00     0.031 C 
ATOM     38  C   UNL A   1      38.378  30.502  28.828  1.00  0.00     0.029 A 
ATOM     39  N   UNL A   1      39.738  30.128  30.562  1.00  0.00    -0.354 N 
ATOM     40  C   UNL A   1      39.365  32.365  34.224  1.00  0.00     0.074 A 
ATOM     41  C   UNL A   1      38.323  33.363  34.121  1.00  0.00     0.031 C 
ATOM     42  C   UNL A   1      39.235  29.536  28.466  1.00  0.00     0.029 A 
ATOM     43  C   UNL A   1      40.156  29.276  29.569  1.00  0.00     0.049 A 
ATOM     44  H   UNL A   1      40.171  30.181  31.444  1.00  0.00     0.167 HD
ATOM     45  C   UNL A   1      40.132  32.174  35.324  1.00  0.00     0.037 A 
ATOM     46  C   UNL A   1      41.170  28.389  29.542  1.00  0.00     0.037 A 
ATOM     47  C   UNL A   1      41.168  31.177  35.428  1.00  0.00     0.049 A 
ATOM     48  C   UNL A   1      42.026  28.210  30.767  1.00  0.00     0.074 A 
ATOM     49  C   UNL A   1      41.960  30.864  36.520  1.00  0.00     0.029 A 
ATOM     50  N   UNL A   1      41.569  30.342  34.395  1.00  0.00    -0.354 N 
ATOM     51  N   UNL A   1      41.945  28.811  31.930  1.00  0.00    -0.248 NA
ATOM     52  C   UNL A   1      43.109  27.221  30.680  1.00  0.00     0.031 C 
ATOM     53  C   UNL A   1      42.888  29.895  36.126  1.00  0.00     0.029 A 
ATOM     54  C   UNL A   1      42.624  29.542  34.812  1.00  0.00     0.049 A 
ATOM     55  H   UNL A   1      41.165  30.319  33.497  1.00  0.00     0.167 HD
ATOM     56  C   UNL A   1      42.945  28.257  32.718  1.00  0.00     0.074 A 
ATOM     57  C   UNL A   1      43.607  27.256  31.907  1.00  0.00     0.031 C 
ATOM     58  C   UNL A   1      43.281  28.550  33.999  1.00  0.00     0.037 A 
BRANCH  45  59
ATOM     59  C   UNL A   1      39.892  33.073  36.508  1.00  0.00     0.064 A 
ATOM     60  C   UNL A   1      40.635  34.248  36.710  1.00  0.00     0.173 A 
ATOM     61  C   UNL A   1      38.882  32.775  37.436  1.00  0.00     0.173 A 
ATOM     62  F   UNL A   1      41.614  34.584  35.856  1.00  0.00    -0.203 F 
ATOM     63  C   UNL A   1      40.407  35.062  37.817  1.00  0.00     0.198 A 
ATOM     64  C   UNL A   1      38.630  33.612  38.521  1.00  0.00     0.198 A 
ATOM     65  F   UNL A   1      38.129  31.675  37.287  1.00  0.00    -0.203 F 
ATOM     66  F   UNL A   1      41.171  36.143  38.020  1.00  0.00    -0.200 F 
ATOM     67  C   UNL A   1      39.401  34.747  38.717  1.00  0.00     0.200 A 
ATOM     68  F   UNL A   1      37.642  33.317  39.376  1.00  0.00    -0.200 F 
ATOM     69  F   UNL A   1      39.177  35.535  39.778  1.00  0.00    -0.200 F 
ENDBRANCH  45  59
BRANCH  46  70
ATOM     70  C   UNL A   1      41.418  27.589  28.313  1.00  0.00     0.064 A 
ATOM     71  C   UNL A   1      42.328  28.021  27.338  1.00  0.00     0.173 A 
ATOM     72  C   UNL A   1      40.755  26.373  28.091  1.00  0.00     0.173 A 
ATOM     73  F   UNL A   1      42.973  29.186  27.492  1.00  0.00    -0.203 F 
ATOM     74  C   UNL A   1      42.552  27.275  26.181  1.00  0.00     0.198 A 
ATOM     75  C   UNL A   1      41.004  25.611  26.951  1.00  0.00     0.198 A 
ATOM     76  F   UNL A   1      39.877  25.911  28.994  1.00  0.00    -0.203 F 
ATOM     77  F   UNL A   1      43.392  27.734  25.243  1.00  0.00    -0.200 F 
ATOM     78  C   UNL A   1      41.896  26.068  25.993  1.00  0.00     0.200 A 
ATOM     79  F   UNL A   1      40.384  24.437  26.784  1.00  0.00    -0.200 F 
ATOM     80  F   UNL A   1      42.120  25.346  24.886  1.00  0.00    -0.200 F 
ENDBRANCH  46  70
BRANCH  58  81
ATOM     81  C   UNL A   1      44.396  27.755  34.622  1.00  0.00     0.064 A 
ATOM     82  C   UNL A   1      45.727  28.198  34.599  1.00  0.00     0.173 A 
ATOM     83  C   UNL A   1      44.121  26.547  35.284  1.00  0.00     0.173 A 
ATOM     84  F   UNL A   1      46.049  29.338  33.970  1.00  0.00    -0.203 F 
ATOM     85  C   UNL A   1      46.744  27.445  35.184  1.00  0.00     0.198 A 
ATOM     86  C   UNL A   1      45.133  25.819  35.901  1.00  0.00     0.198 A 
ATOM     87  F   UNL A   1      42.864  26.079  35.344  1.00  0.00    -0.203 F 
ATOM     88  F   UNL A   1      48.016  27.859  35.097  1.00  0.00    -0.200 F 
ATOM     89  C   UNL A   1      46.445  26.263  35.842  1.00  0.00     0.200 A 
ATOM     90  F   UNL A   1      44.838  24.684  36.551  1.00  0.00    -0.200 F 
ATOM     91  F   UNL A   1      47.423  25.544  36.412  1.00  0.00    -0.200 F 
ENDBRANCH  58  81
ENDBRANCH  32  33
ENDBRANCH  24  27
ENDBRANCH  22  23
ENDBRANCH  21  22
ENDBRANCH   1  21
TORSDOF 16
ENDMDL
MODEL 2
REMARK VINA RESULT:     -10.9      1.038      7.493
REMARK SMILES C=CC[N@@H+](CC(=O)NCCCNC(=O)c1ccc(-c2c3nc(c(-c4c(F)c(F)c(F)c(F)c4F)c4ccc([nH]4)c(-c4c(F)c(F)c(F)c(F)c4F)c4nc(c(-c5c(F)c(F)c(F)c(F)c5F)c5ccc2[nH]5)C=C4)C=C3)cc1)Cc1ccnc(C#N)c1
REMARK SMILES IDX 9 1 8 2 6 3 7 4 5 6 4 7 3 9 2 10 1 11 78 12 79 13 80 14
REMARK SMILES IDX 86 15 81 16 83 17 82 18 84 19 85 20 10 21 11 22 12 23 13 24
REMARK SMILES IDX 14 26 15 27 16 28 77 29 17 30 76 31 18 32 19 33 20 34 70 35
REMARK SMILES IDX 21 36 75 37 69 38 71 39 22 40 74 41 68 42 67 43 23 45 55 46
REMARK SMILES IDX 35 47 54 48 36 49 39 50 53 51 72 52 37 53 38 54 52 56 73 57
REMARK SMILES IDX 40 58 24 59 25 60 33 61 26 62 27 63 31 64 34 65 28 66 29 67
REMARK SMILES IDX 32 68 30 69 56 70 57 71 65 72 58 73 59 74 63 75 66 76 60 77
REMARK SMILES IDX 61 78 64 79 62 80 41 81 42 82 50 83 43 84 44 85 48 86 51 87
REMARK SMILES IDX 45 88 46 89 49 90 47 91
REMARK H PARENT 8 5 4 8 12 25 71 44 39 55
REMARK Flexibility Score: inf
ROOT
ATOM      1  C   UNL A   1      31.398  30.971  25.978  1.00  0.00     0.118 C 
ENDROOT
BRANCH   1   2
ATOM      2  N   UNL A   1      32.455  30.045  26.358  1.00  0.00    -0.351 N 
ATOM      3  C   UNL A   1      33.213  29.173  25.630  1.00  0.00     0.275 C 
ATOM      4  O   UNL A   1      34.257  28.778  26.163  1.00  0.00    -0.269 OA
ATOM      5  H   UNL A   1      32.663  30.048  27.321  1.00  0.00     0.163 HD
BRANCH   3   6
ATOM      6  C   UNL A   1      32.841  28.703  24.217  1.00  0.00     0.364 C 
BRANCH   6   7
ATOM      7  N   UNL A   1      31.660  27.815  24.105  1.00  0.00    -0.320 N 
ATOM      8  H   UNL A   1      30.992  28.183  24.783  1.00  0.00     0.349 HD
BRANCH   7   9
ATOM      9  C   UNL A   1      31.932  26.472  24.563  1.00  0.00     0.291 C 
BRANCH   9  10
ATOM     10  C   UNL A   1      31.226  25.997  25.794  1.00  0.00     0.025 C 
ATOM     11  C   UNL A   1      29.908  25.742  25.827  1.00  0.00     0.010 C 
ENDBRANCH   9  10
ENDBRANCH   7   9
BRANCH   7  12
ATOM     12  C   UNL A   1      30.836  27.956  22.898  1.00  0.00     0.299 C 
BRANCH  12  13
ATOM     13  C   UNL A   1      29.591  28.820  22.928  1.00  0.00     0.011 A 
ATOM     14  C   UNL A   1      28.341  28.206  23.091  1.00  0.00     0.030 A 
ATOM     15  C   UNL A   1      29.606  30.209  22.765  1.00  0.00     0.049 A 
ATOM     16  C   UNL A   1      27.193  28.986  23.129  1.00  0.00     0.113 A 
ATOM     17  C   UNL A   1      28.403  30.911  22.834  1.00  0.00     0.140 A 
ATOM     18  N   UNL A   1      27.196  30.327  23.006  1.00  0.00    -0.246 NA
BRANCH  17  19
ATOM     19  C   UNL A   1      28.381  32.345  22.750  1.00  0.00     0.119 C 
ATOM     20  N   UNL A   1      28.334  33.498  22.639  1.00  0.00    -0.191 NA
ENDBRANCH  17  19
ENDBRANCH  12  13
ENDBRANCH   7  12
ENDBRANCH   6   7
ENDBRANCH   3   6
ENDBRANCH   1   2
BRANCH   1  21
ATOM     21  C   UNL A   1      31.364  32.281  26.780  1.00  0.00     0.042 C 
BRANCH  21  22
ATOM     22  C   UNL A   1      32.719  32.912  27.073  1.00  0.00     0.118 C 
BRANCH  22  23
ATOM     23  N   UNL A   1      32.575  34.251  27.609  1.00  0.00    -0.352 N 
ATOM     24  C   UNL A   1      33.148  34.810  28.725  1.00  0.00     0.251 C 
ATOM     25  H   UNL A   1      31.979  34.846  27.100  1.00  0.00     0.163 HD
ATOM     26  O   UNL A   1      32.688  35.857  29.172  1.00  0.00    -0.269 OA
BRANCH  24  27
ATOM     27  C   UNL A   1      34.298  34.167  29.411  1.00  0.00     0.039 A 
ATOM     28  C   UNL A   1      34.046  33.296  30.474  1.00  0.00     0.014 A 
ATOM     29  C   UNL A   1      35.621  34.464  29.073  1.00  0.00     0.014 A 
ATOM     30  C   UNL A   1      35.109  32.708  31.168  1.00  0.00     0.010 A 
ATOM     31  C   UNL A   1      36.679  33.805  29.703  1.00  0.00     0.010 A 
ATOM     32  C   UNL A   1      36.440  32.936  30.776  1.00  0.00    -0.014 A 
BRANCH  32  33
ATOM     33  C   UNL A   1      37.568  32.280  31.498  1.00  0.00     0.031 A 
ATOM     34  C   UNL A   1      38.307  31.118  30.886  1.00  0.00     0.074 A 
ATOM     35  C   UNL A   1      37.924  32.721  32.721  1.00  0.00     0.049 A 
ATOM     36  N   UNL A   1      39.332  30.446  31.356  1.00  0.00    -0.248 NA
ATOM     37  C   UNL A   1      37.825  30.631  29.585  1.00  0.00     0.031 C 
ATOM     38  C   UNL A   1      37.263  33.803  33.450  1.00  0.00     0.029 A 
ATOM     39  N   UNL A   1      38.931  32.319  33.566  1.00  0.00    -0.354 N 
ATOM     40  C   UNL A   1      39.607  29.461  30.416  1.00  0.00     0.074 A 
ATOM     41  C   UNL A   1      38.606  29.582  29.378  1.00  0.00     0.031 C 
ATOM     42  C   UNL A   1      37.901  34.005  34.613  1.00  0.00     0.029 A 
ATOM     43  C   UNL A   1      38.989  33.038  34.735  1.00  0.00     0.049 A 
ATOM     44  H   UNL A   1      39.552  31.585  33.353  1.00  0.00     0.167 HD
ATOM     45  C   UNL A   1      40.613  28.553  30.403  1.00  0.00     0.037 A 
ATOM     46  C   UNL A   1      39.818  32.931  35.791  1.00  0.00     0.037 A 
ATOM     47  C   UNL A   1      41.612  28.434  31.435  1.00  0.00     0.049 A 
ATOM     48  C   UNL A   1      40.914  31.899  35.768  1.00  0.00     0.074 A 
ATOM     49  C   UNL A   1      42.706  27.587  31.485  1.00  0.00     0.029 A 
ATOM     50  N   UNL A   1      41.628  29.173  32.610  1.00  0.00    -0.354 N 
ATOM     51  N   UNL A   1      41.216  31.032  34.831  1.00  0.00    -0.248 NA
ATOM     52  C   UNL A   1      41.791  31.837  36.944  1.00  0.00     0.031 C 
ATOM     53  C   UNL A   1      43.340  27.761  32.720  1.00  0.00     0.029 A 
ATOM     54  C   UNL A   1      42.691  28.773  33.408  1.00  0.00     0.049 A 
ATOM     55  H   UNL A   1      40.981  29.877  32.843  1.00  0.00     0.167 HD
ATOM     56  C   UNL A   1      42.329  30.342  35.291  1.00  0.00     0.074 A 
ATOM     57  C   UNL A   1      42.662  30.906  36.584  1.00  0.00     0.031 C 
ATOM     58  C   UNL A   1      43.014  29.335  34.695  1.00  0.00     0.037 A 
BRANCH  45  59
ATOM     59  C   UNL A   1      40.679  27.600  29.239  1.00  0.00     0.064 A 
ATOM     60  C   UNL A   1      41.620  27.752  28.208  1.00  0.00     0.173 A 
ATOM     61  C   UNL A   1      39.810  26.500  29.170  1.00  0.00     0.173 A 
ATOM     62  F   UNL A   1      42.475  28.786  28.220  1.00  0.00    -0.203 F 
ATOM     63  C   UNL A   1      41.658  26.868  27.132  1.00  0.00     0.198 A 
ATOM     64  C   UNL A   1      39.877  25.594  28.113  1.00  0.00     0.198 A 
ATOM     65  F   UNL A   1      38.900  26.293  30.133  1.00  0.00    -0.203 F 
ATOM     66  F   UNL A   1      42.523  27.071  26.130  1.00  0.00    -0.200 F 
ATOM     67  C   UNL A   1      40.792  25.786  27.089  1.00  0.00     0.200 A 
ATOM     68  F   UNL A   1      39.054  24.537  28.085  1.00  0.00    -0.200 F 
ATOM     69  F   UNL A   1      40.834  24.931  26.057  1.00  0.00    -0.200 F 
ENDBRANCH  45  59
BRANCH  46  70
ATOM     70  C   UNL A   1      39.651  33.841  36.956  1.00  0.00     0.064 A 
ATOM     71  C   UNL A   1      40.265  35.101  36.986  1.00  0.00     0.173 A 
ATOM     72  C   UNL A   1      38.868  33.472  38.061  1.00  0.00     0.173 A 
ATOM     73  F   UNL A   1      41.040  35.494  35.965  1.00  0.00    -0.203 F 
ATOM     74  C   UNL A   1      40.118  35.949  38.083  1.00  0.00     0.198 A 
ATOM     75  C   UNL A   1      38.693  34.334  39.141  1.00  0.00     0.198 A 
ATOM     76  F   UNL A   1      38.255  32.280  38.081  1.00  0.00    -0.203 F 
ATOM     77  F   UNL A   1      40.753  37.128  38.106  1.00  0.00    -0.200 F 
ATOM     78  C   UNL A   1      39.324  35.568  39.155  1.00  0.00     0.200 A 
ATOM     79  F   UNL A   1      37.910  33.970  40.165  1.00  0.00    -0.200 F 
ATOM     80  F   UNL A   1      39.173  36.387  40.204  1.00  0.00    -0.200 F 
ENDBRANCH  46  70
BRANCH  58  81
ATOM     81  C   UNL A   1      44.219  28.796  35.416  1.00  0.00     0.064 A 
ATOM     82  C   UNL A   1      44.128  27.720  36.313  1.00  0.00     0.173 A 
ATOM     83  C   UNL A   1      45.491  29.341  35.178  1.00  0.00     0.173 A 
ATOM     84  F   UNL A   1      42.937  27.169  36.588  1.00  0.00    -0.203 F 
ATOM     85  C   UNL A   1      45.259  27.235  36.968  1.00  0.00     0.198 A 
ATOM     86  C   UNL A   1      46.623  28.829  35.804  1.00  0.00     0.198 A 
ATOM     87  F   UNL A   1      45.639  30.366  34.324  1.00  0.00    -0.203 F 
ATOM     88  F   UNL A   1      45.138  26.247  37.865  1.00  0.00    -0.200 F 
ATOM     89  C   UNL A   1      46.505  27.783  36.707  1.00  0.00     0.200 A 
ATOM     90  F   UNL A   1      47.829  29.350  35.536  1.00  0.00    -0.200 F 
ATOM     91  F   UNL A   1      47.592  27.310  37.332  1.00  0.00    -0.200 F 
ENDBRANCH  58  81
ENDBRANCH  32  33
ENDBRANCH  24  27
ENDBRANCH  22  23
ENDBRANCH  21  22
ENDBRANCH   1  21
TORSDOF 16
ENDMDL
MODEL 3
REMARK VINA RESULT:     -10.9      6.087     11.479
REMARK SMILES C=CC[N@@H+](CC(=O)NCCCNC(=O)c1ccc(-c2c3nc(c(-c4c(F)c(F)c(F)c(F)c4F)c4ccc([nH]4)c(-c4c(F)c(F)c(F)c(F)c4F)c4nc(c(-c5c(F)c(F)c(F)c(F)c5F)c5ccc2[nH]5)C=C4)C=C3)cc1)Cc1ccnc(C#N)c1
REMARK SMILES IDX 9 1 8 2 6 3 7 4 5 6 4 7 3 9 2 10 1 11 78 12 79 13 80 14
REMARK SMILES IDX 86 15 81 16 83 17 82 18 84 19 85 20 10 21 11 22 12 23 13 24
REMARK SMILES IDX 14 26 15 27 16 28 77 29 17 30 76 31 18 32 19 33 20 34 70 35
REMARK SMILES IDX 21 36 75 37 69 38 71 39 22 40 74 41 68 42 67 43 23 45 55 46
REMARK SMILES IDX 35 47 54 48 36 49 39 50 53 51 72 52 37 53 38 54 52 56 73 57
REMARK SMILES IDX 40 58 24 59 25 60 33 61 26 62 27 63 31 64 34 65 28 66 29 67
REMARK SMILES IDX 32 68 30 69 56 70 57 71 65 72 58 73 59 74 63 75 66 76 60 77
REMARK SMILES IDX 61 78 64 79 62 80 41 81 42 82 50 83 43 84 44 85 48 86 51 87
REMARK SMILES IDX 45 88 46 89 49 90 47 91
REMARK H PARENT 8 5 4 8 12 25 71 44 39 55
REMARK Flexibility Score: inf
ROOT
ATOM      1  C   UNL A   1      36.725  19.938  24.998  1.00  0.00     0.118 C 
ENDROOT
BRANCH   1   2
ATOM      2  N   UNL A   1      36.724  21.374  25.240  1.00  0.00    -0.351 N 
ATOM      3  C   UNL A   1      35.850  22.189  25.902  1.00  0.00     0.275 C 
ATOM      4  O   UNL A   1      36.284  23.298  26.238  1.00  0.00    -0.269 OA
ATOM      5  H   UNL A   1      37.498  21.845  24.856  1.00  0.00     0.163 HD
BRANCH   3   6
ATOM      6  C   UNL A   1      34.411  21.785  26.249  1.00  0.00     0.364 C 
BRANCH   6   7
ATOM      7  N   UNL A   1      33.414  21.887  25.157  1.00  0.00    -0.320 N 
ATOM      8  H   UNL A   1      33.931  21.653  24.309  1.00  0.00     0.349 HD
BRANCH   7   9
ATOM      9  C   UNL A   1      32.967  23.244  24.941  1.00  0.00     0.291 C 
BRANCH   9  10
ATOM     10  C   UNL A   1      33.493  23.970  23.743  1.00  0.00     0.025 C 
ATOM     11  C   UNL A   1      34.097  23.348  22.719  1.00  0.00     0.010 C 
ENDBRANCH   9  10
ENDBRANCH   7   9
BRANCH   7  12
ATOM     12  C   UNL A   1      32.400  20.828  25.085  1.00  0.00     0.299 C 
BRANCH  12  13
ATOM     13  C   UNL A   1      32.712  19.527  24.373  1.00  0.00     0.011 A 
ATOM     14  C   UNL A   1      32.237  19.334  23.068  1.00  0.00     0.030 A 
ATOM     15  C   UNL A   1      33.425  18.475  24.956  1.00  0.00     0.049 A 
ATOM     16  C   UNL A   1      32.523  18.152  22.401  1.00  0.00     0.113 A 
ATOM     17  C   UNL A   1      33.677  17.329  24.202  1.00  0.00     0.140 A 
ATOM     18  N   UNL A   1      33.236  17.143  22.938  1.00  0.00    -0.246 NA
BRANCH  17  19
ATOM     19  C   UNL A   1      34.472  16.257  24.736  1.00  0.00     0.119 C 
ATOM     20  N   UNL A   1      35.076  15.385  25.202  1.00  0.00    -0.191 NA
ENDBRANCH  17  19
ENDBRANCH  12  13
ENDBRANCH   7  12
ENDBRANCH   6   7
ENDBRANCH   3   6
ENDBRANCH   1   2
BRANCH   1  21
ATOM     21  C   UNL A   1      38.114  19.283  24.989  1.00  0.00     0.042 C 
BRANCH  21  22
ATOM     22  C   UNL A   1      39.195  20.013  25.775  1.00  0.00     0.118 C 
BRANCH  22  23
ATOM     23  N   UNL A   1      40.340  19.158  26.020  1.00  0.00    -0.352 N 
ATOM     24  C   UNL A   1      41.659  19.497  26.202  1.00  0.00     0.251 C 
ATOM     25  H   UNL A   1      40.144  18.195  26.061  1.00  0.00     0.163 HD
ATOM     26  O   UNL A   1      42.518  18.624  26.114  1.00  0.00    -0.269 OA
BRANCH  24  27
ATOM     27  C   UNL A   1      42.067  20.898  26.484  1.00  0.00     0.039 A 
ATOM     28  C   UNL A   1      42.240  21.293  27.812  1.00  0.00     0.014 A 
ATOM     29  C   UNL A   1      42.210  21.844  25.467  1.00  0.00     0.014 A 
ATOM     30  C   UNL A   1      42.581  22.616  28.112  1.00  0.00     0.010 A 
ATOM     31  C   UNL A   1      42.644  23.140  25.760  1.00  0.00     0.010 A 
ATOM     32  C   UNL A   1      42.812  23.552  27.088  1.00  0.00    -0.014 A 
BRANCH  32  33
ATOM     33  C   UNL A   1      43.209  24.952  27.413  1.00  0.00     0.031 A 
ATOM     34  C   UNL A   1      44.607  25.444  27.138  1.00  0.00     0.074 A 
ATOM     35  C   UNL A   1      42.313  25.787  27.974  1.00  0.00     0.049 A 
ATOM     36  N   UNL A   1      45.119  26.637  27.327  1.00  0.00    -0.248 NA
ATOM     37  C   UNL A   1      45.563  24.466  26.598  1.00  0.00     0.031 C 
ATOM     38  C   UNL A   1      40.942  25.428  28.338  1.00  0.00     0.029 A 
ATOM     39  N   UNL A   1      42.414  27.111  28.331  1.00  0.00    -0.354 N 
ATOM     40  C   UNL A   1      46.450  26.548  26.937  1.00  0.00     0.074 A 
ATOM     41  C   UNL A   1      46.684  25.171  26.559  1.00  0.00     0.031 C 
ATOM     42  C   UNL A   1      40.320  26.509  28.832  1.00  0.00     0.029 A 
ATOM     43  C   UNL A   1      41.258  27.628  28.862  1.00  0.00     0.049 A 
ATOM     44  H   UNL A   1      43.238  27.637  28.218  1.00  0.00     0.167 HD
ATOM     45  C   UNL A   1      47.387  27.526  26.876  1.00  0.00     0.037 A 
ATOM     46  C   UNL A   1      40.981  28.861  29.328  1.00  0.00     0.037 A 
ATOM     47  C   UNL A   1      47.153  28.898  27.250  1.00  0.00     0.049 A 
ATOM     48  C   UNL A   1      42.044  29.926  29.275  1.00  0.00     0.074 A 
ATOM     49  C   UNL A   1      48.019  29.975  27.168  1.00  0.00     0.029 A 
ATOM     50  N   UNL A   1      45.972  29.379  27.796  1.00  0.00    -0.354 N 
ATOM     51  N   UNL A   1      43.272  29.849  28.821  1.00  0.00    -0.248 NA
ATOM     52  C   UNL A   1      41.679  31.253  29.788  1.00  0.00     0.031 C 
ATOM     53  C   UNL A   1      47.388  31.089  27.731  1.00  0.00     0.029 A 
ATOM     54  C   UNL A   1      46.100  30.729  28.091  1.00  0.00     0.049 A 
ATOM     55  H   UNL A   1      45.161  28.842  27.950  1.00  0.00     0.167 HD
ATOM     56  C   UNL A   1      43.816  31.118  28.969  1.00  0.00     0.074 A 
ATOM     57  C   UNL A   1      42.776  31.952  29.537  1.00  0.00     0.031 C 
ATOM     58  C   UNL A   1      45.063  31.552  28.660  1.00  0.00     0.037 A 
BRANCH  45  59
ATOM     59  C   UNL A   1      48.763  27.144  26.399  1.00  0.00     0.064 A 
ATOM     60  C   UNL A   1      49.116  27.188  25.040  1.00  0.00     0.173 A 
ATOM     61  C   UNL A   1      49.754  26.762  27.316  1.00  0.00     0.173 A 
ATOM     62  F   UNL A   1      48.209  27.544  24.117  1.00  0.00    -0.203 F 
ATOM     63  C   UNL A   1      50.390  26.820  24.615  1.00  0.00     0.198 A 
ATOM     64  C   UNL A   1      51.040  26.433  26.892  1.00  0.00     0.198 A 
ATOM     65  F   UNL A   1      49.482  26.718  28.629  1.00  0.00    -0.203 F 
ATOM     66  F   UNL A   1      50.682  26.810  23.308  1.00  0.00    -0.200 F 
ATOM     67  C   UNL A   1      51.353  26.450  25.541  1.00  0.00     0.200 A 
ATOM     68  F   UNL A   1      51.975  26.098  27.791  1.00  0.00    -0.200 F 
ATOM     69  F   UNL A   1      52.582  26.103  25.132  1.00  0.00    -0.200 F 
ENDBRANCH  45  59
BRANCH  46  70
ATOM     70  C   UNL A   1      39.629  29.158  29.873  1.00  0.00     0.064 A 
ATOM     71  C   UNL A   1      38.605  29.642  29.047  1.00  0.00     0.173 A 
ATOM     72  C   UNL A   1      39.331  28.959  31.229  1.00  0.00     0.173 A 
ATOM     73  F   UNL A   1      38.842  29.870  27.747  1.00  0.00    -0.203 F 
ATOM     74  C   UNL A   1      37.341  29.931  29.560  1.00  0.00     0.198 A 
ATOM     75  C   UNL A   1      38.059  29.215  31.734  1.00  0.00     0.198 A 
ATOM     76  F   UNL A   1      40.274  28.493  32.062  1.00  0.00    -0.203 F 
ATOM     77  F   UNL A   1      36.394  30.437  28.758  1.00  0.00    -0.200 F 
ATOM     78  C   UNL A   1      37.067  29.709  30.901  1.00  0.00     0.200 A 
ATOM     79  F   UNL A   1      37.794  28.980  33.026  1.00  0.00    -0.200 F 
ATOM     80  F   UNL A   1      35.849  29.976  31.392  1.00  0.00    -0.200 F 
ENDBRANCH  46  70
BRANCH  58  81
ATOM     81  C   UNL A   1      45.368  33.007  28.895  1.00  0.00     0.064 A 
ATOM     82  C   UNL A   1      45.093  33.988  27.930  1.00  0.00     0.173 A 
ATOM     83  C   UNL A   1      45.911  33.429  30.119  1.00  0.00     0.173 A 
ATOM     84  F   UNL A   1      44.586  33.641  26.738  1.00  0.00    -0.203 F 
ATOM     85  C   UNL A   1      45.382  35.330  28.170  1.00  0.00     0.198 A 
ATOM     86  C   UNL A   1      46.161  34.774  30.370  1.00  0.00     0.198 A 
ATOM     87  F   UNL A   1      46.186  32.534  31.081  1.00  0.00    -0.203 F 
ATOM     88  F   UNL A   1      45.166  36.242  27.211  1.00  0.00    -0.200 F 
ATOM     89  C   UNL A   1      45.907  35.723  29.391  1.00  0.00     0.200 A 
ATOM     90  F   UNL A   1      46.653  35.152  31.558  1.00  0.00    -0.200 F 
ATOM     91  F   UNL A   1      46.176  37.015  29.623  1.00  0.00    -0.200 F 
ENDBRANCH  58  81
ENDBRANCH  32  33
ENDBRANCH  24  27
ENDBRANCH  22  23
ENDBRANCH  21  22
ENDBRANCH   1  21
TORSDOF 16
ENDMDL
