MODEL 1
REMARK VINA RESULT:     -12.5      0.000      0.000
REMARK SMILES C[C@H]1[C@@H](C(=O)NCCCNC(=O)c2ccc(-c3c4nc(c(-c5c(F)c(F)c(F)c(F)c5F)c5ccc([nH]5)c(-c5c(F)c(F)c(F)c(F)c5F)c5nc(c(-c6c(F)c(F)c(F)c(F)c6F)c6ccc3[nH]6)C=C5)C=C4)cc2)CCN1C(=O)c1n[nH]c(N)n1
REMARK SMILES IDX 7 1 6 2 4 3 5 4 3 6 1 7 2 8 78 9 76 10 77 11 79 12 80 13
REMARK SMILES IDX 81 14 82 15 86 16 83 17 84 18 85 20 8 23 9 24 10 25 11 26
REMARK SMILES IDX 12 28 13 29 14 30 75 31 15 32 74 33 16 34 17 35 18 36 68 37
REMARK SMILES IDX 19 38 73 39 67 40 69 41 20 42 72 43 66 44 65 45 21 47 53 48
REMARK SMILES IDX 33 49 52 50 34 51 37 52 51 53 70 54 35 55 36 56 50 58 71 59
REMARK SMILES IDX 38 60 22 61 23 62 31 63 24 64 25 65 29 66 32 67 26 68 27 69
REMARK SMILES IDX 30 70 28 71 54 72 55 73 63 74 56 75 57 76 61 77 64 78 58 79
REMARK SMILES IDX 59 80 62 81 60 82 39 83 40 84 48 85 41 86 42 87 46 88 49 89
REMARK SMILES IDX 43 90 44 91 47 92 45 93
REMARK H PARENT 6 5 83 19 85 21 85 22 10 27 69 46 37 57
REMARK Flexibility Score: inf
ROOT
ATOM      1  C   UNL A   1      31.370  28.597  24.692  1.00  0.00     0.117 C 
ENDROOT
BRANCH   1   2
ATOM      2  N   UNL A   1      31.061  27.571  25.675  1.00  0.00    -0.356 N 
ATOM      3  C   UNL A   1      31.585  26.322  25.848  1.00  0.00     0.225 C 
ATOM      4  O   UNL A   1      31.174  25.665  26.804  1.00  0.00    -0.275 OA
ATOM      5  H   UNL A   1      30.360  27.817  26.321  1.00  0.00     0.163 HD
BRANCH   3   6
ATOM      6  C   UNL A   1      32.641  25.792  24.883  1.00  0.00     0.102 C 
ATOM      7  C   UNL A   1      30.658  24.605  23.680  1.00  0.00     0.032 C 
ATOM      8  C   UNL A   1      32.167  24.699  23.892  1.00  0.00     0.095 C 
ATOM      9  N   UNL A   1      32.729  23.445  24.401  1.00  0.00    -0.332 N 
ATOM     10  C   UNL A   1      33.784  25.098  25.647  1.00  0.00     0.037 C 
ATOM     11  C   UNL A   1      33.360  23.638  25.687  1.00  0.00     0.121 C 
BRANCH   9  12
ATOM     12  C   UNL A   1      32.768  22.208  23.751  1.00  0.00     0.293 C 
ATOM     13  O   UNL A   1      32.464  22.092  22.563  1.00  0.00    -0.265 OA
BRANCH  12  14
ATOM     14  C   UNL A   1      33.196  21.045  24.559  1.00  0.00     0.241 A 
ATOM     15  N   UNL A   1      34.477  20.616  24.624  1.00  0.00    -0.147 NA
ATOM     16  N   UNL A   1      32.298  20.207  25.202  1.00  0.00    -0.187 NA
ATOM     17  N   UNL A   1      34.349  19.503  25.365  1.00  0.00    -0.245 N 
ATOM     18  C   UNL A   1      33.045  19.237  25.656  1.00  0.00     0.216 A 
ATOM     19  H   UNL A   1      35.107  18.947  25.661  1.00  0.00     0.193 HD
BRANCH  18  20
ATOM     20  N   UNL A   1      32.652  18.122  26.277  1.00  0.00    -0.368 N 
ATOM     21  H   UNL A   1      33.023  17.895  27.161  1.00  0.00     0.159 HD
ATOM     22  H   UNL A   1      31.992  17.527  25.853  1.00  0.00     0.159 HD
ENDBRANCH  18  20
ENDBRANCH  12  14
ENDBRANCH   9  12
ENDBRANCH   3   6
ENDBRANCH   1   2
BRANCH   1  23
ATOM     23  C   UNL A   1      32.417  29.598  25.193  1.00  0.00     0.042 C 
BRANCH  23  24
ATOM     24  C   UNL A   1      32.197  30.038  26.640  1.00  0.00     0.118 C 
BRANCH  24  25
ATOM     25  N   UNL A   1      32.345  31.475  26.784  1.00  0.00    -0.352 N 
ATOM     26  C   UNL A   1      33.280  32.261  27.403  1.00  0.00     0.251 C 
ATOM     27  H   UNL A   1      31.628  31.989  26.350  1.00  0.00     0.163 HD
ATOM     28  O   UNL A   1      32.999  33.447  27.579  1.00  0.00    -0.269 OA
BRANCH  26  29
ATOM     29  C   UNL A   1      34.606  31.770  27.864  1.00  0.00     0.039 A 
ATOM     30  C   UNL A   1      34.689  30.425  28.260  1.00  0.00     0.014 A 
ATOM     31  C   UNL A   1      35.706  32.602  28.080  1.00  0.00     0.014 A 
ATOM     32  C   UNL A   1      35.847  29.926  28.868  1.00  0.00     0.010 A 
ATOM     33  C   UNL A   1      36.888  32.089  28.636  1.00  0.00     0.010 A 
ATOM     34  C   UNL A   1      36.958  30.756  29.067  1.00  0.00    -0.014 A 
BRANCH  34  35
ATOM     35  C   UNL A   1      38.151  30.258  29.804  1.00  0.00     0.031 A 
ATOM     36  C   UNL A   1      38.383  30.664  31.237  1.00  0.00     0.074 A 
ATOM     37  C   UNL A   1      39.034  29.440  29.201  1.00  0.00     0.049 A 
ATOM     38  N   UNL A   1      39.385  30.376  32.029  1.00  0.00    -0.248 NA
ATOM     39  C   UNL A   1      37.360  31.522  31.853  1.00  0.00     0.031 C 
ATOM     40  C   UNL A   1      38.951  28.976  27.817  1.00  0.00     0.029 A 
ATOM     41  N   UNL A   1      40.180  28.854  29.682  1.00  0.00    -0.354 N 
ATOM     42  C   UNL A   1      39.135  31.046  33.219  1.00  0.00     0.074 A 
ATOM     43  C   UNL A   1      37.889  31.763  33.045  1.00  0.00     0.031 C 
ATOM     44  C   UNL A   1      39.991  28.162  27.566  1.00  0.00     0.029 A 
ATOM     45  C   UNL A   1      40.821  28.063  28.763  1.00  0.00     0.049 A 
ATOM     46  H   UNL A   1      40.509  28.988  30.601  1.00  0.00     0.167 HD
ATOM     47  C   UNL A   1      39.869  31.060  34.357  1.00  0.00     0.037 A 
ATOM     48  C   UNL A   1      41.952  27.338  28.871  1.00  0.00     0.037 A 
ATOM     49  C   UNL A   1      41.076  30.309  34.570  1.00  0.00     0.049 A 
ATOM     50  C   UNL A   1      42.710  27.314  30.167  1.00  0.00     0.074 A 
ATOM     51  C   UNL A   1      41.859  30.235  35.709  1.00  0.00     0.029 A 
ATOM     52  N   UNL A   1      41.664  29.484  33.626  1.00  0.00    -0.354 N 
ATOM     53  N   UNL A   1      42.455  27.946  31.285  1.00  0.00    -0.248 NA
ATOM     54  C   UNL A   1      43.915  26.471  30.215  1.00  0.00     0.031 C 
ATOM     55  C   UNL A   1      42.929  29.369  35.451  1.00  0.00     0.029 A 
ATOM     56  C   UNL A   1      42.800  28.894  34.157  1.00  0.00     0.049 A 
ATOM     57  H   UNL A   1      41.327  29.339  32.712  1.00  0.00     0.167 HD
ATOM     58  C   UNL A   1      43.456  27.573  32.170  1.00  0.00     0.074 A 
ATOM     59  C   UNL A   1      44.320  26.649  31.466  1.00  0.00     0.031 C 
ATOM     60  C   UNL A   1      43.644  27.969  33.451  1.00  0.00     0.037 A 
BRANCH  47  61
ATOM     61  C   UNL A   1      39.384  31.933  35.473  1.00  0.00     0.064 A 
ATOM     62  C   UNL A   1      38.513  31.444  36.457  1.00  0.00     0.173 A 
ATOM     63  C   UNL A   1      39.824  33.259  35.577  1.00  0.00     0.173 A 
ATOM     64  F   UNL A   1      38.057  30.185  36.388  1.00  0.00    -0.203 F 
ATOM     65  C   UNL A   1      38.087  32.262  37.499  1.00  0.00     0.198 A 
ATOM     66  C   UNL A   1      39.408  34.069  36.630  1.00  0.00     0.198 A 
ATOM     67  F   UNL A   1      40.660  33.769  34.660  1.00  0.00    -0.203 F 
ATOM     68  F   UNL A   1      37.230  31.786  38.414  1.00  0.00    -0.200 F 
ATOM     69  C   UNL A   1      38.537  33.571  37.587  1.00  0.00     0.200 A 
ATOM     70  F   UNL A   1      39.846  35.333  36.716  1.00  0.00    -0.200 F 
ATOM     71  F   UNL A   1      38.125  34.356  38.593  1.00  0.00    -0.200 F 
ENDBRANCH  47  61
BRANCH  48  72
ATOM     72  C   UNL A   1      42.425  26.547  27.712  1.00  0.00     0.064 A 
ATOM     73  C   UNL A   1      43.344  27.089  26.804  1.00  0.00     0.173 A 
ATOM     74  C   UNL A   1      41.973  25.239  27.494  1.00  0.00     0.173 A 
ATOM     75  F   UNL A   1      43.785  28.345  26.967  1.00  0.00    -0.203 F 
ATOM     76  C   UNL A   1      43.793  26.349  25.713  1.00  0.00     0.198 A 
ATOM     77  C   UNL A   1      42.434  24.496  26.410  1.00  0.00     0.198 A 
ATOM     78  F   UNL A   1      41.092  24.685  28.337  1.00  0.00    -0.203 F 
ATOM     79  F   UNL A   1      44.657  26.895  24.846  1.00  0.00    -0.200 F 
ATOM     80  C   UNL A   1      43.341  25.052  25.519  1.00  0.00     0.200 A 
ATOM     81  F   UNL A   1      42.000  23.242  26.227  1.00  0.00    -0.200 F 
ATOM     82  F   UNL A   1      43.777  24.340  24.472  1.00  0.00    -0.200 F 
ENDBRANCH  48  72
BRANCH  60  83
ATOM     83  C   UNL A   1      44.817  27.393  34.181  1.00  0.00     0.064 A 
ATOM     84  C   UNL A   1      46.059  28.042  34.184  1.00  0.00     0.173 A 
ATOM     85  C   UNL A   1      44.686  26.204  34.912  1.00  0.00     0.173 A 
ATOM     86  F   UNL A   1      46.231  29.174  33.485  1.00  0.00    -0.203 F 
ATOM     87  C   UNL A   1      47.136  27.512  34.888  1.00  0.00     0.198 A 
ATOM     88  C   UNL A   1      45.763  25.684  35.625  1.00  0.00     0.198 A 
ATOM     89  F   UNL A   1      43.516  25.550  34.936  1.00  0.00    -0.203 F 
ATOM     90  F   UNL A   1      48.324  28.134  34.860  1.00  0.00    -0.200 F 
ATOM     91  C   UNL A   1      46.987  26.337  35.610  1.00  0.00     0.200 A 
ATOM     92  F   UNL A   1      45.619  24.549  36.322  1.00  0.00    -0.200 F 
ATOM     93  F   UNL A   1      48.027  25.828  36.287  1.00  0.00    -0.200 F 
ENDBRANCH  60  83
ENDBRANCH  34  35
ENDBRANCH  26  29
ENDBRANCH  24  25
ENDBRANCH  23  24
ENDBRANCH   1  23
TORSDOF 13
ENDMDL
MODEL 2
REMARK VINA RESULT:     -12.5      4.621     10.438
REMARK SMILES C[C@H]1[C@@H](C(=O)NCCCNC(=O)c2ccc(-c3c4nc(c(-c5c(F)c(F)c(F)c(F)c5F)c5ccc([nH]5)c(-c5c(F)c(F)c(F)c(F)c5F)c5nc(c(-c6c(F)c(F)c(F)c(F)c6F)c6ccc3[nH]6)C=C5)C=C4)cc2)CCN1C(=O)c1n[nH]c(N)n1
REMARK SMILES IDX 7 1 6 2 4 3 5 4 3 6 1 7 2 8 78 9 76 10 77 11 79 12 80 13
REMARK SMILES IDX 81 14 82 15 86 16 83 17 84 18 85 20 8 23 9 24 10 25 11 26
REMARK SMILES IDX 12 28 13 29 14 30 75 31 15 32 74 33 16 34 17 35 18 36 68 37
REMARK SMILES IDX 19 38 73 39 67 40 69 41 20 42 72 43 66 44 65 45 21 47 53 48
REMARK SMILES IDX 33 49 52 50 34 51 37 52 51 53 70 54 35 55 36 56 50 58 71 59
REMARK SMILES IDX 38 60 22 61 23 62 31 63 24 64 25 65 29 66 32 67 26 68 27 69
REMARK SMILES IDX 30 70 28 71 54 72 55 73 63 74 56 75 57 76 61 77 64 78 58 79
REMARK SMILES IDX 59 80 62 81 60 82 39 83 40 84 48 85 41 86 42 87 46 88 49 89
REMARK SMILES IDX 43 90 44 91 47 92 45 93
REMARK H PARENT 6 5 83 19 85 21 85 22 10 27 69 46 37 57
REMARK Flexibility Score: inf
ROOT
ATOM      1  C   UNL A   1      42.627  21.610  27.141  1.00  0.00     0.117 C 
ENDROOT
BRANCH   1   2
ATOM      2  N   UNL A   1      43.973  21.614  26.592  1.00  0.00    -0.356 N 
ATOM      3  C   UNL A   1      44.938  22.579  26.617  1.00  0.00     0.225 C 
ATOM      4  O   UNL A   1      46.026  22.302  26.111  1.00  0.00    -0.275 OA
ATOM      5  H   UNL A   1      44.229  20.785  26.125  1.00  0.00     0.163 HD
BRANCH   3   6
ATOM      6  C   UNL A   1      44.654  23.933  27.260  1.00  0.00     0.102 C 
ATOM      7  C   UNL A   1      43.597  24.575  24.966  1.00  0.00     0.032 C 
ATOM      8  C   UNL A   1      44.164  25.048  26.302  1.00  0.00     0.095 C 
ATOM      9  N   UNL A   1      45.313  25.940  26.126  1.00  0.00    -0.332 N 
ATOM     10  C   UNL A   1      45.936  24.533  27.867  1.00  0.00     0.037 C 
ATOM     11  C   UNL A   1      46.499  25.395  26.747  1.00  0.00     0.121 C 
BRANCH   9  12
ATOM     12  C   UNL A   1      45.322  27.204  25.528  1.00  0.00     0.293 C 
ATOM     13  O   UNL A   1      46.026  27.451  24.548  1.00  0.00    -0.265 OA
BRANCH  12  14
ATOM     14  C   UNL A   1      44.442  28.230  26.130  1.00  0.00     0.241 A 
ATOM     15  N   UNL A   1      43.196  28.497  25.678  1.00  0.00    -0.147 NA
ATOM     16  N   UNL A   1      44.875  29.105  27.114  1.00  0.00    -0.187 NA
ATOM     17  N   UNL A   1      42.852  29.546  26.444  1.00  0.00    -0.245 N 
ATOM     18  C   UNL A   1      43.876  29.936  27.254  1.00  0.00     0.216 A 
ATOM     19  H   UNL A   1      41.968  29.979  26.422  1.00  0.00     0.193 HD
BRANCH  18  20
ATOM     20  N   UNL A   1      43.820  31.027  28.021  1.00  0.00    -0.368 N 
ATOM     21  H   UNL A   1      44.106  30.983  28.962  1.00  0.00     0.159 HD
ATOM     22  H   UNL A   1      43.492  31.877  27.646  1.00  0.00     0.159 HD
ENDBRANCH  18  20
ENDBRANCH  12  14
ENDBRANCH   9  12
ENDBRANCH   3   6
ENDBRANCH   1   2
BRANCH   1  23
ATOM     23  C   UNL A   1      41.550  21.804  26.068  1.00  0.00     0.042 C 
BRANCH  23  24
ATOM     24  C   UNL A   1      40.167  21.312  26.496  1.00  0.00     0.118 C 
BRANCH  24  25
ATOM     25  N   UNL A   1      39.113  22.033  25.807  1.00  0.00    -0.352 N 
ATOM     26  C   UNL A   1      38.596  23.294  25.947  1.00  0.00     0.251 C 
ATOM     27  H   UNL A   1      38.680  21.510  25.094  1.00  0.00     0.163 HD
ATOM     28  O   UNL A   1      37.525  23.535  25.388  1.00  0.00    -0.269 OA
BRANCH  26  29
ATOM     29  C   UNL A   1      39.252  24.379  26.722  1.00  0.00     0.039 A 
ATOM     30  C   UNL A   1      38.904  24.500  28.077  1.00  0.00     0.014 A 
ATOM     31  C   UNL A   1      40.050  25.368  26.144  1.00  0.00     0.014 A 
ATOM     32  C   UNL A   1      39.338  25.594  28.835  1.00  0.00     0.010 A 
ATOM     33  C   UNL A   1      40.533  26.435  26.917  1.00  0.00     0.010 A 
ATOM     34  C   UNL A   1      40.154  26.576  28.260  1.00  0.00    -0.014 A 
BRANCH  34  35
ATOM     35  C   UNL A   1      40.533  27.791  29.032  1.00  0.00     0.031 A 
ATOM     36  C   UNL A   1      41.929  27.937  29.582  1.00  0.00     0.074 A 
ATOM     37  C   UNL A   1      39.636  28.771  29.247  1.00  0.00     0.049 A 
ATOM     38  N   UNL A   1      42.435  28.895  30.318  1.00  0.00    -0.248 NA
ATOM     39  C   UNL A   1      42.875  26.854  29.275  1.00  0.00     0.031 C 
ATOM     40  C   UNL A   1      38.246  28.763  28.792  1.00  0.00     0.029 A 
ATOM     41  N   UNL A   1      39.764  29.970  29.907  1.00  0.00    -0.354 N 
ATOM     42  C   UNL A   1      43.740  28.512  30.596  1.00  0.00     0.074 A 
ATOM     43  C   UNL A   1      43.949  27.231  29.955  1.00  0.00     0.031 C 
ATOM     44  C   UNL A   1      37.655  29.909  29.171  1.00  0.00     0.029 A 
ATOM     45  C   UNL A   1      38.618  30.723  29.909  1.00  0.00     0.049 A 
ATOM     46  H   UNL A   1      40.601  30.261  30.337  1.00  0.00     0.167 HD
ATOM     47  C   UNL A   1      44.683  29.169  31.313  1.00  0.00     0.037 A 
ATOM     48  C   UNL A   1      38.368  31.933  30.444  1.00  0.00     0.037 A 
ATOM     49  C   UNL A   1      44.515  30.467  31.906  1.00  0.00     0.049 A 
ATOM     50  C   UNL A   1      39.453  32.673  31.174  1.00  0.00     0.074 A 
ATOM     51  C   UNL A   1      45.435  31.221  32.614  1.00  0.00     0.029 A 
ATOM     52  N   UNL A   1      43.350  31.214  31.843  1.00  0.00    -0.354 N 
ATOM     53  N   UNL A   1      40.683  32.301  31.420  1.00  0.00    -0.248 NA
ATOM     54  C   UNL A   1      39.111  34.004  31.699  1.00  0.00     0.031 C 
ATOM     55  C   UNL A   1      44.824  32.424  32.987  1.00  0.00     0.029 A 
ATOM     56  C   UNL A   1      43.529  32.422  32.497  1.00  0.00     0.049 A 
ATOM     57  H   UNL A   1      42.518  30.928  31.400  1.00  0.00     0.167 HD
ATOM     58  C   UNL A   1      41.266  33.350  32.117  1.00  0.00     0.074 A 
ATOM     59  C   UNL A   1      40.259  34.381  32.247  1.00  0.00     0.031 C 
ATOM     60  C   UNL A   1      42.523  33.443  32.610  1.00  0.00     0.037 A 
BRANCH  47  61
ATOM     61  C   UNL A   1      45.999  28.480  31.503  1.00  0.00     0.064 A 
ATOM     62  C   UNL A   1      47.065  28.681  30.614  1.00  0.00     0.173 A 
ATOM     63  C   UNL A   1      46.205  27.640  32.606  1.00  0.00     0.173 A 
ATOM     64  F   UNL A   1      46.907  29.466  29.539  1.00  0.00    -0.203 F 
ATOM     65  C   UNL A   1      48.289  28.049  30.816  1.00  0.00     0.198 A 
ATOM     66  C   UNL A   1      47.435  27.022  32.813  1.00  0.00     0.198 A 
ATOM     67  F   UNL A   1      45.215  27.420  33.483  1.00  0.00    -0.203 F 
ATOM     68  F   UNL A   1      49.286  28.230  29.939  1.00  0.00    -0.200 F 
ATOM     69  C   UNL A   1      48.474  27.224  31.916  1.00  0.00     0.200 A 
ATOM     70  F   UNL A   1      47.616  26.227  33.877  1.00  0.00    -0.200 F 
ATOM     71  F   UNL A   1      49.654  26.617  32.108  1.00  0.00    -0.200 F 
ENDBRANCH  47  61
BRANCH  48  72
ATOM     72  C   UNL A   1      37.025  32.539  30.286  1.00  0.00     0.064 A 
ATOM     73  C   UNL A   1      36.050  32.385  31.279  1.00  0.00     0.173 A 
ATOM     74  C   UNL A   1      36.697  33.283  29.146  1.00  0.00     0.173 A 
ATOM     75  F   UNL A   1      36.320  31.662  32.376  1.00  0.00    -0.203 F 
ATOM     76  C   UNL A   1      34.787  32.953  31.135  1.00  0.00     0.198 A 
ATOM     77  C   UNL A   1      35.437  33.862  29.010  1.00  0.00     0.198 A 
ATOM     78  F   UNL A   1      37.600  33.453  28.171  1.00  0.00    -0.203 F 
ATOM     79  F   UNL A   1      33.862  32.775  32.090  1.00  0.00    -0.200 F 
ATOM     80  C   UNL A   1      34.482  33.694  30.003  1.00  0.00     0.200 A 
ATOM     81  F   UNL A   1      35.147  34.583  27.918  1.00  0.00    -0.200 F 
ATOM     82  F   UNL A   1      33.269  34.244  29.868  1.00  0.00    -0.200 F 
ENDBRANCH  48  72
BRANCH  60  83
ATOM     83  C   UNL A   1      42.887  34.709  33.321  1.00  0.00     0.064 A 
ATOM     84  C   UNL A   1      42.764  34.822  34.712  1.00  0.00     0.173 A 
ATOM     85  C   UNL A   1      43.398  35.804  32.609  1.00  0.00     0.173 A 
ATOM     86  F   UNL A   1      42.265  33.804  35.430  1.00  0.00    -0.203 F 
ATOM     87  C   UNL A   1      43.130  35.993  35.367  1.00  0.00     0.198 A 
ATOM     88  C   UNL A   1      43.776  36.970  33.269  1.00  0.00     0.198 A 
ATOM     89  F   UNL A   1      43.533  35.740  31.276  1.00  0.00    -0.203 F 
ATOM     90  F   UNL A   1      42.983  36.091  36.695  1.00  0.00    -0.200 F 
ATOM     91  C   UNL A   1      43.640  37.065  34.646  1.00  0.00     0.200 A 
ATOM     92  F   UNL A   1      44.267  38.004  32.572  1.00  0.00    -0.200 F 
ATOM     93  F   UNL A   1      43.992  38.193  35.279  1.00  0.00    -0.200 F 
ENDBRANCH  60  83
ENDBRANCH  34  35
ENDBRANCH  26  29
ENDBRANCH  24  25
ENDBRANCH  23  24
ENDBRANCH   1  23
TORSDOF 13
ENDMDL
MODEL 3
REMARK VINA RESULT:     -12.5      2.147      7.993
REMARK SMILES C[C@H]1[C@@H](C(=O)NCCCNC(=O)c2ccc(-c3c4nc(c(-c5c(F)c(F)c(F)c(F)c5F)c5ccc([nH]5)c(-c5c(F)c(F)c(F)c(F)c5F)c5nc(c(-c6c(F)c(F)c(F)c(F)c6F)c6ccc3[nH]6)C=C5)C=C4)cc2)CCN1C(=O)c1n[nH]c(N)n1
REMARK SMILES IDX 7 1 6 2 4 3 5 4 3 6 1 7 2 8 78 9 76 10 77 11 79 12 80 13
REMARK SMILES IDX 81 14 82 15 86 16 83 17 84 18 85 20 8 23 9 24 10 25 11 26
REMARK SMILES IDX 12 28 13 29 14 30 75 31 15 32 74 33 16 34 17 35 18 36 68 37
REMARK SMILES IDX 19 38 73 39 67 40 69 41 20 42 72 43 66 44 65 45 21 47 53 48
REMARK SMILES IDX 33 49 52 50 34 51 37 52 51 53 70 54 35 55 36 56 50 58 71 59
REMARK SMILES IDX 38 60 22 61 23 62 31 63 24 64 25 65 29 66 32 67 26 68 27 69
REMARK SMILES IDX 30 70 28 71 54 72 55 73 63 74 56 75 57 76 61 77 64 78 58 79
REMARK SMILES IDX 59 80 62 81 60 82 39 83 40 84 48 85 41 86 42 87 46 88 49 89
REMARK SMILES IDX 43 90 44 91 47 92 45 93
REMARK H PARENT 6 5 83 19 85 21 85 22 10 27 69 46 37 57
REMARK Flexibility Score: inf
ROOT
ATOM      1  C   UNL A   1      31.322  30.844  26.360  1.00  0.00     0.117 C 
ENDROOT
BRANCH   1   2
ATOM      2  N   UNL A   1      32.005  30.398  25.157  1.00  0.00    -0.356 N 
ATOM      3  C   UNL A   1      32.031  29.172  24.556  1.00  0.00     0.225 C 
ATOM      4  O   UNL A   1      32.658  29.075  23.500  1.00  0.00    -0.275 OA
ATOM      5  H   UNL A   1      32.535  31.092  24.702  1.00  0.00     0.163 HD
BRANCH   3   6
ATOM      6  C   UNL A   1      31.298  27.992  25.185  1.00  0.00     0.102 C 
ATOM      7  C   UNL A   1      33.410  27.740  26.689  1.00  0.00     0.032 C 
ATOM      8  C   UNL A   1      32.136  27.104  26.140  1.00  0.00     0.095 C 
ATOM      9  N   UNL A   1      32.414  25.879  25.385  1.00  0.00    -0.332 N 
ATOM     10  C   UNL A   1      30.829  26.997  24.106  1.00  0.00     0.037 C 
ATOM     11  C   UNL A   1      31.970  25.996  24.015  1.00  0.00     0.121 C 
BRANCH   9  12
ATOM     12  C   UNL A   1      32.951  24.685  25.876  1.00  0.00     0.293 C 
ATOM     13  O   UNL A   1      34.163  24.539  26.036  1.00  0.00    -0.265 OA
BRANCH  12  14
ATOM     14  C   UNL A   1      31.990  23.606  26.195  1.00  0.00     0.241 A 
ATOM     15  N   UNL A   1      32.058  22.368  25.657  1.00  0.00    -0.147 NA
ATOM     16  N   UNL A   1      30.852  23.817  26.958  1.00  0.00    -0.187 NA
ATOM     17  N   UNL A   1      30.943  21.801  26.146  1.00  0.00    -0.245 N 
ATOM     18  C   UNL A   1      30.203  22.686  26.872  1.00  0.00     0.216 A 
ATOM     19  H   UNL A   1      30.690  20.861  25.998  1.00  0.00     0.193 HD
BRANCH  18  20
ATOM     20  N   UNL A   1      28.995  22.395  27.359  1.00  0.00    -0.368 N 
ATOM     21  H   UNL A   1      28.385  23.121  27.627  1.00  0.00     0.159 HD
ATOM     22  H   UNL A   1      28.713  21.456  27.451  1.00  0.00     0.159 HD
ENDBRANCH  18  20
ENDBRANCH  12  14
ENDBRANCH   9  12
ENDBRANCH   3   6
ENDBRANCH   1   2
BRANCH   1  23
ATOM     23  C   UNL A   1      31.366  32.366  26.534  1.00  0.00     0.042 C 
BRANCH  23  24
ATOM     24  C   UNL A   1      32.612  32.861  27.268  1.00  0.00     0.118 C 
BRANCH  24  25
ATOM     25  N   UNL A   1      32.493  34.262  27.627  1.00  0.00    -0.352 N 
ATOM     26  C   UNL A   1      33.016  35.015  28.645  1.00  0.00     0.251 C 
ATOM     27  H   UNL A   1      31.918  34.777  27.016  1.00  0.00     0.163 HD
ATOM     28  O   UNL A   1      32.526  36.127  28.840  1.00  0.00    -0.269 OA
BRANCH  26  29
ATOM     29  C   UNL A   1      34.137  34.571  29.514  1.00  0.00     0.039 A 
ATOM     30  C   UNL A   1      35.423  34.561  28.949  1.00  0.00     0.014 A 
ATOM     31  C   UNL A   1      33.958  34.015  30.783  1.00  0.00     0.014 A 
ATOM     32  C   UNL A   1      36.505  33.996  29.634  1.00  0.00     0.010 A 
ATOM     33  C   UNL A   1      35.052  33.501  31.495  1.00  0.00     0.010 A 
ATOM     34  C   UNL A   1      36.329  33.456  30.915  1.00  0.00    -0.014 A 
BRANCH  34  35
ATOM     35  C   UNL A   1      37.452  32.764  31.604  1.00  0.00     0.031 A 
ATOM     36  C   UNL A   1      38.184  31.638  30.921  1.00  0.00     0.074 A 
ATOM     37  C   UNL A   1      37.827  33.138  32.842  1.00  0.00     0.049 A 
ATOM     38  N   UNL A   1      39.153  30.882  31.375  1.00  0.00    -0.248 NA
ATOM     39  C   UNL A   1      37.758  31.307  29.553  1.00  0.00     0.031 C 
ATOM     40  C   UNL A   1      37.204  34.197  33.633  1.00  0.00     0.029 A 
ATOM     41  N   UNL A   1      38.830  32.662  33.652  1.00  0.00    -0.354 N 
ATOM     42  C   UNL A   1      39.424  29.965  30.368  1.00  0.00     0.074 A 
ATOM     43  C   UNL A   1      38.512  30.252  29.280  1.00  0.00     0.031 C 
ATOM     44  C   UNL A   1      37.849  34.304  34.807  1.00  0.00     0.029 A 
ATOM     45  C   UNL A   1      38.917  33.309  34.858  1.00  0.00     0.049 A 
ATOM     46  H   UNL A   1      39.430  31.925  33.391  1.00  0.00     0.167 HD
ATOM     47  C   UNL A   1      40.350  28.977  30.346  1.00  0.00     0.037 A 
ATOM     48  C   UNL A   1      39.762  33.124  35.891  1.00  0.00     0.037 A 
ATOM     49  C   UNL A   1      41.302  28.714  31.390  1.00  0.00     0.049 A 
ATOM     50  C   UNL A   1      40.827  32.067  35.812  1.00  0.00     0.074 A 
ATOM     51  C   UNL A   1      42.302  27.758  31.428  1.00  0.00     0.029 A 
ATOM     52  N   UNL A   1      41.384  29.426  32.575  1.00  0.00    -0.354 N 
ATOM     53  N   UNL A   1      41.075  31.215  34.850  1.00  0.00    -0.248 NA
ATOM     54  C   UNL A   1      41.733  31.951  36.966  1.00  0.00     0.031 C 
ATOM     55  C   UNL A   1      42.987  27.886  32.643  1.00  0.00     0.029 A 
ATOM     56  C   UNL A   1      42.420  28.932  33.351  1.00  0.00     0.049 A 
ATOM     57  H   UNL A   1      40.793  30.172  32.830  1.00  0.00     0.167 HD
ATOM     58  C   UNL A   1      42.166  30.470  35.274  1.00  0.00     0.074 A 
ATOM     59  C   UNL A   1      42.543  30.975  36.576  1.00  0.00     0.031 C 
ATOM     60  C   UNL A   1      42.792  29.451  34.639  1.00  0.00     0.037 A 
BRANCH  47  61
ATOM     61  C   UNL A   1      40.374  28.090  29.140  1.00  0.00     0.064 A 
ATOM     62  C   UNL A   1      41.168  28.393  28.025  1.00  0.00     0.173 A 
ATOM     63  C   UNL A   1      39.623  26.906  29.116  1.00  0.00     0.173 A 
ATOM     64  F   UNL A   1      41.892  29.522  28.000  1.00  0.00    -0.203 F 
ATOM     65  C   UNL A   1      41.195  27.548  26.919  1.00  0.00     0.198 A 
ATOM     66  C   UNL A   1      39.665  26.056  28.015  1.00  0.00     0.198 A 
ATOM     67  F   UNL A   1      38.851  26.575  30.161  1.00  0.00    -0.203 F 
ATOM     68  F   UNL A   1      41.937  27.871  25.850  1.00  0.00    -0.200 F 
ATOM     69  C   UNL A   1      40.447  26.380  26.916  1.00  0.00     0.200 A 
ATOM     70  F   UNL A   1      38.945  24.926  28.014  1.00  0.00    -0.200 F 
ATOM     71  F   UNL A   1      40.476  25.567  25.850  1.00  0.00    -0.200 F 
ENDBRANCH  47  61
BRANCH  48  72
ATOM     72  C   UNL A   1      39.649  33.985  37.090  1.00  0.00     0.064 A 
ATOM     73  C   UNL A   1      38.893  33.575  38.195  1.00  0.00     0.173 A 
ATOM     74  C   UNL A   1      40.296  35.225  37.155  1.00  0.00     0.173 A 
ATOM     75  F   UNL A   1      38.242  32.402  38.164  1.00  0.00    -0.203 F 
ATOM     76  C   UNL A   1      38.784  34.380  39.327  1.00  0.00     0.198 A 
ATOM     77  C   UNL A   1      40.197  36.024  38.292  1.00  0.00     0.198 A 
ATOM     78  F   UNL A   1      41.027  35.656  36.118  1.00  0.00    -0.203 F 
ATOM     79  F   UNL A   1      38.039  33.976  40.365  1.00  0.00    -0.200 F 
ATOM     80  C   UNL A   1      39.439  35.602  39.376  1.00  0.00     0.200 A 
ATOM     81  F   UNL A   1      40.835  37.201  38.340  1.00  0.00    -0.200 F 
ATOM     82  F   UNL A   1      39.338  36.374  40.465  1.00  0.00    -0.200 F 
ENDBRANCH  48  72
BRANCH  60  83
ATOM     83  C   UNL A   1      43.961  28.826  35.335  1.00  0.00     0.064 A 
ATOM     84  C   UNL A   1      45.269  29.267  35.096  1.00  0.00     0.173 A 
ATOM     85  C   UNL A   1      43.766  27.805  36.276  1.00  0.00     0.173 A 
ATOM     86  F   UNL A   1      45.501  30.232  34.193  1.00  0.00    -0.203 F 
ATOM     87  C   UNL A   1      46.346  28.698  35.768  1.00  0.00     0.198 A 
ATOM     88  C   UNL A   1      44.845  27.247  36.956  1.00  0.00     0.198 A 
ATOM     89  F   UNL A   1      42.531  27.351  36.535  1.00  0.00    -0.203 F 
ATOM     90  F   UNL A   1      47.593  29.116  35.509  1.00  0.00    -0.200 F 
ATOM     91  C   UNL A   1      46.134  27.692  36.700  1.00  0.00     0.200 A 
ATOM     92  F   UNL A   1      44.639  26.274  37.855  1.00  0.00    -0.200 F 
ATOM     93  F   UNL A   1      47.173  27.145  37.346  1.00  0.00    -0.200 F 
ENDBRANCH  60  83
ENDBRANCH  34  35
ENDBRANCH  26  29
ENDBRANCH  24  25
ENDBRANCH  23  24
ENDBRANCH   1  23
TORSDOF 13
ENDMDL
