MODEL 1
REMARK VINA RESULT:     -12.6      0.000      0.000
REMARK SMILES COc1ccc(-c2cccc(/C=C\C(=O)NCCCNC(=O)c3ccc(-c4c5nc(c(-c6c(F)c(F)c(F)c(F)c6F)c6ccc([nH]6)c(-c6c(F)c(F)c(F)c(F)c6F)c6nc(c(-c7c(F)c(F)c(F)c(F)c7F)c7ccc4[nH]7)C=C6)C=C5)cc3)c2)c(Cl)c1OC
REMARK SMILES IDX 17 1 16 2 14 3 15 4 13 6 12 7 11 8 7 9 8 10 86 11 9 12 10 13
REMARK SMILES IDX 6 14 3 15 4 16 89 17 5 18 87 19 88 20 2 21 1 22 90 23 91 24
REMARK SMILES IDX 18 25 19 26 20 27 21 28 22 30 23 31 24 32 85 33 25 34 84 35
REMARK SMILES IDX 26 36 27 37 28 38 78 39 29 40 83 41 77 42 79 43 30 44 82 45
REMARK SMILES IDX 76 46 75 47 31 49 63 50 43 51 62 52 44 53 47 54 61 55 80 56
REMARK SMILES IDX 45 57 46 58 60 60 81 61 48 62 32 63 33 64 41 65 34 66 35 67
REMARK SMILES IDX 39 68 42 69 36 70 37 71 40 72 38 73 64 74 65 75 73 76 66 77
REMARK SMILES IDX 67 78 71 79 74 80 68 81 69 82 72 83 70 84 49 85 50 86 58 87
REMARK SMILES IDX 51 88 52 89 56 90 59 91 53 92 54 93 57 94 55 95
REMARK H PARENT 16 5 20 29 79 48 47 59
REMARK Flexibility Score: inf
ROOT
ATOM      1  C   UNL A   1      35.443  21.032  25.668  1.00  0.00     0.118 C 
ENDROOT
BRANCH   1   2
ATOM      2  N   UNL A   1      35.087  19.802  25.005  1.00  0.00    -0.352 N 
ATOM      3  C   UNL A   1      33.844  19.324  24.721  1.00  0.00     0.244 C 
ATOM      4  O   UNL A   1      33.748  18.270  24.091  1.00  0.00    -0.270 OA
ATOM      5  H   UNL A   1      35.840  19.234  24.722  1.00  0.00     0.163 HD
BRANCH   3   6
ATOM      6  C   UNL A   1      32.593  19.952  25.238  1.00  0.00     0.072 C 
ATOM      7  C   UNL A   1      31.931  21.098  24.992  1.00  0.00     0.014 C 
BRANCH   7   8
ATOM      8  C   UNL A   1      32.290  22.192  24.084  1.00  0.00    -0.025 A 
ATOM      9  C   UNL A   1      32.911  24.552  23.817  1.00  0.00    -0.016 A 
ATOM     10  C   UNL A   1      33.355  24.233  22.518  1.00  0.00     0.009 A 
ATOM     11  C   UNL A   1      32.383  23.504  24.591  1.00  0.00     0.017 A 
ATOM     12  C   UNL A   1      33.163  22.962  21.970  1.00  0.00     0.001 A 
ATOM     13  C   UNL A   1      32.603  21.947  22.744  1.00  0.00     0.008 A 
BRANCH   9  14
ATOM     14  C   UNL A   1      32.893  25.969  24.265  1.00  0.00     0.004 A 
ATOM     15  C   UNL A   1      33.153  28.612  25.267  1.00  0.00     0.162 A 
ATOM     16  C   UNL A   1      33.757  27.548  25.929  1.00  0.00     0.051 A 
ATOM     17  C   UNL A   1      32.349  28.371  24.131  1.00  0.00     0.180 A 
ATOM     18  C   UNL A   1      33.643  26.260  25.424  1.00  0.00     0.014 A 
ATOM     19  C   UNL A   1      32.204  27.045  23.644  1.00  0.00     0.094 A 
ATOM     20  Cl  UNL A   1      31.080  26.685  22.365  1.00  0.00    -0.079 Cl
BRANCH  15  21
ATOM     21  O   UNL A   1      33.279  29.911  25.703  1.00  0.00    -0.493 OA
ATOM     22  C   UNL A   1      32.867  30.145  27.049  1.00  0.00     0.278 C 
ENDBRANCH  15  21
BRANCH  17  23
ATOM     23  O   UNL A   1      31.674  29.481  23.674  1.00  0.00    -0.491 OA
ATOM     24  C   UNL A   1      30.269  29.547  23.890  1.00  0.00     0.278 C 
ENDBRANCH  17  23
ENDBRANCH   9  14
ENDBRANCH   7   8
ENDBRANCH   3   6
ENDBRANCH   1   2
BRANCH   1  25
ATOM     25  C   UNL A   1      35.893  22.170  24.782  1.00  0.00     0.042 C 
BRANCH  25  26
ATOM     26  C   UNL A   1      37.396  22.215  24.537  1.00  0.00     0.118 C 
BRANCH  26  27
ATOM     27  N   UNL A   1      38.175  21.229  25.290  1.00  0.00    -0.352 N 
ATOM     28  C   UNL A   1      39.186  21.335  26.222  1.00  0.00     0.251 C 
ATOM     29  H   UNL A   1      37.924  20.298  25.089  1.00  0.00     0.163 HD
ATOM     30  O   UNL A   1      39.735  20.321  26.629  1.00  0.00    -0.269 OA
BRANCH  28  31
ATOM     31  C   UNL A   1      39.648  22.659  26.707  1.00  0.00     0.039 A 
ATOM     32  C   UNL A   1      40.695  22.728  27.632  1.00  0.00     0.014 A 
ATOM     33  C   UNL A   1      39.063  23.837  26.257  1.00  0.00     0.014 A 
ATOM     34  C   UNL A   1      41.217  23.973  28.007  1.00  0.00     0.010 A 
ATOM     35  C   UNL A   1      39.682  25.054  26.495  1.00  0.00     0.010 A 
ATOM     36  C   UNL A   1      40.755  25.146  27.391  1.00  0.00    -0.014 A 
BRANCH  36  37
ATOM     37  C   UNL A   1      41.331  26.487  27.682  1.00  0.00     0.031 A 
ATOM     38  C   UNL A   1      42.735  26.810  27.232  1.00  0.00     0.074 A 
ATOM     39  C   UNL A   1      40.645  27.370  28.433  1.00  0.00     0.049 A 
ATOM     40  N   UNL A   1      43.482  27.848  27.513  1.00  0.00    -0.248 NA
ATOM     41  C   UNL A   1      43.414  25.800  26.402  1.00  0.00     0.031 C 
ATOM     42  C   UNL A   1      39.310  27.155  28.996  1.00  0.00     0.029 A 
ATOM     43  N   UNL A   1      40.985  28.629  28.864  1.00  0.00    -0.354 N 
ATOM     44  C   UNL A   1      44.719  27.589  26.935  1.00  0.00     0.074 A 
ATOM     45  C   UNL A   1      44.651  26.266  26.359  1.00  0.00     0.031 C 
ATOM     46  C   UNL A   1      38.928  28.258  29.660  1.00  0.00     0.029 A 
ATOM     47  C   UNL A   1      40.004  29.241  29.609  1.00  0.00     0.049 A 
ATOM     48  H   UNL A   1      41.849  29.053  28.659  1.00  0.00     0.167 HD
ATOM     49  C   UNL A   1      45.804  28.396  26.852  1.00  0.00     0.037 A 
ATOM     50  C   UNL A   1      39.980  30.459  30.181  1.00  0.00     0.037 A 
ATOM     51  C   UNL A   1      45.845  29.738  27.365  1.00  0.00     0.049 A 
ATOM     52  C   UNL A   1      41.176  31.360  30.028  1.00  0.00     0.074 A 
ATOM     53  C   UNL A   1      46.864  30.669  27.276  1.00  0.00     0.029 A 
ATOM     54  N   UNL A   1      44.804  30.346  28.054  1.00  0.00    -0.354 N 
ATOM     55  N   UNL A   1      42.318  31.129  29.425  1.00  0.00    -0.248 NA
ATOM     56  C   UNL A   1      41.074  32.700  30.623  1.00  0.00     0.031 C 
ATOM     57  C   UNL A   1      46.451  31.832  27.937  1.00  0.00     0.029 A 
ATOM     58  C   UNL A   1      45.158  31.640  28.396  1.00  0.00     0.049 A 
ATOM     59  H   UNL A   1      43.943  29.921  28.267  1.00  0.00     0.167 HD
ATOM     60  C   UNL A   1      43.054  32.301  29.537  1.00  0.00     0.074 A 
ATOM     61  C   UNL A   1      42.222  33.247  30.251  1.00  0.00     0.031 C 
ATOM     62  C   UNL A   1      44.305  32.570  29.090  1.00  0.00     0.037 A 
BRANCH  49  63
ATOM     63  C   UNL A   1      47.021  27.853  26.155  1.00  0.00     0.064 A 
ATOM     64  C   UNL A   1      47.142  27.878  24.756  1.00  0.00     0.173 A 
ATOM     65  C   UNL A   1      48.084  27.310  26.891  1.00  0.00     0.173 A 
ATOM     66  F   UNL A   1      46.149  28.374  24.001  1.00  0.00    -0.203 F 
ATOM     67  C   UNL A   1      48.259  27.342  24.120  1.00  0.00     0.198 A 
ATOM     68  C   UNL A   1      49.217  26.808  26.253  1.00  0.00     0.198 A 
ATOM     69  F   UNL A   1      48.027  27.265  28.230  1.00  0.00    -0.203 F 
ATOM     70  F   UNL A   1      48.317  27.317  22.781  1.00  0.00    -0.200 F 
ATOM     71  C   UNL A   1      49.298  26.814  24.869  1.00  0.00     0.200 A 
ATOM     72  F   UNL A   1      50.227  26.311  26.979  1.00  0.00    -0.200 F 
ATOM     73  F   UNL A   1      50.373  26.301  24.256  1.00  0.00    -0.200 F 
ENDBRANCH  49  63
BRANCH  50  74
ATOM     74  C   UNL A   1      38.765  30.922  30.903  1.00  0.00     0.064 A 
ATOM     75  C   UNL A   1      37.696  31.502  30.203  1.00  0.00     0.173 A 
ATOM     76  C   UNL A   1      38.646  30.810  32.295  1.00  0.00     0.173 A 
ATOM     77  F   UNL A   1      37.771  31.649  28.872  1.00  0.00    -0.203 F 
ATOM     78  C   UNL A   1      36.569  31.976  30.870  1.00  0.00     0.198 A 
ATOM     79  C   UNL A   1      37.504  31.257  32.958  1.00  0.00     0.198 A 
ATOM     80  F   UNL A   1      39.637  30.259  33.012  1.00  0.00    -0.203 F 
ATOM     81  F   UNL A   1      35.588  32.574  30.181  1.00  0.00    -0.200 F 
ATOM     82  C   UNL A   1      36.472  31.849  32.247  1.00  0.00     0.200 A 
ATOM     83  F   UNL A   1      37.408  31.122  34.288  1.00  0.00    -0.200 F 
ATOM     84  F   UNL A   1      35.388  32.307  32.889  1.00  0.00    -0.200 F 
ENDBRANCH  50  74
BRANCH  62  85
ATOM     85  C   UNL A   1      44.826  33.959  29.314  1.00  0.00     0.064 A 
ATOM     86  C   UNL A   1      44.609  34.989  28.387  1.00  0.00     0.173 A 
ATOM     87  C   UNL A   1      45.531  34.268  30.488  1.00  0.00     0.173 A 
ATOM     88  F   UNL A   1      43.951  34.741  27.245  1.00  0.00    -0.203 F 
ATOM     89  C   UNL A   1      45.110  36.269  28.611  1.00  0.00     0.198 A 
ATOM     90  C   UNL A   1      46.002  35.556  30.723  1.00  0.00     0.198 A 
ATOM     91  F   UNL A   1      45.758  33.320  31.410  1.00  0.00    -0.203 F 
ATOM     92  F   UNL A   1      44.940  37.223  27.685  1.00  0.00    -0.200 F 
ATOM     93  C   UNL A   1      45.800  36.553  29.780  1.00  0.00     0.200 A 
ATOM     94  F   UNL A   1      46.655  35.832  31.860  1.00  0.00    -0.200 F 
ATOM     95  F   UNL A   1      46.279  37.786  29.994  1.00  0.00    -0.200 F 
ENDBRANCH  62  85
ENDBRANCH  36  37
ENDBRANCH  28  31
ENDBRANCH  26  27
ENDBRANCH  25  26
ENDBRANCH   1  25
TORSDOF 14
ENDMDL
MODEL 2
REMARK VINA RESULT:     -12.6      0.919      2.205
REMARK SMILES COc1ccc(-c2cccc(/C=C\C(=O)NCCCNC(=O)c3ccc(-c4c5nc(c(-c6c(F)c(F)c(F)c(F)c6F)c6ccc([nH]6)c(-c6c(F)c(F)c(F)c(F)c6F)c6nc(c(-c7c(F)c(F)c(F)c(F)c7F)c7ccc4[nH]7)C=C6)C=C5)cc3)c2)c(Cl)c1OC
REMARK SMILES IDX 17 1 16 2 14 3 15 4 13 6 12 7 11 8 7 9 8 10 86 11 9 12 10 13
REMARK SMILES IDX 6 14 3 15 4 16 89 17 5 18 87 19 88 20 2 21 1 22 90 23 91 24
REMARK SMILES IDX 18 25 19 26 20 27 21 28 22 30 23 31 24 32 85 33 25 34 84 35
REMARK SMILES IDX 26 36 27 37 28 38 78 39 29 40 83 41 77 42 79 43 30 44 82 45
REMARK SMILES IDX 76 46 75 47 31 49 63 50 43 51 62 52 44 53 47 54 61 55 80 56
REMARK SMILES IDX 45 57 46 58 60 60 81 61 48 62 32 63 33 64 41 65 34 66 35 67
REMARK SMILES IDX 39 68 42 69 36 70 37 71 40 72 38 73 64 74 65 75 73 76 66 77
REMARK SMILES IDX 67 78 71 79 74 80 68 81 69 82 72 83 70 84 49 85 50 86 58 87
REMARK SMILES IDX 51 88 52 89 56 90 59 91 53 92 54 93 57 94 55 95
REMARK H PARENT 16 5 20 29 79 48 47 59
REMARK Flexibility Score: inf
ROOT
ATOM      1  C   UNL A   1      35.317  20.196  25.001  1.00  0.00     0.118 C 
ENDROOT
BRANCH   1   2
ATOM      2  N   UNL A   1      34.169  19.403  25.367  1.00  0.00    -0.352 N 
ATOM      3  C   UNL A   1      32.986  19.274  24.705  1.00  0.00     0.244 C 
ATOM      4  O   UNL A   1      32.143  18.497  25.153  1.00  0.00    -0.270 OA
ATOM      5  H   UNL A   1      34.251  18.890  26.203  1.00  0.00     0.163 HD
BRANCH   3   6
ATOM      6  C   UNL A   1      32.614  20.115  23.531  1.00  0.00     0.072 C 
ATOM      7  C   UNL A   1      32.146  21.368  23.367  1.00  0.00     0.014 C 
BRANCH   7   8
ATOM      8  C   UNL A   1      31.798  22.362  24.387  1.00  0.00    -0.025 A 
ATOM      9  C   UNL A   1      31.013  24.632  24.894  1.00  0.00    -0.016 A 
ATOM     10  C   UNL A   1      30.743  24.188  26.204  1.00  0.00     0.009 A 
ATOM     11  C   UNL A   1      31.540  23.690  23.992  1.00  0.00     0.017 A 
ATOM     12  C   UNL A   1      31.101  22.907  26.631  1.00  0.00     0.001 A 
ATOM     13  C   UNL A   1      31.656  22.001  25.730  1.00  0.00     0.008 A 
BRANCH   9  14
ATOM     14  C   UNL A   1      30.863  26.071  24.554  1.00  0.00     0.004 A 
ATOM     15  C   UNL A   1      30.248  28.757  23.876  1.00  0.00     0.162 A 
ATOM     16  C   UNL A   1      29.442  27.718  23.424  1.00  0.00     0.051 A 
ATOM     17  C   UNL A   1      31.416  28.474  24.618  1.00  0.00     0.180 A 
ATOM     18  C   UNL A   1      29.736  26.407  23.775  1.00  0.00     0.014 A 
ATOM     19  C   UNL A   1      31.732  27.127  24.938  1.00  0.00     0.094 A 
ATOM     20  Cl  UNL A   1      33.251  26.724  25.687  1.00  0.00    -0.079 Cl
BRANCH  15  21
ATOM     21  O   UNL A   1      29.969  30.075  23.595  1.00  0.00    -0.493 OA
ATOM     22  C   UNL A   1      28.663  30.324  23.074  1.00  0.00     0.278 C 
ENDBRANCH  15  21
BRANCH  17  23
ATOM     23  O   UNL A   1      32.212  29.572  24.856  1.00  0.00    -0.491 OA
ATOM     24  C   UNL A   1      32.247  30.099  26.177  1.00  0.00     0.278 C 
ENDBRANCH  17  23
ENDBRANCH   9  14
ENDBRANCH   7   8
ENDBRANCH   3   6
ENDBRANCH   1   2
BRANCH   1  25
ATOM     25  C   UNL A   1      35.408  21.574  25.614  1.00  0.00     0.042 C 
BRANCH  25  26
ATOM     26  C   UNL A   1      36.787  22.214  25.509  1.00  0.00     0.118 C 
BRANCH  26  27
ATOM     27  N   UNL A   1      37.912  21.295  25.701  1.00  0.00    -0.352 N 
ATOM     28  C   UNL A   1      39.202  21.463  26.162  1.00  0.00     0.251 C 
ATOM     29  H   UNL A   1      37.704  20.366  25.450  1.00  0.00     0.163 HD
ATOM     30  O   UNL A   1      39.978  20.519  26.128  1.00  0.00    -0.269 OA
BRANCH  28  31
ATOM     31  C   UNL A   1      39.674  22.779  26.658  1.00  0.00     0.039 A 
ATOM     32  C   UNL A   1      40.687  22.829  27.622  1.00  0.00     0.014 A 
ATOM     33  C   UNL A   1      39.134  23.967  26.181  1.00  0.00     0.014 A 
ATOM     34  C   UNL A   1      41.223  24.064  28.011  1.00  0.00     0.010 A 
ATOM     35  C   UNL A   1      39.772  25.171  26.436  1.00  0.00     0.010 A 
ATOM     36  C   UNL A   1      40.812  25.244  27.372  1.00  0.00    -0.014 A 
BRANCH  36  37
ATOM     37  C   UNL A   1      41.407  26.572  27.678  1.00  0.00     0.031 A 
ATOM     38  C   UNL A   1      42.826  26.870  27.259  1.00  0.00     0.074 A 
ATOM     39  C   UNL A   1      40.723  27.467  28.417  1.00  0.00     0.049 A 
ATOM     40  N   UNL A   1      43.587  27.892  27.558  1.00  0.00    -0.248 NA
ATOM     41  C   UNL A   1      43.503  25.848  26.441  1.00  0.00     0.031 C 
ATOM     42  C   UNL A   1      39.373  27.277  28.952  1.00  0.00     0.029 A 
ATOM     43  N   UNL A   1      41.077  28.718  28.859  1.00  0.00    -0.354 N 
ATOM     44  C   UNL A   1      44.831  27.611  27.006  1.00  0.00     0.074 A 
ATOM     45  C   UNL A   1      44.749  26.290  26.425  1.00  0.00     0.031 C 
ATOM     46  C   UNL A   1      38.998  28.385  29.611  1.00  0.00     0.029 A 
ATOM     47  C   UNL A   1      40.094  29.347  29.585  1.00  0.00     0.049 A 
ATOM     48  H   UNL A   1      41.954  29.127  28.673  1.00  0.00     0.167 HD
ATOM     49  C   UNL A   1      45.933  28.397  26.947  1.00  0.00     0.037 A 
ATOM     50  C   UNL A   1      40.080  30.565  30.159  1.00  0.00     0.037 A 
ATOM     51  C   UNL A   1      45.988  29.737  27.465  1.00  0.00     0.049 A 
ATOM     52  C   UNL A   1      41.297  31.442  30.033  1.00  0.00     0.074 A 
ATOM     53  C   UNL A   1      47.027  30.649  27.399  1.00  0.00     0.029 A 
ATOM     54  N   UNL A   1      44.946  30.363  28.133  1.00  0.00    -0.354 N 
ATOM     55  N   UNL A   1      42.446  31.191  29.454  1.00  0.00    -0.248 NA
ATOM     56  C   UNL A   1      41.208  32.783  30.630  1.00  0.00     0.031 C 
ATOM     57  C   UNL A   1      46.623  31.818  28.055  1.00  0.00     0.029 A 
ATOM     58  C   UNL A   1      45.317  31.650  28.486  1.00  0.00     0.049 A 
ATOM     59  H   UNL A   1      44.072  29.954  28.327  1.00  0.00     0.167 HD
ATOM     60  C   UNL A   1      43.202  32.348  29.584  1.00  0.00     0.074 A 
ATOM     61  C   UNL A   1      42.374  33.309  30.284  1.00  0.00     0.031 C 
ATOM     62  C   UNL A   1      44.467  32.595  29.165  1.00  0.00     0.037 A 
BRANCH  49  63
ATOM     63  C   UNL A   1      47.154  27.833  26.275  1.00  0.00     0.064 A 
ATOM     64  C   UNL A   1      48.172  27.200  27.007  1.00  0.00     0.173 A 
ATOM     65  C   UNL A   1      47.306  27.914  24.883  1.00  0.00     0.173 A 
ATOM     66  F   UNL A   1      48.085  27.106  28.343  1.00  0.00    -0.203 F 
ATOM     67  C   UNL A   1      49.314  26.711  26.378  1.00  0.00     0.198 A 
ATOM     68  C   UNL A   1      48.433  27.391  24.252  1.00  0.00     0.198 A 
ATOM     69  F   UNL A   1      46.363  28.501  24.132  1.00  0.00    -0.203 F 
ATOM     70  F   UNL A   1      50.302  26.175  27.108  1.00  0.00    -0.200 F 
ATOM     71  C   UNL A   1      49.440  26.801  25.001  1.00  0.00     0.200 A 
ATOM     72  F   UNL A   1      48.548  27.464  22.920  1.00  0.00    -0.200 F 
ATOM     73  F   UNL A   1      50.538  26.328  24.396  1.00  0.00    -0.200 F 
ENDBRANCH  49  63
BRANCH  50  74
ATOM     74  C   UNL A   1      38.860  31.049  30.856  1.00  0.00     0.064 A 
ATOM     75  C   UNL A   1      37.834  31.684  30.142  1.00  0.00     0.173 A 
ATOM     76  C   UNL A   1      38.693  30.903  32.241  1.00  0.00     0.173 A 
ATOM     77  F   UNL A   1      37.955  31.866  28.818  1.00  0.00    -0.203 F 
ATOM     78  C   UNL A   1      36.702  32.179  30.787  1.00  0.00     0.198 A 
ATOM     79  C   UNL A   1      37.547  31.371  32.881  1.00  0.00     0.198 A 
ATOM     80  F   UNL A   1      39.642  30.298  32.971  1.00  0.00    -0.203 F 
ATOM     81  F   UNL A   1      35.764  32.829  30.086  1.00  0.00    -0.200 F 
ATOM     82  C   UNL A   1      36.558  32.017  32.156  1.00  0.00     0.200 A 
ATOM     83  F   UNL A   1      37.405  31.202  34.203  1.00  0.00    -0.200 F 
ATOM     84  F   UNL A   1      35.471  32.494  32.777  1.00  0.00    -0.200 F 
ENDBRANCH  50  74
BRANCH  62  85
ATOM     85  C   UNL A   1      45.010  33.973  29.403  1.00  0.00     0.064 A 
ATOM     86  C   UNL A   1      45.716  34.298  30.571  1.00  0.00     0.173 A 
ATOM     87  C   UNL A   1      44.841  34.975  28.435  1.00  0.00     0.173 A 
ATOM     88  F   UNL A   1      45.892  33.378  31.531  1.00  0.00    -0.203 F 
ATOM     89  C   UNL A   1      46.202  35.587  30.776  1.00  0.00     0.198 A 
ATOM     90  C   UNL A   1      45.357  36.253  28.630  1.00  0.00     0.198 A 
ATOM     91  F   UNL A   1      44.181  34.713  27.297  1.00  0.00    -0.203 F 
ATOM     92  F   UNL A   1      46.823  35.890  31.924  1.00  0.00    -0.200 F 
ATOM     93  C   UNL A   1      46.028  36.560  29.804  1.00  0.00     0.200 A 
ATOM     94  F   UNL A   1      45.201  37.188  27.683  1.00  0.00    -0.200 F 
ATOM     95  F   UNL A   1      46.499  37.799  30.003  1.00  0.00    -0.200 F 
ENDBRANCH  62  85
ENDBRANCH  36  37
ENDBRANCH  28  31
ENDBRANCH  26  27
ENDBRANCH  25  26
ENDBRANCH   1  25
TORSDOF 14
ENDMDL
MODEL 3
REMARK VINA RESULT:     -12.6      2.698      3.658
REMARK SMILES COc1ccc(-c2cccc(/C=C\C(=O)NCCCNC(=O)c3ccc(-c4c5nc(c(-c6c(F)c(F)c(F)c(F)c6F)c6ccc([nH]6)c(-c6c(F)c(F)c(F)c(F)c6F)c6nc(c(-c7c(F)c(F)c(F)c(F)c7F)c7ccc4[nH]7)C=C6)C=C5)cc3)c2)c(Cl)c1OC
REMARK SMILES IDX 17 1 16 2 14 3 15 4 13 6 12 7 11 8 7 9 8 10 86 11 9 12 10 13
REMARK SMILES IDX 6 14 3 15 4 16 89 17 5 18 87 19 88 20 2 21 1 22 90 23 91 24
REMARK SMILES IDX 18 25 19 26 20 27 21 28 22 30 23 31 24 32 85 33 25 34 84 35
REMARK SMILES IDX 26 36 27 37 28 38 78 39 29 40 83 41 77 42 79 43 30 44 82 45
REMARK SMILES IDX 76 46 75 47 31 49 63 50 43 51 62 52 44 53 47 54 61 55 80 56
REMARK SMILES IDX 45 57 46 58 60 60 81 61 48 62 32 63 33 64 41 65 34 66 35 67
REMARK SMILES IDX 39 68 42 69 36 70 37 71 40 72 38 73 64 74 65 75 73 76 66 77
REMARK SMILES IDX 67 78 71 79 74 80 68 81 69 82 72 83 70 84 49 85 50 86 58 87
REMARK SMILES IDX 51 88 52 89 56 90 59 91 53 92 54 93 57 94 55 95
REMARK H PARENT 16 5 20 29 79 48 47 59
REMARK Flexibility Score: inf
ROOT
ATOM      1  C   UNL A   1      35.719  21.457  25.789  1.00  0.00     0.118 C 
ENDROOT
BRANCH   1   2
ATOM      2  N   UNL A   1      35.506  20.184  25.145  1.00  0.00    -0.352 N 
ATOM      3  C   UNL A   1      34.327  19.552  24.893  1.00  0.00     0.244 C 
ATOM      4  O   UNL A   1      34.350  18.488  24.275  1.00  0.00    -0.270 OA
ATOM      5  H   UNL A   1      36.318  19.711  24.850  1.00  0.00     0.163 HD
BRANCH   3   6
ATOM      6  C   UNL A   1      33.018  20.025  25.432  1.00  0.00     0.072 C 
ATOM      7  C   UNL A   1      32.210  21.073  25.184  1.00  0.00     0.014 C 
BRANCH   7   8
ATOM      8  C   UNL A   1      32.405  22.187  24.250  1.00  0.00    -0.025 A 
ATOM      9  C   UNL A   1      32.778  24.592  23.933  1.00  0.00    -0.016 A 
ATOM     10  C   UNL A   1      33.169  24.303  22.611  1.00  0.00     0.009 A 
ATOM     11  C   UNL A   1      32.402  23.506  24.744  1.00  0.00     0.017 A 
ATOM     12  C   UNL A   1      33.067  23.013  22.083  1.00  0.00     0.001 A 
ATOM     13  C   UNL A   1      32.657  21.958  22.894  1.00  0.00     0.008 A 
BRANCH   9  14
ATOM     14  C   UNL A   1      32.650  26.006  24.375  1.00  0.00     0.004 A 
ATOM     15  C   UNL A   1      32.742  28.717  25.209  1.00  0.00     0.162 A 
ATOM     16  C   UNL A   1      33.801  27.860  25.491  1.00  0.00     0.051 A 
ATOM     17  C   UNL A   1      31.586  28.222  24.567  1.00  0.00     0.180 A 
ATOM     18  C   UNL A   1      33.759  26.540  25.063  1.00  0.00     0.014 A 
ATOM     19  C   UNL A   1      31.534  26.860  24.168  1.00  0.00     0.094 A 
ATOM     20  Cl  UNL A   1      30.063  26.170  23.544  1.00  0.00    -0.079 Cl
BRANCH  15  21
ATOM     21  O   UNL A   1      32.759  30.045  25.570  1.00  0.00    -0.493 OA
ATOM     22  C   UNL A   1      32.808  30.295  26.974  1.00  0.00     0.278 C 
ENDBRANCH  15  21
BRANCH  17  23
ATOM     23  O   UNL A   1      30.549  29.126  24.500  1.00  0.00    -0.491 OA
ATOM     24  C   UNL A   1      30.148  29.592  23.218  1.00  0.00     0.278 C 
ENDBRANCH  17  23
ENDBRANCH   9  14
ENDBRANCH   7   8
ENDBRANCH   3   6
ENDBRANCH   1   2
BRANCH   1  25
ATOM     25  C   UNL A   1      35.892  22.652  24.880  1.00  0.00     0.042 C 
BRANCH  25  26
ATOM     26  C   UNL A   1      37.129  23.491  25.180  1.00  0.00     0.118 C 
BRANCH  26  27
ATOM     27  N   UNL A   1      38.330  22.723  25.520  1.00  0.00    -0.352 N 
ATOM     28  C   UNL A   1      39.477  23.025  26.225  1.00  0.00     0.251 C 
ATOM     29  H   UNL A   1      38.314  21.801  25.175  1.00  0.00     0.163 HD
ATOM     30  O   UNL A   1      40.382  22.204  26.276  1.00  0.00    -0.269 OA
BRANCH  28  31
ATOM     31  C   UNL A   1      39.648  24.342  26.885  1.00  0.00     0.039 A 
ATOM     32  C   UNL A   1      39.196  24.521  28.197  1.00  0.00     0.014 A 
ATOM     33  C   UNL A   1      40.253  25.407  26.227  1.00  0.00     0.014 A 
ATOM     34  C   UNL A   1      39.457  25.721  28.870  1.00  0.00     0.010 A 
ATOM     35  C   UNL A   1      40.658  26.524  26.940  1.00  0.00     0.010 A 
ATOM     36  C   UNL A   1      40.247  26.711  28.267  1.00  0.00    -0.014 A 
BRANCH  36  37
ATOM     37  C   UNL A   1      40.633  27.967  28.964  1.00  0.00     0.031 A 
ATOM     38  C   UNL A   1      42.040  28.131  29.486  1.00  0.00     0.074 A 
ATOM     39  C   UNL A   1      39.706  28.910  29.223  1.00  0.00     0.049 A 
ATOM     40  N   UNL A   1      42.541  29.066  30.252  1.00  0.00    -0.248 NA
ATOM     41  C   UNL A   1      42.999  27.064  29.149  1.00  0.00     0.031 C 
ATOM     42  C   UNL A   1      38.293  28.844  28.842  1.00  0.00     0.029 A 
ATOM     43  N   UNL A   1      39.812  30.110  29.881  1.00  0.00    -0.354 N 
ATOM     44  C   UNL A   1      43.847  28.674  30.520  1.00  0.00     0.074 A 
ATOM     45  C   UNL A   1      44.037  27.381  29.905  1.00  0.00     0.031 C 
ATOM     46  C   UNL A   1      37.676  29.970  29.235  1.00  0.00     0.029 A 
ATOM     47  C   UNL A   1      38.635  30.819  29.933  1.00  0.00     0.049 A 
ATOM     48  H   UNL A   1      40.653  30.433  30.280  1.00  0.00     0.167 HD
ATOM     49  C   UNL A   1      44.818  29.348  31.182  1.00  0.00     0.037 A 
ATOM     50  C   UNL A   1      38.366  32.019  30.479  1.00  0.00     0.037 A 
ATOM     51  C   UNL A   1      44.646  30.665  31.732  1.00  0.00     0.049 A 
ATOM     52  C   UNL A   1      39.475  32.774  31.161  1.00  0.00     0.074 A 
ATOM     53  C   UNL A   1      45.579  31.471  32.361  1.00  0.00     0.029 A 
ATOM     54  N   UNL A   1      43.455  31.378  31.703  1.00  0.00    -0.354 N 
ATOM     55  N   UNL A   1      40.723  32.422  31.354  1.00  0.00    -0.248 NA
ATOM     56  C   UNL A   1      39.140  34.104  31.690  1.00  0.00     0.031 C 
ATOM     57  C   UNL A   1      44.945  32.660  32.738  1.00  0.00     0.029 A 
ATOM     58  C   UNL A   1      43.630  32.613  32.303  1.00  0.00     0.049 A 
ATOM     59  H   UNL A   1      42.612  31.054  31.312  1.00  0.00     0.167 HD
ATOM     60  C   UNL A   1      41.330  33.495  31.992  1.00  0.00     0.074 A 
ATOM     61  C   UNL A   1      40.315  34.519  32.139  1.00  0.00     0.031 C 
ATOM     62  C   UNL A   1      42.610  33.624  32.419  1.00  0.00     0.037 A 
BRANCH  49  63
ATOM     63  C   UNL A   1      46.158  28.680  31.318  1.00  0.00     0.064 A 
ATOM     64  C   UNL A   1      46.467  27.866  32.421  1.00  0.00     0.173 A 
ATOM     65  C   UNL A   1      47.143  28.843  30.333  1.00  0.00     0.173 A 
ATOM     66  F   UNL A   1      45.567  27.686  33.401  1.00  0.00    -0.203 F 
ATOM     67  C   UNL A   1      47.723  27.280  32.554  1.00  0.00     0.198 A 
ATOM     68  C   UNL A   1      48.386  28.224  30.450  1.00  0.00     0.198 A 
ATOM     69  F   UNL A   1      46.902  29.603  29.254  1.00  0.00    -0.203 F 
ATOM     70  F   UNL A   1      48.014  26.566  33.650  1.00  0.00    -0.200 F 
ATOM     71  C   UNL A   1      48.678  27.453  31.565  1.00  0.00     0.200 A 
ATOM     72  F   UNL A   1      49.304  28.380  29.487  1.00  0.00    -0.200 F 
ATOM     73  F   UNL A   1      49.886  26.886  31.692  1.00  0.00    -0.200 F 
ENDBRANCH  49  63
BRANCH  50  74
ATOM     74  C   UNL A   1      37.006  32.608  30.357  1.00  0.00     0.064 A 
ATOM     75  C   UNL A   1      36.655  33.367  29.231  1.00  0.00     0.173 A 
ATOM     76  C   UNL A   1      36.036  32.439  31.355  1.00  0.00     0.173 A 
ATOM     77  F   UNL A   1      37.554  33.575  28.258  1.00  0.00    -0.203 F 
ATOM     78  C   UNL A   1      35.398  33.958  29.121  1.00  0.00     0.198 A 
ATOM     79  C   UNL A   1      34.768  33.005  31.230  1.00  0.00     0.198 A 
ATOM     80  F   UNL A   1      36.317  31.717  32.450  1.00  0.00    -0.203 F 
ATOM     81  F   UNL A   1      35.110  34.723  28.060  1.00  0.00    -0.200 F 
ATOM     82  C   UNL A   1      34.454  33.772  30.120  1.00  0.00     0.200 A 
ATOM     83  F   UNL A   1      33.853  32.814  32.191  1.00  0.00    -0.200 F 
ATOM     84  F   UNL A   1      33.245  34.342  30.014  1.00  0.00    -0.200 F 
ENDBRANCH  50  74
BRANCH  62  85
ATOM     85  C   UNL A   1      42.997  34.936  33.035  1.00  0.00     0.064 A 
ATOM     86  C   UNL A   1      43.449  36.013  32.258  1.00  0.00     0.173 A 
ATOM     87  C   UNL A   1      42.888  35.125  34.421  1.00  0.00     0.173 A 
ATOM     88  F   UNL A   1      43.582  35.879  30.930  1.00  0.00    -0.203 F 
ATOM     89  C   UNL A   1      43.812  37.219  32.852  1.00  0.00     0.198 A 
ATOM     90  C   UNL A   1      43.220  36.342  35.007  1.00  0.00     0.198 A 
ATOM     91  F   UNL A   1      42.452  34.128  35.207  1.00  0.00    -0.203 F 
ATOM     92  F   UNL A   1      44.296  38.215  32.097  1.00  0.00    -0.200 F 
ATOM     93  C   UNL A   1      43.692  37.385  34.224  1.00  0.00     0.200 A 
ATOM     94  F   UNL A   1      43.089  36.505  36.331  1.00  0.00    -0.200 F 
ATOM     95  F   UNL A   1      44.039  38.547  34.792  1.00  0.00    -0.200 F 
ENDBRANCH  62  85
ENDBRANCH  36  37
ENDBRANCH  28  31
ENDBRANCH  26  27
ENDBRANCH  25  26
ENDBRANCH   1  25
TORSDOF 14
ENDMDL
