MODEL 1
REMARK VINA RESULT:     -12.2      0.000      0.000
REMARK SMILES CC[C@H]1CO[C@H](C)C[N@H+]1[C@@H]1CC[C@]([NH2+]C(C)C)(C(=O)NCCCNC(=O)c2ccc(-c3c4nc(c(-c5c(F)c(F)c(F)c(F)c5F)c5ccc([nH]5)c(-c5c(F)c(F)c(F)c(F)c5F)c5nc(c(-c6c(F)c(F)c(F)c(F)c6F)c6ccc3[nH]6)C=C5)C=C4)cc2)C1
REMARK SMILES IDX 22 1 21 2 20 3 18 4 19 5 13 7 10 8 11 9 90 10 12 11 9 12
REMARK SMILES IDX 3 13 4 14 5 15 8 16 6 18 7 19 2 20 1 21 14 22 15 25 16 26
REMARK SMILES IDX 17 27 23 28 24 29 25 30 26 32 27 33 28 34 89 35 29 36 88 37
REMARK SMILES IDX 30 38 31 39 32 40 82 41 33 42 87 43 81 44 83 45 34 46 86 47
REMARK SMILES IDX 80 48 79 49 35 51 67 52 47 53 66 54 48 55 51 56 65 57 84 58
REMARK SMILES IDX 49 59 50 60 64 62 85 63 52 64 36 65 37 66 45 67 38 68 39 69
REMARK SMILES IDX 43 70 46 71 40 72 41 73 44 74 42 75 68 76 69 77 77 78 70 79
REMARK SMILES IDX 71 80 75 81 78 82 72 83 73 84 76 85 74 86 53 87 54 88 62 89
REMARK SMILES IDX 55 90 56 91 60 92 63 93 57 94 58 95 61 96 59 97
REMARK H PARENT 20 6 9 17 14 23 14 24 24 31 83 50 51 61
REMARK Flexibility Score: inf
ROOT
ATOM      1  C   UNL A   1      31.506  31.357  26.481  1.00  0.00     0.042 C 
ENDROOT
BRANCH   1   2
ATOM      2  C   UNL A   1      31.732  29.967  25.922  1.00  0.00     0.118 C 
BRANCH   2   3
ATOM      3  N   UNL A   1      32.597  29.979  24.759  1.00  0.00    -0.351 N 
ATOM      4  C   UNL A   1      32.909  28.987  23.870  1.00  0.00     0.281 C 
ATOM      5  O   UNL A   1      33.685  29.290  22.961  1.00  0.00    -0.268 OA
ATOM      6  H   UNL A   1      33.034  30.843  24.580  1.00  0.00     0.163 HD
BRANCH   4   7
ATOM      7  C   UNL A   1      32.321  27.546  24.063  1.00  0.00     0.181 C 
ATOM      8  C   UNL A   1      33.118  25.369  24.853  1.00  0.00     0.191 C 
ATOM      9  C   UNL A   1      33.161  25.324  23.331  1.00  0.00     0.072 C 
ATOM     10  C   UNL A   1      33.107  26.859  25.207  1.00  0.00     0.144 C 
ATOM     11  C   UNL A   1      32.694  26.683  22.840  1.00  0.00     0.085 C 
BRANCH   8  12
ATOM     12  N   UNL A   1      34.037  24.524  25.625  1.00  0.00    -0.326 N 
ATOM     13  C   UNL A   1      33.461  23.283  26.205  1.00  0.00     0.210 C 
ATOM     14  C   UNL A   1      33.435  22.109  25.192  1.00  0.00     0.225 C 
ATOM     15  O   UNL A   1      34.737  21.834  24.653  1.00  0.00    -0.366 OA
ATOM     16  C   UNL A   1      35.338  24.192  25.002  1.00  0.00     0.294 C 
ATOM     17  H   UNL A   1      34.220  25.183  26.381  1.00  0.00     0.348 HD
ATOM     18  C   UNL A   1      35.314  22.991  24.031  1.00  0.00     0.170 C 
ATOM     19  C   UNL A   1      36.716  22.629  23.558  1.00  0.00     0.045 C 
BRANCH  13  20
ATOM     20  C   UNL A   1      32.090  23.444  26.900  1.00  0.00     0.064 C 
ATOM     21  C   UNL A   1      30.960  22.690  26.203  1.00  0.00     0.010 C 
ENDBRANCH  13  20
ENDBRANCH   8  12
BRANCH   7  22
ATOM     22  N   UNL A   1      30.881  27.738  24.338  1.00  0.00    -0.331 N 
ATOM     23  H   UNL A   1      30.785  28.702  24.658  1.00  0.00     0.347 HD
ATOM     24  H   UNL A   1      30.694  26.964  24.974  1.00  0.00     0.347 HD
BRANCH  22  25
ATOM     25  C   UNL A   1      29.841  27.544  23.336  1.00  0.00     0.176 C 
ATOM     26  C   UNL A   1      28.844  26.534  23.925  1.00  0.00     0.075 C 
ATOM     27  C   UNL A   1      29.069  28.817  22.984  1.00  0.00     0.075 C 
ENDBRANCH  22  25
ENDBRANCH   7  22
ENDBRANCH   4   7
ENDBRANCH   2   3
ENDBRANCH   1   2
BRANCH   1  28
ATOM     28  C   UNL A   1      32.785  32.031  26.940  1.00  0.00     0.118 C 
BRANCH  28  29
ATOM     29  N   UNL A   1      32.572  33.416  27.337  1.00  0.00    -0.352 N 
ATOM     30  C   UNL A   1      33.167  34.159  28.326  1.00  0.00     0.251 C 
ATOM     31  H   UNL A   1      31.891  33.896  26.813  1.00  0.00     0.163 HD
ATOM     32  O   UNL A   1      32.687  35.243  28.643  1.00  0.00    -0.269 OA
BRANCH  30  33
ATOM     33  C   UNL A   1      34.366  33.650  29.021  1.00  0.00     0.039 A 
ATOM     34  C   UNL A   1      34.210  32.676  30.009  1.00  0.00     0.014 A 
ATOM     35  C   UNL A   1      35.640  34.136  28.715  1.00  0.00     0.014 A 
ATOM     36  C   UNL A   1      35.336  32.151  30.644  1.00  0.00     0.010 A 
ATOM     37  C   UNL A   1      36.764  33.527  29.256  1.00  0.00     0.010 A 
ATOM     38  C   UNL A   1      36.625  32.546  30.245  1.00  0.00    -0.014 A 
BRANCH  38  39
ATOM     39  C   UNL A   1      37.828  31.951  30.874  1.00  0.00     0.031 A 
ATOM     40  C   UNL A   1      38.261  32.380  32.248  1.00  0.00     0.074 A 
ATOM     41  C   UNL A   1      38.554  31.052  30.184  1.00  0.00     0.049 A 
ATOM     42  N   UNL A   1      39.264  31.948  32.971  1.00  0.00    -0.248 NA
ATOM     43  C   UNL A   1      37.490  33.461  32.882  1.00  0.00     0.031 C 
ATOM     44  C   UNL A   1      38.289  30.630  28.807  1.00  0.00     0.029 A 
ATOM     45  N   UNL A   1      39.660  30.329  30.547  1.00  0.00    -0.354 N 
ATOM     46  C   UNL A   1      39.243  32.706  34.135  1.00  0.00     0.074 A 
ATOM     47  C   UNL A   1      38.184  33.678  33.988  1.00  0.00     0.031 C 
ATOM     48  C   UNL A   1      39.182  29.690  28.457  1.00  0.00     0.029 A 
ATOM     49  C   UNL A   1      40.093  29.463  29.573  1.00  0.00     0.049 A 
ATOM     50  H   UNL A   1      40.103  30.421  31.421  1.00  0.00     0.167 HD
ATOM     51  C   UNL A   1      40.014  32.579  35.242  1.00  0.00     0.037 A 
ATOM     52  C   UNL A   1      41.101  28.572  29.588  1.00  0.00     0.037 A 
ATOM     53  C   UNL A   1      41.056  31.599  35.386  1.00  0.00     0.049 A 
ATOM     54  C   UNL A   1      41.910  28.410  30.844  1.00  0.00     0.074 A 
ATOM     55  C   UNL A   1      41.865  31.349  36.480  1.00  0.00     0.029 A 
ATOM     56  N   UNL A   1      41.436  30.704  34.395  1.00  0.00    -0.354 N 
ATOM     57  N   UNL A   1      41.825  29.071  31.973  1.00  0.00    -0.248 NA
ATOM     58  C   UNL A   1      42.938  27.362  30.836  1.00  0.00     0.031 C 
ATOM     59  C   UNL A   1      42.761  30.328  36.137  1.00  0.00     0.029 A 
ATOM     60  C   UNL A   1      42.476  29.907  34.848  1.00  0.00     0.049 A 
ATOM     61  H   UNL A   1      41.027  30.644  33.502  1.00  0.00     0.167 HD
ATOM     62  C   UNL A   1      42.773  28.509  32.817  1.00  0.00     0.074 A 
ATOM     63  C   UNL A   1      43.403  27.435  32.075  1.00  0.00     0.031 C 
ATOM     64  C   UNL A   1      43.095  28.851  34.090  1.00  0.00     0.037 A 
BRANCH  51  65
ATOM     65  C   UNL A   1      39.739  33.521  36.380  1.00  0.00     0.064 A 
ATOM     66  C   UNL A   1      40.349  34.785  36.451  1.00  0.00     0.173 A 
ATOM     67  C   UNL A   1      38.863  33.161  37.413  1.00  0.00     0.173 A 
ATOM     68  F   UNL A   1      41.208  35.175  35.497  1.00  0.00    -0.203 F 
ATOM     69  C   UNL A   1      40.123  35.632  37.532  1.00  0.00     0.198 A 
ATOM     70  C   UNL A   1      38.612  34.025  38.477  1.00  0.00     0.198 A 
ATOM     71  F   UNL A   1      38.250  31.967  37.396  1.00  0.00    -0.203 F 
ATOM     72  F   UNL A   1      40.768  36.804  37.609  1.00  0.00    -0.200 F 
ATOM     73  C   UNL A   1      39.251  35.255  38.541  1.00  0.00     0.200 A 
ATOM     74  F   UNL A   1      37.760  33.664  39.446  1.00  0.00    -0.200 F 
ATOM     75  F   UNL A   1      39.035  36.070  39.583  1.00  0.00    -0.200 F 
ENDBRANCH  51  65
BRANCH  52  76
ATOM     76  C   UNL A   1      41.352  27.730  28.390  1.00  0.00     0.064 A 
ATOM     77  C   UNL A   1      40.664  26.524  28.199  1.00  0.00     0.173 A 
ATOM     78  C   UNL A   1      42.256  28.132  27.396  1.00  0.00     0.173 A 
ATOM     79  F   UNL A   1      39.799  26.093  29.128  1.00  0.00    -0.203 F 
ATOM     80  C   UNL A   1      40.881  25.744  27.066  1.00  0.00     0.198 A 
ATOM     81  C   UNL A   1      42.452  27.366  26.250  1.00  0.00     0.198 A 
ATOM     82  F   UNL A   1      42.928  29.285  27.526  1.00  0.00    -0.203 F 
ATOM     83  F   UNL A   1      40.234  24.580  26.923  1.00  0.00    -0.200 F 
ATOM     84  C   UNL A   1      41.770  26.169  26.088  1.00  0.00     0.200 A 
ATOM     85  F   UNL A   1      43.296  27.788  25.300  1.00  0.00    -0.200 F 
ATOM     86  F   UNL A   1      41.968  25.425  24.992  1.00  0.00    -0.200 F 
ENDBRANCH  52  76
BRANCH  64  87
ATOM     87  C   UNL A   1      44.165  28.038  34.761  1.00  0.00     0.064 A 
ATOM     88  C   UNL A   1      45.516  28.411  34.708  1.00  0.00     0.173 A 
ATOM     89  C   UNL A   1      43.830  26.876  35.474  1.00  0.00     0.173 A 
ATOM     90  F   UNL A   1      45.887  29.506  34.028  1.00  0.00    -0.203 F 
ATOM     91  C   UNL A   1      46.497  27.631  35.312  1.00  0.00     0.198 A 
ATOM     92  C   UNL A   1      44.812  26.115  36.103  1.00  0.00     0.198 A 
ATOM     93  F   UNL A   1      42.552  26.479  35.561  1.00  0.00    -0.203 F 
ATOM     94  F   UNL A   1      47.788  27.973  35.197  1.00  0.00    -0.200 F 
ATOM     95  C   UNL A   1      46.144  26.487  36.012  1.00  0.00     0.200 A 
ATOM     96  F   UNL A   1      44.468  25.017  36.790  1.00  0.00    -0.200 F 
ATOM     97  F   UNL A   1      47.092  25.735  36.590  1.00  0.00    -0.200 F 
ENDBRANCH  64  87
ENDBRANCH  38  39
ENDBRANCH  30  33
ENDBRANCH  28  29
ENDBRANCH   1  28
TORSDOF 14
ENDMDL
MODEL 2
REMARK VINA RESULT:     -12.0      4.790     10.658
REMARK SMILES CC[C@H]1CO[C@H](C)C[N@H+]1[C@@H]1CC[C@]([NH2+]C(C)C)(C(=O)NCCCNC(=O)c2ccc(-c3c4nc(c(-c5c(F)c(F)c(F)c(F)c5F)c5ccc([nH]5)c(-c5c(F)c(F)c(F)c(F)c5F)c5nc(c(-c6c(F)c(F)c(F)c(F)c6F)c6ccc3[nH]6)C=C5)C=C4)cc2)C1
REMARK SMILES IDX 22 1 21 2 20 3 18 4 19 5 13 7 10 8 11 9 90 10 12 11 9 12
REMARK SMILES IDX 3 13 4 14 5 15 8 16 6 18 7 19 2 20 1 21 14 22 15 25 16 26
REMARK SMILES IDX 17 27 23 28 24 29 25 30 26 32 27 33 28 34 89 35 29 36 88 37
REMARK SMILES IDX 30 38 31 39 32 40 82 41 33 42 87 43 81 44 83 45 34 46 86 47
REMARK SMILES IDX 80 48 79 49 35 51 67 52 47 53 66 54 48 55 51 56 65 57 84 58
REMARK SMILES IDX 49 59 50 60 64 62 85 63 52 64 36 65 37 66 45 67 38 68 39 69
REMARK SMILES IDX 43 70 46 71 40 72 41 73 44 74 42 75 68 76 69 77 77 78 70 79
REMARK SMILES IDX 71 80 75 81 78 82 72 83 73 84 76 85 74 86 53 87 54 88 62 89
REMARK SMILES IDX 55 90 56 91 60 92 63 93 57 94 58 95 61 96 59 97
REMARK H PARENT 20 6 9 17 14 23 14 24 24 31 83 50 51 61
REMARK Flexibility Score: inf
ROOT
ATOM      1  C   UNL A   1      37.570  20.019  24.928  1.00  0.00     0.042 C 
ENDROOT
BRANCH   1   2
ATOM      2  C   UNL A   1      36.405  20.987  24.890  1.00  0.00     0.118 C 
BRANCH   2   3
ATOM      3  N   UNL A   1      35.727  21.078  26.169  1.00  0.00    -0.351 N 
ATOM      4  C   UNL A   1      34.547  21.680  26.511  1.00  0.00     0.281 C 
ATOM      5  O   UNL A   1      34.211  21.593  27.694  1.00  0.00    -0.268 OA
ATOM      6  H   UNL A   1      36.194  20.635  26.914  1.00  0.00     0.163 HD
BRANCH   4   7
ATOM      7  C   UNL A   1      33.722  22.463  25.431  1.00  0.00     0.181 C 
ATOM      8  C   UNL A   1      33.307  24.801  24.832  1.00  0.00     0.191 C 
ATOM      9  C   UNL A   1      32.107  24.339  25.649  1.00  0.00     0.072 C 
ATOM     10  C   UNL A   1      34.429  23.818  25.182  1.00  0.00     0.144 C 
ATOM     11  C   UNL A   1      32.376  22.898  26.045  1.00  0.00     0.085 C 
BRANCH   8  12
ATOM     12  N   UNL A   1      33.669  26.223  24.822  1.00  0.00    -0.326 N 
ATOM     13  C   UNL A   1      33.218  27.010  23.645  1.00  0.00     0.210 C 
ATOM     14  C   UNL A   1      31.759  27.512  23.788  1.00  0.00     0.225 C 
ATOM     15  O   UNL A   1      31.568  28.280  24.986  1.00  0.00    -0.366 OA
ATOM     16  C   UNL A   1      33.382  27.003  26.046  1.00  0.00     0.294 C 
ATOM     17  H   UNL A   1      34.680  26.103  24.767  1.00  0.00     0.348 HD
ATOM     18  C   UNL A   1      31.938  27.542  26.159  1.00  0.00     0.170 C 
ATOM     19  C   UNL A   1      31.777  28.455  27.367  1.00  0.00     0.045 C 
BRANCH  13  20
ATOM     20  C   UNL A   1      33.440  26.340  22.269  1.00  0.00     0.064 C 
ATOM     21  C   UNL A   1      32.143  25.951  21.563  1.00  0.00     0.010 C 
ENDBRANCH  13  20
ENDBRANCH   8  12
BRANCH   7  22
ATOM     22  N   UNL A   1      33.667  21.574  24.251  1.00  0.00    -0.331 N 
ATOM     23  H   UNL A   1      34.341  20.829  24.432  1.00  0.00     0.347 HD
ATOM     24  H   UNL A   1      33.825  22.236  23.493  1.00  0.00     0.347 HD
BRANCH  22  25
ATOM     25  C   UNL A   1      32.450  20.910  23.802  1.00  0.00     0.176 C 
ATOM     26  C   UNL A   1      32.153  21.439  22.392  1.00  0.00     0.075 C 
ATOM     27  C   UNL A   1      32.563  19.387  23.720  1.00  0.00     0.075 C 
ENDBRANCH  22  25
ENDBRANCH   7  22
ENDBRANCH   4   7
ENDBRANCH   2   3
ENDBRANCH   1   2
BRANCH   1  28
ATOM     28  C   UNL A   1      38.740  20.526  25.751  1.00  0.00     0.118 C 
BRANCH  28  29
ATOM     29  N   UNL A   1      39.797  19.533  25.884  1.00  0.00    -0.352 N 
ATOM     30  C   UNL A   1      41.145  19.691  26.085  1.00  0.00     0.251 C 
ATOM     31  H   UNL A   1      39.495  18.598  25.820  1.00  0.00     0.163 HD
ATOM     32  O   UNL A   1      41.896  18.731  25.947  1.00  0.00    -0.269 OA
BRANCH  30  33
ATOM     33  C   UNL A   1      41.695  21.014  26.443  1.00  0.00     0.039 A 
ATOM     34  C   UNL A   1      41.939  21.940  25.427  1.00  0.00     0.014 A 
ATOM     35  C   UNL A   1      41.984  21.341  27.770  1.00  0.00     0.014 A 
ATOM     36  C   UNL A   1      42.416  23.210  25.753  1.00  0.00     0.010 A 
ATOM     37  C   UNL A   1      42.338  22.641  28.104  1.00  0.00     0.010 A 
ATOM     38  C   UNL A   1      42.583  23.583  27.097  1.00  0.00    -0.014 A 
BRANCH  38  39
ATOM     39  C   UNL A   1      43.033  24.949  27.455  1.00  0.00     0.031 A 
ATOM     40  C   UNL A   1      44.446  25.383  27.178  1.00  0.00     0.074 A 
ATOM     41  C   UNL A   1      42.175  25.785  28.069  1.00  0.00     0.049 A 
ATOM     42  N   UNL A   1      45.010  26.546  27.390  1.00  0.00    -0.248 NA
ATOM     43  C   UNL A   1      45.358  24.369  26.625  1.00  0.00     0.031 C 
ATOM     44  C   UNL A   1      40.810  25.445  28.476  1.00  0.00     0.029 A 
ATOM     45  N   UNL A   1      42.322  27.093  28.453  1.00  0.00    -0.354 N 
ATOM     46  C   UNL A   1      46.335  26.398  27.000  1.00  0.00     0.074 A 
ATOM     47  C   UNL A   1      46.513  25.016  26.620  1.00  0.00     0.031 C 
ATOM     48  C   UNL A   1      40.231  26.529  29.015  1.00  0.00     0.029 A 
ATOM     49  C   UNL A   1      41.188  27.629  29.012  1.00  0.00     0.049 A 
ATOM     50  H   UNL A   1      43.159  27.598  28.341  1.00  0.00     0.167 HD
ATOM     51  C   UNL A   1      47.307  27.339  26.931  1.00  0.00     0.037 A 
ATOM     52  C   UNL A   1      40.945  28.877  29.455  1.00  0.00     0.037 A 
ATOM     53  C   UNL A   1      47.118  28.717  27.298  1.00  0.00     0.049 A 
ATOM     54  C   UNL A   1      42.020  29.919  29.321  1.00  0.00     0.074 A 
ATOM     55  C   UNL A   1      48.018  29.765  27.221  1.00  0.00     0.029 A 
ATOM     56  N   UNL A   1      45.940  29.238  27.816  1.00  0.00    -0.354 N 
ATOM     57  N   UNL A   1      43.243  29.791  28.868  1.00  0.00    -0.248 NA
ATOM     58  C   UNL A   1      41.671  31.283  29.736  1.00  0.00     0.031 C 
ATOM     59  C   UNL A   1      47.396  30.913  27.730  1.00  0.00     0.029 A 
ATOM     60  C   UNL A   1      46.093  30.591  28.075  1.00  0.00     0.049 A 
ATOM     61  H   UNL A   1      45.117  28.722  27.975  1.00  0.00     0.167 HD
ATOM     62  C   UNL A   1      43.806  31.059  28.925  1.00  0.00     0.074 A 
ATOM     63  C   UNL A   1      42.779  31.945  29.433  1.00  0.00     0.031 C 
ATOM     64  C   UNL A   1      45.060  31.453  28.590  1.00  0.00     0.037 A 
BRANCH  51  65
ATOM     65  C   UNL A   1      48.653  26.899  26.428  1.00  0.00     0.064 A 
ATOM     66  C   UNL A   1      49.626  26.375  27.296  1.00  0.00     0.173 A 
ATOM     67  C   UNL A   1      48.979  27.003  25.069  1.00  0.00     0.173 A 
ATOM     68  F   UNL A   1      49.372  26.268  28.609  1.00  0.00    -0.203 F 
ATOM     69  C   UNL A   1      50.885  26.012  26.828  1.00  0.00     0.198 A 
ATOM     70  C   UNL A   1      50.229  26.607  24.598  1.00  0.00     0.198 A 
ATOM     71  F   UNL A   1      48.089  27.494  24.194  1.00  0.00    -0.203 F 
ATOM     72  F   UNL A   1      51.818  25.577  27.686  1.00  0.00    -0.200 F 
ATOM     73  C   UNL A   1      51.185  26.123  25.479  1.00  0.00     0.200 A 
ATOM     74  F   UNL A   1      50.514  26.704  23.291  1.00  0.00    -0.200 F 
ATOM     75  F   UNL A   1      52.398  25.774  25.029  1.00  0.00    -0.200 F 
ENDBRANCH  51  65
BRANCH  52  76
ATOM     76  C   UNL A   1      39.608  29.209  30.008  1.00  0.00     0.064 A 
ATOM     77  C   UNL A   1      39.339  29.081  31.377  1.00  0.00     0.173 A 
ATOM     78  C   UNL A   1      38.582  29.696  29.184  1.00  0.00     0.173 A 
ATOM     79  F   UNL A   1      40.285  28.607  32.203  1.00  0.00    -0.203 F 
ATOM     80  C   UNL A   1      38.092  29.413  31.901  1.00  0.00     0.198 A 
ATOM     81  C   UNL A   1      37.344  30.055  29.712  1.00  0.00     0.198 A 
ATOM     82  F   UNL A   1      38.794  29.850  27.869  1.00  0.00    -0.203 F 
ATOM     83  F   UNL A   1      37.852  29.250  33.209  1.00  0.00    -0.200 F 
ATOM     84  C   UNL A   1      37.097  29.906  31.069  1.00  0.00     0.200 A 
ATOM     85  F   UNL A   1      36.393  30.548  28.909  1.00  0.00    -0.200 F 
ATOM     86  F   UNL A   1      35.903  30.239  31.575  1.00  0.00    -0.200 F 
ENDBRANCH  52  76
BRANCH  64  87
ATOM     87  C   UNL A   1      45.376  32.913  28.746  1.00  0.00     0.064 A 
ATOM     88  C   UNL A   1      45.931  33.424  29.928  1.00  0.00     0.173 A 
ATOM     89  C   UNL A   1      45.129  33.809  27.693  1.00  0.00     0.173 A 
ATOM     90  F   UNL A   1      46.173  32.610  30.967  1.00  0.00    -0.203 F 
ATOM     91  C   UNL A   1      46.192  34.784  30.066  1.00  0.00     0.198 A 
ATOM     92  C   UNL A   1      45.421  35.164  27.824  1.00  0.00     0.198 A 
ATOM     93  F   UNL A   1      44.607  33.370  26.539  1.00  0.00    -0.203 F 
ATOM     94  F   UNL A   1      46.664  35.260  31.227  1.00  0.00    -0.200 F 
ATOM     95  C   UNL A   1      45.941  35.652  29.013  1.00  0.00     0.200 A 
ATOM     96  F   UNL A   1      45.191  35.998  26.802  1.00  0.00    -0.200 F 
ATOM     97  F   UNL A   1      46.189  36.962  29.150  1.00  0.00    -0.200 F 
ENDBRANCH  64  87
ENDBRANCH  38  39
ENDBRANCH  30  33
ENDBRANCH  28  29
ENDBRANCH   1  28
TORSDOF 14
ENDMDL
MODEL 3
REMARK VINA RESULT:     -12.0      5.088      9.309
REMARK SMILES CC[C@H]1CO[C@H](C)C[N@H+]1[C@@H]1CC[C@]([NH2+]C(C)C)(C(=O)NCCCNC(=O)c2ccc(-c3c4nc(c(-c5c(F)c(F)c(F)c(F)c5F)c5ccc([nH]5)c(-c5c(F)c(F)c(F)c(F)c5F)c5nc(c(-c6c(F)c(F)c(F)c(F)c6F)c6ccc3[nH]6)C=C5)C=C4)cc2)C1
REMARK SMILES IDX 22 1 21 2 20 3 18 4 19 5 13 7 10 8 11 9 90 10 12 11 9 12
REMARK SMILES IDX 3 13 4 14 5 15 8 16 6 18 7 19 2 20 1 21 14 22 15 25 16 26
REMARK SMILES IDX 17 27 23 28 24 29 25 30 26 32 27 33 28 34 89 35 29 36 88 37
REMARK SMILES IDX 30 38 31 39 32 40 82 41 33 42 87 43 81 44 83 45 34 46 86 47
REMARK SMILES IDX 80 48 79 49 35 51 67 52 47 53 66 54 48 55 51 56 65 57 84 58
REMARK SMILES IDX 49 59 50 60 64 62 85 63 52 64 36 65 37 66 45 67 38 68 39 69
REMARK SMILES IDX 43 70 46 71 40 72 41 73 44 74 42 75 68 76 69 77 77 78 70 79
REMARK SMILES IDX 71 80 75 81 78 82 72 83 73 84 76 85 74 86 53 87 54 88 62 89
REMARK SMILES IDX 55 90 56 91 60 92 63 93 57 94 58 95 61 96 59 97
REMARK H PARENT 20 6 9 17 14 23 14 24 24 31 83 50 51 61
REMARK Flexibility Score: inf
ROOT
ATOM      1  C   UNL A   1      37.848  19.550  25.226  1.00  0.00     0.042 C 
ENDROOT
BRANCH   1   2
ATOM      2  C   UNL A   1      36.735  20.552  24.998  1.00  0.00     0.118 C 
BRANCH   2   3
ATOM      3  N   UNL A   1      37.086  21.540  23.996  1.00  0.00    -0.351 N 
ATOM      4  C   UNL A   1      36.410  22.649  23.563  1.00  0.00     0.281 C 
ATOM      5  O   UNL A   1      36.961  23.318  22.685  1.00  0.00    -0.268 OA
ATOM      6  H   UNL A   1      37.951  21.387  23.553  1.00  0.00     0.163 HD
BRANCH   4   7
ATOM      7  C   UNL A   1      34.996  22.987  24.150  1.00  0.00     0.181 C 
ATOM      8  C   UNL A   1      33.629  24.987  24.508  1.00  0.00     0.191 C 
ATOM      9  C   UNL A   1      34.284  24.660  25.844  1.00  0.00     0.072 C 
ATOM     10  C   UNL A   1      34.490  24.277  23.458  1.00  0.00     0.144 C 
ATOM     11  C   UNL A   1      35.154  23.436  25.616  1.00  0.00     0.085 C 
BRANCH   8  12
ATOM     12  N   UNL A   1      33.253  26.374  24.210  1.00  0.00    -0.326 N 
ATOM     13  C   UNL A   1      31.829  26.610  23.856  1.00  0.00     0.210 C 
ATOM     14  C   UNL A   1      30.924  26.766  25.104  1.00  0.00     0.225 C 
ATOM     15  O   UNL A   1      31.385  27.808  25.977  1.00  0.00    -0.366 OA
ATOM     16  C   UNL A   1      33.675  27.412  25.176  1.00  0.00     0.294 C 
ATOM     17  H   UNL A   1      33.822  26.489  23.371  1.00  0.00     0.348 HD
ATOM     18  C   UNL A   1      32.741  27.596  26.393  1.00  0.00     0.170 C 
ATOM     19  C   UNL A   1      33.169  28.781  27.249  1.00  0.00     0.045 C 
BRANCH  13  20
ATOM     20  C   UNL A   1      31.217  25.609  22.850  1.00  0.00     0.064 C 
ATOM     21  C   UNL A   1      30.277  24.592  23.495  1.00  0.00     0.010 C 
ENDBRANCH  13  20
ENDBRANCH   8  12
BRANCH   7  22
ATOM     22  N   UNL A   1      34.165  21.790  23.898  1.00  0.00    -0.331 N 
ATOM     23  H   UNL A   1      34.505  21.075  24.541  1.00  0.00     0.347 HD
ATOM     24  H   UNL A   1      34.281  21.673  22.892  1.00  0.00     0.347 HD
BRANCH  22  25
ATOM     25  C   UNL A   1      32.714  21.781  24.022  1.00  0.00     0.176 C 
ATOM     26  C   UNL A   1      32.154  21.454  22.629  1.00  0.00     0.075 C 
ATOM     27  C   UNL A   1      32.177  20.738  25.002  1.00  0.00     0.075 C 
ENDBRANCH  22  25
ENDBRANCH   7  22
ENDBRANCH   4   7
ENDBRANCH   2   3
ENDBRANCH   1   2
BRANCH   1  28
ATOM     28  C   UNL A   1      39.111  20.177  25.786  1.00  0.00     0.118 C 
BRANCH  28  29
ATOM     29  N   UNL A   1      40.183  19.206  25.963  1.00  0.00    -0.352 N 
ATOM     30  C   UNL A   1      41.533  19.391  26.123  1.00  0.00     0.251 C 
ATOM     31  H   UNL A   1      39.891  18.266  25.967  1.00  0.00     0.163 HD
ATOM     32  O   UNL A   1      42.292  18.432  26.033  1.00  0.00    -0.269 OA
BRANCH  30  33
ATOM     33  C   UNL A   1      42.074  20.741  26.381  1.00  0.00     0.039 A 
ATOM     34  C   UNL A   1      42.399  21.556  25.295  1.00  0.00     0.014 A 
ATOM     35  C   UNL A   1      42.276  21.202  27.684  1.00  0.00     0.014 A 
ATOM     36  C   UNL A   1      42.869  22.850  25.521  1.00  0.00     0.010 A 
ATOM     37  C   UNL A   1      42.623  22.527  27.907  1.00  0.00     0.010 A 
ATOM     38  C   UNL A   1      42.948  23.358  26.828  1.00  0.00    -0.014 A 
BRANCH  38  39
ATOM     39  C   UNL A   1      43.391  24.752  27.074  1.00  0.00     0.031 A 
ATOM     40  C   UNL A   1      42.421  25.781  27.582  1.00  0.00     0.074 A 
ATOM     41  C   UNL A   1      44.663  25.096  26.799  1.00  0.00     0.049 A 
ATOM     42  N   UNL A   1      42.632  27.037  27.886  1.00  0.00    -0.248 NA
ATOM     43  C   UNL A   1      41.019  25.358  27.733  1.00  0.00     0.031 C 
ATOM     44  C   UNL A   1      45.670  24.209  26.213  1.00  0.00     0.029 A 
ATOM     45  N   UNL A   1      45.327  26.282  26.980  1.00  0.00    -0.354 N 
ATOM     46  C   UNL A   1      41.396  27.548  28.259  1.00  0.00     0.074 A 
ATOM     47  C   UNL A   1      40.426  26.495  28.063  1.00  0.00     0.031 C 
ATOM     48  C   UNL A   1      46.835  24.870  26.121  1.00  0.00     0.029 A 
ATOM     49  C   UNL A   1      46.651  26.228  26.619  1.00  0.00     0.049 A 
ATOM     50  H   UNL A   1      44.897  27.093  27.333  1.00  0.00     0.167 HD
ATOM     51  C   UNL A   1      41.100  28.774  28.755  1.00  0.00     0.037 A 
ATOM     52  C   UNL A   1      47.611  27.167  26.700  1.00  0.00     0.037 A 
ATOM     53  C   UNL A   1      42.073  29.813  28.961  1.00  0.00     0.049 A 
ATOM     54  C   UNL A   1      47.275  28.502  27.301  1.00  0.00     0.074 A 
ATOM     55  C   UNL A   1      41.894  31.073  29.502  1.00  0.00     0.029 A 
ATOM     56  N   UNL A   1      43.417  29.707  28.629  1.00  0.00    -0.354 N 
ATOM     57  N   UNL A   1      46.120  28.947  27.734  1.00  0.00    -0.248 NA
ATOM     58  C   UNL A   1      48.381  29.457  27.448  1.00  0.00     0.031 C 
ATOM     59  C   UNL A   1      43.123  31.745  29.461  1.00  0.00     0.029 A 
ATOM     60  C   UNL A   1      44.077  30.885  28.943  1.00  0.00     0.049 A 
ATOM     61  H   UNL A   1      43.839  28.912  28.229  1.00  0.00     0.167 HD
ATOM     62  C   UNL A   1      46.361  30.224  28.222  1.00  0.00     0.074 A 
ATOM     63  C   UNL A   1      47.779  30.471  28.054  1.00  0.00     0.031 C 
ATOM     64  C   UNL A   1      45.488  31.113  28.758  1.00  0.00     0.037 A 
BRANCH  51  65
ATOM     65  C   UNL A   1      39.665  29.040  29.115  1.00  0.00     0.064 A 
ATOM     66  C   UNL A   1      39.189  28.850  30.423  1.00  0.00     0.173 A 
ATOM     67  C   UNL A   1      38.754  29.485  28.147  1.00  0.00     0.173 A 
ATOM     68  F   UNL A   1      40.015  28.410  31.385  1.00  0.00    -0.203 F 
ATOM     69  C   UNL A   1      37.849  29.056  30.737  1.00  0.00     0.198 A 
ATOM     70  C   UNL A   1      37.421  29.724  28.473  1.00  0.00     0.198 A 
ATOM     71  F   UNL A   1      39.153  29.687  26.883  1.00  0.00    -0.203 F 
ATOM     72  F   UNL A   1      37.406  28.804  31.977  1.00  0.00    -0.200 F 
ATOM     73  C   UNL A   1      36.967  29.497  29.764  1.00  0.00     0.200 A 
ATOM     74  F   UNL A   1      36.571  30.162  27.533  1.00  0.00    -0.200 F 
ATOM     75  F   UNL A   1      35.676  29.695  30.067  1.00  0.00    -0.200 F 
ENDBRANCH  51  65
BRANCH  52  76
ATOM     76  C   UNL A   1      48.990  26.843  26.252  1.00  0.00     0.064 A 
ATOM     77  C   UNL A   1      49.942  26.342  27.149  1.00  0.00     0.173 A 
ATOM     78  C   UNL A   1      49.372  26.994  24.911  1.00  0.00     0.173 A 
ATOM     79  F   UNL A   1      49.627  26.192  28.445  1.00  0.00    -0.203 F 
ATOM     80  C   UNL A   1      51.229  26.017  26.727  1.00  0.00     0.198 A 
ATOM     81  C   UNL A   1      50.650  26.643  24.483  1.00  0.00     0.198 A 
ATOM     82  F   UNL A   1      48.493  27.457  24.010  1.00  0.00    -0.203 F 
ATOM     83  F   UNL A   1      52.129  25.570  27.612  1.00  0.00    -0.200 F 
ATOM     84  C   UNL A   1      51.580  26.161  25.392  1.00  0.00     0.200 A 
ATOM     85  F   UNL A   1      50.979  26.766  23.190  1.00  0.00    -0.200 F 
ATOM     86  F   UNL A   1      52.813  25.835  24.984  1.00  0.00    -0.200 F 
ENDBRANCH  52  76
BRANCH  64  87
ATOM     87  C   UNL A   1      46.053  32.426  29.218  1.00  0.00     0.064 A 
ATOM     88  C   UNL A   1      46.106  33.543  28.371  1.00  0.00     0.173 A 
ATOM     89  C   UNL A   1      46.539  32.569  30.528  1.00  0.00     0.173 A 
ATOM     90  F   UNL A   1      45.666  33.452  27.107  1.00  0.00    -0.203 F 
ATOM     91  C   UNL A   1      46.659  34.744  28.805  1.00  0.00     0.198 A 
ATOM     92  C   UNL A   1      47.062  33.782  30.967  1.00  0.00     0.198 A 
ATOM     93  F   UNL A   1      46.504  31.535  31.380  1.00  0.00    -0.203 F 
ATOM     94  F   UNL A   1      46.755  35.779  27.960  1.00  0.00    -0.200 F 
ATOM     95  C   UNL A   1      47.133  34.864  30.103  1.00  0.00     0.200 A 
ATOM     96  F   UNL A   1      47.508  33.900  32.226  1.00  0.00    -0.200 F 
ATOM     97  F   UNL A   1      47.668  36.020  30.518  1.00  0.00    -0.200 F 
ENDBRANCH  64  87
ENDBRANCH  38  39
ENDBRANCH  30  33
ENDBRANCH  28  29
ENDBRANCH   1  28
TORSDOF 14
ENDMDL
