MODEL 1
REMARK VINA RESULT:     -12.0      0.000      0.000
REMARK SMILES O=C(NCCCNC(=O)[C@]1(CCc2cccnc2)CCC[NH2+]C1)c1ccc(-c2c3nc(c(-c4c(F)c(F)c(F)c(F)c4F)c4ccc([nH]4)c(-c4c(F)c(F)c(F)c(F)c4F)c4nc(c(-c5c(F)c(F)c(F)c(F)c5F)c5ccc2[nH]5)C=C4)C=C3)cc1
REMARK SMILES IDX 5 1 4 2 3 3 1 4 2 5 24 7 25 8 86 9 26 10 85 11 27 12 28 13
REMARK SMILES IDX 29 14 79 15 30 16 84 17 78 18 80 19 31 20 83 21 77 22 76 23
REMARK SMILES IDX 32 25 64 26 44 27 63 28 45 29 48 30 62 31 81 32 46 33 47 34
REMARK SMILES IDX 61 36 82 37 49 38 33 39 34 40 42 41 35 42 36 43 40 44 43 45
REMARK SMILES IDX 37 46 38 47 41 48 39 49 65 50 66 51 74 52 67 53 68 54 72 55
REMARK SMILES IDX 75 56 69 57 70 58 73 59 71 60 50 61 51 62 59 63 52 64 53 65
REMARK SMILES IDX 57 66 60 67 54 68 55 69 58 70 56 71 6 72 7 73 8 74 9 76
REMARK SMILES IDX 10 77 19 78 23 79 20 80 22 81 21 82 11 85 12 86 13 87 14 88
REMARK SMILES IDX 18 89 15 90 17 91 16 92
REMARK H PARENT 3 6 80 24 48 35 7 75 22 83 22 84
REMARK Flexibility Score: inf
ROOT
ATOM      1  C   UNL A   1      31.355  31.851  26.500  1.00  0.00     0.042 C 
ENDROOT
BRANCH   1   2
ATOM      2  C   UNL A   1      32.667  32.520  26.878  1.00  0.00     0.118 C 
BRANCH   2   3
ATOM      3  N   UNL A   1      32.483  33.865  27.411  1.00  0.00    -0.352 N 
ATOM      4  O   UNL A   1      32.650  35.587  28.849  1.00  0.00    -0.269 OA
ATOM      5  C   UNL A   1      33.094  34.515  28.457  1.00  0.00     0.251 C 
ATOM      6  H   UNL A   1      31.805  34.400  26.940  1.00  0.00     0.163 HD
BRANCH   5   7
ATOM      7  C   UNL A   1      34.263  33.917  29.141  1.00  0.00     0.039 A 
ATOM      8  C   UNL A   1      35.552  34.399  28.920  1.00  0.00     0.014 A 
ATOM      9  C   UNL A   1      34.062  32.878  30.055  1.00  0.00     0.014 A 
ATOM     10  C   UNL A   1      36.646  33.725  29.446  1.00  0.00     0.010 A 
ATOM     11  C   UNL A   1      35.158  32.279  30.687  1.00  0.00     0.010 A 
ATOM     12  C   UNL A   1      36.463  32.671  30.356  1.00  0.00    -0.014 A 
BRANCH  12  13
ATOM     13  C   UNL A   1      37.657  32.052  30.987  1.00  0.00     0.031 A 
ATOM     14  C   UNL A   1      38.071  32.405  32.387  1.00  0.00     0.074 A 
ATOM     15  C   UNL A   1      38.345  31.126  30.290  1.00  0.00     0.049 A 
ATOM     16  N   UNL A   1      39.068  31.934  33.095  1.00  0.00    -0.248 NA
ATOM     17  C   UNL A   1      37.273  33.424  33.084  1.00  0.00     0.031 C 
ATOM     18  C   UNL A   1      38.042  30.711  28.919  1.00  0.00     0.029 A 
ATOM     19  N   UNL A   1      39.417  30.348  30.643  1.00  0.00    -0.354 N 
ATOM     20  C   UNL A   1      39.034  32.615  34.304  1.00  0.00     0.074 A 
ATOM     21  C   UNL A   1      37.931  33.551  34.228  1.00  0.00     0.031 C 
ATOM     22  C   UNL A   1      38.859  29.709  28.571  1.00  0.00     0.029 A 
ATOM     23  C   UNL A   1      39.791  29.460  29.664  1.00  0.00     0.049 A 
ATOM     24  H   UNL A   1      39.872  30.417  31.512  1.00  0.00     0.167 HD
ATOM     25  C   UNL A   1      39.844  32.467  35.380  1.00  0.00     0.037 A 
ATOM     26  C   UNL A   1      40.785  28.553  29.640  1.00  0.00     0.037 A 
ATOM     27  C   UNL A   1      40.925  31.516  35.457  1.00  0.00     0.049 A 
ATOM     28  C   UNL A   1      41.677  28.422  30.839  1.00  0.00     0.074 A 
ATOM     29  C   UNL A   1      41.778  31.261  36.516  1.00  0.00     0.029 A 
ATOM     30  N   UNL A   1      41.302  30.664  34.427  1.00  0.00    -0.354 N 
ATOM     31  N   UNL A   1      41.619  29.056  31.984  1.00  0.00    -0.248 NA
ATOM     32  C   UNL A   1      42.777  27.456  30.739  1.00  0.00     0.031 C 
ATOM     33  C   UNL A   1      42.700  30.288  36.113  1.00  0.00     0.029 A 
ATOM     34  C   UNL A   1      42.392  29.901  34.819  1.00  0.00     0.049 A 
ATOM     35  H   UNL A   1      40.861  30.610  33.549  1.00  0.00     0.167 HD
ATOM     36  C   UNL A   1      42.665  28.560  32.746  1.00  0.00     0.074 A 
ATOM     37  C   UNL A   1      43.329  27.556  31.940  1.00  0.00     0.031 C 
ATOM     38  C   UNL A   1      43.044  28.910  34.001  1.00  0.00     0.037 A 
BRANCH  25  39
ATOM     39  C   UNL A   1      39.612  33.374  36.555  1.00  0.00     0.064 A 
ATOM     40  C   UNL A   1      40.221  34.633  36.652  1.00  0.00     0.173 A 
ATOM     41  C   UNL A   1      38.743  32.986  37.588  1.00  0.00     0.173 A 
ATOM     42  F   UNL A   1      41.069  35.048  35.699  1.00  0.00    -0.203 F 
ATOM     43  C   UNL A   1      39.994  35.457  37.752  1.00  0.00     0.198 A 
ATOM     44  C   UNL A   1      38.496  33.824  38.673  1.00  0.00     0.198 A 
ATOM     45  F   UNL A   1      38.128  31.794  37.543  1.00  0.00    -0.203 F 
ATOM     46  F   UNL A   1      40.627  36.635  37.848  1.00  0.00    -0.200 F 
ATOM     47  C   UNL A   1      39.129  35.055  38.758  1.00  0.00     0.200 A 
ATOM     48  F   UNL A   1      37.650  33.438  39.637  1.00  0.00    -0.200 F 
ATOM     49  F   UNL A   1      38.910  35.850  39.815  1.00  0.00    -0.200 F 
ENDBRANCH  25  39
BRANCH  26  50
ATOM     50  C   UNL A   1      40.972  27.705  28.437  1.00  0.00     0.064 A 
ATOM     51  C   UNL A   1      40.268  26.503  28.288  1.00  0.00     0.173 A 
ATOM     52  C   UNL A   1      41.824  28.099  27.394  1.00  0.00     0.173 A 
ATOM     53  F   UNL A   1      39.456  26.076  29.265  1.00  0.00    -0.203 F 
ATOM     54  C   UNL A   1      40.412  25.725  27.141  1.00  0.00     0.198 A 
ATOM     55  C   UNL A   1      41.944  27.335  26.237  1.00  0.00     0.198 A 
ATOM     56  F   UNL A   1      42.514  29.245  27.488  1.00  0.00    -0.203 F 
ATOM     57  F   UNL A   1      39.749  24.565  27.034  1.00  0.00    -0.200 F 
ATOM     58  C   UNL A   1      41.242  26.146  26.113  1.00  0.00     0.200 A 
ATOM     59  F   UNL A   1      42.733  27.755  25.238  1.00  0.00    -0.200 F 
ATOM     60  F   UNL A   1      41.366  25.405  25.003  1.00  0.00    -0.200 F 
ENDBRANCH  26  50
BRANCH  38  61
ATOM     61  C   UNL A   1      44.219  28.181  34.580  1.00  0.00     0.064 A 
ATOM     62  C   UNL A   1      45.525  28.674  34.452  1.00  0.00     0.173 A 
ATOM     63  C   UNL A   1      44.033  26.986  35.292  1.00  0.00     0.173 A 
ATOM     64  F   UNL A   1      45.755  29.803  33.764  1.00  0.00    -0.203 F 
ATOM     65  C   UNL A   1      46.606  27.984  34.992  1.00  0.00     0.198 A 
ATOM     66  C   UNL A   1      45.113  26.313  35.854  1.00  0.00     0.198 A 
ATOM     67  F   UNL A   1      42.802  26.475  35.446  1.00  0.00    -0.203 F 
ATOM     68  F   UNL A   1      47.851  28.447  34.815  1.00  0.00    -0.200 F 
ATOM     69  C   UNL A   1      46.399  26.808  35.698  1.00  0.00     0.200 A 
ATOM     70  F   UNL A   1      44.910  25.182  36.545  1.00  0.00    -0.200 F 
ATOM     71  F   UNL A   1      47.440  26.146  36.219  1.00  0.00    -0.200 F 
ENDBRANCH  38  61
ENDBRANCH  12  13
ENDBRANCH   5   7
ENDBRANCH   2   3
ENDBRANCH   1   2
BRANCH   1  72
ATOM     72  C   UNL A   1      31.472  30.365  26.199  1.00  0.00     0.117 C 
BRANCH  72  73
ATOM     73  N   UNL A   1      32.398  30.079  25.123  1.00  0.00    -0.355 N 
ATOM     74  C   UNL A   1      32.509  29.066  24.228  1.00  0.00     0.231 C 
ATOM     75  H   UNL A   1      33.095  30.765  25.019  1.00  0.00     0.163 HD
ATOM     76  O   UNL A   1      33.373  29.239  23.359  1.00  0.00    -0.274 OA
BRANCH  74  77
ATOM     77  C   UNL A   1      31.693  27.755  24.304  1.00  0.00     0.098 C 
ATOM     78  C   UNL A   1      31.799  27.168  25.744  1.00  0.00     0.028 C 
ATOM     79  C   UNL A   1      32.259  26.650  23.375  1.00  0.00     0.277 C 
ATOM     80  C   UNL A   1      33.214  26.675  26.078  1.00  0.00     0.063 C 
ATOM     81  N   UNL A   1      33.659  26.332  23.658  1.00  0.00    -0.345 N 
ATOM     82  C   UNL A   1      33.801  25.769  24.999  1.00  0.00     0.260 C 
ATOM     83  H   UNL A   1      33.993  25.654  22.974  1.00  0.00     0.346 HD
ATOM     84  H   UNL A   1      34.207  27.191  23.605  1.00  0.00     0.346 HD
BRANCH  77  85
ATOM     85  C   UNL A   1      30.202  28.040  23.932  1.00  0.00     0.028 C 
BRANCH  85  86
ATOM     86  C   UNL A   1      29.894  28.570  22.516  1.00  0.00     0.038 C 
BRANCH  86  87
ATOM     87  C   UNL A   1      29.265  29.933  22.446  1.00  0.00    -0.030 A 
ATOM     88  C   UNL A   1      29.153  30.741  23.580  1.00  0.00     0.007 A 
ATOM     89  C   UNL A   1      28.775  30.452  21.251  1.00  0.00     0.114 A 
ATOM     90  C   UNL A   1      28.606  32.016  23.475  1.00  0.00     0.020 A 
ATOM     91  N   UNL A   1      28.238  31.687  21.113  1.00  0.00    -0.264 NA
ATOM     92  C   UNL A   1      28.171  32.441  22.233  1.00  0.00     0.111 A 
ENDBRANCH  86  87
ENDBRANCH  85  86
ENDBRANCH  77  85
ENDBRANCH  74  77
ENDBRANCH  72  73
ENDBRANCH   1  72
TORSDOF 13
ENDMDL
MODEL 2
REMARK VINA RESULT:     -12.0      0.114      1.622
REMARK SMILES O=C(NCCCNC(=O)[C@]1(CCc2cccnc2)CCC[NH2+]C1)c1ccc(-c2c3nc(c(-c4c(F)c(F)c(F)c(F)c4F)c4ccc([nH]4)c(-c4c(F)c(F)c(F)c(F)c4F)c4nc(c(-c5c(F)c(F)c(F)c(F)c5F)c5ccc2[nH]5)C=C4)C=C3)cc1
REMARK SMILES IDX 5 1 4 2 3 3 1 4 2 5 24 7 25 8 86 9 26 10 85 11 27 12 28 13
REMARK SMILES IDX 29 14 79 15 30 16 84 17 78 18 80 19 31 20 83 21 77 22 76 23
REMARK SMILES IDX 32 25 64 26 44 27 63 28 45 29 48 30 62 31 81 32 46 33 47 34
REMARK SMILES IDX 61 36 82 37 49 38 33 39 34 40 42 41 35 42 36 43 40 44 43 45
REMARK SMILES IDX 37 46 38 47 41 48 39 49 65 50 66 51 74 52 67 53 68 54 72 55
REMARK SMILES IDX 75 56 69 57 70 58 73 59 71 60 50 61 51 62 59 63 52 64 53 65
REMARK SMILES IDX 57 66 60 67 54 68 55 69 58 70 56 71 6 72 7 73 8 74 9 76
REMARK SMILES IDX 10 77 19 78 23 79 20 80 22 81 21 82 11 85 12 86 13 87 14 88
REMARK SMILES IDX 18 89 15 90 17 91 16 92
REMARK H PARENT 3 6 80 24 48 35 7 75 22 83 22 84
REMARK Flexibility Score: inf
ROOT
ATOM      1  C   UNL A   1      31.304  31.850  26.511  1.00  0.00     0.042 C 
ENDROOT
BRANCH   1   2
ATOM      2  C   UNL A   1      32.622  32.516  26.872  1.00  0.00     0.118 C 
BRANCH   2   3
ATOM      3  N   UNL A   1      32.447  33.863  27.406  1.00  0.00    -0.352 N 
ATOM      4  O   UNL A   1      32.632  35.586  28.841  1.00  0.00    -0.269 OA
ATOM      5  C   UNL A   1      33.070  34.511  28.446  1.00  0.00     0.251 C 
ATOM      6  H   UNL A   1      31.766  34.400  26.941  1.00  0.00     0.163 HD
BRANCH   5   7
ATOM      7  C   UNL A   1      34.244  33.912  29.119  1.00  0.00     0.039 A 
ATOM      8  C   UNL A   1      35.536  34.355  28.848  1.00  0.00     0.014 A 
ATOM      9  C   UNL A   1      34.045  32.909  30.074  1.00  0.00     0.014 A 
ATOM     10  C   UNL A   1      36.629  33.675  29.368  1.00  0.00     0.010 A 
ATOM     11  C   UNL A   1      35.144  32.307  30.698  1.00  0.00     0.010 A 
ATOM     12  C   UNL A   1      36.447  32.658  30.318  1.00  0.00    -0.014 A 
BRANCH  12  13
ATOM     13  C   UNL A   1      37.644  32.034  30.939  1.00  0.00     0.031 A 
ATOM     14  C   UNL A   1      38.061  32.370  32.343  1.00  0.00     0.074 A 
ATOM     15  C   UNL A   1      38.333  31.118  30.230  1.00  0.00     0.049 A 
ATOM     16  N   UNL A   1      39.061  31.893  33.043  1.00  0.00    -0.248 NA
ATOM     17  C   UNL A   1      37.263  33.380  33.053  1.00  0.00     0.031 C 
ATOM     18  C   UNL A   1      38.027  30.718  28.855  1.00  0.00     0.029 A 
ATOM     19  N   UNL A   1      39.407  30.337  30.571  1.00  0.00    -0.354 N 
ATOM     20  C   UNL A   1      39.028  32.560  34.260  1.00  0.00     0.074 A 
ATOM     21  C   UNL A   1      37.924  33.494  34.197  1.00  0.00     0.031 C 
ATOM     22  C   UNL A   1      38.845  29.721  28.493  1.00  0.00     0.029 A 
ATOM     23  C   UNL A   1      39.781  29.461  29.581  1.00  0.00     0.049 A 
ATOM     24  H   UNL A   1      39.864  30.396  31.440  1.00  0.00     0.167 HD
ATOM     25  C   UNL A   1      39.842  32.401  35.332  1.00  0.00     0.037 A 
ATOM     26  C   UNL A   1      40.776  28.557  29.544  1.00  0.00     0.037 A 
ATOM     27  C   UNL A   1      40.924  31.451  35.395  1.00  0.00     0.049 A 
ATOM     28  C   UNL A   1      41.671  28.413  30.739  1.00  0.00     0.074 A 
ATOM     29  C   UNL A   1      41.781  31.186  36.449  1.00  0.00     0.029 A 
ATOM     30  N   UNL A   1      41.301  30.612  34.354  1.00  0.00    -0.354 N 
ATOM     31  N   UNL A   1      41.614  29.034  31.891  1.00  0.00    -0.248 NA
ATOM     32  C   UNL A   1      42.772  27.450  30.624  1.00  0.00     0.031 C 
ATOM     33  C   UNL A   1      42.704  30.219  36.032  1.00  0.00     0.029 A 
ATOM     34  C   UNL A   1      42.393  29.847  34.734  1.00  0.00     0.049 A 
ATOM     35  H   UNL A   1      40.858  30.567  33.477  1.00  0.00     0.167 HD
ATOM     36  C   UNL A   1      42.664  28.531  32.645  1.00  0.00     0.074 A 
ATOM     37  C   UNL A   1      43.327  27.537  31.825  1.00  0.00     0.031 C 
ATOM     38  C   UNL A   1      43.045  28.866  33.902  1.00  0.00     0.037 A 
BRANCH  25  39
ATOM     39  C   UNL A   1      39.610  33.293  36.518  1.00  0.00     0.064 A 
ATOM     40  C   UNL A   1      38.745  32.931  37.561  1.00  0.00     0.173 A 
ATOM     41  C   UNL A   1      40.287  34.519  36.625  1.00  0.00     0.173 A 
ATOM     42  F   UNL A   1      38.064  31.776  37.503  1.00  0.00    -0.203 F 
ATOM     43  C   UNL A   1      38.542  33.775  38.650  1.00  0.00     0.198 A 
ATOM     44  C   UNL A   1      40.104  35.348  37.729  1.00  0.00     0.198 A 
ATOM     45  F   UNL A   1      41.132  34.912  35.660  1.00  0.00    -0.203 F 
ATOM     46  F   UNL A   1      37.672  33.431  39.610  1.00  0.00    -0.200 F 
ATOM     47  C   UNL A   1      39.225  34.979  38.737  1.00  0.00     0.200 A 
ATOM     48  F   UNL A   1      40.774  36.504  37.816  1.00  0.00    -0.200 F 
ATOM     49  F   UNL A   1      39.030  35.788  39.787  1.00  0.00    -0.200 F 
ENDBRANCH  25  39
BRANCH  26  50
ATOM     50  C   UNL A   1      40.961  27.723  28.330  1.00  0.00     0.064 A 
ATOM     51  C   UNL A   1      41.773  28.159  27.275  1.00  0.00     0.173 A 
ATOM     52  C   UNL A   1      40.365  26.458  28.219  1.00  0.00     0.173 A 
ATOM     53  F   UNL A   1      42.349  29.369  27.328  1.00  0.00    -0.203 F 
ATOM     54  C   UNL A   1      41.979  27.361  26.151  1.00  0.00     0.198 A 
ATOM     55  C   UNL A   1      40.596  25.650  27.109  1.00  0.00     0.198 A 
ATOM     56  F   UNL A   1      39.584  25.995  29.206  1.00  0.00    -0.203 F 
ATOM     57  F   UNL A   1      42.737  27.812  25.143  1.00  0.00    -0.200 F 
ATOM     58  C   UNL A   1      41.398  26.104  26.074  1.00  0.00     0.200 A 
ATOM     59  F   UNL A   1      40.049  24.428  27.047  1.00  0.00    -0.200 F 
ATOM     60  F   UNL A   1      41.612  25.331  25.001  1.00  0.00    -0.200 F 
ENDBRANCH  26  50
BRANCH  38  61
ATOM     61  C   UNL A   1      44.222  28.133  34.471  1.00  0.00     0.064 A 
ATOM     62  C   UNL A   1      45.530  28.613  34.317  1.00  0.00     0.173 A 
ATOM     63  C   UNL A   1      44.037  26.947  35.197  1.00  0.00     0.173 A 
ATOM     64  F   UNL A   1      45.759  29.734  33.615  1.00  0.00    -0.203 F 
ATOM     65  C   UNL A   1      46.614  27.919  34.847  1.00  0.00     0.198 A 
ATOM     66  C   UNL A   1      45.121  26.269  35.748  1.00  0.00     0.198 A 
ATOM     67  F   UNL A   1      42.805  26.448  35.375  1.00  0.00    -0.203 F 
ATOM     68  F   UNL A   1      47.860  28.371  34.646  1.00  0.00    -0.200 F 
ATOM     69  C   UNL A   1      46.408  26.752  35.567  1.00  0.00     0.200 A 
ATOM     70  F   UNL A   1      44.919  25.147  36.453  1.00  0.00    -0.200 F 
ATOM     71  F   UNL A   1      47.452  26.086  36.078  1.00  0.00    -0.200 F 
ENDBRANCH  38  61
ENDBRANCH  12  13
ENDBRANCH   5   7
ENDBRANCH   2   3
ENDBRANCH   1   2
BRANCH   1  72
ATOM     72  C   UNL A   1      31.416  30.365  26.204  1.00  0.00     0.117 C 
BRANCH  72  73
ATOM     73  N   UNL A   1      32.357  30.078  25.140  1.00  0.00    -0.355 N 
ATOM     74  C   UNL A   1      32.478  29.067  24.245  1.00  0.00     0.231 C 
ATOM     75  H   UNL A   1      33.058  30.763  25.048  1.00  0.00     0.163 HD
ATOM     76  O   UNL A   1      33.354  29.239  23.388  1.00  0.00    -0.274 OA
BRANCH  74  77
ATOM     77  C   UNL A   1      31.658  27.759  24.306  1.00  0.00     0.098 C 
ATOM     78  C   UNL A   1      31.723  27.179  25.751  1.00  0.00     0.028 C 
ATOM     79  C   UNL A   1      32.246  26.647  23.398  1.00  0.00     0.277 C 
ATOM     80  C   UNL A   1      33.128  26.685  26.126  1.00  0.00     0.063 C 
ATOM     81  N   UNL A   1      33.636  26.327  23.721  1.00  0.00    -0.345 N 
ATOM     82  C   UNL A   1      33.741  25.772  25.068  1.00  0.00     0.260 C 
ATOM     83  H   UNL A   1      33.988  25.645  23.049  1.00  0.00     0.346 HD
ATOM     84  H   UNL A   1      34.188  27.185  23.678  1.00  0.00     0.346 HD
BRANCH  77  85
ATOM     85  C   UNL A   1      30.178  28.044  23.892  1.00  0.00     0.028 C 
BRANCH  85  86
ATOM     86  C   UNL A   1      29.912  28.606  22.479  1.00  0.00     0.038 C 
BRANCH  86  87
ATOM     87  C   UNL A   1      29.228  29.943  22.421  1.00  0.00    -0.030 A 
ATOM     88  C   UNL A   1      29.162  30.775  23.541  1.00  0.00     0.007 A 
ATOM     89  C   UNL A   1      28.638  30.412  21.251  1.00  0.00     0.114 A 
ATOM     90  C   UNL A   1      28.560  32.026  23.443  1.00  0.00     0.020 A 
ATOM     91  N   UNL A   1      28.046  31.622  21.121  1.00  0.00    -0.264 NA
ATOM     92  C   UNL A   1      28.026  32.402  22.224  1.00  0.00     0.111 A 
ENDBRANCH  86  87
ENDBRANCH  85  86
ENDBRANCH  77  85
ENDBRANCH  74  77
ENDBRANCH  72  73
ENDBRANCH   1  72
TORSDOF 13
ENDMDL
MODEL 3
REMARK VINA RESULT:     -12.0      5.987     11.592
REMARK SMILES O=C(NCCCNC(=O)[C@]1(CCc2cccnc2)CCC[NH2+]C1)c1ccc(-c2c3nc(c(-c4c(F)c(F)c(F)c(F)c4F)c4ccc([nH]4)c(-c4c(F)c(F)c(F)c(F)c4F)c4nc(c(-c5c(F)c(F)c(F)c(F)c5F)c5ccc2[nH]5)C=C4)C=C3)cc1
REMARK SMILES IDX 5 1 4 2 3 3 1 4 2 5 24 7 25 8 86 9 26 10 85 11 27 12 28 13
REMARK SMILES IDX 29 14 79 15 30 16 84 17 78 18 80 19 31 20 83 21 77 22 76 23
REMARK SMILES IDX 32 25 64 26 44 27 63 28 45 29 48 30 62 31 81 32 46 33 47 34
REMARK SMILES IDX 61 36 82 37 49 38 33 39 34 40 42 41 35 42 36 43 40 44 43 45
REMARK SMILES IDX 37 46 38 47 41 48 39 49 65 50 66 51 74 52 67 53 68 54 72 55
REMARK SMILES IDX 75 56 69 57 70 58 73 59 71 60 50 61 51 62 59 63 52 64 53 65
REMARK SMILES IDX 57 66 60 67 54 68 55 69 58 70 56 71 6 72 7 73 8 74 9 76
REMARK SMILES IDX 10 77 19 78 23 79 20 80 22 81 21 82 11 85 12 86 13 87 14 88
REMARK SMILES IDX 18 89 15 90 17 91 16 92
REMARK H PARENT 3 6 80 24 48 35 7 75 22 83 22 84
REMARK Flexibility Score: inf
ROOT
ATOM      1  C   UNL A   1      37.867  19.561  25.001  1.00  0.00     0.042 C 
ENDROOT
BRANCH   1   2
ATOM      2  C   UNL A   1      39.007  20.121  25.837  1.00  0.00     0.118 C 
BRANCH   2   3
ATOM      3  N   UNL A   1      40.138  19.205  25.937  1.00  0.00    -0.352 N 
ATOM      4  O   UNL A   1      42.281  18.524  25.983  1.00  0.00    -0.269 OA
ATOM      5  C   UNL A   1      41.481  19.442  26.113  1.00  0.00     0.251 C 
ATOM      6  H   UNL A   1      39.898  18.254  25.868  1.00  0.00     0.163 HD
BRANCH   5   7
ATOM      7  C   UNL A   1      41.977  20.802  26.424  1.00  0.00     0.039 A 
ATOM      8  C   UNL A   1      42.279  21.179  27.731  1.00  0.00     0.014 A 
ATOM      9  C   UNL A   1      42.182  21.709  25.379  1.00  0.00     0.014 A 
ATOM     10  C   UNL A   1      42.589  22.501  28.019  1.00  0.00     0.010 A 
ATOM     11  C   UNL A   1      42.619  23.010  25.656  1.00  0.00     0.010 A 
ATOM     12  C   UNL A   1      42.787  23.428  26.984  1.00  0.00    -0.014 A 
BRANCH  12  13
ATOM     13  C   UNL A   1      43.231  24.803  27.328  1.00  0.00     0.031 A 
ATOM     14  C   UNL A   1      44.621  25.277  27.009  1.00  0.00     0.074 A 
ATOM     15  C   UNL A   1      42.344  25.643  27.897  1.00  0.00     0.049 A 
ATOM     16  N   UNL A   1      45.159  26.454  27.215  1.00  0.00    -0.248 NA
ATOM     17  C   UNL A   1      45.533  24.304  26.391  1.00  0.00     0.031 C 
ATOM     18  C   UNL A   1      40.971  25.291  28.261  1.00  0.00     0.029 A 
ATOM     19  N   UNL A   1      42.450  26.966  28.241  1.00  0.00    -0.354 N 
ATOM     20  C   UNL A   1      46.472  26.357  26.777  1.00  0.00     0.074 A 
ATOM     21  C   UNL A   1      46.661  24.997  26.316  1.00  0.00     0.031 C 
ATOM     22  C   UNL A   1      40.340  26.384  28.711  1.00  0.00     0.029 A 
ATOM     23  C   UNL A   1      41.284  27.495  28.738  1.00  0.00     0.049 A 
ATOM     24  H   UNL A   1      43.279  27.486  28.140  1.00  0.00     0.167 HD
ATOM     25  C   UNL A   1      47.428  27.316  26.757  1.00  0.00     0.037 A 
ATOM     26  C   UNL A   1      41.005  28.734  29.181  1.00  0.00     0.037 A 
ATOM     27  C   UNL A   1      47.225  28.674  27.196  1.00  0.00     0.049 A 
ATOM     28  C   UNL A   1      42.088  29.772  29.161  1.00  0.00     0.074 A 
ATOM     29  C   UNL A   1      48.118  29.731  27.179  1.00  0.00     0.029 A 
ATOM     30  N   UNL A   1      46.042  29.161  27.735  1.00  0.00    -0.354 N 
ATOM     31  N   UNL A   1      43.318  29.672  28.724  1.00  0.00    -0.248 NA
ATOM     32  C   UNL A   1      41.744  31.091  29.706  1.00  0.00     0.031 C 
ATOM     33  C   UNL A   1      47.491  30.845  27.749  1.00  0.00     0.029 A 
ATOM     34  C   UNL A   1      46.191  30.496  28.077  1.00  0.00     0.049 A 
ATOM     35  H   UNL A   1      45.219  28.636  27.857  1.00  0.00     0.167 HD
ATOM     36  C   UNL A   1      43.896  30.916  28.929  1.00  0.00     0.074 A 
ATOM     37  C   UNL A   1      42.871  31.761  29.510  1.00  0.00     0.031 C 
ATOM     38  C   UNL A   1      45.162  31.320  28.661  1.00  0.00     0.037 A 
BRANCH  25  39
ATOM     39  C   UNL A   1      48.794  26.925  26.268  1.00  0.00     0.064 A 
ATOM     40  C   UNL A   1      49.764  26.389  27.128  1.00  0.00     0.173 A 
ATOM     41  C   UNL A   1      49.128  27.065  24.911  1.00  0.00     0.173 A 
ATOM     42  F   UNL A   1      49.502  26.245  28.436  1.00  0.00    -0.203 F 
ATOM     43  C   UNL A   1      51.026  26.037  26.654  1.00  0.00     0.198 A 
ATOM     44  C   UNL A   1      50.381  26.686  24.436  1.00  0.00     0.198 A 
ATOM     45  F   UNL A   1      48.236  27.567  24.044  1.00  0.00    -0.203 F 
ATOM     46  F   UNL A   1      51.954  25.573  27.504  1.00  0.00    -0.200 F 
ATOM     47  C   UNL A   1      51.331  26.180  25.309  1.00  0.00     0.200 A 
ATOM     48  F   UNL A   1      50.669  26.813  23.134  1.00  0.00    -0.200 F 
ATOM     49  F   UNL A   1      52.545  25.838  24.855  1.00  0.00    -0.200 F 
ENDBRANCH  25  39
BRANCH  26  50
ATOM     50  C   UNL A   1      39.639  29.045  29.671  1.00  0.00     0.064 A 
ATOM     51  C   UNL A   1      38.645  29.494  28.793  1.00  0.00     0.173 A 
ATOM     52  C   UNL A   1      39.289  28.859  31.017  1.00  0.00     0.173 A 
ATOM     53  F   UNL A   1      38.936  29.704  27.501  1.00  0.00    -0.203 F 
ATOM     54  C   UNL A   1      37.351  29.749  29.243  1.00  0.00     0.198 A 
ATOM     55  C   UNL A   1      37.990  29.087  31.460  1.00  0.00     0.198 A 
ATOM     56  F   UNL A   1      40.206  28.425  31.895  1.00  0.00    -0.203 F 
ATOM     57  F   UNL A   1      36.425  30.205  28.390  1.00  0.00    -0.200 F 
ATOM     58  C   UNL A   1      37.023  29.536  30.575  1.00  0.00     0.200 A 
ATOM     59  F   UNL A   1      37.672  28.861  32.742  1.00  0.00    -0.200 F 
ATOM     60  F   UNL A   1      35.774  29.765  31.003  1.00  0.00    -0.200 F 
ENDBRANCH  26  50
BRANCH  38  61
ATOM     61  C   UNL A   1      45.499  32.747  28.979  1.00  0.00     0.064 A 
ATOM     62  C   UNL A   1      46.059  33.112  30.211  1.00  0.00     0.173 A 
ATOM     63  C   UNL A   1      45.278  33.756  28.030  1.00  0.00     0.173 A 
ATOM     64  F   UNL A   1      46.271  32.184  31.157  1.00  0.00    -0.203 F 
ATOM     65  C   UNL A   1      46.362  34.441  30.492  1.00  0.00     0.198 A 
ATOM     66  C   UNL A   1      45.608  35.080  28.304  1.00  0.00     0.198 A 
ATOM     67  F   UNL A   1      44.748  33.457  26.834  1.00  0.00    -0.203 F 
ATOM     68  F   UNL A   1      46.851  34.774  31.694  1.00  0.00    -0.200 F 
ATOM     69  C   UNL A   1      46.142  35.422  29.537  1.00  0.00     0.200 A 
ATOM     70  F   UNL A   1      45.405  36.026  27.376  1.00  0.00    -0.200 F 
ATOM     71  F   UNL A   1      46.437  36.701  29.809  1.00  0.00    -0.200 F 
ENDBRANCH  38  61
ENDBRANCH  12  13
ENDBRANCH   5   7
ENDBRANCH   2   3
ENDBRANCH   1   2
BRANCH   1  72
ATOM     72  C   UNL A   1      36.759  20.558  24.704  1.00  0.00     0.117 C 
BRANCH  72  73
ATOM     73  N   UNL A   1      36.056  20.993  25.894  1.00  0.00    -0.355 N 
ATOM     74  C   UNL A   1      34.835  21.539  26.113  1.00  0.00     0.231 C 
ATOM     75  H   UNL A   1      36.577  20.865  26.719  1.00  0.00     0.163 HD
ATOM     76  O   UNL A   1      34.530  21.658  27.306  1.00  0.00    -0.274 OA
BRANCH  74  77
ATOM     77  C   UNL A   1      33.907  22.053  24.989  1.00  0.00     0.098 C 
ATOM     78  C   UNL A   1      34.717  22.989  24.042  1.00  0.00     0.028 C 
ATOM     79  C   UNL A   1      32.749  22.932  25.532  1.00  0.00     0.277 C 
ATOM     80  C   UNL A   1      35.136  24.300  24.724  1.00  0.00     0.063 C 
ATOM     81  N   UNL A   1      33.223  24.087  26.294  1.00  0.00    -0.345 N 
ATOM     82  C   UNL A   1      33.982  24.996  25.439  1.00  0.00     0.260 C 
ATOM     83  H   UNL A   1      32.421  24.583  26.682  1.00  0.00     0.346 HD
ATOM     84  H   UNL A   1      33.832  23.757  27.043  1.00  0.00     0.346 HD
BRANCH  77  85
ATOM     85  C   UNL A   1      33.317  20.842  24.196  1.00  0.00     0.028 C 
BRANCH  85  86
ATOM     86  C   UNL A   1      32.527  19.774  24.981  1.00  0.00     0.038 C 
BRANCH  86  87
ATOM     87  C   UNL A   1      33.102  18.385  24.963  1.00  0.00    -0.030 A 
ATOM     88  C   UNL A   1      34.245  18.081  24.219  1.00  0.00     0.007 A 
ATOM     89  C   UNL A   1      32.528  17.346  25.690  1.00  0.00     0.114 A 
ATOM     90  C   UNL A   1      34.778  16.796  24.257  1.00  0.00     0.020 A 
ATOM     91  N   UNL A   1      33.021  16.087  25.751  1.00  0.00    -0.264 NA
ATOM     92  C   UNL A   1      34.140  15.845  25.033  1.00  0.00     0.111 A 
ENDBRANCH  86  87
ENDBRANCH  85  86
ENDBRANCH  77  85
ENDBRANCH  74  77
ENDBRANCH  72  73
ENDBRANCH   1  72
TORSDOF 13
ENDMDL
