MODEL 1
REMARK VINA RESULT:     -12.8      0.000      0.000
REMARK SMILES COc1ccccc1CCNC(=O)[C@@H]1[C@@H](C(=O)NCCCNC(=O)c2ccc(-c3c4nc(c(-c5c(F)c(F)c(F)c(F)c5F)c5ccc([nH]5)c(-c5c(F)c(F)c(F)c(F)c5F)c5nc(c(-c6c(F)c(F)c(F)c(F)c6F)c6ccc3[nH]6)C=C5)C=C4)cc2)[C@H]2C=C[C@@H]1CC2
REMARK SMILES IDX 16 1 17 2 18 3 15 5 14 6 91 7 88 8 90 9 92 10 89 11 93 12
REMARK SMILES IDX 12 13 11 14 13 16 10 17 9 18 8 19 3 20 4 21 5 22 7 23 6 24
REMARK SMILES IDX 2 25 1 26 19 27 20 28 21 29 22 30 23 31 24 33 25 34 26 35
REMARK SMILES IDX 87 36 27 37 86 38 28 39 29 40 30 41 80 42 31 43 85 44 79 45
REMARK SMILES IDX 81 46 32 47 84 48 78 49 77 50 33 52 65 53 45 54 64 55 46 56
REMARK SMILES IDX 49 57 63 58 82 59 47 60 48 61 62 63 83 64 50 65 34 66 35 67
REMARK SMILES IDX 43 68 36 69 37 70 41 71 44 72 38 73 39 74 42 75 40 76 66 77
REMARK SMILES IDX 67 78 75 79 68 80 69 81 73 82 76 83 70 84 71 85 74 86 72 87
REMARK SMILES IDX 51 88 52 89 60 90 53 91 54 92 58 93 61 94 55 95 56 96 59 97
REMARK SMILES IDX 57 98
REMARK H PARENT 18 4 11 15 22 32 81 51 49 62
REMARK Flexibility Score: inf
ROOT
ATOM      1  C   UNL A   1      31.667  28.461  26.883  1.00  0.00     0.224 C 
ATOM      2  O   UNL A   1      31.746  27.897  27.986  1.00  0.00    -0.275 OA
ATOM      3  N   UNL A   1      31.583  29.810  26.947  1.00  0.00    -0.356 N 
ATOM      4  H   UNL A   1      31.596  30.136  27.876  1.00  0.00     0.163 HD
ENDROOT
BRANCH   1   5
ATOM      5  C   UNL A   1      31.551  27.592  25.632  1.00  0.00     0.098 C 
ATOM      6  C   UNL A   1      31.496  26.039  25.789  1.00  0.00     0.098 C 
ATOM      7  C   UNL A   1      32.634  25.432  24.932  1.00  0.00     0.025 C 
ATOM      8  C   UNL A   1      32.656  28.002  24.612  1.00  0.00     0.025 C 
ATOM      9  C   UNL A   1      33.950  26.107  25.294  1.00  0.00    -0.027 C 
ATOM     10  C   UNL A   1      32.416  25.784  23.437  1.00  0.00     0.009 C 
ATOM     11  C   UNL A   1      33.972  27.432  25.084  1.00  0.00    -0.027 C 
ATOM     12  C   UNL A   1      32.341  27.314  23.265  1.00  0.00     0.009 C 
BRANCH   6  13
ATOM     13  C   UNL A   1      30.051  25.552  25.640  1.00  0.00     0.224 C 
ATOM     14  N   UNL A   1      29.525  24.499  26.305  1.00  0.00    -0.355 N 
ATOM     15  H   UNL A   1      28.543  24.528  26.366  1.00  0.00     0.163 HD
ATOM     16  O   UNL A   1      29.234  26.245  25.021  1.00  0.00    -0.275 OA
BRANCH  14  17
ATOM     17  C   UNL A   1      30.106  23.338  26.947  1.00  0.00     0.120 C 
BRANCH  17  18
ATOM     18  C   UNL A   1      30.631  22.297  25.963  1.00  0.00     0.060 C 
BRANCH  18  19
ATOM     19  C   UNL A   1      32.129  22.263  26.102  1.00  0.00    -0.004 A 
ATOM     20  C   UNL A   1      32.937  21.576  25.181  1.00  0.00     0.122 A 
ATOM     21  C   UNL A   1      34.270  21.304  25.486  1.00  0.00     0.047 A 
ATOM     22  C   UNL A   1      34.810  21.732  26.699  1.00  0.00     0.004 A 
ATOM     23  C   UNL A   1      32.693  22.715  27.304  1.00  0.00     0.007 A 
ATOM     24  C   UNL A   1      34.024  22.443  27.604  1.00  0.00     0.001 A 
BRANCH  20  25
ATOM     25  O   UNL A   1      32.414  20.975  24.066  1.00  0.00    -0.496 OA
ATOM     26  C   UNL A   1      32.600  19.559  24.072  1.00  0.00     0.278 C 
ENDBRANCH  20  25
ENDBRANCH  18  19
ENDBRANCH  17  18
ENDBRANCH  14  17
ENDBRANCH   6  13
ENDBRANCH   1   5
BRANCH   3  27
ATOM     27  C   UNL A   1      31.477  30.898  25.990  1.00  0.00     0.117 C 
BRANCH  27  28
ATOM     28  C   UNL A   1      31.283  32.258  26.640  1.00  0.00     0.042 C 
BRANCH  28  29
ATOM     29  C   UNL A   1      32.552  32.822  27.245  1.00  0.00     0.118 C 
BRANCH  29  30
ATOM     30  N   UNL A   1      32.404  34.220  27.624  1.00  0.00    -0.352 N 
ATOM     31  C   UNL A   1      32.997  34.941  28.633  1.00  0.00     0.251 C 
ATOM     32  H   UNL A   1      31.775  34.734  27.067  1.00  0.00     0.163 HD
ATOM     33  O   UNL A   1      32.540  36.036  28.943  1.00  0.00    -0.269 OA
BRANCH  31  34
ATOM     34  C   UNL A   1      34.167  34.400  29.359  1.00  0.00     0.039 A 
ATOM     35  C   UNL A   1      33.965  33.727  30.567  1.00  0.00     0.014 A 
ATOM     36  C   UNL A   1      35.463  34.578  28.875  1.00  0.00     0.014 A 
ATOM     37  C   UNL A   1      35.055  33.178  31.246  1.00  0.00     0.010 A 
ATOM     38  C   UNL A   1      36.529  33.926  29.482  1.00  0.00     0.010 A 
ATOM     39  C   UNL A   1      36.342  33.236  30.687  1.00  0.00    -0.014 A 
BRANCH  39  40
ATOM     40  C   UNL A   1      37.512  32.610  31.353  1.00  0.00     0.031 A 
ATOM     41  C   UNL A   1      38.246  31.484  30.677  1.00  0.00     0.074 A 
ATOM     42  C   UNL A   1      37.866  33.007  32.590  1.00  0.00     0.049 A 
ATOM     43  N   UNL A   1      39.235  30.750  31.127  1.00  0.00    -0.248 NA
ATOM     44  C   UNL A   1      37.789  31.105  29.330  1.00  0.00     0.031 C 
ATOM     45  C   UNL A   1      37.198  34.050  33.371  1.00  0.00     0.029 A 
ATOM     46  N   UNL A   1      38.874  32.573  33.415  1.00  0.00    -0.354 N 
ATOM     47  C   UNL A   1      39.498  29.820  30.130  1.00  0.00     0.074 A 
ATOM     48  C   UNL A   1      38.526  30.034  29.081  1.00  0.00     0.031 C 
ATOM     49  C   UNL A   1      37.831  34.195  34.546  1.00  0.00     0.029 A 
ATOM     50  C   UNL A   1      38.919  33.227  34.622  1.00  0.00     0.049 A 
ATOM     51  H   UNL A   1      39.505  31.859  33.165  1.00  0.00     0.167 HD
ATOM     52  C   UNL A   1      40.481  28.890  30.079  1.00  0.00     0.037 A 
ATOM     53  C   UNL A   1      39.742  33.058  35.675  1.00  0.00     0.037 A 
ATOM     54  C   UNL A   1      41.464  28.703  31.113  1.00  0.00     0.049 A 
ATOM     55  C   UNL A   1      40.824  32.015  35.594  1.00  0.00     0.074 A 
ATOM     56  C   UNL A   1      42.540  27.833  31.132  1.00  0.00     0.029 A 
ATOM     57  N   UNL A   1      41.490  29.402  32.311  1.00  0.00    -0.354 N 
ATOM     58  N   UNL A   1      41.108  31.190  34.615  1.00  0.00    -0.248 NA
ATOM     59  C   UNL A   1      41.704  31.885  36.763  1.00  0.00     0.031 C 
ATOM     60  C   UNL A   1      43.186  27.968  32.366  1.00  0.00     0.029 A 
ATOM     61  C   UNL A   1      42.551  28.964  33.088  1.00  0.00     0.049 A 
ATOM     62  H   UNL A   1      40.851  30.104  32.570  1.00  0.00     0.167 HD
ATOM     63  C   UNL A   1      42.216  30.466  35.035  1.00  0.00     0.074 A 
ATOM     64  C   UNL A   1      42.563  30.963  36.351  1.00  0.00     0.031 C 
ATOM     65  C   UNL A   1      42.885  29.479  34.392  1.00  0.00     0.037 A 
BRANCH  52  66
ATOM     66  C   UNL A   1      40.546  28.008  28.864  1.00  0.00     0.064 A 
ATOM     67  C   UNL A   1      39.830  26.802  28.789  1.00  0.00     0.173 A 
ATOM     68  C   UNL A   1      41.300  28.391  27.745  1.00  0.00     0.173 A 
ATOM     69  F   UNL A   1      39.102  26.382  29.835  1.00  0.00    -0.203 F 
ATOM     70  C   UNL A   1      39.892  26.000  27.653  1.00  0.00     0.198 A 
ATOM     71  C   UNL A   1      41.332  27.603  26.598  1.00  0.00     0.198 A 
ATOM     72  F   UNL A   1      42.000  29.536  27.760  1.00  0.00    -0.203 F 
ATOM     73  F   UNL A   1      39.242  24.829  27.626  1.00  0.00    -0.200 F 
ATOM     74  C   UNL A   1      40.637  26.406  26.555  1.00  0.00     0.200 A 
ATOM     75  F   UNL A   1      42.040  28.004  25.532  1.00  0.00    -0.200 F 
ATOM     76  F   UNL A   1      40.687  25.637  25.459  1.00  0.00    -0.200 F 
ENDBRANCH  52  66
BRANCH  53  77
ATOM     77  C   UNL A   1      39.590  33.909  36.884  1.00  0.00     0.064 A 
ATOM     78  C   UNL A   1      38.826  33.478  37.978  1.00  0.00     0.173 A 
ATOM     79  C   UNL A   1      40.194  35.173  36.971  1.00  0.00     0.173 A 
ATOM     80  F   UNL A   1      38.213  32.285  37.937  1.00  0.00    -0.203 F 
ATOM     81  C   UNL A   1      38.649  34.287  39.098  1.00  0.00     0.198 A 
ATOM     82  C   UNL A   1      40.043  35.967  38.106  1.00  0.00     0.198 A 
ATOM     83  F   UNL A   1      40.942  35.630  35.956  1.00  0.00    -0.203 F 
ATOM     84  F   UNL A   1      37.871  33.870  40.106  1.00  0.00    -0.200 F 
ATOM     85  C   UNL A   1      39.262  35.529  39.164  1.00  0.00     0.200 A 
ATOM     86  F   UNL A   1      40.652  37.159  38.172  1.00  0.00    -0.200 F 
ATOM     87  F   UNL A   1      39.095  36.305  40.243  1.00  0.00    -0.200 F 
ENDBRANCH  53  77
BRANCH  65  88
ATOM     88  C   UNL A   1      44.086  28.898  35.082  1.00  0.00     0.064 A 
ATOM     89  C   UNL A   1      43.985  27.787  35.931  1.00  0.00     0.173 A 
ATOM     90  C   UNL A   1      45.362  29.437  34.854  1.00  0.00     0.173 A 
ATOM     91  F   UNL A   1      42.786  27.244  36.192  1.00  0.00    -0.203 F 
ATOM     92  C   UNL A   1      45.112  27.256  36.552  1.00  0.00     0.198 A 
ATOM     93  C   UNL A   1      46.491  28.882  35.449  1.00  0.00     0.198 A 
ATOM     94  F   UNL A   1      45.516  30.495  34.044  1.00  0.00    -0.203 F 
ATOM     95  F   UNL A   1      44.984  26.227  37.401  1.00  0.00    -0.200 F 
ATOM     96  C   UNL A   1      46.364  27.798  36.303  1.00  0.00     0.200 A 
ATOM     97  F   UNL A   1      47.702  29.396  35.194  1.00  0.00    -0.200 F 
ATOM     98  F   UNL A   1      47.449  27.279  36.894  1.00  0.00    -0.200 F 
ENDBRANCH  65  88
ENDBRANCH  39  40
ENDBRANCH  31  34
ENDBRANCH  29  30
ENDBRANCH  28  29
ENDBRANCH  27  28
ENDBRANCH   3  27
TORSDOF 15
ENDMDL
MODEL 2
REMARK VINA RESULT:     -12.6      0.394      1.170
REMARK SMILES COc1ccccc1CCNC(=O)[C@@H]1[C@@H](C(=O)NCCCNC(=O)c2ccc(-c3c4nc(c(-c5c(F)c(F)c(F)c(F)c5F)c5ccc([nH]5)c(-c5c(F)c(F)c(F)c(F)c5F)c5nc(c(-c6c(F)c(F)c(F)c(F)c6F)c6ccc3[nH]6)C=C5)C=C4)cc2)[C@H]2C=C[C@@H]1CC2
REMARK SMILES IDX 16 1 17 2 18 3 15 5 14 6 91 7 88 8 90 9 92 10 89 11 93 12
REMARK SMILES IDX 12 13 11 14 13 16 10 17 9 18 8 19 3 20 4 21 5 22 7 23 6 24
REMARK SMILES IDX 2 25 1 26 19 27 20 28 21 29 22 30 23 31 24 33 25 34 26 35
REMARK SMILES IDX 87 36 27 37 86 38 28 39 29 40 30 41 80 42 31 43 85 44 79 45
REMARK SMILES IDX 81 46 32 47 84 48 78 49 77 50 33 52 65 53 45 54 64 55 46 56
REMARK SMILES IDX 49 57 63 58 82 59 47 60 48 61 62 63 83 64 50 65 34 66 35 67
REMARK SMILES IDX 43 68 36 69 37 70 41 71 44 72 38 73 39 74 42 75 40 76 66 77
REMARK SMILES IDX 67 78 75 79 68 80 69 81 73 82 76 83 70 84 71 85 74 86 72 87
REMARK SMILES IDX 51 88 52 89 60 90 53 91 54 92 58 93 61 94 55 95 56 96 59 97
REMARK SMILES IDX 57 98
REMARK H PARENT 18 4 11 15 22 32 81 51 49 62
REMARK Flexibility Score: inf
ROOT
ATOM      1  C   UNL A   1      31.798  28.499  26.566  1.00  0.00     0.224 C 
ATOM      2  O   UNL A   1      32.056  27.901  27.622  1.00  0.00    -0.275 OA
ATOM      3  N   UNL A   1      31.761  29.847  26.679  1.00  0.00    -0.356 N 
ATOM      4  H   UNL A   1      31.946  30.145  27.599  1.00  0.00     0.163 HD
ENDROOT
BRANCH   1   5
ATOM      5  C   UNL A   1      31.441  27.670  25.333  1.00  0.00     0.098 C 
ATOM      6  C   UNL A   1      31.551  26.114  25.406  1.00  0.00     0.098 C 
ATOM      7  C   UNL A   1      32.482  25.647  24.261  1.00  0.00     0.025 C 
ATOM      8  C   UNL A   1      32.219  28.218  24.098  1.00  0.00     0.025 C 
ATOM      9  C   UNL A   1      33.789  26.425  24.327  1.00  0.00    -0.027 C 
ATOM     10  C   UNL A   1      31.869  26.033  22.890  1.00  0.00     0.009 C 
ATOM     11  C   UNL A   1      33.652  27.754  24.197  1.00  0.00    -0.027 C 
ATOM     12  C   UNL A   1      31.632  27.555  22.832  1.00  0.00     0.009 C 
BRANCH   6  13
ATOM     13  C   UNL A   1      30.158  25.503  25.590  1.00  0.00     0.224 C 
ATOM     14  N   UNL A   1      29.890  24.428  26.365  1.00  0.00    -0.355 N 
ATOM     15  H   UNL A   1      28.947  24.376  26.645  1.00  0.00     0.163 HD
ATOM     16  O   UNL A   1      29.166  26.106  25.163  1.00  0.00    -0.275 OA
BRANCH  14  17
ATOM     17  C   UNL A   1      30.699  23.339  26.870  1.00  0.00     0.120 C 
BRANCH  17  18
ATOM     18  C   UNL A   1      31.082  22.318  25.802  1.00  0.00     0.060 C 
BRANCH  18  19
ATOM     19  C   UNL A   1      32.582  22.332  25.684  1.00  0.00    -0.004 A 
ATOM     20  C   UNL A   1      33.261  21.434  24.845  1.00  0.00     0.122 A 
ATOM     21  C   UNL A   1      34.638  21.259  24.975  1.00  0.00     0.047 A 
ATOM     22  C   UNL A   1      35.348  21.992  25.927  1.00  0.00     0.004 A 
ATOM     23  C   UNL A   1      33.312  23.085  26.616  1.00  0.00     0.007 A 
ATOM     24  C   UNL A   1      34.687  22.909  26.741  1.00  0.00     0.001 A 
BRANCH  20  25
ATOM     25  O   UNL A   1      32.593  20.559  24.028  1.00  0.00    -0.496 OA
ATOM     26  C   UNL A   1      32.531  19.242  24.575  1.00  0.00     0.278 C 
ENDBRANCH  20  25
ENDBRANCH  18  19
ENDBRANCH  17  18
ENDBRANCH  14  17
ENDBRANCH   6  13
ENDBRANCH   1   5
BRANCH   3  27
ATOM     27  C   UNL A   1      31.516  30.966  25.783  1.00  0.00     0.117 C 
BRANCH  27  28
ATOM     28  C   UNL A   1      31.274  32.278  26.509  1.00  0.00     0.042 C 
BRANCH  28  29
ATOM     29  C   UNL A   1      32.491  32.789  27.252  1.00  0.00     0.118 C 
BRANCH  29  30
ATOM     30  N   UNL A   1      32.367  34.196  27.607  1.00  0.00    -0.352 N 
ATOM     31  C   UNL A   1      32.966  34.923  28.607  1.00  0.00     0.251 C 
ATOM     32  H   UNL A   1      31.752  34.712  27.036  1.00  0.00     0.163 HD
ATOM     33  O   UNL A   1      32.528  36.031  28.896  1.00  0.00    -0.269 OA
BRANCH  31  34
ATOM     34  C   UNL A   1      34.121  34.373  29.351  1.00  0.00     0.039 A 
ATOM     35  C   UNL A   1      33.898  33.727  30.570  1.00  0.00     0.014 A 
ATOM     36  C   UNL A   1      35.423  34.515  28.871  1.00  0.00     0.014 A 
ATOM     37  C   UNL A   1      34.974  33.169  31.266  1.00  0.00     0.010 A 
ATOM     38  C   UNL A   1      36.472  33.854  29.498  1.00  0.00     0.010 A 
ATOM     39  C   UNL A   1      36.264  33.191  30.714  1.00  0.00    -0.014 A 
BRANCH  39  40
ATOM     40  C   UNL A   1      37.418  32.555  31.399  1.00  0.00     0.031 A 
ATOM     41  C   UNL A   1      38.137  31.404  30.747  1.00  0.00     0.074 A 
ATOM     42  C   UNL A   1      37.770  32.965  32.633  1.00  0.00     0.049 A 
ATOM     43  N   UNL A   1      39.108  30.660  31.216  1.00  0.00    -0.248 NA
ATOM     44  C   UNL A   1      37.683  31.012  29.402  1.00  0.00     0.031 C 
ATOM     45  C   UNL A   1      37.114  34.032  33.391  1.00  0.00     0.029 A 
ATOM     46  N   UNL A   1      38.763  32.525  33.472  1.00  0.00    -0.354 N 
ATOM     47  C   UNL A   1      39.362  29.710  30.236  1.00  0.00     0.074 A 
ATOM     48  C   UNL A   1      38.402  29.925  29.176  1.00  0.00     0.031 C 
ATOM     49  C   UNL A   1      37.741  34.184  34.569  1.00  0.00     0.029 A 
ATOM     50  C   UNL A   1      38.811  33.198  34.669  1.00  0.00     0.049 A 
ATOM     51  H   UNL A   1      39.383  31.796  33.239  1.00  0.00     0.167 HD
ATOM     52  C   UNL A   1      40.328  28.761  30.208  1.00  0.00     0.037 A 
ATOM     53  C   UNL A   1      39.622  33.030  35.731  1.00  0.00     0.037 A 
ATOM     54  C   UNL A   1      41.300  28.574  31.252  1.00  0.00     0.049 A 
ATOM     55  C   UNL A   1      40.685  31.967  35.676  1.00  0.00     0.074 A 
ATOM     56  C   UNL A   1      42.359  27.685  31.294  1.00  0.00     0.029 A 
ATOM     57  N   UNL A   1      41.330  29.291  32.439  1.00  0.00    -0.354 N 
ATOM     58  N   UNL A   1      40.962  31.121  34.712  1.00  0.00    -0.248 NA
ATOM     59  C   UNL A   1      41.555  31.839  36.853  1.00  0.00     0.031 C 
ATOM     60  C   UNL A   1      42.998  27.827  32.530  1.00  0.00     0.029 A 
ATOM     61  C   UNL A   1      42.376  28.846  33.232  1.00  0.00     0.049 A 
ATOM     62  H   UNL A   1      40.702  30.008  32.682  1.00  0.00     0.167 HD
ATOM     63  C   UNL A   1      42.053  30.385  35.152  1.00  0.00     0.074 A 
ATOM     64  C   UNL A   1      42.399  30.896  36.463  1.00  0.00     0.031 C 
ATOM     65  C   UNL A   1      42.710  29.375  34.529  1.00  0.00     0.037 A 
BRANCH  52  66
ATOM     66  C   UNL A   1      40.386  27.860  29.007  1.00  0.00     0.064 A 
ATOM     67  C   UNL A   1      41.178  28.170  27.890  1.00  0.00     0.173 A 
ATOM     68  C   UNL A   1      39.674  26.652  28.988  1.00  0.00     0.173 A 
ATOM     69  F   UNL A   1      41.871  29.318  27.851  1.00  0.00    -0.203 F 
ATOM     70  C   UNL A   1      41.230  27.321  26.788  1.00  0.00     0.198 A 
ATOM     71  C   UNL A   1      39.755  25.788  27.899  1.00  0.00     0.198 A 
ATOM     72  F   UNL A   1      38.904  26.303  30.031  1.00  0.00    -0.203 F 
ATOM     73  F   UNL A   1      41.951  27.664  25.713  1.00  0.00    -0.200 F 
ATOM     74  C   UNL A   1      40.525  26.126  26.797  1.00  0.00     0.200 A 
ATOM     75  F   UNL A   1      39.085  24.627  27.915  1.00  0.00    -0.200 F 
ATOM     76  F   UNL A   1      40.584  25.305  25.740  1.00  0.00    -0.200 F 
ENDBRANCH  52  66
BRANCH  53  77
ATOM     77  C   UNL A   1      39.476  33.903  36.926  1.00  0.00     0.064 A 
ATOM     78  C   UNL A   1      38.742  33.480  38.042  1.00  0.00     0.173 A 
ATOM     79  C   UNL A   1      40.057  35.180  36.975  1.00  0.00     0.173 A 
ATOM     80  F   UNL A   1      38.152  32.276  38.037  1.00  0.00    -0.203 F 
ATOM     81  C   UNL A   1      38.570  34.309  39.149  1.00  0.00     0.198 A 
ATOM     82  C   UNL A   1      39.912  35.995  38.096  1.00  0.00     0.198 A 
ATOM     83  F   UNL A   1      40.777  35.631  35.937  1.00  0.00    -0.203 F 
ATOM     84  F   UNL A   1      37.819  33.898  40.180  1.00  0.00    -0.200 F 
ATOM     85  C   UNL A   1      39.160  35.564  39.178  1.00  0.00     0.200 A 
ATOM     86  F   UNL A   1      40.499  37.199  38.126  1.00  0.00    -0.200 F 
ATOM     87  F   UNL A   1      38.998  36.358  40.244  1.00  0.00    -0.200 F 
ENDBRANCH  53  77
BRANCH  65  88
ATOM     88  C   UNL A   1      43.895  28.784  35.238  1.00  0.00     0.064 A 
ATOM     89  C   UNL A   1      43.766  27.693  36.109  1.00  0.00     0.173 A 
ATOM     90  C   UNL A   1      45.183  29.292  35.007  1.00  0.00     0.173 A 
ATOM     91  F   UNL A   1      42.554  27.180  36.374  1.00  0.00    -0.203 F 
ATOM     92  C   UNL A   1      44.878  27.151  36.747  1.00  0.00     0.198 A 
ATOM     93  C   UNL A   1      46.297  28.726  35.619  1.00  0.00     0.198 A 
ATOM     94  F   UNL A   1      45.363  30.329  34.176  1.00  0.00    -0.203 F 
ATOM     95  F   UNL A   1      44.725  26.143  37.616  1.00  0.00    -0.200 F 
ATOM     96  C   UNL A   1      46.143  27.662  36.495  1.00  0.00     0.200 A 
ATOM     97  F   UNL A   1      47.519  29.209  35.361  1.00  0.00    -0.200 F 
ATOM     98  F   UNL A   1      47.214  27.132  37.102  1.00  0.00    -0.200 F 
ENDBRANCH  65  88
ENDBRANCH  39  40
ENDBRANCH  31  34
ENDBRANCH  29  30
ENDBRANCH  28  29
ENDBRANCH  27  28
ENDBRANCH   3  27
TORSDOF 15
ENDMDL
MODEL 3
REMARK VINA RESULT:     -12.5      1.182      1.934
REMARK SMILES COc1ccccc1CCNC(=O)[C@@H]1[C@@H](C(=O)NCCCNC(=O)c2ccc(-c3c4nc(c(-c5c(F)c(F)c(F)c(F)c5F)c5ccc([nH]5)c(-c5c(F)c(F)c(F)c(F)c5F)c5nc(c(-c6c(F)c(F)c(F)c(F)c6F)c6ccc3[nH]6)C=C5)C=C4)cc2)[C@H]2C=C[C@@H]1CC2
REMARK SMILES IDX 16 1 17 2 18 3 15 5 14 6 91 7 88 8 90 9 92 10 89 11 93 12
REMARK SMILES IDX 12 13 11 14 13 16 10 17 9 18 8 19 3 20 4 21 5 22 7 23 6 24
REMARK SMILES IDX 2 25 1 26 19 27 20 28 21 29 22 30 23 31 24 33 25 34 26 35
REMARK SMILES IDX 87 36 27 37 86 38 28 39 29 40 30 41 80 42 31 43 85 44 79 45
REMARK SMILES IDX 81 46 32 47 84 48 78 49 77 50 33 52 65 53 45 54 64 55 46 56
REMARK SMILES IDX 49 57 63 58 82 59 47 60 48 61 62 63 83 64 50 65 34 66 35 67
REMARK SMILES IDX 43 68 36 69 37 70 41 71 44 72 38 73 39 74 42 75 40 76 66 77
REMARK SMILES IDX 67 78 75 79 68 80 69 81 73 82 76 83 70 84 71 85 74 86 72 87
REMARK SMILES IDX 51 88 52 89 60 90 53 91 54 92 58 93 61 94 55 95 56 96 59 97
REMARK SMILES IDX 57 98
REMARK H PARENT 18 4 11 15 22 32 81 51 49 62
REMARK Flexibility Score: inf
ROOT
ATOM      1  C   UNL A   1      33.323  29.272  26.069  1.00  0.00     0.224 C 
ATOM      2  O   UNL A   1      34.482  29.120  26.484  1.00  0.00    -0.275 OA
ATOM      3  N   UNL A   1      32.689  30.361  26.562  1.00  0.00    -0.356 N 
ATOM      4  H   UNL A   1      33.258  30.869  27.185  1.00  0.00     0.163 HD
ENDROOT
BRANCH   1   5
ATOM      5  C   UNL A   1      32.723  28.183  25.181  1.00  0.00     0.098 C 
ATOM      6  C   UNL A   1      33.605  26.957  24.782  1.00  0.00     0.098 C 
ATOM      7  C   UNL A   1      33.618  26.863  23.236  1.00  0.00     0.025 C 
ATOM      8  C   UNL A   1      32.087  28.837  23.918  1.00  0.00     0.025 C 
ATOM      9  C   UNL A   1      34.021  28.211  22.654  1.00  0.00    -0.027 C 
ATOM     10  C   UNL A   1      32.179  26.627  22.709  1.00  0.00     0.009 C 
ATOM     11  C   UNL A   1      33.199  29.222  22.973  1.00  0.00    -0.027 C 
ATOM     12  C   UNL A   1      31.252  27.760  23.192  1.00  0.00     0.009 C 
BRANCH   6  13
ATOM     13  C   UNL A   1      33.233  25.746  25.643  1.00  0.00     0.224 C 
ATOM     14  N   UNL A   1      34.072  24.726  25.932  1.00  0.00    -0.355 N 
ATOM     15  H   UNL A   1      33.814  24.228  26.742  1.00  0.00     0.163 HD
ATOM     16  O   UNL A   1      32.171  25.751  26.278  1.00  0.00    -0.275 OA
BRANCH  14  17
ATOM     17  C   UNL A   1      35.270  24.214  25.301  1.00  0.00     0.120 C 
BRANCH  17  18
ATOM     18  C   UNL A   1      35.047  23.737  23.868  1.00  0.00     0.060 C 
BRANCH  18  19
ATOM     19  C   UNL A   1      34.449  22.358  23.941  1.00  0.00    -0.004 A 
ATOM     20  C   UNL A   1      33.122  22.112  23.552  1.00  0.00     0.122 A 
ATOM     21  C   UNL A   1      32.499  20.916  23.904  1.00  0.00     0.047 A 
ATOM     22  C   UNL A   1      33.200  19.951  24.628  1.00  0.00     0.004 A 
ATOM     23  C   UNL A   1      35.152  21.367  24.642  1.00  0.00     0.007 A 
ATOM     24  C   UNL A   1      34.528  20.173  24.991  1.00  0.00     0.001 A 
BRANCH  20  25
ATOM     25  O   UNL A   1      32.334  23.092  23.007  1.00  0.00    -0.496 OA
ATOM     26  C   UNL A   1      31.134  23.303  23.750  1.00  0.00     0.278 C 
ENDBRANCH  20  25
ENDBRANCH  18  19
ENDBRANCH  17  18
ENDBRANCH  14  17
ENDBRANCH   6  13
ENDBRANCH   1   5
BRANCH   3  27
ATOM     27  C   UNL A   1      31.378  30.969  26.404  1.00  0.00     0.117 C 
BRANCH  27  28
ATOM     28  C   UNL A   1      31.388  32.479  26.573  1.00  0.00     0.042 C 
BRANCH  28  29
ATOM     29  C   UNL A   1      32.616  32.996  27.296  1.00  0.00     0.118 C 
BRANCH  29  30
ATOM     30  N   UNL A   1      32.469  34.386  27.701  1.00  0.00    -0.352 N 
ATOM     31  C   UNL A   1      33.048  35.083  28.734  1.00  0.00     0.251 C 
ATOM     32  H   UNL A   1      31.854  34.915  27.143  1.00  0.00     0.163 HD
ATOM     33  O   UNL A   1      32.592  36.174  29.059  1.00  0.00    -0.269 OA
BRANCH  31  34
ATOM     34  C   UNL A   1      34.201  34.521  29.470  1.00  0.00     0.039 A 
ATOM     35  C   UNL A   1      33.987  33.924  30.716  1.00  0.00     0.014 A 
ATOM     36  C   UNL A   1      35.496  34.605  28.957  1.00  0.00     0.014 A 
ATOM     37  C   UNL A   1      35.060  33.355  31.406  1.00  0.00     0.010 A 
ATOM     38  C   UNL A   1      36.538  33.931  29.582  1.00  0.00     0.010 A 
ATOM     39  C   UNL A   1      36.337  33.316  30.825  1.00  0.00    -0.014 A 
BRANCH  39  40
ATOM     40  C   UNL A   1      37.486  32.666  31.505  1.00  0.00     0.031 A 
ATOM     41  C   UNL A   1      38.201  31.520  30.841  1.00  0.00     0.074 A 
ATOM     42  C   UNL A   1      37.837  33.059  32.744  1.00  0.00     0.049 A 
ATOM     43  N   UNL A   1      39.167  30.765  31.303  1.00  0.00    -0.248 NA
ATOM     44  C   UNL A   1      37.749  31.146  29.490  1.00  0.00     0.031 C 
ATOM     45  C   UNL A   1      37.184  34.120  33.514  1.00  0.00     0.029 A 
ATOM     46  N   UNL A   1      38.825  32.604  33.581  1.00  0.00    -0.354 N 
ATOM     47  C   UNL A   1      39.419  29.825  30.312  1.00  0.00     0.074 A 
ATOM     48  C   UNL A   1      38.463  30.058  29.253  1.00  0.00     0.031 C 
ATOM     49  C   UNL A   1      37.808  34.255  34.695  1.00  0.00     0.029 A 
ATOM     50  C   UNL A   1      38.873  33.262  34.786  1.00  0.00     0.049 A 
ATOM     51  H   UNL A   1      39.442  31.875  33.341  1.00  0.00     0.167 HD
ATOM     52  C   UNL A   1      40.380  28.872  30.275  1.00  0.00     0.037 A 
ATOM     53  C   UNL A   1      39.681  33.077  35.848  1.00  0.00     0.037 A 
ATOM     54  C   UNL A   1      41.348  28.667  31.319  1.00  0.00     0.049 A 
ATOM     55  C   UNL A   1      40.739  32.009  35.783  1.00  0.00     0.074 A 
ATOM     56  C   UNL A   1      42.403  27.772  31.353  1.00  0.00     0.029 A 
ATOM     57  N   UNL A   1      41.378  29.369  32.516  1.00  0.00    -0.354 N 
ATOM     58  N   UNL A   1      41.014  31.174  34.809  1.00  0.00    -0.248 NA
ATOM     59  C   UNL A   1      41.604  31.863  36.961  1.00  0.00     0.031 C 
ATOM     60  C   UNL A   1      43.039  27.896  32.593  1.00  0.00     0.029 A 
ATOM     61  C   UNL A   1      42.420  28.910  33.306  1.00  0.00     0.049 A 
ATOM     62  H   UNL A   1      40.753  30.087  32.766  1.00  0.00     0.167 HD
ATOM     63  C   UNL A   1      42.100  30.427  35.244  1.00  0.00     0.074 A 
ATOM     64  C   UNL A   1      42.445  30.920  36.561  1.00  0.00     0.031 C 
ATOM     65  C   UNL A   1      42.753  29.422  34.610  1.00  0.00     0.037 A 
BRANCH  52  66
ATOM     66  C   UNL A   1      40.437  27.985  29.064  1.00  0.00     0.064 A 
ATOM     67  C   UNL A   1      39.702  26.790  28.990  1.00  0.00     0.173 A 
ATOM     68  C   UNL A   1      41.203  28.351  27.948  1.00  0.00     0.173 A 
ATOM     69  F   UNL A   1      38.962  26.387  30.033  1.00  0.00    -0.203 F 
ATOM     70  C   UNL A   1      39.758  25.983  27.858  1.00  0.00     0.198 A 
ATOM     71  C   UNL A   1      41.229  27.558  26.804  1.00  0.00     0.198 A 
ATOM     72  F   UNL A   1      41.922  29.485  27.962  1.00  0.00    -0.203 F 
ATOM     73  F   UNL A   1      39.089  24.822  27.832  1.00  0.00    -0.200 F 
ATOM     74  C   UNL A   1      40.514  26.372  26.762  1.00  0.00     0.200 A 
ATOM     75  F   UNL A   1      41.949  27.943  25.740  1.00  0.00    -0.200 F 
ATOM     76  F   UNL A   1      40.557  25.598  25.669  1.00  0.00    -0.200 F 
ENDBRANCH  52  66
BRANCH  53  77
ATOM     77  C   UNL A   1      39.536  33.937  37.053  1.00  0.00     0.064 A 
ATOM     78  C   UNL A   1      38.778  33.513  38.153  1.00  0.00     0.173 A 
ATOM     79  C   UNL A   1      40.141  35.200  37.128  1.00  0.00     0.173 A 
ATOM     80  F   UNL A   1      38.164  32.321  38.124  1.00  0.00    -0.203 F 
ATOM     81  C   UNL A   1      38.608  34.330  39.269  1.00  0.00     0.198 A 
ATOM     82  C   UNL A   1      39.997  36.002  38.259  1.00  0.00     0.198 A 
ATOM     83  F   UNL A   1      40.884  35.651  36.106  1.00  0.00    -0.203 F 
ATOM     84  F   UNL A   1      37.835  33.920  40.285  1.00  0.00    -0.200 F 
ATOM     85  C   UNL A   1      39.222  35.572  39.324  1.00  0.00     0.200 A 
ATOM     86  F   UNL A   1      40.608  37.194  38.313  1.00  0.00    -0.200 F 
ATOM     87  F   UNL A   1      39.062  36.354  40.399  1.00  0.00    -0.200 F 
ENDBRANCH  53  77
BRANCH  65  88
ATOM     88  C   UNL A   1      43.933  28.816  35.315  1.00  0.00     0.064 A 
ATOM     89  C   UNL A   1      45.235  29.305  35.131  1.00  0.00     0.173 A 
ATOM     90  C   UNL A   1      43.750  27.758  36.219  1.00  0.00     0.173 A 
ATOM     91  F   UNL A   1      45.464  30.306  34.267  1.00  0.00    -0.203 F 
ATOM     92  C   UNL A   1      46.313  28.738  35.803  1.00  0.00     0.198 A 
ATOM     93  C   UNL A   1      44.827  27.216  36.915  1.00  0.00     0.198 A 
ATOM     94  F   UNL A   1      42.525  27.258  36.437  1.00  0.00    -0.203 F 
ATOM     95  F   UNL A   1      47.555  29.186  35.572  1.00  0.00    -0.200 F 
ATOM     96  C   UNL A   1      46.107  27.700  36.700  1.00  0.00     0.200 A 
ATOM     97  F   UNL A   1      44.624  26.225  37.794  1.00  0.00    -0.200 F 
ATOM     98  F   UNL A   1      47.147  27.162  37.354  1.00  0.00    -0.200 F 
ENDBRANCH  65  88
ENDBRANCH  39  40
ENDBRANCH  31  34
ENDBRANCH  29  30
ENDBRANCH  28  29
ENDBRANCH  27  28
ENDBRANCH   3  27
TORSDOF 15
ENDMDL
