MODEL 1
REMARK VINA RESULT:     -12.2      0.000      0.000
REMARK SMILES O=C(C[C@@H]1CSCC[NH2+]1)NC[C@@H](C(=O)NCCCNC(=O)c1ccc(-c2c3nc(c(-c4c(F)c(F)c(F)c(F)c4F)c4ccc([nH]4)c(-c4c(F)c(F)c(F)c(F)c4F)c4nc(c(-c5c(F)c(F)c(F)c(F)c5F)c5ccc2[nH]5)C=C4)C=C3)cc1)c1ccccc1
REMARK SMILES IDX 16 1 15 2 13 3 14 4 12 6 11 7 10 8 1 9 2 10 3 12 4 13 5 14
REMARK SMILES IDX 9 15 6 16 8 17 7 20 85 21 86 22 90 23 87 24 89 25 88 26
REMARK SMILES IDX 17 27 18 28 19 29 20 30 21 32 22 33 23 34 84 35 24 36 83 37
REMARK SMILES IDX 25 38 26 39 27 40 77 41 28 42 82 43 76 44 78 45 29 46 81 47
REMARK SMILES IDX 75 48 74 49 30 51 62 52 42 53 61 54 43 55 46 56 60 57 79 58
REMARK SMILES IDX 44 59 45 60 59 62 80 63 47 64 31 65 32 66 40 67 33 68 34 69
REMARK SMILES IDX 38 70 41 71 35 72 36 73 39 74 37 75 63 76 64 77 72 78 65 79
REMARK SMILES IDX 66 80 70 81 73 82 67 83 68 84 71 85 69 86 48 87 49 88 57 89
REMARK SMILES IDX 50 90 51 91 55 92 58 93 52 94 53 95 56 96 54 97
REMARK H PARENT 15 5 10 11 9 18 9 19 19 31 78 50 46 61
REMARK Flexibility Score: inf
ROOT
ATOM      1  C   UNL A   1      33.504  26.659  23.870  1.00  0.00     0.117 C 
ENDROOT
BRANCH   1   2
ATOM      2  N   UNL A   1      32.751  27.164  22.745  1.00  0.00    -0.355 N 
ATOM      3  C   UNL A   1      31.401  27.044  22.553  1.00  0.00     0.229 C 
ATOM      4  O   UNL A   1      31.035  26.849  21.391  1.00  0.00    -0.274 OA
ATOM      5  H   UNL A   1      33.259  27.643  22.049  1.00  0.00     0.163 HD
BRANCH   3   6
ATOM      6  C   UNL A   1      30.414  27.184  23.738  1.00  0.00     0.127 C 
BRANCH   6   7
ATOM      7  C   UNL A   1      29.590  25.893  23.979  1.00  0.00     0.134 C 
BRANCH   7   8
ATOM      8  N   UNL A   1      30.178  24.935  24.924  1.00  0.00    -0.355 N 
ATOM      9  O   UNL A   1      31.344  23.712  23.392  1.00  0.00    -0.275 OA
ATOM     10  C   UNL A   1      30.999  23.892  24.558  1.00  0.00     0.226 C 
ATOM     11  H   UNL A   1      29.972  25.045  25.881  1.00  0.00     0.163 HD
BRANCH  10  12
ATOM     12  C   UNL A   1      31.310  22.846  25.636  1.00  0.00     0.165 C 
BRANCH  12  13
ATOM     13  C   UNL A   1      32.346  23.194  26.733  1.00  0.00     0.201 C 
ATOM     14  C   UNL A   1      33.529  24.044  26.213  1.00  0.00     0.135 C 
ATOM     15  N   UNL A   1      32.860  22.007  27.464  1.00  0.00    -0.342 N 
ATOM     16  S   UNL A   1      34.696  23.156  25.116  1.00  0.00    -0.150 SA
ATOM     17  C   UNL A   1      33.610  21.078  26.609  1.00  0.00     0.271 C 
ATOM     18  H   UNL A   1      32.067  21.507  27.867  1.00  0.00     0.346 HD
ATOM     19  H   UNL A   1      33.504  22.348  28.177  1.00  0.00     0.346 HD
ATOM     20  C   UNL A   1      34.935  21.659  26.126  1.00  0.00     0.131 C 
ENDBRANCH  12  13
ENDBRANCH  10  12
ENDBRANCH   7   8
ENDBRANCH   6   7
BRANCH   6  21
ATOM     21  C   UNL A   1      29.494  28.381  23.435  1.00  0.00    -0.034 A 
ATOM     22  C   UNL A   1      29.959  29.703  23.567  1.00  0.00     0.004 A 
ATOM     23  C   UNL A   1      28.139  28.184  23.126  1.00  0.00     0.004 A 
ATOM     24  C   UNL A   1      29.095  30.790  23.427  1.00  0.00     0.000 A 
ATOM     25  C   UNL A   1      27.278  29.277  22.975  1.00  0.00     0.000 A 
ATOM     26  C   UNL A   1      27.753  30.577  23.133  1.00  0.00     0.000 A 
ENDBRANCH   6  21
ENDBRANCH   3   6
ENDBRANCH   1   2
BRANCH   1  27
ATOM     27  C   UNL A   1      33.483  27.690  24.993  1.00  0.00     0.042 C 
BRANCH  27  28
ATOM     28  C   UNL A   1      33.856  29.117  24.620  1.00  0.00     0.118 C 
BRANCH  28  29
ATOM     29  N   UNL A   1      33.051  30.095  25.328  1.00  0.00    -0.352 N 
ATOM     30  C   UNL A   1      33.206  30.714  26.548  1.00  0.00     0.251 C 
ATOM     31  H   UNL A   1      32.240  30.370  24.842  1.00  0.00     0.163 HD
ATOM     32  O   UNL A   1      32.271  31.382  26.976  1.00  0.00    -0.269 OA
BRANCH  30  33
ATOM     33  C   UNL A   1      34.430  30.568  27.384  1.00  0.00     0.039 A 
ATOM     34  C   UNL A   1      34.658  29.328  28.001  1.00  0.00     0.014 A 
ATOM     35  C   UNL A   1      35.323  31.611  27.626  1.00  0.00     0.014 A 
ATOM     36  C   UNL A   1      35.805  29.112  28.774  1.00  0.00     0.010 A 
ATOM     37  C   UNL A   1      36.503  31.379  28.338  1.00  0.00     0.010 A 
ATOM     38  C   UNL A   1      36.759  30.126  28.916  1.00  0.00    -0.014 A 
BRANCH  38  39
ATOM     39  C   UNL A   1      38.016  29.919  29.684  1.00  0.00     0.031 A 
ATOM     40  C   UNL A   1      39.084  29.009  29.145  1.00  0.00     0.074 A 
ATOM     41  C   UNL A   1      38.169  30.486  30.898  1.00  0.00     0.049 A 
ATOM     42  N   UNL A   1      40.172  28.567  29.724  1.00  0.00    -0.248 NA
ATOM     43  C   UNL A   1      38.886  28.507  27.776  1.00  0.00     0.031 C 
ATOM     44  C   UNL A   1      37.205  31.378  31.540  1.00  0.00     0.029 A 
ATOM     45  N   UNL A   1      39.185  30.374  31.817  1.00  0.00    -0.354 N 
ATOM     46  C   UNL A   1      40.771  27.715  28.806  1.00  0.00     0.074 A 
ATOM     47  C   UNL A   1      39.910  27.675  27.643  1.00  0.00     0.031 C 
ATOM     48  C   UNL A   1      37.677  31.742  32.744  1.00  0.00     0.029 A 
ATOM     49  C   UNL A   1      38.951  31.065  32.981  1.00  0.00     0.049 A 
ATOM     50  H   UNL A   1      40.001  29.850  31.656  1.00  0.00     0.167 HD
ATOM     51  C   UNL A   1      41.936  27.035  28.918  1.00  0.00     0.037 A 
ATOM     52  C   UNL A   1      39.668  31.124  34.120  1.00  0.00     0.037 A 
ATOM     53  C   UNL A   1      42.807  27.100  30.063  1.00  0.00     0.049 A 
ATOM     54  C   UNL A   1      40.951  30.343  34.229  1.00  0.00     0.074 A 
ATOM     55  C   UNL A   1      44.031  26.481  30.252  1.00  0.00     0.029 A 
ATOM     56  N   UNL A   1      42.545  27.829  31.213  1.00  0.00    -0.354 N 
ATOM     57  N   UNL A   1      41.523  29.563  33.343  1.00  0.00    -0.248 NA
ATOM     58  C   UNL A   1      41.688  30.444  35.498  1.00  0.00     0.031 C 
ATOM     59  C   UNL A   1      44.491  26.805  31.532  1.00  0.00     0.029 A 
ATOM     60  C   UNL A   1      43.578  27.663  32.122  1.00  0.00     0.049 A 
ATOM     61  H   UNL A   1      41.745  28.383  31.360  1.00  0.00     0.167 HD
ATOM     62  C   UNL A   1      42.698  29.112  33.931  1.00  0.00     0.074 A 
ATOM     63  C   UNL A   1      42.760  29.704  35.251  1.00  0.00     0.031 C 
ATOM     64  C   UNL A   1      43.639  28.282  33.421  1.00  0.00     0.037 A 
BRANCH  51  65
ATOM     65  C   UNL A   1      42.337  26.150  27.775  1.00  0.00     0.064 A 
ATOM     66  C   UNL A   1      41.793  24.867  27.609  1.00  0.00     0.173 A 
ATOM     67  C   UNL A   1      43.251  26.604  26.812  1.00  0.00     0.173 A 
ATOM     68  F   UNL A   1      40.924  24.381  28.509  1.00  0.00    -0.203 F 
ATOM     69  C   UNL A   1      42.172  24.061  26.539  1.00  0.00     0.198 A 
ATOM     70  C   UNL A   1      43.605  25.807  25.726  1.00  0.00     0.198 A 
ATOM     71  F   UNL A   1      43.796  27.825  26.919  1.00  0.00    -0.203 F 
ATOM     72  F   UNL A   1      41.677  22.821  26.429  1.00  0.00    -0.200 F 
ATOM     73  C   UNL A   1      43.072  24.534  25.595  1.00  0.00     0.200 A 
ATOM     74  F   UNL A   1      44.465  26.269  24.809  1.00  0.00    -0.200 F 
ATOM     75  F   UNL A   1      43.431  23.759  24.563  1.00  0.00    -0.200 F 
ENDBRANCH  51  65
BRANCH  52  76
ATOM     76  C   UNL A   1      39.190  31.955  35.256  1.00  0.00     0.064 A 
ATOM     77  C   UNL A   1      38.450  31.385  36.302  1.00  0.00     0.173 A 
ATOM     78  C   UNL A   1      39.452  33.332  35.317  1.00  0.00     0.173 A 
ATOM     79  F   UNL A   1      38.152  30.078  36.275  1.00  0.00    -0.203 F 
ATOM     80  C   UNL A   1      37.974  32.164  37.355  1.00  0.00     0.198 A 
ATOM     81  C   UNL A   1      38.998  34.104  36.386  1.00  0.00     0.198 A 
ATOM     82  F   UNL A   1      40.155  33.926  34.342  1.00  0.00    -0.203 F 
ATOM     83  F   UNL A   1      37.229  31.602  38.318  1.00  0.00    -0.200 F 
ATOM     84  C   UNL A   1      38.254  33.521  37.400  1.00  0.00     0.200 A 
ATOM     85  F   UNL A   1      39.279  35.414  36.428  1.00  0.00    -0.200 F 
ATOM     86  F   UNL A   1      37.796  34.269  38.412  1.00  0.00    -0.200 F 
ENDBRANCH  52  76
BRANCH  64  87
ATOM     87  C   UNL A   1      44.851  28.003  34.260  1.00  0.00     0.064 A 
ATOM     88  C   UNL A   1      44.918  26.895  35.115  1.00  0.00     0.173 A 
ATOM     89  C   UNL A   1      45.989  28.817  34.145  1.00  0.00     0.173 A 
ATOM     90  F   UNL A   1      43.852  26.096  35.269  1.00  0.00    -0.203 F 
ATOM     91  C   UNL A   1      46.078  26.617  35.834  1.00  0.00     0.198 A 
ATOM     92  C   UNL A   1      47.155  28.521  34.846  1.00  0.00     0.198 A 
ATOM     93  F   UNL A   1      45.977  29.886  33.334  1.00  0.00    -0.203 F 
ATOM     94  F   UNL A   1      46.112  25.568  36.668  1.00  0.00    -0.200 F 
ATOM     95  C   UNL A   1      47.198  27.423  35.691  1.00  0.00     0.200 A 
ATOM     96  F   UNL A   1      48.240  29.294  34.696  1.00  0.00    -0.200 F 
ATOM     97  F   UNL A   1      48.318  27.144  36.371  1.00  0.00    -0.200 F 
ENDBRANCH  64  87
ENDBRANCH  38  39
ENDBRANCH  30  33
ENDBRANCH  28  29
ENDBRANCH  27  28
ENDBRANCH   1  27
TORSDOF 15
ENDMDL
MODEL 2
REMARK VINA RESULT:     -12.1      1.556      4.048
REMARK SMILES O=C(C[C@@H]1CSCC[NH2+]1)NC[C@@H](C(=O)NCCCNC(=O)c1ccc(-c2c3nc(c(-c4c(F)c(F)c(F)c(F)c4F)c4ccc([nH]4)c(-c4c(F)c(F)c(F)c(F)c4F)c4nc(c(-c5c(F)c(F)c(F)c(F)c5F)c5ccc2[nH]5)C=C4)C=C3)cc1)c1ccccc1
REMARK SMILES IDX 16 1 15 2 13 3 14 4 12 6 11 7 10 8 1 9 2 10 3 12 4 13 5 14
REMARK SMILES IDX 9 15 6 16 8 17 7 20 85 21 86 22 90 23 87 24 89 25 88 26
REMARK SMILES IDX 17 27 18 28 19 29 20 30 21 32 22 33 23 34 84 35 24 36 83 37
REMARK SMILES IDX 25 38 26 39 27 40 77 41 28 42 82 43 76 44 78 45 29 46 81 47
REMARK SMILES IDX 75 48 74 49 30 51 62 52 42 53 61 54 43 55 46 56 60 57 79 58
REMARK SMILES IDX 44 59 45 60 59 62 80 63 47 64 31 65 32 66 40 67 33 68 34 69
REMARK SMILES IDX 38 70 41 71 35 72 36 73 39 74 37 75 63 76 64 77 72 78 65 79
REMARK SMILES IDX 66 80 70 81 73 82 67 83 68 84 71 85 69 86 48 87 49 88 57 89
REMARK SMILES IDX 50 90 51 91 55 92 58 93 52 94 53 95 56 96 54 97
REMARK H PARENT 15 5 10 11 9 18 9 19 19 31 78 50 46 61
REMARK Flexibility Score: inf
ROOT
ATOM      1  C   UNL A   1      32.823  26.997  26.476  1.00  0.00     0.117 C 
ENDROOT
BRANCH   1   2
ATOM      2  N   UNL A   1      31.869  25.980  26.852  1.00  0.00    -0.355 N 
ATOM      3  C   UNL A   1      31.065  25.268  26.003  1.00  0.00     0.229 C 
ATOM      4  O   UNL A   1      29.925  25.029  26.411  1.00  0.00    -0.274 OA
ATOM      5  H   UNL A   1      31.790  25.779  27.814  1.00  0.00     0.163 HD
BRANCH   3   6
ATOM      6  C   UNL A   1      31.593  24.775  24.634  1.00  0.00     0.127 C 
BRANCH   6   7
ATOM      7  C   UNL A   1      30.550  24.944  23.499  1.00  0.00     0.134 C 
BRANCH   7   8
ATOM      8  N   UNL A   1      29.761  26.182  23.546  1.00  0.00    -0.355 N 
ATOM      9  O   UNL A   1      30.980  27.349  22.013  1.00  0.00    -0.275 OA
ATOM     10  C   UNL A   1      30.048  27.311  22.813  1.00  0.00     0.226 C 
ATOM     11  H   UNL A   1      28.975  26.206  24.140  1.00  0.00     0.163 HD
BRANCH  10  12
ATOM     12  C   UNL A   1      29.277  28.587  23.177  1.00  0.00     0.165 C 
BRANCH  12  13
ATOM     13  C   UNL A   1      29.980  29.956  23.002  1.00  0.00     0.201 C 
ATOM     14  C   UNL A   1      29.424  31.055  23.939  1.00  0.00     0.135 C 
ATOM     15  N   UNL A   1      29.989  30.445  21.600  1.00  0.00    -0.342 N 
ATOM     16  S   UNL A   1      27.740  31.643  23.527  1.00  0.00    -0.150 SA
ATOM     17  C   UNL A   1      28.646  30.713  21.069  1.00  0.00     0.271 C 
ATOM     18  H   UNL A   1      30.433  29.739  21.014  1.00  0.00     0.346 HD
ATOM     19  H   UNL A   1      30.498  31.329  21.592  1.00  0.00     0.346 HD
ATOM     20  C   UNL A   1      27.972  31.907  21.739  1.00  0.00     0.131 C 
ENDBRANCH  12  13
ENDBRANCH  10  12
ENDBRANCH   7   8
ENDBRANCH   6   7
BRANCH   6  21
ATOM     21  C   UNL A   1      31.999  23.299  24.798  1.00  0.00    -0.034 A 
ATOM     22  C   UNL A   1      32.611  22.843  25.982  1.00  0.00     0.004 A 
ATOM     23  C   UNL A   1      31.867  22.396  23.731  1.00  0.00     0.004 A 
ATOM     24  C   UNL A   1      33.102  21.541  26.086  1.00  0.00     0.000 A 
ATOM     25  C   UNL A   1      32.352  21.088  23.844  1.00  0.00     0.000 A 
ATOM     26  C   UNL A   1      32.976  20.663  25.015  1.00  0.00     0.000 A 
ENDBRANCH   6  21
ENDBRANCH   3   6
ENDBRANCH   1   2
BRANCH   1  27
ATOM     27  C   UNL A   1      32.079  28.197  25.900  1.00  0.00     0.042 C 
BRANCH  27  28
ATOM     28  C   UNL A   1      32.929  29.334  25.357  1.00  0.00     0.118 C 
BRANCH  28  29
ATOM     29  N   UNL A   1      32.544  30.619  25.912  1.00  0.00    -0.352 N 
ATOM     30  C   UNL A   1      33.067  31.382  26.931  1.00  0.00     0.251 C 
ATOM     31  H   UNL A   1      31.759  31.022  25.474  1.00  0.00     0.163 HD
ATOM     32  O   UNL A   1      32.428  32.361  27.301  1.00  0.00    -0.269 OA
BRANCH  30  33
ATOM     33  C   UNL A   1      34.339  31.045  27.628  1.00  0.00     0.039 A 
ATOM     34  C   UNL A   1      35.309  32.052  27.746  1.00  0.00     0.014 A 
ATOM     35  C   UNL A   1      34.633  29.771  28.114  1.00  0.00     0.014 A 
ATOM     36  C   UNL A   1      36.514  31.812  28.417  1.00  0.00     0.010 A 
ATOM     37  C   UNL A   1      35.803  29.548  28.845  1.00  0.00     0.010 A 
ATOM     38  C   UNL A   1      36.755  30.566  29.008  1.00  0.00    -0.014 A 
BRANCH  38  39
ATOM     39  C   UNL A   1      37.998  30.288  29.775  1.00  0.00     0.031 A 
ATOM     40  C   UNL A   1      39.035  29.356  29.212  1.00  0.00     0.074 A 
ATOM     41  C   UNL A   1      38.165  30.810  31.006  1.00  0.00     0.049 A 
ATOM     42  N   UNL A   1      40.102  28.855  29.782  1.00  0.00    -0.248 NA
ATOM     43  C   UNL A   1      38.826  28.905  27.827  1.00  0.00     0.031 C 
ATOM     44  C   UNL A   1      37.231  31.718  31.672  1.00  0.00     0.029 A 
ATOM     45  N   UNL A   1      39.170  30.632  31.926  1.00  0.00    -0.354 N 
ATOM     46  C   UNL A   1      40.673  28.010  28.841  1.00  0.00     0.074 A 
ATOM     47  C   UNL A   1      39.818  28.040  27.673  1.00  0.00     0.031 C 
ATOM     48  C   UNL A   1      37.709  32.025  32.890  1.00  0.00     0.029 A 
ATOM     49  C   UNL A   1      38.955  31.294  33.111  1.00  0.00     0.049 A 
ATOM     50  H   UNL A   1      39.968  30.082  31.753  1.00  0.00     0.167 HD
ATOM     51  C   UNL A   1      41.812  27.284  28.936  1.00  0.00     0.037 A 
ATOM     52  C   UNL A   1      39.668  31.290  34.255  1.00  0.00     0.037 A 
ATOM     53  C   UNL A   1      42.677  27.280  30.087  1.00  0.00     0.049 A 
ATOM     54  C   UNL A   1      40.920  30.458  34.344  1.00  0.00     0.074 A 
ATOM     55  C   UNL A   1      43.876  26.610  30.263  1.00  0.00     0.029 A 
ATOM     56  N   UNL A   1      42.437  27.982  31.259  1.00  0.00    -0.354 N 
ATOM     57  N   UNL A   1      41.467  29.686  33.438  1.00  0.00    -0.248 NA
ATOM     58  C   UNL A   1      41.652  30.491  35.620  1.00  0.00     0.031 C 
ATOM     59  C   UNL A   1      44.341  26.875  31.554  1.00  0.00     0.029 A 
ATOM     60  C   UNL A   1      43.457  27.749  32.166  1.00  0.00     0.049 A 
ATOM     61  H   UNL A   1      41.657  28.561  31.420  1.00  0.00     0.167 HD
ATOM     62  C   UNL A   1      42.621  29.172  34.016  1.00  0.00     0.074 A 
ATOM     63  C   UNL A   1      42.698  29.720  35.354  1.00  0.00     0.031 C 
ATOM     64  C   UNL A   1      43.534  28.324  33.484  1.00  0.00     0.037 A 
BRANCH  51  65
ATOM     65  C   UNL A   1      42.187  26.421  27.768  1.00  0.00     0.064 A 
ATOM     66  C   UNL A   1      43.130  26.838  26.816  1.00  0.00     0.173 A 
ATOM     67  C   UNL A   1      41.622  25.145  27.617  1.00  0.00     0.173 A 
ATOM     68  F   UNL A   1      43.690  28.053  26.909  1.00  0.00    -0.203 F 
ATOM     69  C   UNL A   1      43.471  26.021  25.741  1.00  0.00     0.198 A 
ATOM     70  C   UNL A   1      41.988  24.320  26.557  1.00  0.00     0.198 A 
ATOM     71  F   UNL A   1      40.720  24.695  28.502  1.00  0.00    -0.203 F 
ATOM     72  F   UNL A   1      44.337  26.460  24.817  1.00  0.00    -0.200 F 
ATOM     73  C   UNL A   1      42.905  24.761  25.616  1.00  0.00     0.200 A 
ATOM     74  F   UNL A   1      41.450  23.098  26.444  1.00  0.00    -0.200 F 
ATOM     75  F   UNL A   1      43.239  23.975  24.583  1.00  0.00    -0.200 F 
ENDBRANCH  51  65
BRANCH  52  76
ATOM     76  C   UNL A   1      39.214  32.102  35.414  1.00  0.00     0.064 A 
ATOM     77  C   UNL A   1      38.435  31.531  36.431  1.00  0.00     0.173 A 
ATOM     78  C   UNL A   1      39.539  33.462  35.528  1.00  0.00     0.173 A 
ATOM     79  F   UNL A   1      38.076  30.242  36.353  1.00  0.00    -0.203 F 
ATOM     80  C   UNL A   1      37.982  32.295  37.506  1.00  0.00     0.198 A 
ATOM     81  C   UNL A   1      39.109  34.217  36.618  1.00  0.00     0.198 A 
ATOM     82  F   UNL A   1      40.282  34.056  34.582  1.00  0.00    -0.203 F 
ATOM     83  F   UNL A   1      37.199  31.734  38.439  1.00  0.00    -0.200 F 
ATOM     84  C   UNL A   1      38.325  33.634  37.602  1.00  0.00     0.200 A 
ATOM     85  F   UNL A   1      39.450  35.510  36.710  1.00  0.00    -0.200 F 
ATOM     86  F   UNL A   1      37.889  34.367  38.635  1.00  0.00    -0.200 F 
ENDBRANCH  52  76
BRANCH  64  87
ATOM     87  C   UNL A   1      44.729  27.973  34.320  1.00  0.00     0.064 A 
ATOM     88  C   UNL A   1      44.749  26.837  35.140  1.00  0.00     0.173 A 
ATOM     89  C   UNL A   1      45.898  28.746  34.236  1.00  0.00     0.173 A 
ATOM     90  F   UNL A   1      43.653  26.075  35.265  1.00  0.00    -0.203 F 
ATOM     91  C   UNL A   1      45.893  26.493  35.856  1.00  0.00     0.198 A 
ATOM     92  C   UNL A   1      47.048  28.385  34.933  1.00  0.00     0.198 A 
ATOM     93  F   UNL A   1      45.931  29.839  33.458  1.00  0.00    -0.203 F 
ATOM     94  F   UNL A   1      45.882  25.419  36.657  1.00  0.00    -0.200 F 
ATOM     95  C   UNL A   1      47.044  27.260  35.744  1.00  0.00     0.200 A 
ATOM     96  F   UNL A   1      48.162  29.120  34.812  1.00  0.00    -0.200 F 
ATOM     97  F   UNL A   1      48.149  26.917  36.419  1.00  0.00    -0.200 F 
ENDBRANCH  64  87
ENDBRANCH  38  39
ENDBRANCH  30  33
ENDBRANCH  28  29
ENDBRANCH  27  28
ENDBRANCH   1  27
TORSDOF 15
ENDMDL
MODEL 3
REMARK VINA RESULT:     -12.1      4.821     10.307
REMARK SMILES O=C(C[C@@H]1CSCC[NH2+]1)NC[C@@H](C(=O)NCCCNC(=O)c1ccc(-c2c3nc(c(-c4c(F)c(F)c(F)c(F)c4F)c4ccc([nH]4)c(-c4c(F)c(F)c(F)c(F)c4F)c4nc(c(-c5c(F)c(F)c(F)c(F)c5F)c5ccc2[nH]5)C=C4)C=C3)cc1)c1ccccc1
REMARK SMILES IDX 16 1 15 2 13 3 14 4 12 6 11 7 10 8 1 9 2 10 3 12 4 13 5 14
REMARK SMILES IDX 9 15 6 16 8 17 7 20 85 21 86 22 90 23 87 24 89 25 88 26
REMARK SMILES IDX 17 27 18 28 19 29 20 30 21 32 22 33 23 34 84 35 24 36 83 37
REMARK SMILES IDX 25 38 26 39 27 40 77 41 28 42 82 43 76 44 78 45 29 46 81 47
REMARK SMILES IDX 75 48 74 49 30 51 62 52 42 53 61 54 43 55 46 56 60 57 79 58
REMARK SMILES IDX 44 59 45 60 59 62 80 63 47 64 31 65 32 66 40 67 33 68 34 69
REMARK SMILES IDX 38 70 41 71 35 72 36 73 39 74 37 75 63 76 64 77 72 78 65 79
REMARK SMILES IDX 66 80 70 81 73 82 67 83 68 84 71 85 69 86 48 87 49 88 57 89
REMARK SMILES IDX 50 90 51 91 55 92 58 93 52 94 53 95 56 96 54 97
REMARK H PARENT 15 5 10 11 9 18 9 19 19 31 78 50 46 61
REMARK Flexibility Score: inf
ROOT
ATOM      1  C   UNL A   1      36.672  20.718  24.643  1.00  0.00     0.117 C 
ENDROOT
BRANCH   1   2
ATOM      2  N   UNL A   1      35.734  20.663  25.741  1.00  0.00    -0.355 N 
ATOM      3  C   UNL A   1      34.374  20.800  25.653  1.00  0.00     0.229 C 
ATOM      4  O   UNL A   1      33.833  21.418  26.574  1.00  0.00    -0.274 OA
ATOM      5  H   UNL A   1      36.109  20.510  26.639  1.00  0.00     0.163 HD
BRANCH   3   6
ATOM      6  C   UNL A   1      33.586  20.177  24.475  1.00  0.00     0.127 C 
BRANCH   6   7
ATOM      7  C   UNL A   1      32.153  20.754  24.349  1.00  0.00     0.134 C 
BRANCH   7   8
ATOM      8  N   UNL A   1      32.072  22.205  24.136  1.00  0.00    -0.355 N 
ATOM      9  O   UNL A   1      30.709  22.672  25.904  1.00  0.00    -0.275 OA
ATOM     10  C   UNL A   1      31.332  23.062  24.919  1.00  0.00     0.226 C 
ATOM     11  H   UNL A   1      32.580  22.590  23.385  1.00  0.00     0.163 HD
BRANCH  10  12
ATOM     12  C   UNL A   1      31.158  24.496  24.401  1.00  0.00     0.165 C 
BRANCH  12  13
ATOM     13  C   UNL A   1      30.205  25.451  25.162  1.00  0.00     0.201 C 
ATOM     14  C   UNL A   1      29.822  26.711  24.350  1.00  0.00     0.135 C 
ATOM     15  N   UNL A   1      30.708  25.848  26.502  1.00  0.00    -0.342 N 
ATOM     16  S   UNL A   1      31.175  27.923  24.119  1.00  0.00    -0.150 SA
ATOM     17  C   UNL A   1      31.953  26.624  26.450  1.00  0.00     0.271 C 
ATOM     18  H   UNL A   1      30.876  25.002  27.047  1.00  0.00     0.346 HD
ATOM     19  H   UNL A   1      29.997  26.445  26.925  1.00  0.00     0.346 HD
ATOM     20  C   UNL A   1      31.761  28.010  25.842  1.00  0.00     0.131 C 
ENDBRANCH  12  13
ENDBRANCH  10  12
ENDBRANCH   7   8
ENDBRANCH   6   7
BRANCH   6  21
ATOM     21  C   UNL A   1      33.553  18.653  24.695  1.00  0.00    -0.034 A 
ATOM     22  C   UNL A   1      34.313  17.787  23.886  1.00  0.00     0.004 A 
ATOM     23  C   UNL A   1      32.681  18.083  25.637  1.00  0.00     0.004 A 
ATOM     24  C   UNL A   1      34.184  16.402  23.990  1.00  0.00     0.000 A 
ATOM     25  C   UNL A   1      32.562  16.693  25.745  1.00  0.00     0.000 A 
ATOM     26  C   UNL A   1      33.306  15.854  24.919  1.00  0.00     0.000 A 
ENDBRANCH   6  21
ENDBRANCH   3   6
ENDBRANCH   1   2
BRANCH   1  27
ATOM     27  C   UNL A   1      37.788  19.708  24.885  1.00  0.00     0.042 C 
BRANCH  27  28
ATOM     28  C   UNL A   1      38.854  20.094  25.898  1.00  0.00     0.118 C 
BRANCH  28  29
ATOM     29  N   UNL A   1      39.987  19.186  25.873  1.00  0.00    -0.352 N 
ATOM     30  C   UNL A   1      41.340  19.390  26.018  1.00  0.00     0.251 C 
ATOM     31  H   UNL A   1      39.738  18.244  25.727  1.00  0.00     0.163 HD
ATOM     32  O   UNL A   1      42.091  18.450  25.781  1.00  0.00    -0.269 OA
BRANCH  30  33
ATOM     33  C   UNL A   1      41.928  20.705  26.399  1.00  0.00     0.039 A 
ATOM     34  C   UNL A   1      42.180  21.632  25.376  1.00  0.00     0.014 A 
ATOM     35  C   UNL A   1      42.289  21.034  27.705  1.00  0.00     0.014 A 
ATOM     36  C   UNL A   1      42.701  22.898  25.667  1.00  0.00     0.010 A 
ATOM     37  C   UNL A   1      42.743  22.320  28.009  1.00  0.00     0.010 A 
ATOM     38  C   UNL A   1      42.951  23.268  26.994  1.00  0.00    -0.014 A 
BRANCH  38  39
ATOM     39  C   UNL A   1      43.454  24.621  27.350  1.00  0.00     0.031 A 
ATOM     40  C   UNL A   1      42.514  25.644  27.924  1.00  0.00     0.074 A 
ATOM     41  C   UNL A   1      44.733  24.958  27.089  1.00  0.00     0.049 A 
ATOM     42  N   UNL A   1      42.708  26.920  28.149  1.00  0.00    -0.248 NA
ATOM     43  C   UNL A   1      41.163  25.172  28.269  1.00  0.00     0.031 C 
ATOM     44  C   UNL A   1      45.742  24.065  26.523  1.00  0.00     0.029 A 
ATOM     45  N   UNL A   1      45.394  26.153  27.246  1.00  0.00    -0.354 N 
ATOM     46  C   UNL A   1      41.500  27.407  28.630  1.00  0.00     0.074 A 
ATOM     47  C   UNL A   1      40.569  26.299  28.635  1.00  0.00     0.031 C 
ATOM     48  C   UNL A   1      46.898  24.737  26.387  1.00  0.00     0.029 A 
ATOM     49  C   UNL A   1      46.695  26.123  26.805  1.00  0.00     0.049 A 
ATOM     50  H   UNL A   1      44.975  26.953  27.636  1.00  0.00     0.167 HD
ATOM     51  C   UNL A   1      41.197  28.662  29.038  1.00  0.00     0.037 A 
ATOM     52  C   UNL A   1      47.612  27.107  26.723  1.00  0.00     0.037 A 
ATOM     53  C   UNL A   1      42.133  29.756  29.062  1.00  0.00     0.049 A 
ATOM     54  C   UNL A   1      47.245  28.499  27.165  1.00  0.00     0.074 A 
ATOM     55  C   UNL A   1      41.932  31.054  29.500  1.00  0.00     0.029 A 
ATOM     56  N   UNL A   1      43.448  29.679  28.629  1.00  0.00    -0.354 N 
ATOM     57  N   UNL A   1      46.109  28.943  27.646  1.00  0.00    -0.248 NA
ATOM     58  C   UNL A   1      48.287  29.532  27.048  1.00  0.00     0.031 C 
ATOM     59  C   UNL A   1      43.114  31.772  29.296  1.00  0.00     0.029 A 
ATOM     60  C   UNL A   1      44.066  30.910  28.776  1.00  0.00     0.049 A 
ATOM     61  H   UNL A   1      43.878  28.869  28.272  1.00  0.00     0.167 HD
ATOM     62  C   UNL A   1      46.308  30.289  27.921  1.00  0.00     0.074 A 
ATOM     63  C   UNL A   1      47.676  30.594  27.555  1.00  0.00     0.031 C 
ATOM     64  C   UNL A   1      45.436  31.191  28.433  1.00  0.00     0.037 A 
BRANCH  51  65
ATOM     65  C   UNL A   1      39.790  28.926  29.487  1.00  0.00     0.064 A 
ATOM     66  C   UNL A   1      39.393  28.737  30.820  1.00  0.00     0.173 A 
ATOM     67  C   UNL A   1      38.834  29.410  28.581  1.00  0.00     0.173 A 
ATOM     68  F   UNL A   1      40.266  28.266  31.723  1.00  0.00    -0.203 F 
ATOM     69  C   UNL A   1      38.085  28.994  31.221  1.00  0.00     0.198 A 
ATOM     70  C   UNL A   1      37.534  29.694  28.992  1.00  0.00     0.198 A 
ATOM     71  F   UNL A   1      39.163  29.615  27.296  1.00  0.00    -0.203 F 
ATOM     72  F   UNL A   1      37.716  28.759  32.487  1.00  0.00    -0.200 F 
ATOM     73  C   UNL A   1      37.159  29.478  30.309  1.00  0.00     0.200 A 
ATOM     74  F   UNL A   1      36.644  30.173  28.112  1.00  0.00    -0.200 F 
ATOM     75  F   UNL A   1      35.901  29.729  30.698  1.00  0.00    -0.200 F 
ENDBRANCH  51  65
BRANCH  52  76
ATOM     76  C   UNL A   1      48.971  26.813  26.199  1.00  0.00     0.064 A 
ATOM     77  C   UNL A   1      49.983  26.341  27.048  1.00  0.00     0.173 A 
ATOM     78  C   UNL A   1      49.292  27.005  24.847  1.00  0.00     0.173 A 
ATOM     79  F   UNL A   1      49.732  26.167  28.354  1.00  0.00    -0.203 F 
ATOM     80  C   UNL A   1      51.267  26.090  26.568  1.00  0.00     0.198 A 
ATOM     81  C   UNL A   1      50.569  26.727  24.363  1.00  0.00     0.198 A 
ATOM     82  F   UNL A   1      48.361  27.455  23.993  1.00  0.00    -0.203 F 
ATOM     83  F   UNL A   1      52.227  25.684  27.411  1.00  0.00    -0.200 F 
ATOM     84  C   UNL A   1      51.558  26.277  25.226  1.00  0.00     0.200 A 
ATOM     85  F   UNL A   1      50.843  26.901  23.063  1.00  0.00    -0.200 F 
ATOM     86  F   UNL A   1      52.792  26.036  24.765  1.00  0.00    -0.200 F 
ENDBRANCH  52  76
BRANCH  64  87
ATOM     87  C   UNL A   1      45.938  32.582  28.684  1.00  0.00     0.064 A 
ATOM     88  C   UNL A   1      46.581  32.930  29.880  1.00  0.00     0.173 A 
ATOM     89  C   UNL A   1      45.841  33.558  27.680  1.00  0.00     0.173 A 
ATOM     90  F   UNL A   1      46.686  32.037  30.875  1.00  0.00    -0.203 F 
ATOM     91  C   UNL A   1      47.100  34.209  30.066  1.00  0.00     0.198 A 
ATOM     92  C   UNL A   1      46.384  34.827  27.859  1.00  0.00     0.198 A 
ATOM     93  F   UNL A   1      45.242  33.271  26.514  1.00  0.00    -0.203 F 
ATOM     94  F   UNL A   1      47.685  34.530  31.227  1.00  0.00    -0.200 F 
ATOM     95  C   UNL A   1      47.010  35.153  29.052  1.00  0.00     0.200 A 
ATOM     96  F   UNL A   1      46.308  35.732  26.873  1.00  0.00    -0.200 F 
ATOM     97  F   UNL A   1      47.526  36.377  29.226  1.00  0.00    -0.200 F 
ENDBRANCH  64  87
ENDBRANCH  38  39
ENDBRANCH  30  33
ENDBRANCH  28  29
ENDBRANCH  27  28
ENDBRANCH   1  27
TORSDOF 15
ENDMDL
