MODEL 1
REMARK VINA RESULT:     -12.6      0.000      0.000
REMARK SMILES Cc1ccc(Oc2ccc(NC(=O)CCCC(=O)NCCCNC(=O)c3ccc(-c4c5nc(c(-c6c(F)c(F)c(F)c(F)c6F)c6ccc([nH]6)c(-c6c(F)c(F)c(F)c(F)c6F)c6nc(c(-c7c(F)c(F)c(F)c(F)c7F)c7ccc4[nH]7)C=C6)C=C5)cc3)cc2)cc1C
REMARK SMILES IDX 17 1 18 2 19 3 16 5 15 6 14 7 12 8 11 9 13 11 10 12 7 13
REMARK SMILES IDX 8 14 90 15 9 16 89 17 6 18 5 19 1 20 2 21 3 22 92 23 4 24
REMARK SMILES IDX 91 25 93 26 20 27 21 28 22 29 23 30 24 31 25 33 26 34 27 35
REMARK SMILES IDX 88 36 28 37 87 38 29 39 30 40 31 41 81 42 32 43 86 44 80 45
REMARK SMILES IDX 82 46 33 47 85 48 79 49 78 50 34 52 66 53 46 54 65 55 47 56
REMARK SMILES IDX 50 57 64 58 83 59 48 60 49 61 63 63 84 64 51 65 35 66 36 67
REMARK SMILES IDX 44 68 37 69 38 70 42 71 45 72 39 73 40 74 43 75 41 76 67 77
REMARK SMILES IDX 68 78 76 79 69 80 70 81 74 82 77 83 71 84 72 85 75 86 73 87
REMARK SMILES IDX 52 88 53 89 61 90 54 91 55 92 59 93 62 94 56 95 57 96 60 97
REMARK SMILES IDX 58 98
REMARK H PARENT 19 4 11 10 23 32 82 51 50 62
REMARK Flexibility Score: inf
ROOT
ATOM      1  C   UNL A   1      32.504  27.440  26.530  1.00  0.00     0.220 C 
ATOM      2  O   UNL A   1      31.612  26.718  26.998  1.00  0.00    -0.275 OA
ATOM      3  N   UNL A   1      32.235  28.763  26.603  1.00  0.00    -0.356 N 
ATOM      4  H   UNL A   1      31.351  28.919  27.006  1.00  0.00     0.163 HD
ENDROOT
BRANCH   1   5
ATOM      5  C   UNL A   1      33.797  26.775  26.058  1.00  0.00     0.100 C 
BRANCH   5   6
ATOM      6  C   UNL A   1      33.935  25.270  25.852  1.00  0.00     0.020 C 
BRANCH   6   7
ATOM      7  C   UNL A   1      34.772  24.661  24.733  1.00  0.00     0.101 C 
BRANCH   7   8
ATOM      8  C   UNL A   1      34.245  24.456  23.313  1.00  0.00     0.224 C 
ATOM      9  N   UNL A   1      33.202  25.048  22.681  1.00  0.00    -0.326 N 
ATOM     10  H   UNL A   1      33.095  24.675  21.776  1.00  0.00     0.169 HD
ATOM     11  O   UNL A   1      34.801  23.574  22.633  1.00  0.00    -0.275 OA
BRANCH   9  12
ATOM     12  C   UNL A   1      32.231  26.030  22.921  1.00  0.00     0.041 A 
ATOM     13  C   UNL A   1      30.429  28.112  23.545  1.00  0.00     0.127 A 
ATOM     14  C   UNL A   1      30.066  26.796  23.753  1.00  0.00     0.049 A 
ATOM     15  C   UNL A   1      31.670  28.405  22.988  1.00  0.00     0.049 A 
ATOM     16  C   UNL A   1      30.973  25.786  23.430  1.00  0.00     0.030 A 
ATOM     17  C   UNL A   1      32.557  27.366  22.659  1.00  0.00     0.030 A 
BRANCH  13  18
ATOM     18  O   UNL A   1      29.653  29.115  24.055  1.00  0.00    -0.457 OA
BRANCH  18  19
ATOM     19  C   UNL A   1      29.017  29.972  23.186  1.00  0.00     0.127 A 
ATOM     20  C   UNL A   1      27.762  32.969  20.354  1.00  0.00     0.044 C 
ATOM     21  C   UNL A   1      28.127  31.951  21.399  1.00  0.00    -0.048 A 
ATOM     22  C   UNL A   1      27.975  30.585  21.103  1.00  0.00     0.007 A 
ATOM     23  C   UNL A   1      28.671  32.328  22.641  1.00  0.00    -0.045 A 
ATOM     24  C   UNL A   1      28.415  29.599  21.990  1.00  0.00     0.047 A 
ATOM     25  C   UNL A   1      29.106  31.325  23.523  1.00  0.00     0.050 A 
ATOM     26  C   UNL A   1      28.789  33.761  23.085  1.00  0.00     0.045 C 
ENDBRANCH  18  19
ENDBRANCH  13  18
ENDBRANCH   9  12
ENDBRANCH   7   8
ENDBRANCH   6   7
ENDBRANCH   5   6
ENDBRANCH   1   5
BRANCH   3  27
ATOM     27  C   UNL A   1      32.880  30.021  26.259  1.00  0.00     0.117 C 
BRANCH  27  28
ATOM     28  C   UNL A   1      32.143  31.207  26.854  1.00  0.00     0.042 C 
BRANCH  28  29
ATOM     29  C   UNL A   1      33.109  32.161  27.523  1.00  0.00     0.118 C 
BRANCH  29  30
ATOM     30  N   UNL A   1      32.618  33.536  27.577  1.00  0.00    -0.352 N 
ATOM     31  C   UNL A   1      33.052  34.545  28.411  1.00  0.00     0.251 C 
ATOM     32  H   UNL A   1      31.896  33.768  26.949  1.00  0.00     0.163 HD
ATOM     33  O   UNL A   1      32.490  35.633  28.445  1.00  0.00    -0.269 OA
BRANCH  31  34
ATOM     34  C   UNL A   1      34.190  34.256  29.308  1.00  0.00     0.039 A 
ATOM     35  C   UNL A   1      33.960  33.626  30.531  1.00  0.00     0.014 A 
ATOM     36  C   UNL A   1      35.491  34.464  28.846  1.00  0.00     0.014 A 
ATOM     37  C   UNL A   1      35.042  33.114  31.248  1.00  0.00     0.010 A 
ATOM     38  C   UNL A   1      36.546  33.840  29.492  1.00  0.00     0.010 A 
ATOM     39  C   UNL A   1      36.338  33.168  30.706  1.00  0.00    -0.014 A 
BRANCH  39  40
ATOM     40  C   UNL A   1      37.506  32.558  31.393  1.00  0.00     0.031 A 
ATOM     41  C   UNL A   1      38.248  31.433  30.721  1.00  0.00     0.074 A 
ATOM     42  C   UNL A   1      37.838  32.938  32.642  1.00  0.00     0.049 A 
ATOM     43  N   UNL A   1      39.201  30.668  31.191  1.00  0.00    -0.248 NA
ATOM     44  C   UNL A   1      37.820  31.082  29.355  1.00  0.00     0.031 C 
ATOM     45  C   UNL A   1      37.151  33.960  33.434  1.00  0.00     0.029 A 
ATOM     46  N   UNL A   1      38.837  32.495  33.473  1.00  0.00    -0.354 N 
ATOM     47  C   UNL A   1      39.449  29.729  30.199  1.00  0.00     0.074 A 
ATOM     48  C   UNL A   1      38.501  29.969  29.135  1.00  0.00     0.031 C 
ATOM     49  C   UNL A   1      37.771  34.093  34.617  1.00  0.00     0.029 A 
ATOM     50  C   UNL A   1      38.875  33.142  34.686  1.00  0.00     0.049 A 
ATOM     51  H   UNL A   1      39.468  31.781  33.224  1.00  0.00     0.167 HD
ATOM     52  C   UNL A   1      40.408  28.775  30.157  1.00  0.00     0.037 A 
ATOM     53  C   UNL A   1      39.711  32.983  35.730  1.00  0.00     0.037 A 
ATOM     54  C   UNL A   1      41.395  28.588  31.184  1.00  0.00     0.049 A 
ATOM     55  C   UNL A   1      40.808  31.956  35.637  1.00  0.00     0.074 A 
ATOM     56  C   UNL A   1      42.466  27.713  31.204  1.00  0.00     0.029 A 
ATOM     57  N   UNL A   1      41.439  29.306  32.370  1.00  0.00    -0.354 N 
ATOM     58  N   UNL A   1      41.079  31.122  34.662  1.00  0.00    -0.248 NA
ATOM     59  C   UNL A   1      41.719  31.855  36.785  1.00  0.00     0.031 C 
ATOM     60  C   UNL A   1      43.142  27.881  32.418  1.00  0.00     0.029 A 
ATOM     61  C   UNL A   1      42.515  28.889  33.134  1.00  0.00     0.049 A 
ATOM     62  H   UNL A   1      40.800  30.009  32.629  1.00  0.00     0.167 HD
ATOM     63  C   UNL A   1      42.206  30.418  35.066  1.00  0.00     0.074 A 
ATOM     64  C   UNL A   1      42.575  30.933  36.368  1.00  0.00     0.031 C 
ATOM     65  C   UNL A   1      42.872  29.430  34.420  1.00  0.00     0.037 A 
BRANCH  52  66
ATOM     66  C   UNL A   1      40.444  27.883  28.951  1.00  0.00     0.064 A 
ATOM     67  C   UNL A   1      41.205  28.209  27.817  1.00  0.00     0.173 A 
ATOM     68  C   UNL A   1      39.717  26.684  28.929  1.00  0.00     0.173 A 
ATOM     69  F   UNL A   1      41.905  29.353  27.780  1.00  0.00    -0.203 F 
ATOM     70  C   UNL A   1      41.204  27.390  26.692  1.00  0.00     0.198 A 
ATOM     71  C   UNL A   1      39.747  25.849  27.815  1.00  0.00     0.198 A 
ATOM     72  F   UNL A   1      38.976  26.322  29.987  1.00  0.00    -0.203 F 
ATOM     73  F   UNL A   1      41.886  27.756  25.598  1.00  0.00    -0.200 F 
ATOM     74  C   UNL A   1      40.481  26.207  26.694  1.00  0.00     0.200 A 
ATOM     75  F   UNL A   1      39.056  24.700  27.821  1.00  0.00    -0.200 F 
ATOM     76  F   UNL A   1      40.482  25.418  25.611  1.00  0.00    -0.200 F 
ENDBRANCH  52  66
BRANCH  53  77
ATOM     77  C   UNL A   1      39.576  33.847  36.932  1.00  0.00     0.064 A 
ATOM     78  C   UNL A   1      38.840  33.415  38.045  1.00  0.00     0.173 A 
ATOM     79  C   UNL A   1      40.170  35.115  36.997  1.00  0.00     0.173 A 
ATOM     80  F   UNL A   1      38.236  32.217  38.023  1.00  0.00    -0.203 F 
ATOM     81  C   UNL A   1      38.685  34.227  39.166  1.00  0.00     0.198 A 
ATOM     82  C   UNL A   1      40.035  35.916  38.129  1.00  0.00     0.198 A 
ATOM     83  F   UNL A   1      40.890  35.573  35.962  1.00  0.00    -0.203 F 
ATOM     84  F   UNL A   1      37.938  33.806  40.197  1.00  0.00    -0.200 F 
ATOM     85  C   UNL A   1      39.286  35.475  39.209  1.00  0.00     0.200 A 
ATOM     86  F   UNL A   1      40.629  37.116  38.173  1.00  0.00    -0.200 F 
ATOM     87  F   UNL A   1      39.138  36.255  40.290  1.00  0.00    -0.200 F 
ENDBRANCH  53  77
BRANCH  65  88
ATOM     88  C   UNL A   1      44.091  28.870  35.090  1.00  0.00     0.064 A 
ATOM     89  C   UNL A   1      44.002  27.819  36.014  1.00  0.00     0.173 A 
ATOM     90  C   UNL A   1      45.365  29.356  34.763  1.00  0.00     0.173 A 
ATOM     91  F   UNL A   1      42.803  27.332  36.368  1.00  0.00    -0.203 F 
ATOM     92  C   UNL A   1      45.147  27.289  36.602  1.00  0.00     0.198 A 
ATOM     93  C   UNL A   1      46.508  28.805  35.332  1.00  0.00     0.198 A 
ATOM     94  F   UNL A   1      45.502  30.356  33.878  1.00  0.00    -0.203 F 
ATOM     95  F   UNL A   1      45.037  26.313  37.514  1.00  0.00    -0.200 F 
ATOM     96  C   UNL A   1      46.398  27.777  36.255  1.00  0.00     0.200 A 
ATOM     97  F   UNL A   1      47.717  29.267  34.986  1.00  0.00    -0.200 F 
ATOM     98  F   UNL A   1      47.499  27.257  36.817  1.00  0.00    -0.200 F 
ENDBRANCH  65  88
ENDBRANCH  39  40
ENDBRANCH  31  34
ENDBRANCH  29  30
ENDBRANCH  28  29
ENDBRANCH  27  28
ENDBRANCH   3  27
TORSDOF 16
ENDMDL
MODEL 2
REMARK VINA RESULT:     -12.4      1.761      8.299
REMARK SMILES Cc1ccc(Oc2ccc(NC(=O)CCCC(=O)NCCCNC(=O)c3ccc(-c4c5nc(c(-c6c(F)c(F)c(F)c(F)c6F)c6ccc([nH]6)c(-c6c(F)c(F)c(F)c(F)c6F)c6nc(c(-c7c(F)c(F)c(F)c(F)c7F)c7ccc4[nH]7)C=C6)C=C5)cc3)cc2)cc1C
REMARK SMILES IDX 17 1 18 2 19 3 16 5 15 6 14 7 12 8 11 9 13 11 10 12 7 13
REMARK SMILES IDX 8 14 90 15 9 16 89 17 6 18 5 19 1 20 2 21 3 22 92 23 4 24
REMARK SMILES IDX 91 25 93 26 20 27 21 28 22 29 23 30 24 31 25 33 26 34 27 35
REMARK SMILES IDX 88 36 28 37 87 38 29 39 30 40 31 41 81 42 32 43 86 44 80 45
REMARK SMILES IDX 82 46 33 47 85 48 79 49 78 50 34 52 66 53 46 54 65 55 47 56
REMARK SMILES IDX 50 57 64 58 83 59 48 60 49 61 63 63 84 64 51 65 35 66 36 67
REMARK SMILES IDX 44 68 37 69 38 70 42 71 45 72 39 73 40 74 43 75 41 76 67 77
REMARK SMILES IDX 68 78 76 79 69 80 70 81 74 82 77 83 71 84 72 85 75 86 73 87
REMARK SMILES IDX 52 88 53 89 61 90 54 91 55 92 59 93 62 94 56 95 57 96 60 97
REMARK SMILES IDX 58 98
REMARK H PARENT 19 4 11 10 23 32 82 51 50 62
REMARK Flexibility Score: inf
ROOT
ATOM      1  C   UNL A   1      34.073  28.956  26.739  1.00  0.00     0.220 C 
ATOM      2  O   UNL A   1      35.270  29.072  27.042  1.00  0.00    -0.275 OA
ATOM      3  N   UNL A   1      33.312  30.016  27.090  1.00  0.00    -0.356 N 
ATOM      4  H   UNL A   1      33.851  30.698  27.553  1.00  0.00     0.163 HD
ENDROOT
BRANCH   1   5
ATOM      5  C   UNL A   1      33.650  27.730  25.929  1.00  0.00     0.100 C 
BRANCH   5   6
ATOM      6  C   UNL A   1      33.443  27.759  24.417  1.00  0.00     0.020 C 
BRANCH   6   7
ATOM      7  C   UNL A   1      32.498  28.736  23.730  1.00  0.00     0.101 C 
BRANCH   7   8
ATOM      8  C   UNL A   1      30.978  28.572  23.737  1.00  0.00     0.224 C 
ATOM      9  N   UNL A   1      30.224  27.483  24.024  1.00  0.00    -0.326 N 
ATOM     10  H   UNL A   1      29.268  27.688  23.905  1.00  0.00     0.169 HD
ATOM     11  O   UNL A   1      30.309  29.556  23.369  1.00  0.00    -0.275 OA
BRANCH   9  12
ATOM     12  C   UNL A   1      30.390  26.153  24.438  1.00  0.00     0.041 A 
ATOM     13  C   UNL A   1      30.903  23.550  25.403  1.00  0.00     0.127 A 
ATOM     14  C   UNL A   1      30.868  23.791  24.043  1.00  0.00     0.049 A 
ATOM     15  C   UNL A   1      30.642  24.587  26.294  1.00  0.00     0.049 A 
ATOM     16  C   UNL A   1      30.606  25.086  23.594  1.00  0.00     0.030 A 
ATOM     17  C   UNL A   1      30.367  25.878  25.810  1.00  0.00     0.030 A 
BRANCH  13  18
ATOM     18  O   UNL A   1      31.371  22.352  25.863  1.00  0.00    -0.457 OA
BRANCH  18  19
ATOM     19  C   UNL A   1      32.618  21.926  25.464  1.00  0.00     0.127 A 
ATOM     20  C   UNL A   1      36.684  20.573  25.005  1.00  0.00     0.044 C 
ATOM     21  C   UNL A   1      35.284  21.112  25.098  1.00  0.00    -0.048 A 
ATOM     22  C   UNL A   1      34.214  20.311  24.662  1.00  0.00     0.007 A 
ATOM     23  C   UNL A   1      35.011  22.371  25.664  1.00  0.00    -0.045 A 
ATOM     24  C   UNL A   1      32.888  20.713  24.841  1.00  0.00     0.047 A 
ATOM     25  C   UNL A   1      33.673  22.763  25.835  1.00  0.00     0.050 A 
ATOM     26  C   UNL A   1      36.089  23.337  26.078  1.00  0.00     0.045 C 
ENDBRANCH  18  19
ENDBRANCH  13  18
ENDBRANCH   9  12
ENDBRANCH   7   8
ENDBRANCH   6   7
ENDBRANCH   5   6
ENDBRANCH   1   5
BRANCH   3  27
ATOM     27  C   UNL A   1      31.924  30.440  26.979  1.00  0.00     0.117 C 
BRANCH  27  28
ATOM     28  C   UNL A   1      31.815  31.926  26.694  1.00  0.00     0.042 C 
BRANCH  28  29
ATOM     29  C   UNL A   1      32.840  32.704  27.489  1.00  0.00     0.118 C 
BRANCH  29  30
ATOM     30  N   UNL A   1      32.465  34.100  27.705  1.00  0.00    -0.352 N 
ATOM     31  C   UNL A   1      33.009  34.978  28.619  1.00  0.00     0.251 C 
ATOM     32  H   UNL A   1      31.743  34.452  27.135  1.00  0.00     0.163 HD
ATOM     33  O   UNL A   1      32.538  36.097  28.788  1.00  0.00    -0.269 OA
BRANCH  31  34
ATOM     34  C   UNL A   1      34.150  34.509  29.430  1.00  0.00     0.039 A 
ATOM     35  C   UNL A   1      33.911  33.795  30.605  1.00  0.00     0.014 A 
ATOM     36  C   UNL A   1      35.444  34.639  28.925  1.00  0.00     0.014 A 
ATOM     37  C   UNL A   1      34.969  33.126  31.223  1.00  0.00     0.010 A 
ATOM     38  C   UNL A   1      36.462  33.867  29.464  1.00  0.00     0.010 A 
ATOM     39  C   UNL A   1      36.241  33.111  30.625  1.00  0.00    -0.014 A 
BRANCH  39  40
ATOM     40  C   UNL A   1      37.373  32.339  31.199  1.00  0.00     0.031 A 
ATOM     41  C   UNL A   1      37.872  32.680  32.579  1.00  0.00     0.074 A 
ATOM     42  C   UNL A   1      38.011  31.412  30.459  1.00  0.00     0.049 A 
ATOM     43  N   UNL A   1      38.925  32.236  33.216  1.00  0.00    -0.248 NA
ATOM     44  C   UNL A   1      37.115  33.706  33.319  1.00  0.00     0.031 C 
ATOM     45  C   UNL A   1      37.678  31.042  29.082  1.00  0.00     0.029 A 
ATOM     46  N   UNL A   1      39.088  30.615  30.761  1.00  0.00    -0.354 N 
ATOM     47  C   UNL A   1      38.975  32.956  34.402  1.00  0.00     0.074 A 
ATOM     48  C   UNL A   1      37.896  33.916  34.366  1.00  0.00     0.031 C 
ATOM     49  C   UNL A   1      38.505  30.067  28.673  1.00  0.00     0.029 A 
ATOM     50  C   UNL A   1      39.451  29.767  29.742  1.00  0.00     0.049 A 
ATOM     51  H   UNL A   1      39.556  30.648  31.627  1.00  0.00     0.167 HD
ATOM     52  C   UNL A   1      39.820  32.805  35.448  1.00  0.00     0.037 A 
ATOM     53  C   UNL A   1      40.437  28.850  29.684  1.00  0.00     0.037 A 
ATOM     54  C   UNL A   1      40.844  31.799  35.511  1.00  0.00     0.049 A 
ATOM     55  C   UNL A   1      41.326  28.658  30.884  1.00  0.00     0.074 A 
ATOM     56  C   UNL A   1      41.696  31.499  36.558  1.00  0.00     0.029 A 
ATOM     57  N   UNL A   1      41.140  30.917  34.483  1.00  0.00    -0.354 N 
ATOM     58  N   UNL A   1      41.319  29.296  32.029  1.00  0.00    -0.248 NA
ATOM     59  C   UNL A   1      42.356  27.614  30.784  1.00  0.00     0.031 C 
ATOM     60  C   UNL A   1      42.531  30.452  36.151  1.00  0.00     0.029 A 
ATOM     61  C   UNL A   1      42.169  30.074  34.867  1.00  0.00     0.049 A 
ATOM     62  H   UNL A   1      40.686  30.892  33.610  1.00  0.00     0.167 HD
ATOM     63  C   UNL A   1      42.319  28.713  32.796  1.00  0.00     0.074 A 
ATOM     64  C   UNL A   1      42.904  27.662  31.990  1.00  0.00     0.031 C 
ATOM     65  C   UNL A   1      42.722  29.023  34.052  1.00  0.00     0.037 A 
BRANCH  52  66
ATOM     66  C   UNL A   1      39.650  33.735  36.614  1.00  0.00     0.064 A 
ATOM     67  C   UNL A   1      38.864  33.387  37.725  1.00  0.00     0.173 A 
ATOM     68  C   UNL A   1      40.285  34.986  36.627  1.00  0.00     0.173 A 
ATOM     69  F   UNL A   1      38.222  32.209  37.754  1.00  0.00    -0.203 F 
ATOM     70  C   UNL A   1      38.688  34.271  38.784  1.00  0.00     0.198 A 
ATOM     71  C   UNL A   1      40.135  35.853  37.705  1.00  0.00     0.198 A 
ATOM     72  F   UNL A   1      41.050  35.367  35.594  1.00  0.00    -0.203 F 
ATOM     73  F   UNL A   1      37.881  33.942  39.802  1.00  0.00    -0.200 F 
ATOM     74  C   UNL A   1      39.328  35.501  38.777  1.00  0.00     0.200 A 
ATOM     75  F   UNL A   1      40.762  37.038  37.703  1.00  0.00    -0.200 F 
ATOM     76  F   UNL A   1      39.159  36.351  39.799  1.00  0.00    -0.200 F 
ENDBRANCH  52  66
BRANCH  53  77
ATOM     77  C   UNL A   1      40.604  28.010  28.469  1.00  0.00     0.064 A 
ATOM     78  C   UNL A   1      41.385  28.456  27.393  1.00  0.00     0.173 A 
ATOM     79  C   UNL A   1      39.990  26.755  28.352  1.00  0.00     0.173 A 
ATOM     80  F   UNL A   1      41.976  29.659  27.449  1.00  0.00    -0.203 F 
ATOM     81  C   UNL A   1      41.527  27.689  26.239  1.00  0.00     0.198 A 
ATOM     82  C   UNL A   1      40.153  25.978  27.207  1.00  0.00     0.198 A 
ATOM     83  F   UNL A   1      39.238  26.280  29.356  1.00  0.00    -0.203 F 
ATOM     84  F   UNL A   1      42.243  28.161  25.208  1.00  0.00    -0.200 F 
ATOM     85  C   UNL A   1      40.915  26.449  26.148  1.00  0.00     0.200 A 
ATOM     86  F   UNL A   1      39.573  24.773  27.128  1.00  0.00    -0.200 F 
ATOM     87  F   UNL A   1      41.054  25.710  25.038  1.00  0.00    -0.200 F 
ENDBRANCH  53  77
BRANCH  65  88
ATOM     88  C   UNL A   1      43.819  28.192  34.648  1.00  0.00     0.064 A 
ATOM     89  C   UNL A   1      43.546  26.997  35.328  1.00  0.00     0.173 A 
ATOM     90  C   UNL A   1      45.160  28.571  34.488  1.00  0.00     0.173 A 
ATOM     91  F   UNL A   1      42.278  26.603  35.517  1.00  0.00    -0.203 F 
ATOM     92  C   UNL A   1      44.578  26.221  35.847  1.00  0.00     0.198 A 
ATOM     93  C   UNL A   1      46.190  27.778  34.984  1.00  0.00     0.198 A 
ATOM     94  F   UNL A   1      45.471  29.702  33.837  1.00  0.00    -0.203 F 
ATOM     95  F   UNL A   1      44.294  25.104  36.531  1.00  0.00    -0.200 F 
ATOM     96  C   UNL A   1      45.899  26.608  35.668  1.00  0.00     0.200 A 
ATOM     97  F   UNL A   1      47.465  28.145  34.798  1.00  0.00    -0.200 F 
ATOM     98  F   UNL A   1      46.891  25.853  36.160  1.00  0.00    -0.200 F 
ENDBRANCH  65  88
ENDBRANCH  39  40
ENDBRANCH  31  34
ENDBRANCH  29  30
ENDBRANCH  28  29
ENDBRANCH  27  28
ENDBRANCH   3  27
TORSDOF 16
ENDMDL
MODEL 3
REMARK VINA RESULT:     -12.2      4.576     11.802
REMARK SMILES Cc1ccc(Oc2ccc(NC(=O)CCCC(=O)NCCCNC(=O)c3ccc(-c4c5nc(c(-c6c(F)c(F)c(F)c(F)c6F)c6ccc([nH]6)c(-c6c(F)c(F)c(F)c(F)c6F)c6nc(c(-c7c(F)c(F)c(F)c(F)c7F)c7ccc4[nH]7)C=C6)C=C5)cc3)cc2)cc1C
REMARK SMILES IDX 17 1 18 2 19 3 16 5 15 6 14 7 12 8 11 9 13 11 10 12 7 13
REMARK SMILES IDX 8 14 90 15 9 16 89 17 6 18 5 19 1 20 2 21 3 22 92 23 4 24
REMARK SMILES IDX 91 25 93 26 20 27 21 28 22 29 23 30 24 31 25 33 26 34 27 35
REMARK SMILES IDX 88 36 28 37 87 38 29 39 30 40 31 41 81 42 32 43 86 44 80 45
REMARK SMILES IDX 82 46 33 47 85 48 79 49 78 50 34 52 66 53 46 54 65 55 47 56
REMARK SMILES IDX 50 57 64 58 83 59 48 60 49 61 63 63 84 64 51 65 35 66 36 67
REMARK SMILES IDX 44 68 37 69 38 70 42 71 45 72 39 73 40 74 43 75 41 76 67 77
REMARK SMILES IDX 68 78 76 79 69 80 70 81 74 82 77 83 71 84 72 85 75 86 73 87
REMARK SMILES IDX 52 88 53 89 61 90 54 91 55 92 59 93 62 94 56 95 57 96 60 97
REMARK SMILES IDX 58 98
REMARK H PARENT 19 4 11 10 23 32 82 51 50 62
REMARK Flexibility Score: inf
ROOT
ATOM      1  C   UNL A   1      34.638  33.435  31.573  1.00  0.00     0.220 C 
ATOM      2  O   UNL A   1      34.125  32.740  32.463  1.00  0.00    -0.275 OA
ATOM      3  N   UNL A   1      33.804  33.713  30.546  1.00  0.00    -0.356 N 
ATOM      4  H   UNL A   1      32.927  33.288  30.680  1.00  0.00     0.163 HD
ENDROOT
BRANCH   1   5
ATOM      5  C   UNL A   1      36.052  33.970  31.800  1.00  0.00     0.100 C 
BRANCH   5   6
ATOM      6  C   UNL A   1      37.308  33.148  31.531  1.00  0.00     0.020 C 
BRANCH   6   7
ATOM      7  C   UNL A   1      37.539  31.767  32.134  1.00  0.00     0.101 C 
BRANCH   7   8
ATOM      8  C   UNL A   1      37.750  31.535  33.630  1.00  0.00     0.224 C 
ATOM      9  N   UNL A   1      38.690  30.795  34.269  1.00  0.00    -0.326 N 
ATOM     10  H   UNL A   1      38.539  30.817  35.241  1.00  0.00     0.169 HD
ATOM     11  O   UNL A   1      36.911  32.040  34.397  1.00  0.00    -0.275 OA
BRANCH   9  12
ATOM     12  C   UNL A   1      39.812  30.010  33.967  1.00  0.00     0.041 A 
ATOM     13  C   UNL A   1      42.173  28.622  33.281  1.00  0.00     0.127 A 
ATOM     14  C   UNL A   1      40.953  28.204  32.783  1.00  0.00     0.049 A 
ATOM     15  C   UNL A   1      42.227  29.704  34.155  1.00  0.00     0.049 A 
ATOM     16  C   UNL A   1      39.802  28.905  33.144  1.00  0.00     0.030 A 
ATOM     17  C   UNL A   1      41.047  30.380  34.511  1.00  0.00     0.030 A 
BRANCH  13  18
ATOM     18  O   UNL A   1      43.326  28.094  32.771  1.00  0.00    -0.457 OA
BRANCH  18  19
ATOM     19  C   UNL A   1      43.784  26.894  33.264  1.00  0.00     0.127 A 
ATOM     20  C   UNL A   1      45.778  23.197  34.231  1.00  0.00     0.044 C 
ATOM     21  C   UNL A   1      44.999  24.438  33.896  1.00  0.00    -0.048 A 
ATOM     22  C   UNL A   1      44.947  25.485  34.834  1.00  0.00     0.007 A 
ATOM     23  C   UNL A   1      44.371  24.604  32.648  1.00  0.00    -0.045 A 
ATOM     24  C   UNL A   1      44.343  26.706  34.523  1.00  0.00     0.047 A 
ATOM     25  C   UNL A   1      43.765  25.836  32.351  1.00  0.00     0.050 A 
ATOM     26  C   UNL A   1      44.294  23.512  31.615  1.00  0.00     0.045 C 
ENDBRANCH  18  19
ENDBRANCH  13  18
ENDBRANCH   9  12
ENDBRANCH   7   8
ENDBRANCH   6   7
ENDBRANCH   5   6
ENDBRANCH   1   5
BRANCH   3  27
ATOM     27  C   UNL A   1      33.833  34.462  29.298  1.00  0.00     0.117 C 
BRANCH  27  28
ATOM     28  C   UNL A   1      33.681  33.550  28.096  1.00  0.00     0.042 C 
BRANCH  28  29
ATOM     29  C   UNL A   1      34.675  32.411  28.155  1.00  0.00     0.118 C 
BRANCH  29  30
ATOM     30  N   UNL A   1      34.077  31.107  27.875  1.00  0.00    -0.352 N 
ATOM     31  C   UNL A   1      34.706  29.880  27.887  1.00  0.00     0.251 C 
ATOM     32  H   UNL A   1      33.117  31.105  27.652  1.00  0.00     0.163 HD
ATOM     33  O   UNL A   1      34.128  28.861  27.527  1.00  0.00    -0.269 OA
BRANCH  31  34
ATOM     34  C   UNL A   1      36.123  29.836  28.300  1.00  0.00     0.039 A 
ATOM     35  C   UNL A   1      36.459  29.328  29.556  1.00  0.00     0.014 A 
ATOM     36  C   UNL A   1      37.114  30.146  27.368  1.00  0.00     0.014 A 
ATOM     37  C   UNL A   1      37.794  29.038  29.838  1.00  0.00     0.010 A 
ATOM     38  C   UNL A   1      38.416  29.733  27.602  1.00  0.00     0.010 A 
ATOM     39  C   UNL A   1      38.775  29.186  28.843  1.00  0.00    -0.014 A 
BRANCH  39  40
ATOM     40  C   UNL A   1      40.194  28.805  29.071  1.00  0.00     0.031 A 
ATOM     41  C   UNL A   1      41.120  29.785  29.742  1.00  0.00     0.074 A 
ATOM     42  C   UNL A   1      40.671  27.639  28.595  1.00  0.00     0.049 A 
ATOM     43  N   UNL A   1      42.415  29.720  29.916  1.00  0.00    -0.248 NA
ATOM     44  C   UNL A   1      40.514  31.036  30.233  1.00  0.00     0.031 C 
ATOM     45  C   UNL A   1      39.898  26.637  27.858  1.00  0.00     0.029 A 
ATOM     46  N   UNL A   1      41.934  27.103  28.651  1.00  0.00    -0.354 N 
ATOM     47  C   UNL A   1      42.776  30.930  30.492  1.00  0.00     0.074 A 
ATOM     48  C   UNL A   1      41.581  31.740  30.571  1.00  0.00     0.031 C 
ATOM     49  C   UNL A   1      40.691  25.594  27.566  1.00  0.00     0.029 A 
ATOM     50  C   UNL A   1      42.037  25.866  28.059  1.00  0.00     0.049 A 
ATOM     51  H   UNL A   1      42.695  27.560  29.076  1.00  0.00     0.167 HD
ATOM     52  C   UNL A   1      43.987  31.320  30.953  1.00  0.00     0.037 A 
ATOM     53  C   UNL A   1      43.099  25.047  27.935  1.00  0.00     0.037 A 
ATOM     54  C   UNL A   1      45.154  30.484  30.941  1.00  0.00     0.049 A 
ATOM     55  C   UNL A   1      44.423  25.478  28.510  1.00  0.00     0.074 A 
ATOM     56  C   UNL A   1      46.409  30.744  31.463  1.00  0.00     0.029 A 
ATOM     57  N   UNL A   1      45.203  29.212  30.390  1.00  0.00    -0.354 N 
ATOM     58  N   UNL A   1      44.736  26.596  29.118  1.00  0.00    -0.248 NA
ATOM     59  C   UNL A   1      45.538  24.528  28.387  1.00  0.00     0.031 C 
ATOM     60  C   UNL A   1      47.226  29.639  31.200  1.00  0.00     0.029 A 
ATOM     61  C   UNL A   1      46.469  28.676  30.552  1.00  0.00     0.049 A 
ATOM     62  H   UNL A   1      44.448  28.758  29.949  1.00  0.00     0.167 HD
ATOM     63  C   UNL A   1      46.072  26.474  29.475  1.00  0.00     0.074 A 
ATOM     64  C   UNL A   1      46.507  25.167  29.027  1.00  0.00     0.031 C 
ATOM     65  C   UNL A   1      46.870  27.365  30.112  1.00  0.00     0.037 A 
BRANCH  52  66
ATOM     66  C   UNL A   1      44.095  32.701  31.530  1.00  0.00     0.064 A 
ATOM     67  C   UNL A   1      44.163  33.839  30.709  1.00  0.00     0.173 A 
ATOM     68  C   UNL A   1      44.122  32.895  32.919  1.00  0.00     0.173 A 
ATOM     69  F   UNL A   1      44.158  33.708  29.374  1.00  0.00    -0.203 F 
ATOM     70  C   UNL A   1      44.296  35.111  31.255  1.00  0.00     0.198 A 
ATOM     71  C   UNL A   1      44.219  34.173  33.463  1.00  0.00     0.198 A 
ATOM     72  F   UNL A   1      44.055  31.843  33.750  1.00  0.00    -0.203 F 
ATOM     73  F   UNL A   1      44.425  36.174  30.450  1.00  0.00    -0.200 F 
ATOM     74  C   UNL A   1      44.317  35.278  32.631  1.00  0.00     0.200 A 
ATOM     75  F   UNL A   1      44.229  34.335  34.793  1.00  0.00    -0.200 F 
ATOM     76  F   UNL A   1      44.443  36.505  33.157  1.00  0.00    -0.200 F 
ENDBRANCH  52  66
BRANCH  53  77
ATOM     77  C   UNL A   1      42.947  23.720  27.284  1.00  0.00     0.064 A 
ATOM     78  C   UNL A   1      43.383  23.515  25.967  1.00  0.00     0.173 A 
ATOM     79  C   UNL A   1      42.363  22.635  27.953  1.00  0.00     0.173 A 
ATOM     80  F   UNL A   1      43.930  24.527  25.278  1.00  0.00    -0.203 F 
ATOM     81  C   UNL A   1      43.220  22.283  25.337  1.00  0.00     0.198 A 
ATOM     82  C   UNL A   1      42.224  21.396  27.331  1.00  0.00     0.198 A 
ATOM     83  F   UNL A   1      41.935  22.777  29.216  1.00  0.00    -0.203 F 
ATOM     84  F   UNL A   1      43.606  22.128  24.062  1.00  0.00    -0.200 F 
ATOM     85  C   UNL A   1      42.645  21.223  26.021  1.00  0.00     0.200 A 
ATOM     86  F   UNL A   1      41.680  20.370  27.999  1.00  0.00    -0.200 F 
ATOM     87  F   UNL A   1      42.491  20.037  25.415  1.00  0.00    -0.200 F 
ENDBRANCH  53  77
BRANCH  65  88
ATOM     88  C   UNL A   1      48.281  26.943  30.399  1.00  0.00     0.064 A 
ATOM     89  C   UNL A   1      49.330  27.248  29.521  1.00  0.00     0.173 A 
ATOM     90  C   UNL A   1      48.590  26.273  31.592  1.00  0.00     0.173 A 
ATOM     91  F   UNL A   1      49.080  27.875  28.362  1.00  0.00    -0.203 F 
ATOM     92  C   UNL A   1      50.639  26.877  29.819  1.00  0.00     0.198 A 
ATOM     93  C   UNL A   1      49.903  25.929  31.898  1.00  0.00     0.198 A 
ATOM     94  F   UNL A   1      47.620  25.967  32.467  1.00  0.00    -0.203 F 
ATOM     95  F   UNL A   1      51.622  27.141  28.947  1.00  0.00    -0.200 F 
ATOM     96  C   UNL A   1      50.924  26.226  31.010  1.00  0.00     0.200 A 
ATOM     97  F   UNL A   1      50.179  25.313  33.055  1.00  0.00    -0.200 F 
ATOM     98  F   UNL A   1      52.187  25.879  31.298  1.00  0.00    -0.200 F 
ENDBRANCH  65  88
ENDBRANCH  39  40
ENDBRANCH  31  34
ENDBRANCH  29  30
ENDBRANCH  28  29
ENDBRANCH  27  28
ENDBRANCH   3  27
TORSDOF 16
ENDMDL
