MODEL 1
REMARK VINA RESULT:     -13.8      0.000      0.000
REMARK SMILES C[C@H](NS(=O)(=O)c1ccc(-c2cc(-c3ccccc3)c3cc([N+](=O)[O-])ccc3n2)cc1)C(=O)NCCCNC(=O)c1ccc(-c2c3nc(c(-c4c(F)c(F)c(F)c(F)c4F)c4ccc([nH]4)c(-c4c(F)c(F)c(F)c(F)c4F)c4nc(c(-c5c(F)c(F)c(F)c(F)c5F)c5ccc2[nH]5)C=C4)C=C3)cc1
REMARK SMILES IDX 32 1 33 2 34 3 2 5 1 6 3 7 4 9 5 10 6 11 7 12 8 13 31 14
REMARK SMILES IDX 9 15 30 16 10 17 11 18 12 19 29 20 13 21 28 22 20 23 27 24
REMARK SMILES IDX 21 25 26 26 22 27 14 28 15 29 19 30 16 31 18 32 17 33 23 34
REMARK SMILES IDX 24 35 25 36 35 37 36 38 37 39 38 40 39 41 40 43 41 44 42 45
REMARK SMILES IDX 103 46 43 47 102 48 44 49 45 50 46 51 96 52 47 53 101 54
REMARK SMILES IDX 95 55 97 56 48 57 100 58 94 59 93 60 49 62 81 63 61 64 80 65
REMARK SMILES IDX 62 66 65 67 79 68 98 69 63 70 64 71 78 73 99 74 66 75 50 76
REMARK SMILES IDX 51 77 59 78 52 79 53 80 57 81 60 82 54 83 55 84 58 85 56 86
REMARK SMILES IDX 82 87 83 88 91 89 84 90 85 91 89 92 92 93 86 94 87 95 90 96
REMARK SMILES IDX 88 97 67 98 68 99 76 100 69 101 70 102 74 103 77 104 71 105
REMARK SMILES IDX 72 106 75 107 73 108
REMARK H PARENT 34 4 3 8 38 42 97 61 65 72
REMARK Flexibility Score: inf
ROOT
ATOM      1  C   UNL A   1      33.352  29.392  25.428  1.00  0.00     0.237 C 
ATOM      2  O   UNL A   1      34.355  28.903  25.961  1.00  0.00    -0.273 OA
ATOM      3  N   UNL A   1      32.778  30.453  26.066  1.00  0.00    -0.355 N 
ATOM      4  H   UNL A   1      33.399  31.063  26.526  1.00  0.00     0.163 HD
ENDROOT
BRANCH   1   5
ATOM      5  C   UNL A   1      32.907  28.911  24.046  1.00  0.00     0.155 C 
ATOM      6  C   UNL A   1      33.988  28.966  22.979  1.00  0.00     0.036 C 
BRANCH   5   7
ATOM      7  N   UNL A   1      31.546  29.120  23.507  1.00  0.00    -0.199 NA
ATOM      8  H   UNL A   1      31.687  29.575  22.604  1.00  0.00     0.142 HD
BRANCH   7   9
ATOM      9  S   UNL A   1      30.393  27.946  23.222  1.00  0.00     0.241 S 
ATOM     10  O   UNL A   1      29.137  28.647  23.206  1.00  0.00    -0.207 OA
ATOM     11  O   UNL A   1      30.827  27.148  22.089  1.00  0.00    -0.207 OA
BRANCH   9  12
ATOM     12  C   UNL A   1      30.339  26.869  24.646  1.00  0.00     0.082 A 
ATOM     13  C   UNL A   1      30.939  27.204  25.856  1.00  0.00     0.022 A 
ATOM     14  C   UNL A   1      29.850  25.575  24.461  1.00  0.00     0.022 A 
ATOM     15  C   UNL A   1      31.362  26.183  26.725  1.00  0.00     0.012 A 
ATOM     16  C   UNL A   1      30.166  24.577  25.392  1.00  0.00     0.012 A 
ATOM     17  C   UNL A   1      31.121  24.835  26.411  1.00  0.00     0.000 A 
BRANCH  17  18
ATOM     18  C   UNL A   1      32.270  23.855  26.499  1.00  0.00     0.072 A 
ATOM     19  C   UNL A   1      32.193  22.514  26.127  1.00  0.00     0.038 A 
ATOM     20  N   UNL A   1      33.370  24.552  26.130  1.00  0.00    -0.248 NA
ATOM     21  C   UNL A   1      32.989  22.106  25.047  1.00  0.00    -0.007 A 
ATOM     22  C   UNL A   1      33.720  24.355  24.868  1.00  0.00     0.072 A 
ATOM     23  C   UNL A   1      33.452  23.149  24.229  1.00  0.00     0.015 A 
ATOM     24  C   UNL A   1      34.079  25.451  24.124  1.00  0.00     0.036 A 
ATOM     25  C   UNL A   1      33.461  23.083  22.821  1.00  0.00     0.096 A 
ATOM     26  C   UNL A   1      33.993  25.442  22.736  1.00  0.00     0.088 A 
ATOM     27  C   UNL A   1      33.633  24.261  22.096  1.00  0.00     0.270 A 
BRANCH  21  28
ATOM     28  C   UNL A   1      33.365  20.729  24.685  1.00  0.00    -0.018 A 
ATOM     29  C   UNL A   1      32.329  19.874  24.231  1.00  0.00     0.009 A 
ATOM     30  C   UNL A   1      34.636  20.182  24.849  1.00  0.00     0.009 A 
ATOM     31  C   UNL A   1      32.528  18.512  24.029  1.00  0.00     0.001 A 
ATOM     32  C   UNL A   1      34.842  18.810  24.631  1.00  0.00     0.001 A 
ATOM     33  C   UNL A   1      33.788  17.977  24.243  1.00  0.00     0.000 A 
ENDBRANCH  21  28
BRANCH  27  34
ATOM     34  N   UNL A   1      33.265  24.294  20.687  1.00  0.00     0.062 N 
ATOM     35  O   UNL A   1      33.279  23.228  20.060  1.00  0.00    -0.258 OA
ATOM     36  O   UNL A   1      32.928  25.390  20.216  1.00  0.00    -0.258 OA
ENDBRANCH  27  34
ENDBRANCH  17  18
ENDBRANCH   9  12
ENDBRANCH   7   9
ENDBRANCH   5   7
ENDBRANCH   1   5
BRANCH   3  37
ATOM     37  C   UNL A   1      31.370  30.797  26.155  1.00  0.00     0.117 C 
BRANCH  37  38
ATOM     38  C   UNL A   1      31.236  32.289  26.501  1.00  0.00     0.042 C 
BRANCH  38  39
ATOM     39  C   UNL A   1      32.526  32.973  26.952  1.00  0.00     0.118 C 
BRANCH  39  40
ATOM     40  N   UNL A   1      32.350  34.251  27.635  1.00  0.00    -0.352 N 
ATOM     41  C   UNL A   1      32.995  34.903  28.662  1.00  0.00     0.251 C 
ATOM     42  H   UNL A   1      31.592  34.768  27.277  1.00  0.00     0.163 HD
ATOM     43  O   UNL A   1      32.547  36.001  28.999  1.00  0.00    -0.269 OA
BRANCH  41  44
ATOM     44  C   UNL A   1      34.150  34.353  29.429  1.00  0.00     0.039 A 
ATOM     45  C   UNL A   1      35.443  34.577  28.913  1.00  0.00     0.014 A 
ATOM     46  C   UNL A   1      34.030  33.585  30.582  1.00  0.00     0.014 A 
ATOM     47  C   UNL A   1      36.585  34.096  29.571  1.00  0.00     0.010 A 
ATOM     48  C   UNL A   1      35.168  33.157  31.277  1.00  0.00     0.010 A 
ATOM     49  C   UNL A   1      36.456  33.388  30.771  1.00  0.00    -0.014 A 
BRANCH  49  50
ATOM     50  C   UNL A   1      37.623  32.772  31.463  1.00  0.00     0.031 A 
ATOM     51  C   UNL A   1      38.333  31.620  30.815  1.00  0.00     0.074 A 
ATOM     52  C   UNL A   1      38.004  33.173  32.689  1.00  0.00     0.049 A 
ATOM     53  N   UNL A   1      39.254  30.829  31.303  1.00  0.00    -0.248 NA
ATOM     54  C   UNL A   1      37.925  31.293  29.439  1.00  0.00     0.031 C 
ATOM     55  C   UNL A   1      37.392  34.262  33.434  1.00  0.00     0.029 A 
ATOM     56  N   UNL A   1      38.974  32.701  33.539  1.00  0.00    -0.354 N 
ATOM     57  C   UNL A   1      39.511  29.894  30.312  1.00  0.00     0.074 A 
ATOM     58  C   UNL A   1      38.621  30.190  29.209  1.00  0.00     0.031 C 
ATOM     59  C   UNL A   1      37.988  34.385  34.630  1.00  0.00     0.029 A 
ATOM     60  C   UNL A   1      39.007  33.350  34.751  1.00  0.00     0.049 A 
ATOM     61  H   UNL A   1      39.587  31.967  33.303  1.00  0.00     0.167 HD
ATOM     62  C   UNL A   1      40.418  28.890  30.315  1.00  0.00     0.037 A 
ATOM     63  C   UNL A   1      39.760  33.124  35.845  1.00  0.00     0.037 A 
ATOM     64  C   UNL A   1      41.327  28.620  31.397  1.00  0.00     0.049 A 
ATOM     65  C   UNL A   1      40.766  32.008  35.820  1.00  0.00     0.074 A 
ATOM     66  C   UNL A   1      42.315  27.654  31.475  1.00  0.00     0.029 A 
ATOM     67  N   UNL A   1      41.363  29.326  32.591  1.00  0.00    -0.354 N 
ATOM     68  N   UNL A   1      41.023  31.149  34.865  1.00  0.00    -0.248 NA
ATOM     69  C   UNL A   1      41.595  31.837  37.021  1.00  0.00     0.031 C 
ATOM     70  C   UNL A   1      42.931  27.757  32.727  1.00  0.00     0.029 A 
ATOM     71  C   UNL A   1      42.353  28.813  33.414  1.00  0.00     0.049 A 
ATOM     72  H   UNL A   1      40.772  30.079  32.820  1.00  0.00     0.167 HD
ATOM     73  C   UNL A   1      42.060  30.355  35.334  1.00  0.00     0.074 A 
ATOM     74  C   UNL A   1      42.392  30.843  36.657  1.00  0.00     0.031 C 
ATOM     75  C   UNL A   1      42.679  29.318  34.723  1.00  0.00     0.037 A 
BRANCH  62  76
ATOM     76  C   UNL A   1      40.465  28.009  29.103  1.00  0.00     0.064 A 
ATOM     77  C   UNL A   1      41.276  28.317  28.000  1.00  0.00     0.173 A 
ATOM     78  C   UNL A   1      39.695  26.837  29.046  1.00  0.00     0.173 A 
ATOM     79  F   UNL A   1      42.015  29.436  27.999  1.00  0.00    -0.203 F 
ATOM     80  C   UNL A   1      41.289  27.503  26.873  1.00  0.00     0.198 A 
ATOM     81  C   UNL A   1      39.734  26.010  27.927  1.00  0.00     0.198 A 
ATOM     82  F   UNL A   1      38.902  26.497  30.073  1.00  0.00    -0.203 F 
ATOM     83  F   UNL A   1      42.029  27.848  25.809  1.00  0.00    -0.200 F 
ATOM     84  C   UNL A   1      40.525  26.347  26.839  1.00  0.00     0.200 A 
ATOM     85  F   UNL A   1      39.000  24.889  27.899  1.00  0.00    -0.200 F 
ATOM     86  F   UNL A   1      40.539  25.563  25.752  1.00  0.00    -0.200 F 
ENDBRANCH  62  76
BRANCH  63  87
ATOM     87  C   UNL A   1      39.607  33.983  37.047  1.00  0.00     0.064 A 
ATOM     88  C   UNL A   1      38.792  33.583  38.114  1.00  0.00     0.173 A 
ATOM     89  C   UNL A   1      40.259  35.221  37.151  1.00  0.00     0.173 A 
ATOM     90  F   UNL A   1      38.125  32.421  38.047  1.00  0.00    -0.203 F 
ATOM     91  C   UNL A   1      38.618  34.396  39.233  1.00  0.00     0.198 A 
ATOM     92  C   UNL A   1      40.104  36.021  38.281  1.00  0.00     0.198 A 
ATOM     93  F   UNL A   1      41.046  35.652  36.155  1.00  0.00    -0.203 F 
ATOM     94  F   UNL A   1      37.795  34.010  40.217  1.00  0.00    -0.200 F 
ATOM     95  C   UNL A   1      39.278  35.613  39.318  1.00  0.00     0.200 A 
ATOM     96  F   UNL A   1      40.746  37.195  38.363  1.00  0.00    -0.200 F 
ATOM     97  F   UNL A   1      39.109  36.394  40.392  1.00  0.00    -0.200 F 
ENDBRANCH  63  87
BRANCH  75  98
ATOM     98  C   UNL A   1      43.813  28.671  35.461  1.00  0.00     0.064 A 
ATOM     99  C   UNL A   1      45.139  29.094  35.291  1.00  0.00     0.173 A 
ATOM    100  C   UNL A   1      43.564  27.628  36.366  1.00  0.00     0.173 A 
ATOM    101  F   UNL A   1      45.429  30.076  34.424  1.00  0.00    -0.203 F 
ATOM    102  C   UNL A   1      46.179  28.477  35.981  1.00  0.00     0.198 A 
ATOM    103  C   UNL A   1      44.603  27.032  37.074  1.00  0.00     0.198 A 
ATOM    104  F   UNL A   1      42.311  27.191  36.566  1.00  0.00    -0.203 F 
ATOM    105  F   UNL A   1      47.445  28.863  35.770  1.00  0.00    -0.200 F 
ATOM    106  C   UNL A   1      45.909  27.451  36.876  1.00  0.00     0.200 A 
ATOM    107  F   UNL A   1      44.339  26.049  37.946  1.00  0.00    -0.200 F 
ATOM    108  F   UNL A   1      46.912  26.860  37.541  1.00  0.00    -0.200 F 
ENDBRANCH  75  98
ENDBRANCH  49  50
ENDBRANCH  41  44
ENDBRANCH  39  40
ENDBRANCH  38  39
ENDBRANCH  37  38
ENDBRANCH   3  37
TORSDOF 16
ENDMDL
MODEL 2
REMARK VINA RESULT:     -13.5      1.546      2.665
REMARK SMILES C[C@H](NS(=O)(=O)c1ccc(-c2cc(-c3ccccc3)c3cc([N+](=O)[O-])ccc3n2)cc1)C(=O)NCCCNC(=O)c1ccc(-c2c3nc(c(-c4c(F)c(F)c(F)c(F)c4F)c4ccc([nH]4)c(-c4c(F)c(F)c(F)c(F)c4F)c4nc(c(-c5c(F)c(F)c(F)c(F)c5F)c5ccc2[nH]5)C=C4)C=C3)cc1
REMARK SMILES IDX 32 1 33 2 34 3 2 5 1 6 3 7 4 9 5 10 6 11 7 12 8 13 31 14
REMARK SMILES IDX 9 15 30 16 10 17 11 18 12 19 29 20 13 21 28 22 20 23 27 24
REMARK SMILES IDX 21 25 26 26 22 27 14 28 15 29 19 30 16 31 18 32 17 33 23 34
REMARK SMILES IDX 24 35 25 36 35 37 36 38 37 39 38 40 39 41 40 43 41 44 42 45
REMARK SMILES IDX 103 46 43 47 102 48 44 49 45 50 46 51 96 52 47 53 101 54
REMARK SMILES IDX 95 55 97 56 48 57 100 58 94 59 93 60 49 62 81 63 61 64 80 65
REMARK SMILES IDX 62 66 65 67 79 68 98 69 63 70 64 71 78 73 99 74 66 75 50 76
REMARK SMILES IDX 51 77 59 78 52 79 53 80 57 81 60 82 54 83 55 84 58 85 56 86
REMARK SMILES IDX 82 87 83 88 91 89 84 90 85 91 89 92 92 93 86 94 87 95 90 96
REMARK SMILES IDX 88 97 67 98 68 99 76 100 69 101 70 102 74 103 77 104 71 105
REMARK SMILES IDX 72 106 75 107 73 108
REMARK H PARENT 34 4 3 8 38 42 97 61 65 72
REMARK Flexibility Score: inf
ROOT
ATOM      1  C   UNL A   1      33.816  29.253  26.889  1.00  0.00     0.237 C 
ATOM      2  O   UNL A   1      34.798  29.156  27.634  1.00  0.00    -0.273 OA
ATOM      3  N   UNL A   1      33.119  30.425  26.947  1.00  0.00    -0.355 N 
ATOM      4  H   UNL A   1      33.655  31.234  27.109  1.00  0.00     0.163 HD
ENDROOT
BRANCH   1   5
ATOM      5  C   UNL A   1      33.526  28.162  25.856  1.00  0.00     0.155 C 
ATOM      6  C   UNL A   1      33.687  26.742  26.375  1.00  0.00     0.036 C 
BRANCH   5   7
ATOM      7  N   UNL A   1      33.839  28.295  24.417  1.00  0.00    -0.199 NA
ATOM      8  H   UNL A   1      34.608  27.644  24.253  1.00  0.00     0.142 HD
BRANCH   7   9
ATOM      9  S   UNL A   1      32.791  28.056  23.140  1.00  0.00     0.241 S 
ATOM     10  O   UNL A   1      31.475  28.099  23.718  1.00  0.00    -0.207 OA
ATOM     11  O   UNL A   1      33.173  28.953  22.064  1.00  0.00    -0.207 OA
BRANCH   9  12
ATOM     12  C   UNL A   1      33.016  26.386  22.548  1.00  0.00     0.082 A 
ATOM     13  C   UNL A   1      32.081  25.751  21.735  1.00  0.00     0.022 A 
ATOM     14  C   UNL A   1      34.069  25.644  23.086  1.00  0.00     0.022 A 
ATOM     15  C   UNL A   1      31.991  24.348  21.749  1.00  0.00     0.012 A 
ATOM     16  C   UNL A   1      34.048  24.246  22.993  1.00  0.00     0.012 A 
ATOM     17  C   UNL A   1      32.883  23.584  22.521  1.00  0.00     0.000 A 
BRANCH  17  18
ATOM     18  C   UNL A   1      32.320  22.516  23.431  1.00  0.00     0.072 A 
ATOM     19  C   UNL A   1      32.346  21.150  23.154  1.00  0.00     0.038 A 
ATOM     20  N   UNL A   1      32.624  22.912  24.689  1.00  0.00    -0.248 NA
ATOM     21  C   UNL A   1      33.103  20.341  24.014  1.00  0.00    -0.007 A 
ATOM     22  C   UNL A   1      33.697  22.315  25.185  1.00  0.00     0.072 A 
ATOM     23  C   UNL A   1      34.048  21.029  24.791  1.00  0.00     0.015 A 
ATOM     24  C   UNL A   1      34.607  23.089  25.860  1.00  0.00     0.036 A 
ATOM     25  C   UNL A   1      35.362  20.562  25.004  1.00  0.00     0.096 A 
ATOM     26  C   UNL A   1      35.934  22.696  25.990  1.00  0.00     0.088 A 
ATOM     27  C   UNL A   1      36.312  21.447  25.511  1.00  0.00     0.270 A 
BRANCH  21  28
ATOM     28  C   UNL A   1      33.019  18.878  24.167  1.00  0.00    -0.018 A 
ATOM     29  C   UNL A   1      32.539  18.385  25.407  1.00  0.00     0.009 A 
ATOM     30  C   UNL A   1      33.464  17.952  23.226  1.00  0.00     0.009 A 
ATOM     31  C   UNL A   1      32.580  17.033  25.732  1.00  0.00     0.001 A 
ATOM     32  C   UNL A   1      33.493  16.586  23.547  1.00  0.00     0.001 A 
ATOM     33  C   UNL A   1      33.072  16.131  24.801  1.00  0.00     0.000 A 
ENDBRANCH  21  28
BRANCH  27  34
ATOM     34  N   UNL A   1      37.727  21.129  25.379  1.00  0.00     0.062 N 
ATOM     35  O   UNL A   1      38.031  20.030  24.901  1.00  0.00    -0.258 OA
ATOM     36  O   UNL A   1      38.538  22.001  25.725  1.00  0.00    -0.258 OA
ENDBRANCH  27  34
ENDBRANCH  17  18
ENDBRANCH   9  12
ENDBRANCH   7   9
ENDBRANCH   5   7
ENDBRANCH   1   5
BRANCH   3  37
ATOM     37  C   UNL A   1      31.689  30.632  26.801  1.00  0.00     0.117 C 
BRANCH  37  38
ATOM     38  C   UNL A   1      31.402  32.141  26.726  1.00  0.00     0.042 C 
BRANCH  38  39
ATOM     39  C   UNL A   1      32.625  33.045  26.876  1.00  0.00     0.118 C 
BRANCH  39  40
ATOM     40  N   UNL A   1      32.403  34.276  27.629  1.00  0.00    -0.352 N 
ATOM     41  C   UNL A   1      33.010  34.880  28.707  1.00  0.00     0.251 C 
ATOM     42  H   UNL A   1      31.640  34.795  27.286  1.00  0.00     0.163 HD
ATOM     43  O   UNL A   1      32.529  35.946  29.098  1.00  0.00    -0.269 OA
BRANCH  41  44
ATOM     44  C   UNL A   1      34.162  34.314  29.465  1.00  0.00     0.039 A 
ATOM     45  C   UNL A   1      35.459  34.586  28.984  1.00  0.00     0.014 A 
ATOM     46  C   UNL A   1      34.038  33.486  30.575  1.00  0.00     0.014 A 
ATOM     47  C   UNL A   1      36.599  34.093  29.637  1.00  0.00     0.010 A 
ATOM     48  C   UNL A   1      35.172  33.044  31.268  1.00  0.00     0.010 A 
ATOM     49  C   UNL A   1      36.464  33.323  30.797  1.00  0.00    -0.014 A 
BRANCH  49  50
ATOM     50  C   UNL A   1      37.630  32.694  31.477  1.00  0.00     0.031 A 
ATOM     51  C   UNL A   1      38.319  31.532  30.823  1.00  0.00     0.074 A 
ATOM     52  C   UNL A   1      38.029  33.092  32.699  1.00  0.00     0.049 A 
ATOM     53  N   UNL A   1      39.235  30.731  31.303  1.00  0.00    -0.248 NA
ATOM     54  C   UNL A   1      37.892  31.208  29.453  1.00  0.00     0.031 C 
ATOM     55  C   UNL A   1      37.439  34.189  33.449  1.00  0.00     0.029 A 
ATOM     56  N   UNL A   1      39.003  32.609  33.539  1.00  0.00    -0.354 N 
ATOM     57  C   UNL A   1      39.470  29.791  30.311  1.00  0.00     0.074 A 
ATOM     58  C   UNL A   1      38.572  30.096  29.217  1.00  0.00     0.031 C 
ATOM     59  C   UNL A   1      38.050  34.307  34.637  1.00  0.00     0.029 A 
ATOM     60  C   UNL A   1      39.057  33.260  34.750  1.00  0.00     0.049 A 
ATOM     61  H   UNL A   1      39.604  31.867  33.298  1.00  0.00     0.167 HD
ATOM     62  C   UNL A   1      40.364  28.775  30.306  1.00  0.00     0.037 A 
ATOM     63  C   UNL A   1      39.819  33.026  35.835  1.00  0.00     0.037 A 
ATOM     64  C   UNL A   1      41.281  28.496  31.379  1.00  0.00     0.049 A 
ATOM     65  C   UNL A   1      40.811  31.898  35.802  1.00  0.00     0.074 A 
ATOM     66  C   UNL A   1      42.258  27.518  31.447  1.00  0.00     0.029 A 
ATOM     67  N   UNL A   1      41.339  29.203  32.571  1.00  0.00    -0.354 N 
ATOM     68  N   UNL A   1      41.047  31.034  34.845  1.00  0.00    -0.248 NA
ATOM     69  C   UNL A   1      41.650  31.718  36.994  1.00  0.00     0.031 C 
ATOM     70  C   UNL A   1      42.889  27.615  32.692  1.00  0.00     0.029 A 
ATOM     71  C   UNL A   1      42.332  28.679  33.384  1.00  0.00     0.049 A 
ATOM     72  H   UNL A   1      40.761  29.964  32.805  1.00  0.00     0.167 HD
ATOM     73  C   UNL A   1      42.078  30.228  35.305  1.00  0.00     0.074 A 
ATOM     74  C   UNL A   1      42.431  30.714  36.623  1.00  0.00     0.031 C 
ATOM     75  C   UNL A   1      42.679  29.182  34.688  1.00  0.00     0.037 A 
BRANCH  62  76
ATOM     76  C   UNL A   1      40.387  27.892  29.095  1.00  0.00     0.064 A 
ATOM     77  C   UNL A   1      41.144  28.219  27.960  1.00  0.00     0.173 A 
ATOM     78  C   UNL A   1      39.649  26.699  29.072  1.00  0.00     0.173 A 
ATOM     79  F   UNL A   1      41.851  29.359  27.926  1.00  0.00    -0.203 F 
ATOM     80  C   UNL A   1      41.135  27.402  26.834  1.00  0.00     0.198 A 
ATOM     81  C   UNL A   1      39.667  25.869  27.954  1.00  0.00     0.198 A 
ATOM     82  F   UNL A   1      38.908  26.340  30.131  1.00  0.00    -0.203 F 
ATOM     83  F   UNL A   1      41.821  27.763  25.740  1.00  0.00    -0.200 F 
ATOM     84  C   UNL A   1      40.402  26.225  26.834  1.00  0.00     0.200 A 
ATOM     85  F   UNL A   1      38.964  24.728  27.958  1.00  0.00    -0.200 F 
ATOM     86  F   UNL A   1      40.395  25.438  25.749  1.00  0.00    -0.200 F 
ENDBRANCH  62  76
BRANCH  63  87
ATOM     87  C   UNL A   1      39.690  33.889  37.037  1.00  0.00     0.064 A 
ATOM     88  C   UNL A   1      40.444  35.063  37.160  1.00  0.00     0.173 A 
ATOM     89  C   UNL A   1      38.823  33.556  38.089  1.00  0.00     0.173 A 
ATOM     90  F   UNL A   1      41.308  35.408  36.193  1.00  0.00    -0.203 F 
ATOM     91  C   UNL A   1      40.352  35.864  38.297  1.00  0.00     0.198 A 
ATOM     92  C   UNL A   1      38.713  34.371  39.214  1.00  0.00     0.198 A 
ATOM     93  F   UNL A   1      38.083  32.440  38.023  1.00  0.00    -0.203 F 
ATOM     94  F   UNL A   1      41.120  36.956  38.409  1.00  0.00    -0.200 F 
ATOM     95  C   UNL A   1      39.483  35.520  39.322  1.00  0.00     0.200 A 
ATOM     96  F   UNL A   1      37.870  34.038  40.202  1.00  0.00    -0.200 F 
ATOM     97  F   UNL A   1      39.397  36.288  40.415  1.00  0.00    -0.200 F 
ENDBRANCH  63  87
BRANCH  75  98
ATOM     98  C   UNL A   1      43.813  28.523  35.415  1.00  0.00     0.064 A 
ATOM     99  C   UNL A   1      43.601  27.449  36.292  1.00  0.00     0.173 A 
ATOM    100  C   UNL A   1      45.131  28.960  35.213  1.00  0.00     0.173 A 
ATOM    101  F   UNL A   1      42.357  27.007  36.529  1.00  0.00    -0.203 F 
ATOM    102  C   UNL A   1      44.666  26.853  36.961  1.00  0.00     0.198 A 
ATOM    103  C   UNL A   1      46.196  28.344  35.863  1.00  0.00     0.198 A 
ATOM    104  F   UNL A   1      45.385  29.981  34.380  1.00  0.00    -0.203 F 
ATOM    105  F   UNL A   1      44.438  25.860  37.831  1.00  0.00    -0.200 F 
ATOM    106  C   UNL A   1      45.962  27.298  36.742  1.00  0.00     0.200 A 
ATOM    107  F   UNL A   1      47.448  28.767  35.643  1.00  0.00    -0.200 F 
ATOM    108  F   UNL A   1      46.987  26.722  37.387  1.00  0.00    -0.200 F 
ENDBRANCH  75  98
ENDBRANCH  49  50
ENDBRANCH  41  44
ENDBRANCH  39  40
ENDBRANCH  38  39
ENDBRANCH  37  38
ENDBRANCH   3  37
TORSDOF 16
ENDMDL
MODEL 3
REMARK VINA RESULT:     -13.5      5.230      9.933
REMARK SMILES C[C@H](NS(=O)(=O)c1ccc(-c2cc(-c3ccccc3)c3cc([N+](=O)[O-])ccc3n2)cc1)C(=O)NCCCNC(=O)c1ccc(-c2c3nc(c(-c4c(F)c(F)c(F)c(F)c4F)c4ccc([nH]4)c(-c4c(F)c(F)c(F)c(F)c4F)c4nc(c(-c5c(F)c(F)c(F)c(F)c5F)c5ccc2[nH]5)C=C4)C=C3)cc1
REMARK SMILES IDX 32 1 33 2 34 3 2 5 1 6 3 7 4 9 5 10 6 11 7 12 8 13 31 14
REMARK SMILES IDX 9 15 30 16 10 17 11 18 12 19 29 20 13 21 28 22 20 23 27 24
REMARK SMILES IDX 21 25 26 26 22 27 14 28 15 29 19 30 16 31 18 32 17 33 23 34
REMARK SMILES IDX 24 35 25 36 35 37 36 38 37 39 38 40 39 41 40 43 41 44 42 45
REMARK SMILES IDX 103 46 43 47 102 48 44 49 45 50 46 51 96 52 47 53 101 54
REMARK SMILES IDX 95 55 97 56 48 57 100 58 94 59 93 60 49 62 81 63 61 64 80 65
REMARK SMILES IDX 62 66 65 67 79 68 98 69 63 70 64 71 78 73 99 74 66 75 50 76
REMARK SMILES IDX 51 77 59 78 52 79 53 80 57 81 60 82 54 83 55 84 58 85 56 86
REMARK SMILES IDX 82 87 83 88 91 89 84 90 85 91 89 92 92 93 86 94 87 95 90 96
REMARK SMILES IDX 88 97 67 98 68 99 76 100 69 101 70 102 74 103 77 104 71 105
REMARK SMILES IDX 72 106 75 107 73 108
REMARK H PARENT 34 4 3 8 38 42 97 61 65 72
REMARK Flexibility Score: inf
ROOT
ATOM      1  C   UNL A   1      35.809  20.289  24.998  1.00  0.00     0.237 C 
ATOM      2  O   UNL A   1      35.650  19.119  24.632  1.00  0.00    -0.273 OA
ATOM      3  N   UNL A   1      37.048  20.827  24.801  1.00  0.00    -0.355 N 
ATOM      4  H   UNL A   1      37.519  20.530  23.990  1.00  0.00     0.163 HD
ENDROOT
BRANCH   1   5
ATOM      5  C   UNL A   1      34.614  21.108  25.489  1.00  0.00     0.155 C 
ATOM      6  C   UNL A   1      33.310  20.331  25.580  1.00  0.00     0.036 C 
BRANCH   5   7
ATOM      7  N   UNL A   1      34.418  22.539  25.174  1.00  0.00    -0.199 NA
ATOM      8  H   UNL A   1      33.843  22.547  24.331  1.00  0.00     0.142 HD
BRANCH   7   9
ATOM      9  S   UNL A   1      33.742  23.698  26.168  1.00  0.00     0.241 S 
ATOM     10  O   UNL A   1      33.545  23.043  27.432  1.00  0.00    -0.207 OA
ATOM     11  O   UNL A   1      34.539  24.908  26.060  1.00  0.00    -0.207 OA
BRANCH   9  12
ATOM     12  C   UNL A   1      32.111  24.075  25.546  1.00  0.00     0.082 A 
ATOM     13  C   UNL A   1      31.574  23.438  24.432  1.00  0.00     0.022 A 
ATOM     14  C   UNL A   1      31.452  25.181  26.085  1.00  0.00     0.022 A 
ATOM     15  C   UNL A   1      30.602  24.097  23.658  1.00  0.00     0.012 A 
ATOM     16  C   UNL A   1      30.397  25.770  25.375  1.00  0.00     0.012 A 
ATOM     17  C   UNL A   1      30.123  25.361  24.043  1.00  0.00     0.000 A 
BRANCH  17  18
ATOM     18  C   UNL A   1      30.086  26.466  23.011  1.00  0.00     0.072 A 
ATOM     19  C   UNL A   1      29.244  27.575  23.072  1.00  0.00     0.038 A 
ATOM     20  N   UNL A   1      31.374  26.669  22.650  1.00  0.00    -0.248 NA
ATOM     21  C   UNL A   1      29.855  28.830  23.211  1.00  0.00    -0.007 A 
ATOM     22  C   UNL A   1      31.938  27.698  23.262  1.00  0.00     0.072 A 
ATOM     23  C   UNL A   1      31.182  28.793  23.668  1.00  0.00     0.015 A 
ATOM     24  C   UNL A   1      33.211  27.537  23.748  1.00  0.00     0.036 A 
ATOM     25  C   UNL A   1      31.691  29.676  24.642  1.00  0.00     0.096 A 
ATOM     26  C   UNL A   1      33.696  28.330  24.782  1.00  0.00     0.088 A 
ATOM     27  C   UNL A   1      32.903  29.369  25.257  1.00  0.00     0.270 A 
BRANCH  21  28
ATOM     28  C   UNL A   1      29.254  30.149  22.949  1.00  0.00    -0.018 A 
ATOM     29  C   UNL A   1      28.820  30.409  21.624  1.00  0.00     0.009 A 
ATOM     30  C   UNL A   1      29.172  31.185  23.877  1.00  0.00     0.009 A 
ATOM     31  C   UNL A   1      28.401  31.672  21.217  1.00  0.00     0.001 A 
ATOM     32  C   UNL A   1      28.735  32.456  23.472  1.00  0.00     0.001 A 
ATOM     33  C   UNL A   1      28.371  32.703  22.144  1.00  0.00     0.000 A 
ENDBRANCH  21  28
BRANCH  27  34
ATOM     34  N   UNL A   1      33.258  30.026  26.507  1.00  0.00     0.062 N 
ATOM     35  O   UNL A   1      32.338  30.404  27.244  1.00  0.00    -0.258 OA
ATOM     36  O   UNL A   1      34.465  30.132  26.769  1.00  0.00    -0.258 OA
ENDBRANCH  27  34
ENDBRANCH  17  18
ENDBRANCH   9  12
ENDBRANCH   7   9
ENDBRANCH   5   7
ENDBRANCH   1   5
BRANCH   3  37
ATOM     37  C   UNL A   1      37.760  21.780  25.634  1.00  0.00     0.117 C 
BRANCH  37  38
ATOM     38  C   UNL A   1      39.069  21.143  26.126  1.00  0.00     0.042 C 
BRANCH  38  39
ATOM     39  C   UNL A   1      39.329  19.720  25.628  1.00  0.00     0.118 C 
BRANCH  39  40
ATOM     40  N   UNL A   1      40.557  19.103  26.117  1.00  0.00    -0.352 N 
ATOM     41  C   UNL A   1      41.755  19.572  26.608  1.00  0.00     0.251 C 
ATOM     42  H   UNL A   1      40.521  18.118  26.088  1.00  0.00     0.163 HD
ATOM     43  O   UNL A   1      42.601  18.732  26.923  1.00  0.00    -0.269 OA
BRANCH  41  44
ATOM     44  C   UNL A   1      42.120  21.012  26.730  1.00  0.00     0.039 A 
ATOM     45  C   UNL A   1      42.257  21.544  28.029  1.00  0.00     0.014 A 
ATOM     46  C   UNL A   1      42.273  21.876  25.652  1.00  0.00     0.014 A 
ATOM     47  C   UNL A   1      42.599  22.889  28.236  1.00  0.00     0.010 A 
ATOM     48  C   UNL A   1      42.677  23.202  25.849  1.00  0.00     0.010 A 
ATOM     49  C   UNL A   1      42.824  23.731  27.141  1.00  0.00    -0.014 A 
BRANCH  49  50
ATOM     50  C   UNL A   1      43.096  25.187  27.297  1.00  0.00     0.031 A 
ATOM     51  C   UNL A   1      44.436  25.729  26.893  1.00  0.00     0.074 A 
ATOM     52  C   UNL A   1      42.197  26.011  27.866  1.00  0.00     0.049 A 
ATOM     53  N   UNL A   1      44.947  26.916  27.093  1.00  0.00    -0.248 NA
ATOM     54  C   UNL A   1      45.334  24.794  26.197  1.00  0.00     0.031 C 
ATOM     55  C   UNL A   1      40.874  25.613  28.317  1.00  0.00     0.029 A 
ATOM     56  N   UNL A   1      42.264  27.345  28.188  1.00  0.00    -0.354 N 
ATOM     57  C   UNL A   1      46.235  26.862  26.581  1.00  0.00     0.074 A 
ATOM     58  C   UNL A   1      46.442  25.513  26.095  1.00  0.00     0.031 C 
ATOM     59  C   UNL A   1      40.243  26.665  28.859  1.00  0.00     0.029 A 
ATOM     60  C   UNL A   1      41.141  27.813  28.829  1.00  0.00     0.049 A 
ATOM     61  H   UNL A   1      43.042  27.911  27.980  1.00  0.00     0.167 HD
ATOM     62  C   UNL A   1      47.156  27.850  26.506  1.00  0.00     0.037 A 
ATOM     63  C   UNL A   1      40.873  29.026  29.350  1.00  0.00     0.037 A 
ATOM     64  C   UNL A   1      46.935  29.200  26.955  1.00  0.00     0.049 A 
ATOM     65  C   UNL A   1      41.908  30.110  29.247  1.00  0.00     0.074 A 
ATOM     66  C   UNL A   1      47.790  30.285  26.879  1.00  0.00     0.029 A 
ATOM     67  N   UNL A   1      45.769  29.650  27.559  1.00  0.00    -0.354 N 
ATOM     68  N   UNL A   1      43.111  30.056  28.732  1.00  0.00    -0.248 NA
ATOM     69  C   UNL A   1      41.544  31.426  29.789  1.00  0.00     0.031 C 
ATOM     70  C   UNL A   1      47.153  31.386  27.462  1.00  0.00     0.029 A 
ATOM     71  C   UNL A   1      45.886  30.997  27.865  1.00  0.00     0.049 A 
ATOM     72  H   UNL A   1      44.978  29.095  27.742  1.00  0.00     0.167 HD
ATOM     73  C   UNL A   1      43.638  31.334  28.859  1.00  0.00     0.074 A 
ATOM     74  C   UNL A   1      42.618  32.144  29.490  1.00  0.00     0.031 C 
ATOM     75  C   UNL A   1      44.856  31.792  28.483  1.00  0.00     0.037 A 
BRANCH  62  76
ATOM     76  C   UNL A   1      48.488  27.500  25.915  1.00  0.00     0.064 A 
ATOM     77  C   UNL A   1      49.583  27.157  26.723  1.00  0.00     0.173 A 
ATOM     78  C   UNL A   1      48.670  27.501  24.524  1.00  0.00     0.173 A 
ATOM     79  F   UNL A   1      49.464  27.161  28.059  1.00  0.00    -0.203 F 
ATOM     80  C   UNL A   1      50.820  26.859  26.160  1.00  0.00     0.198 A 
ATOM     81  C   UNL A   1      49.902  27.173  23.965  1.00  0.00     0.198 A 
ATOM     82  F   UNL A   1      47.655  27.822  23.708  1.00  0.00    -0.203 F 
ATOM     83  F   UNL A   1      51.867  26.589  26.953  1.00  0.00    -0.200 F 
ATOM     84  C   UNL A   1      50.977  26.860  24.783  1.00  0.00     0.200 A 
ATOM     85  F   UNL A   1      50.051  27.168  22.633  1.00  0.00    -0.200 F 
ATOM     86  F   UNL A   1      52.170  26.572  24.243  1.00  0.00    -0.200 F 
ENDBRANCH  62  76
BRANCH  63  87
ATOM     87  C   UNL A   1      39.561  29.285  29.998  1.00  0.00     0.064 A 
ATOM     88  C   UNL A   1      38.500  29.839  29.270  1.00  0.00     0.173 A 
ATOM     89  C   UNL A   1      39.343  28.998  31.353  1.00  0.00     0.173 A 
ATOM     90  F   UNL A   1      38.670  30.158  27.978  1.00  0.00    -0.203 F 
ATOM     91  C   UNL A   1      37.276  30.115  29.875  1.00  0.00     0.198 A 
ATOM     92  C   UNL A   1      38.110  29.250  31.952  1.00  0.00     0.198 A 
ATOM     93  F   UNL A   1      40.328  28.472  32.096  1.00  0.00    -0.203 F 
ATOM     94  F   UNL A   1      36.294  30.689  29.167  1.00  0.00    -0.200 F 
ATOM     95  C   UNL A   1      37.080  29.815  31.215  1.00  0.00     0.200 A 
ATOM     96  F   UNL A   1      37.923  28.957  33.247  1.00  0.00    -0.200 F 
ATOM     97  F   UNL A   1      35.903  30.083  31.798  1.00  0.00    -0.200 F 
ENDBRANCH  63  87
BRANCH  75  98
ATOM     98  C   UNL A   1      45.133  33.249  28.704  1.00  0.00     0.064 A 
ATOM     99  C   UNL A   1      45.780  33.709  29.859  1.00  0.00     0.173 A 
ATOM    100  C   UNL A   1      44.763  34.193  27.733  1.00  0.00     0.173 A 
ATOM    101  F   UNL A   1      46.138  32.846  30.821  1.00  0.00    -0.203 F 
ATOM    102  C   UNL A   1      46.025  35.067  30.048  1.00  0.00     0.198 A 
ATOM    103  C   UNL A   1      45.033  35.546  27.914  1.00  0.00     0.198 A 
ATOM    104  F   UNL A   1      44.145  33.801  26.609  1.00  0.00    -0.203 F 
ATOM    105  F   UNL A   1      46.601  35.492  31.180  1.00  0.00    -0.200 F 
ATOM    106  C   UNL A   1      45.655  35.982  29.073  1.00  0.00     0.200 A 
ATOM    107  F   UNL A   1      44.685  36.429  26.967  1.00  0.00    -0.200 F 
ATOM    108  F   UNL A   1      45.892  37.290  29.256  1.00  0.00    -0.200 F 
ENDBRANCH  75  98
ENDBRANCH  49  50
ENDBRANCH  41  44
ENDBRANCH  39  40
ENDBRANCH  38  39
ENDBRANCH  37  38
ENDBRANCH   3  37
TORSDOF 16
ENDMDL
