MODEL 1
REMARK VINA RESULT:     -11.8      0.000      0.000
REMARK SMILES O=C(C[NH2+][C@H]1CCCC[C@H]1[N@@H+](Cc1ccccc1)C1CC1)NCCCNC(=O)c1ccc(-c2c3nc(c(-c4c(F)c(F)c(F)c(F)c4F)c4ccc([nH]4)c(-c4c(F)c(F)c(F)c(F)c4F)c4nc(c(-c5c(F)c(F)c(F)c(F)c5F)c5ccc2[nH]5)C=C4)C=C3)cc1
REMARK SMILES IDX 1 1 2 2 22 3 3 5 4 6 5 9 6 10 10 11 7 12 9 13 8 14 11 15
REMARK SMILES IDX 12 17 13 18 14 19 18 20 15 21 17 22 16 23 19 24 20 25 21 26
REMARK SMILES IDX 23 27 24 28 25 29 26 30 27 31 28 33 29 34 30 35 91 36 31 37
REMARK SMILES IDX 90 38 32 39 33 40 34 41 84 42 35 43 89 44 83 45 85 46 36 47
REMARK SMILES IDX 88 48 82 49 81 50 37 52 69 53 49 54 68 55 50 56 53 57 67 58
REMARK SMILES IDX 86 59 51 60 52 61 66 63 87 64 54 65 38 66 39 67 47 68 40 69
REMARK SMILES IDX 41 70 45 71 48 72 42 73 43 74 46 75 44 76 70 77 71 78 79 79
REMARK SMILES IDX 72 80 73 81 77 82 80 83 74 84 75 85 78 86 76 87 55 88 56 89
REMARK SMILES IDX 64 90 57 91 58 92 62 93 65 94 59 95 60 96 63 97 61 98
REMARK H PARENT 22 4 4 7 4 8 11 16 26 32 85 51 53 62
REMARK Flexibility Score: inf
ROOT
ATOM      1  O   UNL A   1      33.789  29.026  26.813  1.00  0.00    -0.269 OA
ATOM      2  C   UNL A   1      33.190  29.172  25.751  1.00  0.00     0.275 C 
ATOM      3  N   UNL A   1      32.049  29.931  25.625  1.00  0.00    -0.351 N 
ATOM      4  H   UNL A   1      31.617  29.998  24.742  1.00  0.00     0.163 HD
ENDROOT
BRANCH   2   5
ATOM      5  C   UNL A   1      33.683  28.534  24.444  1.00  0.00     0.362 C 
BRANCH   5   6
ATOM      6  N   UNL A   1      33.848  27.087  24.605  1.00  0.00    -0.331 N 
ATOM      7  H   UNL A   1      33.943  26.911  25.605  1.00  0.00     0.347 HD
ATOM      8  H   UNL A   1      34.651  26.874  24.014  1.00  0.00     0.347 HD
BRANCH   6   9
ATOM      9  C   UNL A   1      32.808  26.170  24.110  1.00  0.00     0.241 C 
ATOM     10  C   UNL A   1      32.195  26.571  22.737  1.00  0.00     0.071 C 
ATOM     11  C   UNL A   1      33.125  24.593  24.183  1.00  0.00     0.243 C 
ATOM     12  C   UNL A   1      32.900  26.004  21.505  1.00  0.00     0.007 C 
ATOM     13  C   UNL A   1      33.772  24.095  22.872  1.00  0.00     0.071 C 
ATOM     14  C   UNL A   1      33.023  24.505  21.609  1.00  0.00     0.007 C 
BRANCH  11  15
ATOM     15  N   UNL A   1      33.616  23.904  25.437  1.00  0.00    -0.321 N 
ATOM     16  H   UNL A   1      33.182  23.057  25.070  1.00  0.00     0.349 HD
BRANCH  15  17
ATOM     17  C   UNL A   1      35.095  24.067  25.630  1.00  0.00     0.299 C 
BRANCH  17  18
ATOM     18  C   UNL A   1      35.993  22.828  25.521  1.00  0.00     0.006 A 
ATOM     19  C   UNL A   1      37.386  22.840  25.705  1.00  0.00     0.009 A 
ATOM     20  C   UNL A   1      35.408  21.610  25.139  1.00  0.00     0.009 A 
ATOM     21  C   UNL A   1      38.180  21.735  25.400  1.00  0.00     0.001 A 
ATOM     22  C   UNL A   1      36.198  20.487  24.865  1.00  0.00     0.001 A 
ATOM     23  C   UNL A   1      37.586  20.560  24.966  1.00  0.00     0.000 A 
ENDBRANCH  17  18
ENDBRANCH  15  17
BRANCH  15  24
ATOM     24  C   UNL A   1      32.984  23.749  26.771  1.00  0.00     0.185 C 
ATOM     25  C   UNL A   1      31.705  23.048  27.084  1.00  0.00     0.071 C 
ATOM     26  C   UNL A   1      33.022  22.497  27.589  1.00  0.00     0.071 C 
ENDBRANCH  15  24
ENDBRANCH  11  15
ENDBRANCH   6   9
ENDBRANCH   5   6
ENDBRANCH   2   5
BRANCH   3  27
ATOM     27  C   UNL A   1      31.464  30.636  26.745  1.00  0.00     0.118 C 
BRANCH  27  28
ATOM     28  C   UNL A   1      31.555  32.146  26.568  1.00  0.00     0.042 C 
BRANCH  28  29
ATOM     29  C   UNL A   1      32.690  32.783  27.364  1.00  0.00     0.118 C 
BRANCH  29  30
ATOM     30  N   UNL A   1      32.440  34.184  27.681  1.00  0.00    -0.352 N 
ATOM     31  C   UNL A   1      33.033  35.001  28.615  1.00  0.00     0.251 C 
ATOM     32  H   UNL A   1      31.736  34.612  27.143  1.00  0.00     0.163 HD
ATOM     33  O   UNL A   1      32.568  36.109  28.840  1.00  0.00    -0.269 OA
BRANCH  31  34
ATOM     34  C   UNL A   1      34.215  34.531  29.371  1.00  0.00     0.039 A 
ATOM     35  C   UNL A   1      34.020  33.959  30.630  1.00  0.00     0.014 A 
ATOM     36  C   UNL A   1      35.506  34.657  28.850  1.00  0.00     0.014 A 
ATOM     37  C   UNL A   1      35.109  33.437  31.331  1.00  0.00     0.010 A 
ATOM     38  C   UNL A   1      36.580  34.073  29.516  1.00  0.00     0.010 A 
ATOM     39  C   UNL A   1      36.391  33.446  30.757  1.00  0.00    -0.014 A 
BRANCH  39  40
ATOM     40  C   UNL A   1      37.536  32.771  31.422  1.00  0.00     0.031 A 
ATOM     41  C   UNL A   1      38.205  31.591  30.778  1.00  0.00     0.074 A 
ATOM     42  C   UNL A   1      37.922  33.182  32.646  1.00  0.00     0.049 A 
ATOM     43  N   UNL A   1      39.157  30.823  31.245  1.00  0.00    -0.248 NA
ATOM     44  C   UNL A   1      37.726  31.208  29.442  1.00  0.00     0.031 C 
ATOM     45  C   UNL A   1      37.327  34.290  33.393  1.00  0.00     0.029 A 
ATOM     46  N   UNL A   1      38.897  32.703  33.486  1.00  0.00    -0.354 N 
ATOM     47  C   UNL A   1      39.384  29.864  30.267  1.00  0.00     0.074 A 
ATOM     48  C   UNL A   1      38.437  30.116  29.202  1.00  0.00     0.031 C 
ATOM     49  C   UNL A   1      37.959  34.419  34.569  1.00  0.00     0.029 A 
ATOM     50  C   UNL A   1      38.970  33.373  34.683  1.00  0.00     0.049 A 
ATOM     51  H   UNL A   1      39.490  31.952  33.252  1.00  0.00     0.167 HD
ATOM     52  C   UNL A   1      40.312  28.876  30.252  1.00  0.00     0.037 A 
ATOM     53  C   UNL A   1      39.750  33.157  35.760  1.00  0.00     0.037 A 
ATOM     54  C   UNL A   1      41.259  28.637  31.310  1.00  0.00     0.049 A 
ATOM     55  C   UNL A   1      40.744  32.029  35.731  1.00  0.00     0.074 A 
ATOM     56  C   UNL A   1      42.275  27.698  31.362  1.00  0.00     0.029 A 
ATOM     57  N   UNL A   1      41.300  29.335  32.509  1.00  0.00    -0.354 N 
ATOM     58  N   UNL A   1      40.998  31.172  34.772  1.00  0.00    -0.248 NA
ATOM     59  C   UNL A   1      41.563  31.838  36.937  1.00  0.00     0.031 C 
ATOM     60  C   UNL A   1      42.891  27.787  32.614  1.00  0.00     0.029 A 
ATOM     61  C   UNL A   1      42.301  28.823  33.321  1.00  0.00     0.049 A 
ATOM     62  H   UNL A   1      40.706  30.082  32.748  1.00  0.00     0.167 HD
ATOM     63  C   UNL A   1      42.018  30.359  35.247  1.00  0.00     0.074 A 
ATOM     64  C   UNL A   1      42.352  30.838  36.571  1.00  0.00     0.031 C 
ATOM     65  C   UNL A   1      42.622  29.307  34.640  1.00  0.00     0.037 A 
BRANCH  52  66
ATOM     66  C   UNL A   1      40.345  27.972  29.053  1.00  0.00     0.064 A 
ATOM     67  C   UNL A   1      39.614  26.774  29.011  1.00  0.00     0.173 A 
ATOM     68  C   UNL A   1      41.083  28.327  27.914  1.00  0.00     0.173 A 
ATOM     69  F   UNL A   1      38.899  26.383  30.076  1.00  0.00    -0.203 F 
ATOM     70  C   UNL A   1      39.643  25.954  27.886  1.00  0.00     0.198 A 
ATOM     71  C   UNL A   1      41.084  27.521  26.778  1.00  0.00     0.198 A 
ATOM     72  F   UNL A   1      41.795  29.465  27.896  1.00  0.00    -0.203 F 
ATOM     73  F   UNL A   1      38.976  24.792  27.889  1.00  0.00    -0.200 F 
ATOM     74  C   UNL A   1      40.371  26.332  26.768  1.00  0.00     0.200 A 
ATOM     75  F   UNL A   1      41.776  27.896  25.693  1.00  0.00    -0.200 F 
ATOM     76  F   UNL A   1      40.392  25.547  25.682  1.00  0.00    -0.200 F 
ENDBRANCH  52  66
BRANCH  53  77
ATOM     77  C   UNL A   1      39.623  34.031  36.957  1.00  0.00     0.064 A 
ATOM     78  C   UNL A   1      38.836  33.643  38.050  1.00  0.00     0.173 A 
ATOM     79  C   UNL A   1      40.274  35.271  37.030  1.00  0.00     0.173 A 
ATOM     80  F   UNL A   1      38.175  32.477  38.019  1.00  0.00    -0.203 F 
ATOM     81  C   UNL A   1      38.686  34.472  39.159  1.00  0.00     0.198 A 
ATOM     82  C   UNL A   1      40.149  36.085  38.153  1.00  0.00     0.198 A 
ATOM     83  F   UNL A   1      41.042  35.688  36.013  1.00  0.00    -0.203 F 
ATOM     84  F   UNL A   1      37.885  34.100  40.167  1.00  0.00    -0.200 F 
ATOM     85  C   UNL A   1      39.348  35.690  39.214  1.00  0.00     0.200 A 
ATOM     86  F   UNL A   1      40.803  37.253  38.207  1.00  0.00    -0.200 F 
ATOM     87  F   UNL A   1      39.206  36.485  40.282  1.00  0.00    -0.200 F 
ENDBRANCH  53  77
BRANCH  65  88
ATOM     88  C   UNL A   1      43.723  28.617  35.395  1.00  0.00     0.064 A 
ATOM     89  C   UNL A   1      43.461  27.555  36.272  1.00  0.00     0.173 A 
ATOM     90  C   UNL A   1      45.061  29.000  35.210  1.00  0.00     0.173 A 
ATOM     91  F   UNL A   1      42.198  27.160  36.497  1.00  0.00    -0.203 F 
ATOM     92  C   UNL A   1      44.494  26.921  36.959  1.00  0.00     0.198 A 
ATOM     93  C   UNL A   1      46.093  28.341  35.871  1.00  0.00     0.198 A 
ATOM     94  F   UNL A   1      45.368  30.005  34.377  1.00  0.00    -0.203 F 
ATOM     95  F   UNL A   1      44.214  25.944  37.833  1.00  0.00    -0.200 F 
ATOM     96  C   UNL A   1      45.809  27.308  36.752  1.00  0.00     0.200 A 
ATOM     97  F   UNL A   1      47.365  28.708  35.657  1.00  0.00    -0.200 F 
ATOM     98  F   UNL A   1      46.802  26.692  37.407  1.00  0.00    -0.200 F 
ENDBRANCH  65  88
ENDBRANCH  39  40
ENDBRANCH  31  34
ENDBRANCH  29  30
ENDBRANCH  28  29
ENDBRANCH  27  28
ENDBRANCH   3  27
TORSDOF 16
ENDMDL
MODEL 2
REMARK VINA RESULT:     -11.7      3.588      8.567
REMARK SMILES O=C(C[NH2+][C@H]1CCCC[C@H]1[N@@H+](Cc1ccccc1)C1CC1)NCCCNC(=O)c1ccc(-c2c3nc(c(-c4c(F)c(F)c(F)c(F)c4F)c4ccc([nH]4)c(-c4c(F)c(F)c(F)c(F)c4F)c4nc(c(-c5c(F)c(F)c(F)c(F)c5F)c5ccc2[nH]5)C=C4)C=C3)cc1
REMARK SMILES IDX 1 1 2 2 22 3 3 5 4 6 5 9 6 10 10 11 7 12 9 13 8 14 11 15
REMARK SMILES IDX 12 17 13 18 14 19 18 20 15 21 17 22 16 23 19 24 20 25 21 26
REMARK SMILES IDX 23 27 24 28 25 29 26 30 27 31 28 33 29 34 30 35 91 36 31 37
REMARK SMILES IDX 90 38 32 39 33 40 34 41 84 42 35 43 89 44 83 45 85 46 36 47
REMARK SMILES IDX 88 48 82 49 81 50 37 52 69 53 49 54 68 55 50 56 53 57 67 58
REMARK SMILES IDX 86 59 51 60 52 61 66 63 87 64 54 65 38 66 39 67 47 68 40 69
REMARK SMILES IDX 41 70 45 71 48 72 42 73 43 74 46 75 44 76 70 77 71 78 79 79
REMARK SMILES IDX 72 80 73 81 77 82 80 83 74 84 75 85 78 86 76 87 55 88 56 89
REMARK SMILES IDX 64 90 57 91 58 92 62 93 65 94 59 95 60 96 63 97 61 98
REMARK H PARENT 22 4 4 7 4 8 11 16 26 32 85 51 53 62
REMARK Flexibility Score: inf
ROOT
ATOM      1  O   UNL A   1      30.278  25.571  26.595  1.00  0.00    -0.269 OA
ATOM      2  C   UNL A   1      30.429  26.390  25.692  1.00  0.00     0.275 C 
ATOM      3  N   UNL A   1      31.208  27.517  25.816  1.00  0.00    -0.351 N 
ATOM      4  H   UNL A   1      31.277  28.134  25.052  1.00  0.00     0.163 HD
ENDROOT
BRANCH   2   5
ATOM      5  C   UNL A   1      29.775  26.211  24.314  1.00  0.00     0.362 C 
BRANCH   5   6
ATOM      6  N   UNL A   1      30.207  24.956  23.695  1.00  0.00    -0.331 N 
ATOM      7  H   UNL A   1      29.398  24.575  23.205  1.00  0.00     0.347 HD
ATOM      8  H   UNL A   1      30.573  24.418  24.481  1.00  0.00     0.347 HD
BRANCH   6   9
ATOM      9  C   UNL A   1      31.323  24.956  22.735  1.00  0.00     0.241 C 
ATOM     10  C   UNL A   1      31.404  26.226  21.840  1.00  0.00     0.071 C 
ATOM     11  C   UNL A   1      32.771  24.528  23.294  1.00  0.00     0.243 C 
ATOM     12  C   UNL A   1      32.238  27.378  22.397  1.00  0.00     0.007 C 
ATOM     13  C   UNL A   1      33.570  25.762  23.770  1.00  0.00     0.071 C 
ATOM     14  C   UNL A   1      33.622  26.902  22.760  1.00  0.00     0.007 C 
BRANCH  11  15
ATOM     15  N   UNL A   1      33.012  23.267  24.093  1.00  0.00    -0.321 N 
ATOM     16  H   UNL A   1      33.318  22.841  23.218  1.00  0.00     0.349 HD
BRANCH  15  17
ATOM     17  C   UNL A   1      33.916  23.503  25.266  1.00  0.00     0.299 C 
BRANCH  17  18
ATOM     18  C   UNL A   1      35.374  23.033  25.179  1.00  0.00     0.006 A 
ATOM     19  C   UNL A   1      35.790  21.857  24.531  1.00  0.00     0.009 A 
ATOM     20  C   UNL A   1      36.358  23.776  25.851  1.00  0.00     0.009 A 
ATOM     21  C   UNL A   1      37.091  21.370  24.649  1.00  0.00     0.001 A 
ATOM     22  C   UNL A   1      37.675  23.309  25.943  1.00  0.00     0.001 A 
ATOM     23  C   UNL A   1      38.033  22.091  25.369  1.00  0.00     0.000 A 
ENDBRANCH  17  18
ENDBRANCH  15  17
BRANCH  15  24
ATOM     24  C   UNL A   1      32.107  22.137  24.420  1.00  0.00     0.185 C 
ATOM     25  C   UNL A   1      32.411  20.962  25.286  1.00  0.00     0.071 C 
ATOM     26  C   UNL A   1      31.376  21.980  25.715  1.00  0.00     0.071 C 
ENDBRANCH  15  24
ENDBRANCH  11  15
ENDBRANCH   6   9
ENDBRANCH   5   6
ENDBRANCH   2   5
BRANCH   3  27
ATOM     27  C   UNL A   1      31.928  27.827  27.032  1.00  0.00     0.118 C 
BRANCH  27  28
ATOM     28  C   UNL A   1      33.436  27.741  26.830  1.00  0.00     0.042 C 
BRANCH  28  29
ATOM     29  C   UNL A   1      34.022  28.953  26.112  1.00  0.00     0.118 C 
BRANCH  29  30
ATOM     30  N   UNL A   1      33.845  30.191  26.859  1.00  0.00    -0.352 N 
ATOM     31  C   UNL A   1      34.620  30.748  27.849  1.00  0.00     0.251 C 
ATOM     32  H   UNL A   1      33.044  30.711  26.618  1.00  0.00     0.163 HD
ATOM     33  O   UNL A   1      34.213  31.720  28.470  1.00  0.00    -0.269 OA
BRANCH  31  34
ATOM     34  C   UNL A   1      35.934  30.157  28.186  1.00  0.00     0.039 A 
ATOM     35  C   UNL A   1      36.964  30.237  27.245  1.00  0.00     0.014 A 
ATOM     36  C   UNL A   1      36.151  29.523  29.412  1.00  0.00     0.014 A 
ATOM     37  C   UNL A   1      38.236  29.756  27.567  1.00  0.00     0.010 A 
ATOM     38  C   UNL A   1      37.435  29.110  29.758  1.00  0.00     0.010 A 
ATOM     39  C   UNL A   1      38.493  29.234  28.845  1.00  0.00    -0.014 A 
BRANCH  39  40
ATOM     40  C   UNL A   1      39.867  28.849  29.255  1.00  0.00     0.031 A 
ATOM     41  C   UNL A   1      40.701  29.773  30.096  1.00  0.00     0.074 A 
ATOM     42  C   UNL A   1      40.391  27.692  28.803  1.00  0.00     0.049 A 
ATOM     43  N   UNL A   1      41.947  29.648  30.477  1.00  0.00    -0.248 NA
ATOM     44  C   UNL A   1      40.056  31.014  30.550  1.00  0.00     0.031 C 
ATOM     45  C   UNL A   1      39.697  26.728  27.948  1.00  0.00     0.029 A 
ATOM     46  N   UNL A   1      41.633  27.138  28.985  1.00  0.00    -0.354 N 
ATOM     47  C   UNL A   1      42.237  30.793  31.207  1.00  0.00     0.074 A 
ATOM     48  C   UNL A   1      41.054  31.625  31.173  1.00  0.00     0.031 C 
ATOM     49  C   UNL A   1      40.515  25.695  27.695  1.00  0.00     0.029 A 
ATOM     50  C   UNL A   1      41.807  25.944  28.327  1.00  0.00     0.049 A 
ATOM     51  H   UNL A   1      42.335  27.555  29.536  1.00  0.00     0.167 HD
ATOM     52  C   UNL A   1      43.381  31.111  31.860  1.00  0.00     0.037 A 
ATOM     53  C   UNL A   1      42.889  25.149  28.227  1.00  0.00     0.037 A 
ATOM     54  C   UNL A   1      44.553  30.274  31.900  1.00  0.00     0.049 A 
ATOM     55  C   UNL A   1      44.158  25.546  28.931  1.00  0.00     0.074 A 
ATOM     56  C   UNL A   1      45.739  30.482  32.582  1.00  0.00     0.029 A 
ATOM     57  N   UNL A   1      44.691  29.073  31.218  1.00  0.00    -0.354 N 
ATOM     58  N   UNL A   1      44.398  26.598  29.676  1.00  0.00    -0.248 NA
ATOM     59  C   UNL A   1      45.308  24.643  28.780  1.00  0.00     0.031 C 
ATOM     60  C   UNL A   1      46.615  29.440  32.266  1.00  0.00     0.029 A 
ATOM     61  C   UNL A   1      45.955  28.548  31.435  1.00  0.00     0.049 A 
ATOM     62  H   UNL A   1      43.994  28.656  30.661  1.00  0.00     0.167 HD
ATOM     63  C   UNL A   1      45.713  26.472  30.101  1.00  0.00     0.074 A 
ATOM     64  C   UNL A   1      46.214  25.231  29.550  1.00  0.00     0.031 C 
ATOM     65  C   UNL A   1      46.443  27.311  30.878  1.00  0.00     0.037 A 
BRANCH  52  66
ATOM     66  C   UNL A   1      43.425  32.426  32.585  1.00  0.00     0.064 A 
ATOM     67  C   UNL A   1      43.023  32.544  33.925  1.00  0.00     0.173 A 
ATOM     68  C   UNL A   1      43.918  33.574  31.947  1.00  0.00     0.173 A 
ATOM     69  F   UNL A   1      42.537  31.480  34.580  1.00  0.00    -0.203 F 
ATOM     70  C   UNL A   1      43.085  33.767  34.588  1.00  0.00     0.198 A 
ATOM     71  C   UNL A   1      44.009  34.788  32.623  1.00  0.00     0.198 A 
ATOM     72  F   UNL A   1      44.323  33.517  30.669  1.00  0.00    -0.203 F 
ATOM     73  F   UNL A   1      42.649  33.865  35.851  1.00  0.00    -0.200 F 
ATOM     74  C   UNL A   1      43.585  34.886  33.939  1.00  0.00     0.200 A 
ATOM     75  F   UNL A   1      44.507  35.865  31.998  1.00  0.00    -0.200 F 
ATOM     76  F   UNL A   1      43.653  36.061  34.580  1.00  0.00    -0.200 F 
ENDBRANCH  52  66
BRANCH  53  77
ATOM     77  C   UNL A   1      42.821  23.896  27.430  1.00  0.00     0.064 A 
ATOM     78  C   UNL A   1      42.376  22.699  28.008  1.00  0.00     0.173 A 
ATOM     79  C   UNL A   1      43.206  23.865  26.081  1.00  0.00     0.173 A 
ATOM     80  F   UNL A   1      42.018  22.672  29.299  1.00  0.00    -0.203 F 
ATOM     81  C   UNL A   1      42.343  21.515  27.275  1.00  0.00     0.198 A 
ATOM     82  C   UNL A   1      43.142  22.687  25.341  1.00  0.00     0.198 A 
ATOM     83  F   UNL A   1      43.636  24.984  25.479  1.00  0.00    -0.203 F 
ATOM     84  F   UNL A   1      41.964  20.374  27.866  1.00  0.00    -0.200 F 
ATOM     85  C   UNL A   1      42.719  21.511  25.939  1.00  0.00     0.200 A 
ATOM     86  F   UNL A   1      43.492  22.692  24.047  1.00  0.00    -0.200 F 
ATOM     87  F   UNL A   1      42.683  20.373  25.234  1.00  0.00    -0.200 F 
ENDBRANCH  53  77
BRANCH  65  88
ATOM     88  C   UNL A   1      47.853  26.903  31.196  1.00  0.00     0.064 A 
ATOM     89  C   UNL A   1      48.153  26.078  32.290  1.00  0.00     0.173 A 
ATOM     90  C   UNL A   1      48.916  27.315  30.375  1.00  0.00     0.173 A 
ATOM     91  F   UNL A   1      47.178  25.670  33.115  1.00  0.00    -0.203 F 
ATOM     92  C   UNL A   1      49.466  25.704  32.566  1.00  0.00     0.198 A 
ATOM     93  C   UNL A   1      50.221  26.910  30.634  1.00  0.00     0.198 A 
ATOM     94  F   UNL A   1      48.683  28.100  29.312  1.00  0.00    -0.203 F 
ATOM     95  F   UNL A   1      49.735  24.959  33.648  1.00  0.00    -0.200 F 
ATOM     96  C   UNL A   1      50.498  26.113  31.734  1.00  0.00     0.200 A 
ATOM     97  F   UNL A   1      51.214  27.294  29.819  1.00  0.00    -0.200 F 
ATOM     98  F   UNL A   1      51.759  25.744  31.997  1.00  0.00    -0.200 F 
ENDBRANCH  65  88
ENDBRANCH  39  40
ENDBRANCH  31  34
ENDBRANCH  29  30
ENDBRANCH  28  29
ENDBRANCH  27  28
ENDBRANCH   3  27
TORSDOF 16
ENDMDL
MODEL 3
REMARK VINA RESULT:     -11.6      0.367      1.982
REMARK SMILES O=C(C[NH2+][C@H]1CCCC[C@H]1[N@@H+](Cc1ccccc1)C1CC1)NCCCNC(=O)c1ccc(-c2c3nc(c(-c4c(F)c(F)c(F)c(F)c4F)c4ccc([nH]4)c(-c4c(F)c(F)c(F)c(F)c4F)c4nc(c(-c5c(F)c(F)c(F)c(F)c5F)c5ccc2[nH]5)C=C4)C=C3)cc1
REMARK SMILES IDX 1 1 2 2 22 3 3 5 4 6 5 9 6 10 10 11 7 12 9 13 8 14 11 15
REMARK SMILES IDX 12 17 13 18 14 19 18 20 15 21 17 22 16 23 19 24 20 25 21 26
REMARK SMILES IDX 23 27 24 28 25 29 26 30 27 31 28 33 29 34 30 35 91 36 31 37
REMARK SMILES IDX 90 38 32 39 33 40 34 41 84 42 35 43 89 44 83 45 85 46 36 47
REMARK SMILES IDX 88 48 82 49 81 50 37 52 69 53 49 54 68 55 50 56 53 57 67 58
REMARK SMILES IDX 86 59 51 60 52 61 66 63 87 64 54 65 38 66 39 67 47 68 40 69
REMARK SMILES IDX 41 70 45 71 48 72 42 73 43 74 46 75 44 76 70 77 71 78 79 79
REMARK SMILES IDX 72 80 73 81 77 82 80 83 74 84 75 85 78 86 76 87 55 88 56 89
REMARK SMILES IDX 64 90 57 91 58 92 62 93 65 94 59 95 60 96 63 97 61 98
REMARK H PARENT 22 4 4 7 4 8 11 16 26 32 85 51 53 62
REMARK Flexibility Score: inf
ROOT
ATOM      1  O   UNL A   1      33.374  28.541  26.933  1.00  0.00    -0.269 OA
ATOM      2  C   UNL A   1      33.032  28.933  25.821  1.00  0.00     0.275 C 
ATOM      3  N   UNL A   1      32.105  29.930  25.623  1.00  0.00    -0.351 N 
ATOM      4  H   UNL A   1      31.873  30.189  24.701  1.00  0.00     0.163 HD
ENDROOT
BRANCH   2   5
ATOM      5  C   UNL A   1      33.636  28.354  24.533  1.00  0.00     0.362 C 
BRANCH   5   6
ATOM      6  N   UNL A   1      33.654  26.890  24.582  1.00  0.00    -0.331 N 
ATOM      7  H   UNL A   1      33.640  26.628  25.567  1.00  0.00     0.347 HD
ATOM      8  H   UNL A   1      34.486  26.646  24.045  1.00  0.00     0.347 HD
BRANCH   6   9
ATOM      9  C   UNL A   1      32.586  26.120  23.922  1.00  0.00     0.241 C 
ATOM     10  C   UNL A   1      32.193  26.641  22.510  1.00  0.00     0.071 C 
ATOM     11  C   UNL A   1      32.714  24.516  23.952  1.00  0.00     0.243 C 
ATOM     12  C   UNL A   1      32.975  26.042  21.341  1.00  0.00     0.007 C 
ATOM     13  C   UNL A   1      33.455  23.995  22.701  1.00  0.00     0.071 C 
ATOM     14  C   UNL A   1      32.916  24.536  21.382  1.00  0.00     0.007 C 
BRANCH  11  15
ATOM     15  N   UNL A   1      32.969  23.728  25.218  1.00  0.00    -0.321 N 
ATOM     16  H   UNL A   1      32.858  22.889  24.647  1.00  0.00     0.349 HD
BRANCH  15  17
ATOM     17  C   UNL A   1      34.255  24.122  25.880  1.00  0.00     0.299 C 
BRANCH  17  18
ATOM     18  C   UNL A   1      35.476  23.205  25.723  1.00  0.00     0.006 A 
ATOM     19  C   UNL A   1      36.808  23.625  25.881  1.00  0.00     0.009 A 
ATOM     20  C   UNL A   1      35.266  21.876  25.321  1.00  0.00     0.009 A 
ATOM     21  C   UNL A   1      37.884  22.810  25.534  1.00  0.00     0.001 A 
ATOM     22  C   UNL A   1      36.346  21.042  25.005  1.00  0.00     0.001 A 
ATOM     23  C   UNL A   1      37.652  21.519  25.081  1.00  0.00     0.000 A 
ENDBRANCH  17  18
ENDBRANCH  15  17
BRANCH  15  24
ATOM     24  C   UNL A   1      32.035  23.239  26.262  1.00  0.00     0.185 C 
ATOM     25  C   UNL A   1      30.757  23.874  26.695  1.00  0.00     0.071 C 
ATOM     26  C   UNL A   1      30.744  22.536  25.987  1.00  0.00     0.071 C 
ENDBRANCH  15  24
ENDBRANCH  11  15
ENDBRANCH   6   9
ENDBRANCH   5   6
ENDBRANCH   2   5
BRANCH   3  27
ATOM     27  C   UNL A   1      31.461  30.614  26.724  1.00  0.00     0.118 C 
BRANCH  27  28
ATOM     28  C   UNL A   1      31.515  32.127  26.555  1.00  0.00     0.042 C 
BRANCH  28  29
ATOM     29  C   UNL A   1      32.666  32.782  27.314  1.00  0.00     0.118 C 
BRANCH  29  30
ATOM     30  N   UNL A   1      32.399  34.175  27.651  1.00  0.00    -0.352 N 
ATOM     31  C   UNL A   1      32.982  34.986  28.595  1.00  0.00     0.251 C 
ATOM     32  H   UNL A   1      31.688  34.602  27.119  1.00  0.00     0.163 HD
ATOM     33  O   UNL A   1      32.504  36.085  28.836  1.00  0.00    -0.269 OA
BRANCH  31  34
ATOM     34  C   UNL A   1      34.171  34.521  29.343  1.00  0.00     0.039 A 
ATOM     35  C   UNL A   1      33.990  33.988  30.621  1.00  0.00     0.014 A 
ATOM     36  C   UNL A   1      35.454  34.612  28.796  1.00  0.00     0.014 A 
ATOM     37  C   UNL A   1      35.085  33.470  31.318  1.00  0.00     0.010 A 
ATOM     38  C   UNL A   1      36.532  34.032  29.460  1.00  0.00     0.010 A 
ATOM     39  C   UNL A   1      36.356  33.443  30.722  1.00  0.00    -0.014 A 
BRANCH  39  40
ATOM     40  C   UNL A   1      37.502  32.771  31.385  1.00  0.00     0.031 A 
ATOM     41  C   UNL A   1      38.150  31.570  30.759  1.00  0.00     0.074 A 
ATOM     42  C   UNL A   1      37.910  33.204  32.594  1.00  0.00     0.049 A 
ATOM     43  N   UNL A   1      39.100  30.801  31.229  1.00  0.00    -0.248 NA
ATOM     44  C   UNL A   1      37.648  31.163  29.438  1.00  0.00     0.031 C 
ATOM     45  C   UNL A   1      37.337  34.335  33.325  1.00  0.00     0.029 A 
ATOM     46  N   UNL A   1      38.892  32.733  33.431  1.00  0.00    -0.354 N 
ATOM     47  C   UNL A   1      39.304  29.819  30.269  1.00  0.00     0.074 A 
ATOM     48  C   UNL A   1      38.345  30.057  29.213  1.00  0.00     0.031 C 
ATOM     49  C   UNL A   1      37.987  34.483  34.489  1.00  0.00     0.029 A 
ATOM     50  C   UNL A   1      38.989  33.428  34.612  1.00  0.00     0.049 A 
ATOM     51  H   UNL A   1      39.473  31.970  33.206  1.00  0.00     0.167 HD
ATOM     52  C   UNL A   1      40.221  28.821  30.264  1.00  0.00     0.037 A 
ATOM     53  C   UNL A   1      39.781  33.228  35.683  1.00  0.00     0.037 A 
ATOM     54  C   UNL A   1      41.180  28.594  31.314  1.00  0.00     0.049 A 
ATOM     55  C   UNL A   1      40.763  32.088  35.666  1.00  0.00     0.074 A 
ATOM     56  C   UNL A   1      42.187  27.646  31.372  1.00  0.00     0.029 A 
ATOM     57  N   UNL A   1      41.246  29.318  32.496  1.00  0.00    -0.354 N 
ATOM     58  N   UNL A   1      40.995  31.208  34.722  1.00  0.00    -0.248 NA
ATOM     59  C   UNL A   1      41.596  31.915  36.864  1.00  0.00     0.031 C 
ATOM     60  C   UNL A   1      42.821  27.756  32.614  1.00  0.00     0.029 A 
ATOM     61  C   UNL A   1      42.252  28.814  33.305  1.00  0.00     0.049 A 
ATOM     62  H   UNL A   1      40.662  30.077  32.727  1.00  0.00     0.167 HD
ATOM     63  C   UNL A   1      42.012  30.395  35.200  1.00  0.00     0.074 A 
ATOM     64  C   UNL A   1      42.369  30.898  36.509  1.00  0.00     0.031 C 
ATOM     65  C   UNL A   1      42.596  29.323  34.609  1.00  0.00     0.037 A 
BRANCH  52  66
ATOM     66  C   UNL A   1      40.228  27.890  29.085  1.00  0.00     0.064 A 
ATOM     67  C   UNL A   1      40.959  28.179  27.921  1.00  0.00     0.173 A 
ATOM     68  C   UNL A   1      39.533  26.673  29.134  1.00  0.00     0.173 A 
ATOM     69  F   UNL A   1      41.634  29.333  27.817  1.00  0.00    -0.203 F 
ATOM     70  C   UNL A   1      40.968  27.299  26.842  1.00  0.00     0.198 A 
ATOM     71  C   UNL A   1      39.571  25.780  28.067  1.00  0.00     0.198 A 
ATOM     72  F   UNL A   1      38.824  26.342  30.225  1.00  0.00    -0.203 F 
ATOM     73  F   UNL A   1      41.632  27.619  25.723  1.00  0.00    -0.200 F 
ATOM     74  C   UNL A   1      40.281  26.096  26.919  1.00  0.00     0.200 A 
ATOM     75  F   UNL A   1      38.919  24.611  28.149  1.00  0.00    -0.200 F 
ATOM     76  F   UNL A   1      40.298  25.245  25.884  1.00  0.00    -0.200 F 
ENDBRANCH  52  66
BRANCH  53  77
ATOM     77  C   UNL A   1      39.680  34.128  36.862  1.00  0.00     0.064 A 
ATOM     78  C   UNL A   1      40.371  35.348  36.898  1.00  0.00     0.173 A 
ATOM     79  C   UNL A   1      38.903  33.786  37.978  1.00  0.00     0.173 A 
ATOM     80  F   UNL A   1      41.145  35.708  35.864  1.00  0.00    -0.203 F 
ATOM     81  C   UNL A   1      40.307  36.178  38.014  1.00  0.00     0.198 A 
ATOM     82  C   UNL A   1      38.814  34.634  39.081  1.00  0.00     0.198 A 
ATOM     83  F   UNL A   1      38.219  32.633  37.994  1.00  0.00    -0.203 F 
ATOM     84  F   UNL A   1      41.019  37.313  38.043  1.00  0.00    -0.200 F 
ATOM     85  C   UNL A   1      39.523  35.825  39.102  1.00  0.00     0.200 A 
ATOM     86  F   UNL A   1      38.043  34.294  40.123  1.00  0.00    -0.200 F 
ATOM     87  F   UNL A   1      39.459  36.626  40.174  1.00  0.00    -0.200 F 
ENDBRANCH  53  77
BRANCH  65  88
ATOM     88  C   UNL A   1      43.700  28.637  35.363  1.00  0.00     0.064 A 
ATOM     89  C   UNL A   1      45.045  28.990  35.183  1.00  0.00     0.173 A 
ATOM     90  C   UNL A   1      43.404  27.638  36.305  1.00  0.00     0.173 A 
ATOM     91  F   UNL A   1      45.384  29.926  34.285  1.00  0.00    -0.203 F 
ATOM     92  C   UNL A   1      46.056  28.348  35.897  1.00  0.00     0.198 A 
ATOM     93  C   UNL A   1      44.413  27.025  37.041  1.00  0.00     0.198 A 
ATOM     94  F   UNL A   1      42.133  27.268  36.520  1.00  0.00    -0.203 F 
ATOM     95  F   UNL A   1      47.338  28.665  35.669  1.00  0.00    -0.200 F 
ATOM     96  C   UNL A   1      45.739  27.373  36.830  1.00  0.00     0.200 A 
ATOM     97  F   UNL A   1      44.103  26.093  37.954  1.00  0.00    -0.200 F 
ATOM     98  F   UNL A   1      46.712  26.763  37.521  1.00  0.00    -0.200 F 
ENDBRANCH  65  88
ENDBRANCH  39  40
ENDBRANCH  31  34
ENDBRANCH  29  30
ENDBRANCH  28  29
ENDBRANCH  27  28
ENDBRANCH   3  27
TORSDOF 16
ENDMDL
