MODEL 1
REMARK VINA RESULT:     -12.9      0.000      0.000
REMARK SMILES COc1ccc2c(CC(=O)NCCCNC(=O)c3ccc(-c4c5nc(c(-c6c(F)c(F)c(F)c(F)c6F)c6ccc([nH]6)c(-c6c(F)c(F)c(F)c(F)c6F)c6nc(c(-c7c(F)c(F)c(F)c(F)c7F)c7ccc4[nH]7)C=C6)C=C5)cc3)c(C(=O)c3cc(C)ccn3)[nH]c2c1
REMARK SMILES IDX 12 1 11 2 9 3 10 4 8 6 7 7 3 8 4 9 93 10 5 11 92 12 6 13
REMARK SMILES IDX 91 14 81 15 2 17 1 18 82 19 83 20 84 21 85 22 90 23 86 24
REMARK SMILES IDX 89 25 87 26 88 27 13 28 14 29 15 30 16 31 17 33 18 34 19 35
REMARK SMILES IDX 80 36 20 37 79 38 21 39 22 40 23 41 73 42 24 43 78 44 72 45
REMARK SMILES IDX 74 46 25 47 77 48 71 49 70 50 26 52 58 53 38 54 57 55 39 56
REMARK SMILES IDX 42 57 56 58 75 59 40 60 41 61 55 63 76 64 43 65 27 66 28 67
REMARK SMILES IDX 36 68 29 69 30 70 34 71 37 72 31 73 32 74 35 75 33 76 59 77
REMARK SMILES IDX 60 78 68 79 61 80 62 81 66 82 69 83 63 84 64 85 67 86 65 87
REMARK SMILES IDX 44 88 45 89 53 90 46 91 47 92 51 93 54 94 48 95 49 96 52 97
REMARK SMILES IDX 50 98
REMARK H PARENT 11 5 91 16 15 32 74 51 42 62
REMARK Flexibility Score: inf
ROOT
ATOM      1  C   UNL A   1      32.735  27.244  26.502  1.00  0.00     0.117 C 
ENDROOT
BRANCH   1   2
ATOM      2  N   UNL A   1      31.829  26.156  26.806  1.00  0.00    -0.356 N 
ATOM      3  C   UNL A   1      31.974  24.812  26.610  1.00  0.00     0.224 C 
ATOM      4  O   UNL A   1      31.144  24.083  27.158  1.00  0.00    -0.275 OA
ATOM      5  H   UNL A   1      30.978  26.427  27.220  1.00  0.00     0.163 HD
BRANCH   3   6
ATOM      6  C   UNL A   1      33.174  24.241  25.865  1.00  0.00     0.138 C 
BRANCH   6   7
ATOM      7  C   UNL A   1      32.857  23.577  24.549  1.00  0.00    -0.002 A 
ATOM      8  C   UNL A   1      32.262  19.580  23.317  1.00  0.00     0.120 A 
ATOM      9  C   UNL A   1      32.462  19.762  24.683  1.00  0.00     0.047 A 
ATOM     10  C   UNL A   1      32.275  20.678  22.449  1.00  0.00     0.073 A 
ATOM     11  C   UNL A   1      32.662  21.045  25.211  1.00  0.00     0.014 A 
ATOM     12  C   UNL A   1      32.461  21.955  22.997  1.00  0.00     0.050 A 
ATOM     13  C   UNL A   1      32.663  22.167  24.356  1.00  0.00     0.004 A 
ATOM     14  N   UNL A   1      32.488  23.185  22.389  1.00  0.00    -0.351 N 
ATOM     15  C   UNL A   1      32.628  24.196  23.317  1.00  0.00     0.093 A 
ATOM     16  H   UNL A   1      32.418  23.327  21.418  1.00  0.00     0.167 HD
BRANCH   8  17
ATOM     17  O   UNL A   1      32.062  18.372  22.702  1.00  0.00    -0.497 OA
ATOM     18  C   UNL A   1      32.912  17.308  23.118  1.00  0.00     0.278 C 
ENDBRANCH   8  17
BRANCH  15  19
ATOM     19  C   UNL A   1      32.557  25.624  23.019  1.00  0.00     0.227 C 
ATOM     20  O   UNL A   1      33.533  26.294  22.688  1.00  0.00    -0.285 OA
BRANCH  19  21
ATOM     21  C   UNL A   1      31.262  26.336  23.183  1.00  0.00     0.113 A 
ATOM     22  C   UNL A   1      31.106  27.615  22.656  1.00  0.00     0.036 A 
ATOM     23  N   UNL A   1      30.284  25.660  23.835  1.00  0.00    -0.253 NA
ATOM     24  C   UNL A   1      29.868  28.244  22.801  1.00  0.00    -0.047 A 
ATOM     25  C   UNL A   1      29.088  26.275  23.927  1.00  0.00     0.112 A 
ATOM     26  C   UNL A   1      29.623  29.620  22.257  1.00  0.00     0.044 C 
ATOM     27  C   UNL A   1      28.836  27.548  23.438  1.00  0.00     0.023 A 
ENDBRANCH  19  21
ENDBRANCH  15  19
ENDBRANCH   6   7
ENDBRANCH   3   6
ENDBRANCH   1   2
BRANCH   1  28
ATOM     28  C   UNL A   1      32.014  28.547  26.168  1.00  0.00     0.042 C 
BRANCH  28  29
ATOM     29  C   UNL A   1      32.911  29.638  25.586  1.00  0.00     0.118 C 
BRANCH  29  30
ATOM     30  N   UNL A   1      32.554  30.972  26.048  1.00  0.00    -0.352 N 
ATOM     31  C   UNL A   1      33.088  31.748  27.045  1.00  0.00     0.251 C 
ATOM     32  H   UNL A   1      31.804  31.387  25.564  1.00  0.00     0.163 HD
ATOM     33  O   UNL A   1      32.520  32.789  27.368  1.00  0.00    -0.269 OA
BRANCH  31  34
ATOM     34  C   UNL A   1      34.326  31.350  27.754  1.00  0.00     0.039 A 
ATOM     35  C   UNL A   1      35.375  32.273  27.828  1.00  0.00     0.014 A 
ATOM     36  C   UNL A   1      34.490  30.070  28.291  1.00  0.00     0.014 A 
ATOM     37  C   UNL A   1      36.559  31.939  28.493  1.00  0.00     0.010 A 
ATOM     38  C   UNL A   1      35.647  29.757  29.005  1.00  0.00     0.010 A 
ATOM     39  C   UNL A   1      36.691  30.687  29.115  1.00  0.00    -0.014 A 
BRANCH  39  40
ATOM     40  C   UNL A   1      37.908  30.342  29.892  1.00  0.00     0.031 A 
ATOM     41  C   UNL A   1      38.940  29.412  29.317  1.00  0.00     0.074 A 
ATOM     42  C   UNL A   1      38.052  30.812  31.145  1.00  0.00     0.049 A 
ATOM     43  N   UNL A   1      40.016  28.920  29.879  1.00  0.00    -0.248 NA
ATOM     44  C   UNL A   1      38.722  28.959  27.936  1.00  0.00     0.031 C 
ATOM     45  C   UNL A   1      37.105  31.694  31.830  1.00  0.00     0.029 A 
ATOM     46  N   UNL A   1      39.042  30.604  32.072  1.00  0.00    -0.354 N 
ATOM     47  C   UNL A   1      40.591  28.087  28.930  1.00  0.00     0.074 A 
ATOM     48  C   UNL A   1      39.728  28.112  27.767  1.00  0.00     0.031 C 
ATOM     49  C   UNL A   1      37.567  31.961  33.062  1.00  0.00     0.029 A 
ATOM     50  C   UNL A   1      38.821  31.243  33.267  1.00  0.00     0.049 A 
ATOM     51  H   UNL A   1      39.836  30.047  31.897  1.00  0.00     0.167 HD
ATOM     52  C   UNL A   1      41.741  27.376  29.014  1.00  0.00     0.037 A 
ATOM     53  C   UNL A   1      39.544  31.242  34.404  1.00  0.00     0.037 A 
ATOM     54  C   UNL A   1      42.617  27.375  30.157  1.00  0.00     0.049 A 
ATOM     55  C   UNL A   1      40.819  30.451  34.469  1.00  0.00     0.074 A 
ATOM     56  C   UNL A   1      43.833  26.733  30.313  1.00  0.00     0.029 A 
ATOM     57  N   UNL A   1      42.368  28.053  31.341  1.00  0.00    -0.354 N 
ATOM     58  N   UNL A   1      41.375  29.702  33.549  1.00  0.00    -0.248 NA
ATOM     59  C   UNL A   1      41.568  30.505  35.733  1.00  0.00     0.031 C 
ATOM     60  C   UNL A   1      44.306  26.997  31.603  1.00  0.00     0.029 A 
ATOM     61  C   UNL A   1      43.401  27.831  32.238  1.00  0.00     0.049 A 
ATOM     62  H   UNL A   1      41.575  28.609  31.518  1.00  0.00     0.167 HD
ATOM     63  C   UNL A   1      42.546  29.214  34.110  1.00  0.00     0.074 A 
ATOM     64  C   UNL A   1      42.628  29.759  35.449  1.00  0.00     0.031 C 
ATOM     65  C   UNL A   1      43.470  28.387  33.565  1.00  0.00     0.037 A 
BRANCH  52  66
ATOM     66  C   UNL A   1      42.124  26.537  27.832  1.00  0.00     0.064 A 
ATOM     67  C   UNL A   1      41.630  25.234  27.666  1.00  0.00     0.173 A 
ATOM     68  C   UNL A   1      42.960  27.056  26.832  1.00  0.00     0.173 A 
ATOM     69  F   UNL A   1      40.835  24.691  28.600  1.00  0.00    -0.203 F 
ATOM     70  C   UNL A   1      41.981  24.472  26.555  1.00  0.00     0.198 A 
ATOM     71  C   UNL A   1      43.288  26.300  25.710  1.00  0.00     0.198 A 
ATOM     72  F   UNL A   1      43.453  28.299  26.940  1.00  0.00    -0.203 F 
ATOM     73  F   UNL A   1      41.529  23.216  26.437  1.00  0.00    -0.200 F 
ATOM     74  C   UNL A   1      42.804  25.007  25.576  1.00  0.00     0.200 A 
ATOM     75  F   UNL A   1      44.075  26.821  24.759  1.00  0.00    -0.200 F 
ATOM     76  F   UNL A   1      43.135  24.274  24.503  1.00  0.00    -0.200 F 
ENDBRANCH  52  66
BRANCH  53  77
ATOM     77  C   UNL A   1      39.084  32.038  35.568  1.00  0.00     0.064 A 
ATOM     78  C   UNL A   1      39.419  33.394  35.685  1.00  0.00     0.173 A 
ATOM     79  C   UNL A   1      38.298  31.468  36.578  1.00  0.00     0.173 A 
ATOM     80  F   UNL A   1      40.188  33.975  34.753  1.00  0.00    -0.203 F 
ATOM     81  C   UNL A   1      38.997  34.147  36.779  1.00  0.00     0.198 A 
ATOM     82  C   UNL A   1      37.857  32.227  37.661  1.00  0.00     0.198 A 
ATOM     83  F   UNL A   1      37.950  30.175  36.510  1.00  0.00    -0.203 F 
ATOM     84  F   UNL A   1      39.361  35.431  36.886  1.00  0.00    -0.200 F 
ATOM     85  C   UNL A   1      38.212  33.564  37.762  1.00  0.00     0.200 A 
ATOM     86  F   UNL A   1      37.091  31.664  38.604  1.00  0.00    -0.200 F 
ATOM     87  F   UNL A   1      37.802  34.289  38.812  1.00  0.00    -0.200 F 
ENDBRANCH  53  77
BRANCH  65  88
ATOM     88  C   UNL A   1      44.662  28.043  34.405  1.00  0.00     0.064 A 
ATOM     89  C   UNL A   1      45.794  28.870  34.440  1.00  0.00     0.173 A 
ATOM     90  C   UNL A   1      44.658  26.896  35.211  1.00  0.00     0.173 A 
ATOM     91  F   UNL A   1      45.852  29.968  33.672  1.00  0.00    -0.203 F 
ATOM     92  C   UNL A   1      46.888  28.550  35.240  1.00  0.00     0.198 A 
ATOM     93  C   UNL A   1      45.744  26.591  36.027  1.00  0.00     0.198 A 
ATOM     94  F   UNL A   1      43.596  26.075  35.214  1.00  0.00    -0.203 F 
ATOM     95  F   UNL A   1      47.975  29.333  35.230  1.00  0.00    -0.200 F 
ATOM     96  C   UNL A   1      46.859  27.415  36.038  1.00  0.00     0.200 A 
ATOM     97  F   UNL A   1      45.712  25.498  36.803  1.00  0.00    -0.200 F 
ATOM     98  F   UNL A   1      47.911  27.110  36.810  1.00  0.00    -0.200 F 
ENDBRANCH  65  88
ENDBRANCH  39  40
ENDBRANCH  31  34
ENDBRANCH  29  30
ENDBRANCH  28  29
ENDBRANCH   1  28
TORSDOF 14
ENDMDL
MODEL 2
REMARK VINA RESULT:     -12.9      2.975      7.746
REMARK SMILES COc1ccc2c(CC(=O)NCCCNC(=O)c3ccc(-c4c5nc(c(-c6c(F)c(F)c(F)c(F)c6F)c6ccc([nH]6)c(-c6c(F)c(F)c(F)c(F)c6F)c6nc(c(-c7c(F)c(F)c(F)c(F)c7F)c7ccc4[nH]7)C=C6)C=C5)cc3)c(C(=O)c3cc(C)ccn3)[nH]c2c1
REMARK SMILES IDX 12 1 11 2 9 3 10 4 8 6 7 7 3 8 4 9 93 10 5 11 92 12 6 13
REMARK SMILES IDX 91 14 81 15 2 17 1 18 82 19 83 20 84 21 85 22 90 23 86 24
REMARK SMILES IDX 89 25 87 26 88 27 13 28 14 29 15 30 16 31 17 33 18 34 19 35
REMARK SMILES IDX 80 36 20 37 79 38 21 39 22 40 23 41 73 42 24 43 78 44 72 45
REMARK SMILES IDX 74 46 25 47 77 48 71 49 70 50 26 52 58 53 38 54 57 55 39 56
REMARK SMILES IDX 42 57 56 58 75 59 40 60 41 61 55 63 76 64 43 65 27 66 28 67
REMARK SMILES IDX 36 68 29 69 30 70 34 71 37 72 31 73 32 74 35 75 33 76 59 77
REMARK SMILES IDX 60 78 68 79 61 80 62 81 66 82 69 83 63 84 64 85 67 86 65 87
REMARK SMILES IDX 44 88 45 89 53 90 46 91 47 92 51 93 54 94 48 95 49 96 52 97
REMARK SMILES IDX 50 98
REMARK H PARENT 11 5 91 16 15 32 74 51 42 62
REMARK Flexibility Score: inf
ROOT
ATOM      1  C   UNL A   1      33.614  26.831  25.030  1.00  0.00     0.117 C 
ENDROOT
BRANCH   1   2
ATOM      2  N   UNL A   1      34.163  25.748  25.818  1.00  0.00    -0.356 N 
ATOM      3  C   UNL A   1      34.810  24.614  25.420  1.00  0.00     0.224 C 
ATOM      4  O   UNL A   1      35.369  23.960  26.305  1.00  0.00    -0.275 OA
ATOM      5  H   UNL A   1      34.052  25.846  26.792  1.00  0.00     0.163 HD
BRANCH   3   6
ATOM      6  C   UNL A   1      34.948  24.249  23.948  1.00  0.00     0.138 C 
BRANCH   6   7
ATOM      7  C   UNL A   1      33.869  23.345  23.406  1.00  0.00    -0.002 A 
ATOM      8  C   UNL A   1      32.740  19.335  24.102  1.00  0.00     0.120 A 
ATOM      9  C   UNL A   1      33.778  19.812  24.899  1.00  0.00     0.047 A 
ATOM     10  C   UNL A   1      32.149  20.165  23.143  1.00  0.00     0.073 A 
ATOM     11  C   UNL A   1      34.235  21.130  24.765  1.00  0.00     0.014 A 
ATOM     12  C   UNL A   1      32.607  21.484  23.034  1.00  0.00     0.050 A 
ATOM     13  C   UNL A   1      33.641  21.988  23.814  1.00  0.00     0.004 A 
ATOM     14  N   UNL A   1      32.192  22.501  22.210  1.00  0.00    -0.351 N 
ATOM     15  C   UNL A   1      32.872  23.671  22.482  1.00  0.00     0.093 A 
ATOM     16  H   UNL A   1      31.500  22.408  21.517  1.00  0.00     0.167 HD
BRANCH   8  17
ATOM     17  O   UNL A   1      32.226  18.066  24.152  1.00  0.00    -0.497 OA
ATOM     18  C   UNL A   1      32.568  17.294  25.298  1.00  0.00     0.278 C 
ENDBRANCH   8  17
BRANCH  15  19
ATOM     19  C   UNL A   1      32.579  24.970  21.884  1.00  0.00     0.227 C 
ATOM     20  O   UNL A   1      33.211  25.436  20.938  1.00  0.00    -0.285 OA
BRANCH  19  21
ATOM     21  C   UNL A   1      31.510  25.817  22.476  1.00  0.00     0.113 A 
ATOM     22  C   UNL A   1      31.380  27.145  22.076  1.00  0.00     0.036 A 
ATOM     23  N   UNL A   1      30.694  25.213  23.374  1.00  0.00    -0.253 NA
ATOM     24  C   UNL A   1      30.347  27.904  22.629  1.00  0.00    -0.047 A 
ATOM     25  C   UNL A   1      29.682  25.958  23.862  1.00  0.00     0.112 A 
ATOM     26  C   UNL A   1      30.143  29.339  22.245  1.00  0.00     0.044 C 
ATOM     27  C   UNL A   1      29.473  27.288  23.529  1.00  0.00     0.023 A 
ENDBRANCH  19  21
ENDBRANCH  15  19
ENDBRANCH   6   7
ENDBRANCH   3   6
ENDBRANCH   1   2
BRANCH   1  28
ATOM     28  C   UNL A   1      34.001  28.210  25.555  1.00  0.00     0.042 C 
BRANCH  28  29
ATOM     29  C   UNL A   1      33.805  28.396  27.059  1.00  0.00     0.118 C 
BRANCH  29  30
ATOM     30  N   UNL A   1      33.722  29.795  27.452  1.00  0.00    -0.352 N 
ATOM     31  C   UNL A   1      34.606  30.587  28.138  1.00  0.00     0.251 C 
ATOM     32  H   UNL A   1      32.892  30.249  27.178  1.00  0.00     0.163 HD
ATOM     33  O   UNL A   1      34.255  31.709  28.499  1.00  0.00    -0.269 OA
BRANCH  31  34
ATOM     34  C   UNL A   1      35.969  30.115  28.471  1.00  0.00     0.039 A 
ATOM     35  C   UNL A   1      36.967  30.226  27.496  1.00  0.00     0.014 A 
ATOM     36  C   UNL A   1      36.263  29.516  29.698  1.00  0.00     0.014 A 
ATOM     37  C   UNL A   1      38.269  29.796  27.772  1.00  0.00     0.010 A 
ATOM     38  C   UNL A   1      37.574  29.140  29.995  1.00  0.00     0.010 A 
ATOM     39  C   UNL A   1      38.589  29.279  29.036  1.00  0.00    -0.014 A 
BRANCH  39  40
ATOM     40  C   UNL A   1      39.982  28.890  29.376  1.00  0.00     0.031 A 
ATOM     41  C   UNL A   1      40.854  29.809  30.184  1.00  0.00     0.074 A 
ATOM     42  C   UNL A   1      40.484  27.736  28.898  1.00  0.00     0.049 A 
ATOM     43  N   UNL A   1      42.119  29.686  30.498  1.00  0.00    -0.248 NA
ATOM     44  C   UNL A   1      40.226  31.040  30.688  1.00  0.00     0.031 C 
ATOM     45  C   UNL A   1      39.751  26.773  28.074  1.00  0.00     0.029 A 
ATOM     46  N   UNL A   1      41.733  27.182  29.025  1.00  0.00    -0.354 N 
ATOM     47  C   UNL A   1      42.443  30.829  31.217  1.00  0.00     0.074 A 
ATOM     48  C   UNL A   1      41.251  31.649  31.265  1.00  0.00     0.031 C 
ATOM     49  C   UNL A   1      40.560  25.742  27.780  1.00  0.00     0.029 A 
ATOM     50  C   UNL A   1      41.875  25.987  28.364  1.00  0.00     0.049 A 
ATOM     51  H   UNL A   1      42.460  27.603  29.540  1.00  0.00     0.167 HD
ATOM     52  C   UNL A   1      43.623  31.157  31.796  1.00  0.00     0.037 A 
ATOM     53  C   UNL A   1      42.949  25.183  28.235  1.00  0.00     0.037 A 
ATOM     54  C   UNL A   1      44.799  30.327  31.777  1.00  0.00     0.049 A 
ATOM     55  C   UNL A   1      44.243  25.568  28.892  1.00  0.00     0.074 A 
ATOM     56  C   UNL A   1      46.022  30.548  32.386  1.00  0.00     0.029 A 
ATOM     57  N   UNL A   1      44.897  29.113  31.114  1.00  0.00    -0.354 N 
ATOM     58  N   UNL A   1      44.525  26.629  29.606  1.00  0.00    -0.248 NA
ATOM     59  C   UNL A   1      45.372  24.640  28.726  1.00  0.00     0.031 C 
ATOM     60  C   UNL A   1      46.871  29.483  32.066  1.00  0.00     0.029 A 
ATOM     61  C   UNL A   1      46.165  28.581  31.286  1.00  0.00     0.049 A 
ATOM     62  H   UNL A   1      44.172  28.691  30.598  1.00  0.00     0.167 HD
ATOM     63  C   UNL A   1      45.849  26.489  29.993  1.00  0.00     0.074 A 
ATOM     64  C   UNL A   1      46.316  25.234  29.443  1.00  0.00     0.031 C 
ATOM     65  C   UNL A   1      46.612  27.328  30.736  1.00  0.00     0.037 A 
BRANCH  52  66
ATOM     66  C   UNL A   1      43.701  32.475  32.507  1.00  0.00     0.064 A 
ATOM     67  C   UNL A   1      44.084  33.647  31.838  1.00  0.00     0.173 A 
ATOM     68  C   UNL A   1      43.349  32.575  33.862  1.00  0.00     0.173 A 
ATOM     69  F   UNL A   1      44.438  33.601  30.545  1.00  0.00    -0.203 F 
ATOM     70  C   UNL A   1      44.136  34.868  32.506  1.00  0.00     0.198 A 
ATOM     71  C   UNL A   1      43.379  33.802  34.519  1.00  0.00     0.198 A 
ATOM     72  F   UNL A   1      42.970  31.485  34.544  1.00  0.00    -0.203 F 
ATOM     73  F   UNL A   1      44.542  35.968  31.857  1.00  0.00    -0.200 F 
ATOM     74  C   UNL A   1      43.778  34.945  33.843  1.00  0.00     0.200 A 
ATOM     75  F   UNL A   1      43.024  33.878  35.809  1.00  0.00    -0.200 F 
ATOM     76  F   UNL A   1      43.824  36.122  34.483  1.00  0.00    -0.200 F 
ENDBRANCH  52  66
BRANCH  53  77
ATOM     77  C   UNL A   1      42.834  23.921  27.464  1.00  0.00     0.064 A 
ATOM     78  C   UNL A   1      42.417  22.738  28.087  1.00  0.00     0.173 A 
ATOM     79  C   UNL A   1      43.128  23.872  26.094  1.00  0.00     0.173 A 
ATOM     80  F   UNL A   1      42.147  22.733  29.400  1.00  0.00    -0.203 F 
ATOM     81  C   UNL A   1      42.314  21.546  27.372  1.00  0.00     0.198 A 
ATOM     82  C   UNL A   1      43.003  22.686  25.374  1.00  0.00     0.198 A 
ATOM     83  F   UNL A   1      43.529  24.980  25.453  1.00  0.00    -0.203 F 
ATOM     84  F   UNL A   1      41.948  20.421  27.999  1.00  0.00    -0.200 F 
ATOM     85  C   UNL A   1      42.601  21.523  26.015  1.00  0.00     0.200 A 
ATOM     86  F   UNL A   1      43.272  22.668  24.063  1.00  0.00    -0.200 F 
ATOM     87  F   UNL A   1      42.497  20.378  25.326  1.00  0.00    -0.200 F 
ENDBRANCH  53  77
BRANCH  65  88
ATOM     88  C   UNL A   1      48.020  26.902  31.021  1.00  0.00     0.064 A 
ATOM     89  C   UNL A   1      48.321  26.036  32.083  1.00  0.00     0.173 A 
ATOM     90  C   UNL A   1      49.073  27.334  30.203  1.00  0.00     0.173 A 
ATOM     91  F   UNL A   1      47.349  25.612  32.904  1.00  0.00    -0.203 F 
ATOM     92  C   UNL A   1      49.631  25.633  32.325  1.00  0.00     0.198 A 
ATOM     93  C   UNL A   1      50.379  26.910  30.434  1.00  0.00     0.198 A 
ATOM     94  F   UNL A   1      48.834  28.160  29.173  1.00  0.00    -0.203 F 
ATOM     95  F   UNL A   1      49.903  24.835  33.367  1.00  0.00    -0.200 F 
ATOM     96  C   UNL A   1      50.658  26.064  31.497  1.00  0.00     0.200 A 
ATOM     97  F   UNL A   1      51.368  27.321  29.629  1.00  0.00    -0.200 F 
ATOM     98  F   UNL A   1      51.918  25.671  31.729  1.00  0.00    -0.200 F 
ENDBRANCH  65  88
ENDBRANCH  39  40
ENDBRANCH  31  34
ENDBRANCH  29  30
ENDBRANCH  28  29
ENDBRANCH   1  28
TORSDOF 14
ENDMDL
MODEL 3
REMARK VINA RESULT:     -12.7      0.376      7.234
REMARK SMILES COc1ccc2c(CC(=O)NCCCNC(=O)c3ccc(-c4c5nc(c(-c6c(F)c(F)c(F)c(F)c6F)c6ccc([nH]6)c(-c6c(F)c(F)c(F)c(F)c6F)c6nc(c(-c7c(F)c(F)c(F)c(F)c7F)c7ccc4[nH]7)C=C6)C=C5)cc3)c(C(=O)c3cc(C)ccn3)[nH]c2c1
REMARK SMILES IDX 12 1 11 2 9 3 10 4 8 6 7 7 3 8 4 9 93 10 5 11 92 12 6 13
REMARK SMILES IDX 91 14 81 15 2 17 1 18 82 19 83 20 84 21 85 22 90 23 86 24
REMARK SMILES IDX 89 25 87 26 88 27 13 28 14 29 15 30 16 31 17 33 18 34 19 35
REMARK SMILES IDX 80 36 20 37 79 38 21 39 22 40 23 41 73 42 24 43 78 44 72 45
REMARK SMILES IDX 74 46 25 47 77 48 71 49 70 50 26 52 58 53 38 54 57 55 39 56
REMARK SMILES IDX 42 57 56 58 75 59 40 60 41 61 55 63 76 64 43 65 27 66 28 67
REMARK SMILES IDX 36 68 29 69 30 70 34 71 37 72 31 73 32 74 35 75 33 76 59 77
REMARK SMILES IDX 60 78 68 79 61 80 62 81 66 82 69 83 63 84 64 85 67 86 65 87
REMARK SMILES IDX 44 88 45 89 53 90 46 91 47 92 51 93 54 94 48 95 49 96 52 97
REMARK SMILES IDX 50 98
REMARK H PARENT 11 5 91 16 15 32 74 51 42 62
REMARK Flexibility Score: inf
ROOT
ATOM      1  C   UNL A   1      32.702  27.305  26.477  1.00  0.00     0.117 C 
ENDROOT
BRANCH   1   2
ATOM      2  N   UNL A   1      31.784  26.231  26.792  1.00  0.00    -0.356 N 
ATOM      3  C   UNL A   1      31.918  24.883  26.620  1.00  0.00     0.224 C 
ATOM      4  O   UNL A   1      31.075  24.171  27.173  1.00  0.00    -0.275 OA
ATOM      5  H   UNL A   1      30.930  26.517  27.192  1.00  0.00     0.163 HD
BRANCH   3   6
ATOM      6  C   UNL A   1      33.120  24.287  25.898  1.00  0.00     0.138 C 
BRANCH   6   7
ATOM      7  C   UNL A   1      32.814  23.633  24.574  1.00  0.00    -0.002 A 
ATOM      8  C   UNL A   1      32.262  19.643  23.301  1.00  0.00     0.120 A 
ATOM      9  C   UNL A   1      32.455  19.813  24.670  1.00  0.00     0.047 A 
ATOM     10  C   UNL A   1      32.268  20.750  22.444  1.00  0.00     0.073 A 
ATOM     11  C   UNL A   1      32.641  21.093  25.211  1.00  0.00     0.014 A 
ATOM     12  C   UNL A   1      32.440  22.022  23.005  1.00  0.00     0.050 A 
ATOM     13  C   UNL A   1      32.635  22.224  24.367  1.00  0.00     0.004 A 
ATOM     14  N   UNL A   1      32.458  23.258  22.409  1.00  0.00    -0.351 N 
ATOM     15  C   UNL A   1      32.584  24.262  23.347  1.00  0.00     0.093 A 
ATOM     16  H   UNL A   1      32.390  23.409  21.439  1.00  0.00     0.167 HD
BRANCH   8  17
ATOM     17  O   UNL A   1      32.077  18.438  22.674  1.00  0.00    -0.497 OA
ATOM     18  C   UNL A   1      32.883  17.360  23.135  1.00  0.00     0.278 C 
ENDBRANCH   8  17
BRANCH  15  19
ATOM     19  C   UNL A   1      32.501  25.691  23.063  1.00  0.00     0.227 C 
ATOM     20  O   UNL A   1      33.474  26.377  22.757  1.00  0.00    -0.285 OA
BRANCH  19  21
ATOM     21  C   UNL A   1      31.194  26.386  23.210  1.00  0.00     0.113 A 
ATOM     22  C   UNL A   1      31.029  27.665  22.684  1.00  0.00     0.036 A 
ATOM     23  N   UNL A   1      30.215  25.695  23.844  1.00  0.00    -0.253 NA
ATOM     24  C   UNL A   1      29.781  28.277  22.813  1.00  0.00    -0.047 A 
ATOM     25  C   UNL A   1      29.010  26.293  23.920  1.00  0.00     0.112 A 
ATOM     26  C   UNL A   1      29.526  29.651  22.270  1.00  0.00     0.044 C 
ATOM     27  C   UNL A   1      28.749  27.565  23.431  1.00  0.00     0.023 A 
ENDBRANCH  19  21
ENDBRANCH  15  19
ENDBRANCH   6   7
ENDBRANCH   3   6
ENDBRANCH   1   2
BRANCH   1  28
ATOM     28  C   UNL A   1      31.999  28.629  26.190  1.00  0.00     0.042 C 
BRANCH  28  29
ATOM     29  C   UNL A   1      32.892  29.702  25.571  1.00  0.00     0.118 C 
BRANCH  29  30
ATOM     30  N   UNL A   1      32.614  31.037  26.082  1.00  0.00    -0.352 N 
ATOM     31  C   UNL A   1      33.199  31.747  27.098  1.00  0.00     0.251 C 
ATOM     32  H   UNL A   1      31.884  31.509  25.620  1.00  0.00     0.163 HD
ATOM     33  O   UNL A   1      32.692  32.806  27.462  1.00  0.00    -0.269 OA
BRANCH  31  34
ATOM     34  C   UNL A   1      34.419  31.258  27.780  1.00  0.00     0.039 A 
ATOM     35  C   UNL A   1      35.506  32.131  27.904  1.00  0.00     0.014 A 
ATOM     36  C   UNL A   1      34.529  29.944  28.244  1.00  0.00     0.014 A 
ATOM     37  C   UNL A   1      36.675  31.709  28.545  1.00  0.00     0.010 A 
ATOM     38  C   UNL A   1      35.672  29.542  28.935  1.00  0.00     0.010 A 
ATOM     39  C   UNL A   1      36.754  30.420  29.094  1.00  0.00    -0.014 A 
BRANCH  39  40
ATOM     40  C   UNL A   1      37.957  29.980  29.848  1.00  0.00     0.031 A 
ATOM     41  C   UNL A   1      38.215  30.493  31.237  1.00  0.00     0.074 A 
ATOM     42  C   UNL A   1      38.852  29.170  29.253  1.00  0.00     0.049 A 
ATOM     43  N   UNL A   1      39.252  30.297  32.012  1.00  0.00    -0.248 NA
ATOM     44  C   UNL A   1      37.179  31.355  31.824  1.00  0.00     0.031 C 
ATOM     45  C   UNL A   1      38.735  28.631  27.897  1.00  0.00     0.029 A 
ATOM     46  N   UNL A   1      40.046  28.668  29.709  1.00  0.00    -0.354 N 
ATOM     47  C   UNL A   1      39.004  31.027  33.166  1.00  0.00     0.074 A 
ATOM     48  C   UNL A   1      37.734  31.695  32.978  1.00  0.00     0.031 C 
ATOM     49  C   UNL A   1      39.806  27.865  27.635  1.00  0.00     0.029 A 
ATOM     50  C   UNL A   1      40.700  27.885  28.789  1.00  0.00     0.049 A 
ATOM     51  H   UNL A   1      40.400  28.852  30.609  1.00  0.00     0.167 HD
ATOM     52  C   UNL A   1      39.760  31.119  34.286  1.00  0.00     0.037 A 
ATOM     53  C   UNL A   1      41.892  27.262  28.864  1.00  0.00     0.037 A 
ATOM     54  C   UNL A   1      41.008  30.429  34.487  1.00  0.00     0.049 A 
ATOM     55  C   UNL A   1      42.708  27.376  30.120  1.00  0.00     0.074 A 
ATOM     56  C   UNL A   1      41.815  30.414  35.611  1.00  0.00     0.029 A 
ATOM     57  N   UNL A   1      41.627  29.629  33.540  1.00  0.00    -0.354 N 
ATOM     58  N   UNL A   1      42.442  28.033  31.222  1.00  0.00    -0.248 NA
ATOM     59  C   UNL A   1      43.992  26.660  30.144  1.00  0.00     0.031 C 
ATOM     60  C   UNL A   1      42.940  29.629  35.332  1.00  0.00     0.029 A 
ATOM     61  C   UNL A   1      42.815  29.128  34.048  1.00  0.00     0.049 A 
ATOM     62  H   UNL A   1      41.275  29.443  32.639  1.00  0.00     0.167 HD
ATOM     63  C   UNL A   1      43.508  27.793  32.076  1.00  0.00     0.074 A 
ATOM     64  C   UNL A   1      44.424  26.922  31.370  1.00  0.00     0.031 C 
ATOM     65  C   UNL A   1      43.712  28.257  33.333  1.00  0.00     0.037 A 
BRANCH  52  66
ATOM     66  C   UNL A   1      39.256  32.000  35.390  1.00  0.00     0.064 A 
ATOM     67  C   UNL A   1      38.437  31.498  36.413  1.00  0.00     0.173 A 
ATOM     68  C   UNL A   1      39.629  33.351  35.449  1.00  0.00     0.173 A 
ATOM     69  F   UNL A   1      38.045  30.215  36.395  1.00  0.00    -0.203 F 
ATOM     70  C   UNL A   1      37.989  32.324  37.441  1.00  0.00     0.198 A 
ATOM     71  C   UNL A   1      39.199  34.167  36.492  1.00  0.00     0.198 A 
ATOM     72  F   UNL A   1      40.416  33.877  34.499  1.00  0.00    -0.203 F 
ATOM     73  F   UNL A   1      37.175  31.832  38.386  1.00  0.00    -0.200 F 
ATOM     74  C   UNL A   1      38.374  33.655  37.483  1.00  0.00     0.200 A 
ATOM     75  F   UNL A   1      39.580  35.451  36.537  1.00  0.00    -0.200 F 
ATOM     76  F   UNL A   1      37.947  34.446  38.477  1.00  0.00    -0.200 F 
ENDBRANCH  52  66
BRANCH  53  77
ATOM     77  C   UNL A   1      42.374  26.457  27.716  1.00  0.00     0.064 A 
ATOM     78  C   UNL A   1      41.929  25.141  27.528  1.00  0.00     0.173 A 
ATOM     79  C   UNL A   1      43.279  26.982  26.783  1.00  0.00     0.173 A 
ATOM     80  F   UNL A   1      41.081  24.590  28.408  1.00  0.00    -0.203 F 
ATOM     81  C   UNL A   1      42.382  24.375  26.455  1.00  0.00     0.198 A 
ATOM     82  C   UNL A   1      43.715  26.224  25.699  1.00  0.00     0.198 A 
ATOM     83  F   UNL A   1      43.732  28.237  26.919  1.00  0.00    -0.203 F 
ATOM     84  F   UNL A   1      41.970  23.109  26.318  1.00  0.00    -0.200 F 
ATOM     85  C   UNL A   1      43.270  24.920  25.539  1.00  0.00     0.200 A 
ATOM     86  F   UNL A   1      44.565  26.754  24.810  1.00  0.00    -0.200 F 
ATOM     87  F   UNL A   1      43.703  24.184  24.505  1.00  0.00    -0.200 F 
ENDBRANCH  53  77
BRANCH  65  88
ATOM     88  C   UNL A   1      44.957  27.808  34.036  1.00  0.00     0.064 A 
ATOM     89  C   UNL A   1      44.987  26.623  34.785  1.00  0.00     0.173 A 
ATOM     90  C   UNL A   1      46.142  28.550  33.927  1.00  0.00     0.173 A 
ATOM     91  F   UNL A   1      43.873  25.890  34.933  1.00  0.00    -0.203 F 
ATOM     92  C   UNL A   1      46.156  26.207  35.416  1.00  0.00     0.198 A 
ATOM     93  C   UNL A   1      47.315  28.118  34.540  1.00  0.00     0.198 A 
ATOM     94  F   UNL A   1      46.164  29.688  33.217  1.00  0.00    -0.203 F 
ATOM     95  F   UNL A   1      46.153  25.091  36.160  1.00  0.00    -0.200 F 
ATOM     96  C   UNL A   1      47.320  26.951  35.288  1.00  0.00     0.200 A 
ATOM     97  F   UNL A   1      48.440  28.834  34.409  1.00  0.00    -0.200 F 
ATOM     98  F   UNL A   1      48.445  26.546  35.893  1.00  0.00    -0.200 F 
ENDBRANCH  65  88
ENDBRANCH  39  40
ENDBRANCH  31  34
ENDBRANCH  29  30
ENDBRANCH  28  29
ENDBRANCH   1  28
TORSDOF 14
ENDMDL
