MODEL 1
REMARK VINA RESULT:     -15.1      0.000      0.000
REMARK SMILES O=C(NCCCNC(=O)c1ccc(N2C(=O)[C@@H]3N=NC(c4ccccc4)=C3[C@H]2c2cccc(Br)c2)cc1)c1ccc(-c2c3nc(c(-c4c(F)c(F)c(F)c(F)c4F)c4ccc([nH]4)c(-c4c(F)c(F)c(F)c(F)c4F)c4nc(c(-c5c(F)c(F)c(F)c(F)c5F)c5ccc2[nH]5)C=C4)C=C3)cc1
REMARK SMILES IDX 5 1 4 2 3 3 1 4 2 5 38 7 39 8 100 9 40 10 99 11 41 12 42 13
REMARK SMILES IDX 43 14 93 15 44 16 98 17 92 18 94 19 45 20 97 21 91 22 90 23
REMARK SMILES IDX 46 25 78 26 58 27 77 28 59 29 62 30 76 31 95 32 60 33 61 34
REMARK SMILES IDX 75 36 96 37 63 38 47 39 48 40 56 41 49 42 50 43 54 44 57 45
REMARK SMILES IDX 51 46 52 47 55 48 53 49 79 50 80 51 88 52 81 53 82 54 86 55
REMARK SMILES IDX 89 56 83 57 84 58 87 59 85 60 64 61 65 62 73 63 66 64 67 65
REMARK SMILES IDX 71 66 74 67 68 68 69 69 72 70 70 71 6 72 7 73 8 74 9 76
REMARK SMILES IDX 10 77 11 78 37 79 12 80 36 81 13 82 14 83 15 84 28 85 17 86
REMARK SMILES IDX 16 87 27 88 18 89 20 90 19 91 29 92 30 93 35 94 31 95 33 96
REMARK SMILES IDX 32 97 34 98 21 99 22 100 26 101 23 102 25 103 24 104
REMARK H PARENT 3 6 94 24 62 35 7 75
REMARK Flexibility Score: inf
ROOT
ATOM      1  C   UNL A   1      31.969  30.408  26.448  1.00  0.00     0.042 C 
ENDROOT
BRANCH   1   2
ATOM      2  C   UNL A   1      33.385  30.326  27.023  1.00  0.00     0.118 C 
BRANCH   2   3
ATOM      3  N   UNL A   1      33.706  31.331  28.017  1.00  0.00    -0.352 N 
ATOM      4  O   UNL A   1      34.764  32.817  29.254  1.00  0.00    -0.269 OA
ATOM      5  C   UNL A   1      34.851  31.755  28.632  1.00  0.00     0.251 C 
ATOM      6  H   UNL A   1      32.912  31.826  28.321  1.00  0.00     0.163 HD
BRANCH   5   7
ATOM      7  C   UNL A   1      36.138  31.008  28.683  1.00  0.00     0.039 A 
ATOM      8  C   UNL A   1      36.301  29.632  28.521  1.00  0.00     0.014 A 
ATOM      9  C   UNL A   1      37.270  31.786  28.997  1.00  0.00     0.014 A 
ATOM     10  C   UNL A   1      37.536  29.035  28.780  1.00  0.00     0.010 A 
ATOM     11  C   UNL A   1      38.504  31.199  29.245  1.00  0.00     0.010 A 
ATOM     12  C   UNL A   1      38.623  29.815  29.184  1.00  0.00    -0.014 A 
BRANCH  12  13
ATOM     13  C   UNL A   1      39.922  29.173  29.389  1.00  0.00     0.031 A 
ATOM     14  C   UNL A   1      40.317  29.027  30.824  1.00  0.00     0.074 A 
ATOM     15  C   UNL A   1      40.619  28.599  28.386  1.00  0.00     0.049 A 
ATOM     16  N   UNL A   1      41.407  29.411  31.404  1.00  0.00    -0.248 NA
ATOM     17  C   UNL A   1      39.322  28.458  31.751  1.00  0.00     0.031 C 
ATOM     18  C   UNL A   1      40.204  28.423  26.991  1.00  0.00     0.029 A 
ATOM     19  N   UNL A   1      41.820  27.951  28.422  1.00  0.00    -0.354 N 
ATOM     20  C   UNL A   1      41.310  28.991  32.733  1.00  0.00     0.074 A 
ATOM     21  C   UNL A   1      39.960  28.535  32.918  1.00  0.00     0.031 C 
ATOM     22  C   UNL A   1      41.018  27.527  26.388  1.00  0.00     0.029 A 
ATOM     23  C   UNL A   1      42.082  27.162  27.306  1.00  0.00     0.049 A 
ATOM     24  H   UNL A   1      42.449  28.035  29.175  1.00  0.00     0.167 HD
ATOM     25  C   UNL A   1      42.416  28.850  33.515  1.00  0.00     0.037 A 
ATOM     26  C   UNL A   1      43.062  26.229  27.175  1.00  0.00     0.037 A 
ATOM     27  C   UNL A   1      43.507  29.645  33.014  1.00  0.00     0.049 A 
ATOM     28  C   UNL A   1      44.076  26.492  28.224  1.00  0.00     0.074 A 
ATOM     29  C   UNL A   1      43.718  30.995  32.817  1.00  0.00     0.029 A 
ATOM     30  N   UNL A   1      44.502  29.014  32.312  1.00  0.00    -0.354 N 
ATOM     31  N   UNL A   1      44.854  27.536  28.238  1.00  0.00    -0.248 NA
ATOM     32  C   UNL A   1      43.908  25.816  29.500  1.00  0.00     0.031 C 
ATOM     33  C   UNL A   1      44.493  31.076  31.621  1.00  0.00     0.029 A 
ATOM     34  C   UNL A   1      44.757  29.773  31.202  1.00  0.00     0.049 A 
ATOM     35  H   UNL A   1      44.949  28.173  32.560  1.00  0.00     0.167 HD
ATOM     36  C   UNL A   1      44.913  27.908  29.572  1.00  0.00     0.074 A 
ATOM     37  C   UNL A   1      44.376  26.768  30.310  1.00  0.00     0.031 C 
ATOM     38  C   UNL A   1      45.122  29.207  29.928  1.00  0.00     0.037 A 
BRANCH  25  39
ATOM     39  C   UNL A   1      42.639  27.693  34.471  1.00  0.00     0.064 A 
ATOM     40  C   UNL A   1      43.133  26.474  33.955  1.00  0.00     0.173 A 
ATOM     41  C   UNL A   1      42.078  27.614  35.764  1.00  0.00     0.173 A 
ATOM     42  F   UNL A   1      43.707  26.425  32.743  1.00  0.00    -0.203 F 
ATOM     43  C   UNL A   1      42.948  25.259  34.620  1.00  0.00     0.198 A 
ATOM     44  C   UNL A   1      41.938  26.404  36.445  1.00  0.00     0.198 A 
ATOM     45  F   UNL A   1      41.546  28.672  36.384  1.00  0.00    -0.203 F 
ATOM     46  F   UNL A   1      43.295  24.113  34.017  1.00  0.00    -0.200 F 
ATOM     47  C   UNL A   1      42.333  25.223  35.856  1.00  0.00     0.200 A 
ATOM     48  F   UNL A   1      41.335  26.390  37.642  1.00  0.00    -0.200 F 
ATOM     49  F   UNL A   1      42.077  24.054  36.456  1.00  0.00    -0.200 F 
ENDBRANCH  25  39
BRANCH  26  50
ATOM     50  C   UNL A   1      43.013  24.936  26.444  1.00  0.00     0.064 A 
ATOM     51  C   UNL A   1      43.820  24.702  25.317  1.00  0.00     0.173 A 
ATOM     52  C   UNL A   1      42.389  23.807  27.008  1.00  0.00     0.173 A 
ATOM     53  F   UNL A   1      44.496  25.710  24.748  1.00  0.00    -0.203 F 
ATOM     54  C   UNL A   1      44.004  23.413  24.799  1.00  0.00     0.198 A 
ATOM     55  C   UNL A   1      42.567  22.524  26.488  1.00  0.00     0.198 A 
ATOM     56  F   UNL A   1      41.672  23.911  28.136  1.00  0.00    -0.203 F 
ATOM     57  F   UNL A   1      44.829  23.220  23.760  1.00  0.00    -0.200 F 
ATOM     58  C   UNL A   1      43.385  22.325  25.391  1.00  0.00     0.200 A 
ATOM     59  F   UNL A   1      41.996  21.476  27.095  1.00  0.00    -0.200 F 
ATOM     60  F   UNL A   1      43.607  21.084  24.934  1.00  0.00    -0.200 F 
ENDBRANCH  26  50
BRANCH  38  61
ATOM     61  C   UNL A   1      45.539  30.170  28.853  1.00  0.00     0.064 A 
ATOM     62  C   UNL A   1      44.640  30.860  28.022  1.00  0.00     0.173 A 
ATOM     63  C   UNL A   1      46.895  30.512  28.761  1.00  0.00     0.173 A 
ATOM     64  F   UNL A   1      43.320  30.665  28.120  1.00  0.00    -0.203 F 
ATOM     65  C   UNL A   1      45.087  31.815  27.110  1.00  0.00     0.198 A 
ATOM     66  C   UNL A   1      47.334  31.492  27.877  1.00  0.00     0.198 A 
ATOM     67  F   UNL A   1      47.792  29.924  29.570  1.00  0.00    -0.203 F 
ATOM     68  F   UNL A   1      44.210  32.451  26.319  1.00  0.00    -0.200 F 
ATOM     69  C   UNL A   1      46.432  32.135  27.045  1.00  0.00     0.200 A 
ATOM     70  F   UNL A   1      48.629  31.834  27.853  1.00  0.00    -0.200 F 
ATOM     71  F   UNL A   1      46.858  33.084  26.199  1.00  0.00    -0.200 F 
ENDBRANCH  38  61
ENDBRANCH  12  13
ENDBRANCH   5   7
ENDBRANCH   2   3
ENDBRANCH   1   2
BRANCH   1  72
ATOM     72  C   UNL A   1      31.556  29.248  25.540  1.00  0.00     0.118 C 
BRANCH  72  73
ATOM     73  N   UNL A   1      31.855  29.478  24.138  1.00  0.00    -0.352 N 
ATOM     74  C   UNL A   1      32.156  28.590  23.131  1.00  0.00     0.251 C 
ATOM     75  H   UNL A   1      31.841  30.423  23.863  1.00  0.00     0.163 HD
ATOM     76  O   UNL A   1      32.494  29.014  22.036  1.00  0.00    -0.269 OA
BRANCH  74  77
ATOM     77  C   UNL A   1      32.127  27.124  23.366  1.00  0.00     0.039 A 
ATOM     78  C   UNL A   1      33.310  26.520  23.783  1.00  0.00     0.016 A 
ATOM     79  C   UNL A   1      30.989  26.334  23.141  1.00  0.00     0.016 A 
ATOM     80  C   UNL A   1      33.326  25.152  24.068  1.00  0.00     0.027 A 
ATOM     81  C   UNL A   1      31.013  24.950  23.416  1.00  0.00     0.027 A 
ATOM     82  C   UNL A   1      32.173  24.357  23.917  1.00  0.00     0.045 A 
BRANCH  82  83
ATOM     83  N   UNL A   1      32.182  23.004  24.390  1.00  0.00    -0.299 N 
ATOM     84  C   UNL A   1      31.714  22.825  25.737  1.00  0.00     0.259 C 
ATOM     85  C   UNL A   1      33.341  22.117  24.122  1.00  0.00     0.152 C 
ATOM     86  C   UNL A   1      32.616  21.838  26.413  1.00  0.00     0.248 C 
ATOM     87  O   UNL A   1      30.783  23.419  26.269  1.00  0.00    -0.271 OA
ATOM     88  C   UNL A   1      33.790  22.006  25.527  1.00  0.00     0.021 C 
ATOM     89  N   UNL A   1      33.161  22.239  27.718  1.00  0.00    -0.170 NA
ATOM     90  C   UNL A   1      34.837  22.215  26.320  1.00  0.00     0.097 C 
ATOM     91  N   UNL A   1      34.425  22.302  27.637  1.00  0.00    -0.154 NA
BRANCH  85  92
ATOM     92  C   UNL A   1      32.992  20.709  23.582  1.00  0.00    -0.020 A 
ATOM     93  C   UNL A   1      32.248  20.555  22.381  1.00  0.00     0.006 A 
ATOM     94  C   UNL A   1      33.335  19.532  24.265  1.00  0.00     0.022 A 
ATOM     95  C   UNL A   1      31.917  19.307  21.852  1.00  0.00     0.002 A 
ATOM     96  C   UNL A   1      32.965  18.276  23.746  1.00  0.00     0.018 A 
ATOM     97  C   UNL A   1      32.273  18.160  22.540  1.00  0.00     0.016 A 
ATOM     98  Br  UNL A   1      33.386  16.696  24.699  1.00  0.00    -0.051 Br
ENDBRANCH  85  92
BRANCH  90  99
ATOM     99  C   UNL A   1      36.227  22.526  26.001  1.00  0.00     0.002 A 
ATOM    100  C   UNL A   1      37.147  21.495  25.769  1.00  0.00     0.010 A 
ATOM    101  C   UNL A   1      36.691  23.834  26.180  1.00  0.00     0.010 A 
ATOM    102  C   UNL A   1      38.520  21.759  25.816  1.00  0.00     0.001 A 
ATOM    103  C   UNL A   1      38.062  24.094  26.225  1.00  0.00     0.001 A 
ATOM    104  C   UNL A   1      38.975  23.052  26.071  1.00  0.00     0.000 A 
ENDBRANCH  90  99
ENDBRANCH  82  83
ENDBRANCH  74  77
ENDBRANCH  72  73
ENDBRANCH   1  72
TORSDOF 13
ENDMDL
MODEL 2
REMARK VINA RESULT:     -14.5      5.169      9.382
REMARK SMILES O=C(NCCCNC(=O)c1ccc(N2C(=O)[C@@H]3N=NC(c4ccccc4)=C3[C@H]2c2cccc(Br)c2)cc1)c1ccc(-c2c3nc(c(-c4c(F)c(F)c(F)c(F)c4F)c4ccc([nH]4)c(-c4c(F)c(F)c(F)c(F)c4F)c4nc(c(-c5c(F)c(F)c(F)c(F)c5F)c5ccc2[nH]5)C=C4)C=C3)cc1
REMARK SMILES IDX 5 1 4 2 3 3 1 4 2 5 38 7 39 8 100 9 40 10 99 11 41 12 42 13
REMARK SMILES IDX 43 14 93 15 44 16 98 17 92 18 94 19 45 20 97 21 91 22 90 23
REMARK SMILES IDX 46 25 78 26 58 27 77 28 59 29 62 30 76 31 95 32 60 33 61 34
REMARK SMILES IDX 75 36 96 37 63 38 47 39 48 40 56 41 49 42 50 43 54 44 57 45
REMARK SMILES IDX 51 46 52 47 55 48 53 49 79 50 80 51 88 52 81 53 82 54 86 55
REMARK SMILES IDX 89 56 83 57 84 58 87 59 85 60 64 61 65 62 73 63 66 64 67 65
REMARK SMILES IDX 71 66 74 67 68 68 69 69 72 70 70 71 6 72 7 73 8 74 9 76
REMARK SMILES IDX 10 77 11 78 37 79 12 80 36 81 13 82 14 83 15 84 28 85 17 86
REMARK SMILES IDX 16 87 27 88 18 89 20 90 19 91 29 92 30 93 35 94 31 95 33 96
REMARK SMILES IDX 32 97 34 98 21 99 22 100 26 101 23 102 25 103 24 104
REMARK H PARENT 3 6 94 24 62 35 7 75
REMARK Flexibility Score: inf
ROOT
ATOM      1  C   UNL A   1      33.856  35.291  29.282  1.00  0.00     0.042 C 
ENDROOT
BRANCH   1   2
ATOM      2  C   UNL A   1      34.884  34.257  28.823  1.00  0.00     0.118 C 
BRANCH   2   3
ATOM      3  N   UNL A   1      34.328  33.031  28.285  1.00  0.00    -0.352 N 
ATOM      4  O   UNL A   1      33.802  30.916  27.953  1.00  0.00    -0.269 OA
ATOM      5  C   UNL A   1      34.668  31.708  28.336  1.00  0.00     0.251 C 
ATOM      6  H   UNL A   1      33.512  33.188  27.758  1.00  0.00     0.163 HD
BRANCH   5   7
ATOM      7  C   UNL A   1      35.999  31.166  28.726  1.00  0.00     0.039 A 
ATOM      8  C   UNL A   1      37.045  31.886  29.304  1.00  0.00     0.014 A 
ATOM      9  C   UNL A   1      36.215  29.812  28.400  1.00  0.00     0.014 A 
ATOM     10  C   UNL A   1      38.305  31.302  29.446  1.00  0.00     0.010 A 
ATOM     11  C   UNL A   1      37.463  29.223  28.548  1.00  0.00     0.010 A 
ATOM     12  C   UNL A   1      38.522  29.986  29.027  1.00  0.00    -0.014 A 
BRANCH  12  13
ATOM     13  C   UNL A   1      39.835  29.378  29.243  1.00  0.00     0.031 A 
ATOM     14  C   UNL A   1      40.211  29.219  30.681  1.00  0.00     0.074 A 
ATOM     15  C   UNL A   1      40.565  28.842  28.241  1.00  0.00     0.049 A 
ATOM     16  N   UNL A   1      41.281  29.624  31.286  1.00  0.00    -0.248 NA
ATOM     17  C   UNL A   1      39.219  28.605  31.582  1.00  0.00     0.031 C 
ATOM     18  C   UNL A   1      40.178  28.679  26.837  1.00  0.00     0.029 A 
ATOM     19  N   UNL A   1      41.784  28.229  28.287  1.00  0.00    -0.354 N 
ATOM     20  C   UNL A   1      41.175  29.178  32.606  1.00  0.00     0.074 A 
ATOM     21  C   UNL A   1      39.835  28.680  32.761  1.00  0.00     0.031 C 
ATOM     22  C   UNL A   1      41.028  27.816  26.233  1.00  0.00     0.029 A 
ATOM     23  C   UNL A   1      42.087  27.467  27.162  1.00  0.00     0.049 A 
ATOM     24  H   UNL A   1      42.398  28.317  29.052  1.00  0.00     0.167 HD
ATOM     25  C   UNL A   1      42.271  29.055  33.403  1.00  0.00     0.037 A 
ATOM     26  C   UNL A   1      43.095  26.565  27.032  1.00  0.00     0.037 A 
ATOM     27  C   UNL A   1      43.347  29.890  32.935  1.00  0.00     0.049 A 
ATOM     28  C   UNL A   1      44.084  26.839  28.102  1.00  0.00     0.074 A 
ATOM     29  C   UNL A   1      43.521  31.249  32.763  1.00  0.00     0.029 A 
ATOM     30  N   UNL A   1      44.371  29.300  32.239  1.00  0.00    -0.354 N 
ATOM     31  N   UNL A   1      44.832  27.904  28.146  1.00  0.00    -0.248 NA
ATOM     32  C   UNL A   1      43.916  26.136  29.363  1.00  0.00     0.031 C 
ATOM     33  C   UNL A   1      44.313  31.373  31.583  1.00  0.00     0.029 A 
ATOM     34  C   UNL A   1      44.621  30.086  31.146  1.00  0.00     0.049 A 
ATOM     35  H   UNL A   1      44.837  28.469  32.480  1.00  0.00     0.167 HD
ATOM     36  C   UNL A   1      44.858  28.255  29.487  1.00  0.00     0.074 A 
ATOM     37  C   UNL A   1      44.342  27.087  30.197  1.00  0.00     0.031 C 
ATOM     38  C   UNL A   1      45.024  29.553  29.869  1.00  0.00     0.037 A 
BRANCH  25  39
ATOM     39  C   UNL A   1      42.512  27.889  34.343  1.00  0.00     0.064 A 
ATOM     40  C   UNL A   1      43.096  26.711  33.826  1.00  0.00     0.173 A 
ATOM     41  C   UNL A   1      41.896  27.748  35.606  1.00  0.00     0.173 A 
ATOM     42  F   UNL A   1      43.728  26.723  32.641  1.00  0.00    -0.203 F 
ATOM     43  C   UNL A   1      42.947  25.472  34.453  1.00  0.00     0.198 A 
ATOM     44  C   UNL A   1      41.791  26.516  36.252  1.00  0.00     0.198 A 
ATOM     45  F   UNL A   1      41.279  28.760  36.222  1.00  0.00    -0.203 F 
ATOM     46  F   UNL A   1      43.384  24.362  33.843  1.00  0.00    -0.200 F 
ATOM     47  C   UNL A   1      42.278  25.372  35.657  1.00  0.00     0.200 A 
ATOM     48  F   UNL A   1      41.134  26.440  37.418  1.00  0.00    -0.200 F 
ATOM     49  F   UNL A   1      42.058  24.177  36.219  1.00  0.00    -0.200 F 
ENDBRANCH  25  39
BRANCH  26  50
ATOM     50  C   UNL A   1      43.096  25.284  26.278  1.00  0.00     0.064 A 
ATOM     51  C   UNL A   1      44.074  25.007  25.307  1.00  0.00     0.173 A 
ATOM     52  C   UNL A   1      42.312  24.193  26.700  1.00  0.00     0.173 A 
ATOM     53  F   UNL A   1      44.903  25.974  24.887  1.00  0.00    -0.203 F 
ATOM     54  C   UNL A   1      44.266  23.713  24.805  1.00  0.00     0.198 A 
ATOM     55  C   UNL A   1      42.499  22.906  26.195  1.00  0.00     0.198 A 
ATOM     56  F   UNL A   1      41.414  24.335  27.686  1.00  0.00    -0.203 F 
ATOM     57  F   UNL A   1      45.248  23.475  23.924  1.00  0.00    -0.200 F 
ATOM     58  C   UNL A   1      43.484  22.663  25.256  1.00  0.00     0.200 A 
ATOM     59  F   UNL A   1      41.763  21.892  26.671  1.00  0.00    -0.200 F 
ATOM     60  F   UNL A   1      43.705  21.414  24.821  1.00  0.00    -0.200 F 
ENDBRANCH  26  50
BRANCH  38  61
ATOM     61  C   UNL A   1      45.430  30.546  28.818  1.00  0.00     0.064 A 
ATOM     62  C   UNL A   1      44.526  31.206  27.967  1.00  0.00     0.173 A 
ATOM     63  C   UNL A   1      46.771  30.947  28.770  1.00  0.00     0.173 A 
ATOM     64  F   UNL A   1      43.213  30.952  28.023  1.00  0.00    -0.203 F 
ATOM     65  C   UNL A   1      44.957  32.191  27.079  1.00  0.00     0.198 A 
ATOM     66  C   UNL A   1      47.192  31.956  27.910  1.00  0.00     0.198 A 
ATOM     67  F   UNL A   1      47.669  30.390  29.599  1.00  0.00    -0.203 F 
ATOM     68  F   UNL A   1      44.078  32.798  26.270  1.00  0.00    -0.200 F 
ATOM     69  C   UNL A   1      46.289  32.570  27.058  1.00  0.00     0.200 A 
ATOM     70  F   UNL A   1      48.472  32.354  27.929  1.00  0.00    -0.200 F 
ATOM     71  F   UNL A   1      46.697  33.546  26.236  1.00  0.00    -0.200 F 
ENDBRANCH  38  61
ENDBRANCH  12  13
ENDBRANCH   5   7
ENDBRANCH   2   3
ENDBRANCH   1   2
BRANCH   1  72
ATOM     72  C   UNL A   1      33.132  34.969  30.590  1.00  0.00     0.118 C 
BRANCH  72  73
ATOM     73  N   UNL A   1      33.051  36.099  31.499  1.00  0.00    -0.352 N 
ATOM     74  C   UNL A   1      33.751  36.371  32.652  1.00  0.00     0.251 C 
ATOM     75  H   UNL A   1      32.387  36.781  31.249  1.00  0.00     0.163 HD
ATOM     76  O   UNL A   1      33.437  37.335  33.333  1.00  0.00    -0.269 OA
BRANCH  74  77
ATOM     77  C   UNL A   1      34.851  35.484  33.109  1.00  0.00     0.039 A 
ATOM     78  C   UNL A   1      35.929  35.306  32.245  1.00  0.00     0.016 A 
ATOM     79  C   UNL A   1      34.822  34.794  34.330  1.00  0.00     0.016 A 
ATOM     80  C   UNL A   1      37.014  34.522  32.645  1.00  0.00     0.027 A 
ATOM     81  C   UNL A   1      35.914  33.992  34.725  1.00  0.00     0.027 A 
ATOM     82  C   UNL A   1      37.033  33.881  33.899  1.00  0.00     0.045 A 
BRANCH  82  83
ATOM     83  N   UNL A   1      38.236  33.239  34.345  1.00  0.00    -0.299 N 
ATOM     84  C   UNL A   1      38.228  31.805  34.268  1.00  0.00     0.259 C 
ATOM     85  C   UNL A   1      38.917  33.688  35.585  1.00  0.00     0.152 C 
ATOM     86  C   UNL A   1      38.865  31.271  35.514  1.00  0.00     0.248 C 
ATOM     87  O   UNL A   1      37.732  31.127  33.375  1.00  0.00    -0.271 OA
ATOM     88  C   UNL A   1      38.654  32.462  36.369  1.00  0.00     0.021 C 
ATOM     89  N   UNL A   1      38.112  30.239  36.241  1.00  0.00    -0.170 NA
ATOM     90  C   UNL A   1      38.091  32.027  37.492  1.00  0.00     0.097 C 
ATOM     91  N   UNL A   1      37.822  30.674  37.396  1.00  0.00    -0.154 NA
BRANCH  85  92
ATOM     92  C   UNL A   1      40.445  33.903  35.466  1.00  0.00    -0.020 A 
ATOM     93  C   UNL A   1      41.294  33.729  36.593  1.00  0.00     0.006 A 
ATOM     94  C   UNL A   1      41.057  34.328  34.277  1.00  0.00     0.022 A 
ATOM     95  C   UNL A   1      42.676  33.903  36.531  1.00  0.00     0.002 A 
ATOM     96  C   UNL A   1      42.449  34.539  34.231  1.00  0.00     0.018 A 
ATOM     97  C   UNL A   1      43.258  34.315  35.345  1.00  0.00     0.016 A 
ATOM     98  Br  UNL A   1      43.260  35.162  32.638  1.00  0.00    -0.051 Br
ENDBRANCH  85  92
BRANCH  90  99
ATOM     99  C   UNL A   1      37.586  32.759  38.649  1.00  0.00     0.002 A 
ATOM    100  C   UNL A   1      38.380  33.734  39.270  1.00  0.00     0.010 A 
ATOM    101  C   UNL A   1      36.426  32.308  39.289  1.00  0.00     0.010 A 
ATOM    102  C   UNL A   1      38.063  34.177  40.559  1.00  0.00     0.001 A 
ATOM    103  C   UNL A   1      36.112  32.754  40.574  1.00  0.00     0.001 A 
ATOM    104  C   UNL A   1      36.947  33.665  41.219  1.00  0.00     0.000 A 
ENDBRANCH  90  99
ENDBRANCH  82  83
ENDBRANCH  74  77
ENDBRANCH  72  73
ENDBRANCH   1  72
TORSDOF 13
ENDMDL
MODEL 3
REMARK VINA RESULT:     -14.1      5.457     11.983
REMARK SMILES O=C(NCCCNC(=O)c1ccc(N2C(=O)[C@@H]3N=NC(c4ccccc4)=C3[C@H]2c2cccc(Br)c2)cc1)c1ccc(-c2c3nc(c(-c4c(F)c(F)c(F)c(F)c4F)c4ccc([nH]4)c(-c4c(F)c(F)c(F)c(F)c4F)c4nc(c(-c5c(F)c(F)c(F)c(F)c5F)c5ccc2[nH]5)C=C4)C=C3)cc1
REMARK SMILES IDX 5 1 4 2 3 3 1 4 2 5 38 7 39 8 100 9 40 10 99 11 41 12 42 13
REMARK SMILES IDX 43 14 93 15 44 16 98 17 92 18 94 19 45 20 97 21 91 22 90 23
REMARK SMILES IDX 46 25 78 26 58 27 77 28 59 29 62 30 76 31 95 32 60 33 61 34
REMARK SMILES IDX 75 36 96 37 63 38 47 39 48 40 56 41 49 42 50 43 54 44 57 45
REMARK SMILES IDX 51 46 52 47 55 48 53 49 79 50 80 51 88 52 81 53 82 54 86 55
REMARK SMILES IDX 89 56 83 57 84 58 87 59 85 60 64 61 65 62 73 63 66 64 67 65
REMARK SMILES IDX 71 66 74 67 68 68 69 69 72 70 70 71 6 72 7 73 8 74 9 76
REMARK SMILES IDX 10 77 11 78 37 79 12 80 36 81 13 82 14 83 15 84 28 85 17 86
REMARK SMILES IDX 16 87 27 88 18 89 20 90 19 91 29 92 30 93 35 94 31 95 33 96
REMARK SMILES IDX 32 97 34 98 21 99 22 100 26 101 23 102 25 103 24 104
REMARK H PARENT 3 6 94 24 62 35 7 75
REMARK Flexibility Score: inf
ROOT
ATOM      1  C   UNL A   1      42.286  19.765  26.742  1.00  0.00     0.042 C 
ENDROOT
BRANCH   1   2
ATOM      2  C   UNL A   1      41.337  20.641  27.562  1.00  0.00     0.118 C 
BRANCH   2   3
ATOM      3  N   UNL A   1      40.181  21.138  26.843  1.00  0.00    -0.352 N 
ATOM      4  O   UNL A   1      38.803  22.393  25.666  1.00  0.00    -0.269 OA
ATOM      5  C   UNL A   1      39.707  22.375  26.506  1.00  0.00     0.251 C 
ATOM      6  H   UNL A   1      39.599  20.413  26.520  1.00  0.00     0.163 HD
BRANCH   5   7
ATOM      7  C   UNL A   1      40.124  23.664  27.123  1.00  0.00     0.039 A 
ATOM      8  C   UNL A   1      41.328  23.911  27.784  1.00  0.00     0.014 A 
ATOM      9  C   UNL A   1      39.159  24.690  27.082  1.00  0.00     0.014 A 
ATOM     10  C   UNL A   1      41.515  25.106  28.481  1.00  0.00     0.010 A 
ATOM     11  C   UNL A   1      39.344  25.885  27.765  1.00  0.00     0.010 A 
ATOM     12  C   UNL A   1      40.505  26.071  28.506  1.00  0.00    -0.014 A 
BRANCH  12  13
ATOM     13  C   UNL A   1      40.750  27.339  29.193  1.00  0.00     0.031 A 
ATOM     14  C   UNL A   1      41.862  28.151  28.610  1.00  0.00     0.074 A 
ATOM     15  C   UNL A   1      39.930  27.821  30.152  1.00  0.00     0.049 A 
ATOM     16  N   UNL A   1      42.900  28.644  29.205  1.00  0.00    -0.248 NA
ATOM     17  C   UNL A   1      41.862  28.360  27.151  1.00  0.00     0.031 C 
ATOM     18  C   UNL A   1      38.654  27.260  30.606  1.00  0.00     0.029 A 
ATOM     19  N   UNL A   1      40.013  28.984  30.861  1.00  0.00    -0.354 N 
ATOM     20  C   UNL A   1      43.601  29.362  28.234  1.00  0.00     0.074 A 
ATOM     21  C   UNL A   1      42.993  29.042  26.972  1.00  0.00     0.031 C 
ATOM     22  C   UNL A   1      37.986  28.188  31.328  1.00  0.00     0.029 A 
ATOM     23  C   UNL A   1      38.831  29.356  31.496  1.00  0.00     0.049 A 
ATOM     24  H   UNL A   1      40.840  29.516  30.920  1.00  0.00     0.167 HD
ATOM     25  C   UNL A   1      44.490  30.336  28.575  1.00  0.00     0.037 A 
ATOM     26  C   UNL A   1      38.547  30.562  32.056  1.00  0.00     0.037 A 
ATOM     27  C   UNL A   1      44.969  30.149  29.920  1.00  0.00     0.049 A 
ATOM     28  C   UNL A   1      39.833  31.265  32.284  1.00  0.00     0.074 A 
ATOM     29  C   UNL A   1      45.676  29.158  30.573  1.00  0.00     0.029 A 
ATOM     30  N   UNL A   1      44.444  30.938  30.912  1.00  0.00    -0.354 N 
ATOM     31  N   UNL A   1      40.722  30.890  33.159  1.00  0.00    -0.248 NA
ATOM     32  C   UNL A   1      40.323  32.124  31.219  1.00  0.00     0.031 C 
ATOM     33  C   UNL A   1      45.120  29.115  31.887  1.00  0.00     0.029 A 
ATOM     34  C   UNL A   1      44.155  30.118  31.970  1.00  0.00     0.049 A 
ATOM     35  H   UNL A   1      44.302  31.910  30.871  1.00  0.00     0.167 HD
ATOM     36  C   UNL A   1      41.938  31.086  32.524  1.00  0.00     0.074 A 
ATOM     37  C   UNL A   1      41.634  31.920  31.364  1.00  0.00     0.031 C 
ATOM     38  C   UNL A   1      43.023  30.321  32.837  1.00  0.00     0.037 A 
BRANCH  25  39
ATOM     39  C   UNL A   1      44.607  31.669  27.860  1.00  0.00     0.064 A 
ATOM     40  C   UNL A   1      45.751  31.914  27.067  1.00  0.00     0.173 A 
ATOM     41  C   UNL A   1      43.846  32.813  28.185  1.00  0.00     0.173 A 
ATOM     42  F   UNL A   1      46.544  30.903  26.677  1.00  0.00    -0.203 F 
ATOM     43  C   UNL A   1      46.172  33.208  26.753  1.00  0.00     0.198 A 
ATOM     44  C   UNL A   1      44.245  34.101  27.827  1.00  0.00     0.198 A 
ATOM     45  F   UNL A   1      42.749  32.755  28.945  1.00  0.00    -0.203 F 
ATOM     46  F   UNL A   1      47.345  33.393  26.134  1.00  0.00    -0.200 F 
ATOM     47  C   UNL A   1      45.428  34.302  27.150  1.00  0.00     0.200 A 
ATOM     48  F   UNL A   1      43.512  35.150  28.226  1.00  0.00    -0.200 F 
ATOM     49  F   UNL A   1      45.871  35.546  26.926  1.00  0.00    -0.200 F 
ENDBRANCH  25  39
BRANCH  26  50
ATOM     50  C   UNL A   1      37.248  31.282  32.087  1.00  0.00     0.064 A 
ATOM     51  C   UNL A   1      36.758  31.857  33.273  1.00  0.00     0.173 A 
ATOM     52  C   UNL A   1      36.605  31.669  30.896  1.00  0.00     0.173 A 
ATOM     53  F   UNL A   1      37.346  31.587  34.448  1.00  0.00    -0.203 F 
ATOM     54  C   UNL A   1      35.701  32.776  33.262  1.00  0.00     0.198 A 
ATOM     55  C   UNL A   1      35.547  32.580  30.887  1.00  0.00     0.198 A 
ATOM     56  F   UNL A   1      37.054  31.248  29.705  1.00  0.00    -0.203 F 
ATOM     57  F   UNL A   1      35.299  33.349  34.407  1.00  0.00    -0.200 F 
ATOM     58  C   UNL A   1      35.102  33.143  32.069  1.00  0.00     0.200 A 
ATOM     59  F   UNL A   1      35.006  32.958  29.721  1.00  0.00    -0.200 F 
ATOM     60  F   UNL A   1      34.131  34.067  32.050  1.00  0.00    -0.200 F 
ENDBRANCH  26  50
BRANCH  38  61
ATOM     61  C   UNL A   1      42.935  29.445  34.054  1.00  0.00     0.064 A 
ATOM     62  C   UNL A   1      42.352  28.167  34.063  1.00  0.00     0.173 A 
ATOM     63  C   UNL A   1      43.595  29.862  35.218  1.00  0.00     0.173 A 
ATOM     64  F   UNL A   1      41.791  27.655  32.961  1.00  0.00    -0.203 F 
ATOM     65  C   UNL A   1      42.390  27.363  35.201  1.00  0.00     0.198 A 
ATOM     66  C   UNL A   1      43.665  29.043  36.340  1.00  0.00     0.198 A 
ATOM     67  F   UNL A   1      44.218  31.051  35.247  1.00  0.00    -0.203 F 
ATOM     68  F   UNL A   1      41.816  26.151  35.189  1.00  0.00    -0.200 F 
ATOM     69  C   UNL A   1      43.054  27.800  36.335  1.00  0.00     0.200 A 
ATOM     70  F   UNL A   1      44.351  29.449  37.417  1.00  0.00    -0.200 F 
ATOM     71  F   UNL A   1      43.130  27.010  37.417  1.00  0.00    -0.200 F 
ENDBRANCH  38  61
ENDBRANCH  12  13
ENDBRANCH   5   7
ENDBRANCH   2   3
ENDBRANCH   1   2
BRANCH   1  72
ATOM     72  C   UNL A   1      43.100  20.493  25.671  1.00  0.00     0.118 C 
BRANCH  72  73
ATOM     73  N   UNL A   1      44.343  19.821  25.335  1.00  0.00    -0.352 N 
ATOM     74  C   UNL A   1      45.589  20.334  25.054  1.00  0.00     0.251 C 
ATOM     75  H   UNL A   1      44.285  18.839  25.303  1.00  0.00     0.163 HD
ATOM     76  O   UNL A   1      46.477  19.585  24.677  1.00  0.00    -0.269 OA
BRANCH  74  77
ATOM     77  C   UNL A   1      45.858  21.791  25.152  1.00  0.00     0.039 A 
ATOM     78  C   UNL A   1      45.473  22.434  26.326  1.00  0.00     0.016 A 
ATOM     79  C   UNL A   1      46.429  22.537  24.110  1.00  0.00     0.016 A 
ATOM     80  C   UNL A   1      45.748  23.794  26.492  1.00  0.00     0.027 A 
ATOM     81  C   UNL A   1      46.692  23.914  24.275  1.00  0.00     0.027 A 
ATOM     82  C   UNL A   1      46.386  24.543  25.483  1.00  0.00     0.045 A 
BRANCH  82  83
ATOM     83  N   UNL A   1      46.813  25.883  25.762  1.00  0.00    -0.299 N 
ATOM     84  C   UNL A   1      45.938  26.915  25.282  1.00  0.00     0.259 C 
ATOM     85  C   UNL A   1      48.232  26.278  25.578  1.00  0.00     0.152 C 
ATOM     86  C   UNL A   1      46.784  28.008  24.704  1.00  0.00     0.248 C 
ATOM     87  O   UNL A   1      44.712  26.889  25.281  1.00  0.00    -0.271 OA
ATOM     88  C   UNL A   1      47.998  27.201  24.445  1.00  0.00     0.021 C 
ATOM     89  N   UNL A   1      46.429  28.463  23.352  1.00  0.00    -0.170 NA
ATOM     90  C   UNL A   1      48.344  27.430  23.182  1.00  0.00     0.097 C 
ATOM     91  N   UNL A   1      47.400  28.233  22.569  1.00  0.00    -0.154 NA
BRANCH  85  92
ATOM     92  C   UNL A   1      48.864  27.060  26.754  1.00  0.00    -0.020 A 
ATOM     93  C   UNL A   1      48.273  27.033  28.046  1.00  0.00     0.006 A 
ATOM     94  C   UNL A   1      50.002  27.867  26.599  1.00  0.00     0.022 A 
ATOM     95  C   UNL A   1      48.811  27.715  29.138  1.00  0.00     0.002 A 
ATOM     96  C   UNL A   1      50.519  28.583  27.696  1.00  0.00     0.018 A 
ATOM     97  C   UNL A   1      49.939  28.499  28.962  1.00  0.00     0.016 A 
ATOM     98  Br  UNL A   1      52.022  29.711  27.468  1.00  0.00    -0.051 Br
ENDBRANCH  85  92
BRANCH  90  99
ATOM     99  C   UNL A   1      49.401  26.846  22.363  1.00  0.00     0.002 A 
ATOM    100  C   UNL A   1      50.747  27.036  22.705  1.00  0.00     0.010 A 
ATOM    101  C   UNL A   1      49.079  26.321  21.106  1.00  0.00     0.010 A 
ATOM    102  C   UNL A   1      51.750  26.794  21.760  1.00  0.00     0.001 A 
ATOM    103  C   UNL A   1      50.083  26.080  20.166  1.00  0.00     0.001 A 
ATOM    104  C   UNL A   1      51.414  26.344  20.484  1.00  0.00     0.000 A 
ENDBRANCH  90  99
ENDBRANCH  82  83
ENDBRANCH  74  77
ENDBRANCH  72  73
ENDBRANCH   1  72
TORSDOF 13
ENDMDL
