MODEL 1
REMARK VINA RESULT:     -11.7      0.000      0.000
REMARK SMILES CC[C@H](NC(=O)N1CCO[C@@H](CC(=O)NCCCNC(=O)c2ccc(-c3c4nc(c(-c5c(F)c(F)c(F)c(F)c5F)c5ccc([nH]5)c(-c5c(F)c(F)c(F)c(F)c5F)c5nc(c(-c6c(F)c(F)c(F)c(F)c6F)c6ccc3[nH]6)C=C5)C=C4)cc2)C1)c1cccs1
REMARK SMILES IDX 16 1 15 2 13 3 14 4 12 6 11 7 7 8 8 9 85 10 9 11 10 12 5 13
REMARK SMILES IDX 4 14 6 16 3 17 2 18 1 19 86 20 87 21 90 22 88 23 89 24 17 25
REMARK SMILES IDX 18 26 19 27 20 28 21 30 22 31 23 32 84 33 24 34 83 35 25 36
REMARK SMILES IDX 26 37 27 38 77 39 28 40 82 41 76 42 78 43 29 44 81 45 75 46
REMARK SMILES IDX 74 47 30 49 62 50 42 51 61 52 43 53 46 54 60 55 79 56 44 57
REMARK SMILES IDX 45 58 59 60 80 61 47 62 31 63 32 64 40 65 33 66 34 67 38 68
REMARK SMILES IDX 41 69 35 70 36 71 39 72 37 73 63 74 64 75 72 76 65 77 66 78
REMARK SMILES IDX 70 79 73 80 67 81 68 82 71 83 69 84 48 85 49 86 57 87 50 88
REMARK SMILES IDX 51 89 55 90 58 91 52 92 53 93 56 94 54 95
REMARK H PARENT 15 5 4 15 19 29 78 48 46 59
REMARK Flexibility Score: inf
ROOT
ATOM      1  C   UNL A   1      36.649  20.132  25.030  1.00  0.00     0.117 C 
ENDROOT
BRANCH   1   2
ATOM      2  N   UNL A   1      36.500  21.583  25.087  1.00  0.00    -0.356 N 
ATOM      3  C   UNL A   1      35.790  22.389  25.929  1.00  0.00     0.222 C 
ATOM      4  O   UNL A   1      35.829  23.606  25.736  1.00  0.00    -0.275 OA
ATOM      5  H   UNL A   1      37.002  22.067  24.393  1.00  0.00     0.163 HD
BRANCH   3   6
ATOM      6  C   UNL A   1      34.935  21.814  27.037  1.00  0.00     0.133 C 
BRANCH   6   7
ATOM      7  C   UNL A   1      33.508  21.517  26.563  1.00  0.00     0.147 C 
ATOM      8  N   UNL A   1      31.284  22.681  26.252  1.00  0.00    -0.320 N 
ATOM      9  C   UNL A   1      31.358  22.328  24.832  1.00  0.00     0.150 C 
ATOM     10  C   UNL A   1      32.592  22.700  26.888  1.00  0.00     0.154 C 
ATOM     11  C   UNL A   1      32.242  21.099  24.605  1.00  0.00     0.182 C 
ATOM     12  O   UNL A   1      33.559  21.300  25.138  1.00  0.00    -0.374 OA
BRANCH   8  13
ATOM     13  C   UNL A   1      30.348  23.488  26.843  1.00  0.00     0.318 C 
ATOM     14  N   UNL A   1      30.244  24.794  26.576  1.00  0.00    -0.330 N 
ATOM     15  H   UNL A   1      29.672  25.272  27.219  1.00  0.00     0.166 HD
ATOM     16  O   UNL A   1      29.523  23.048  27.653  1.00  0.00    -0.249 OA
BRANCH  14  17
ATOM     17  C   UNL A   1      30.786  25.661  25.551  1.00  0.00     0.124 C 
BRANCH  17  18
ATOM     18  C   UNL A   1      29.652  26.362  24.783  1.00  0.00     0.027 C 
ATOM     19  C   UNL A   1      30.174  27.169  23.596  1.00  0.00     0.006 C 
ENDBRANCH  17  18
BRANCH  17  20
ATOM     20  C   UNL A   1      31.736  26.666  26.177  1.00  0.00     0.027 A 
ATOM     21  C   UNL A   1      31.407  27.689  27.051  1.00  0.00     0.017 A 
ATOM     22  S   UNL A   1      33.422  26.692  25.823  1.00  0.00    -0.147 S 
ATOM     23  C   UNL A   1      32.511  28.540  27.343  1.00  0.00     0.012 A 
ATOM     24  C   UNL A   1      33.661  28.128  26.711  1.00  0.00     0.065 A 
ENDBRANCH  17  20
ENDBRANCH  14  17
ENDBRANCH   8  13
ENDBRANCH   6   7
ENDBRANCH   3   6
ENDBRANCH   1   2
BRANCH   1  25
ATOM     25  C   UNL A   1      38.089  19.684  24.766  1.00  0.00     0.042 C 
BRANCH  25  26
ATOM     26  C   UNL A   1      39.120  20.174  25.774  1.00  0.00     0.118 C 
BRANCH  26  27
ATOM     27  N   UNL A   1      40.195  19.214  25.952  1.00  0.00    -0.352 N 
ATOM     28  C   UNL A   1      41.543  19.402  26.140  1.00  0.00     0.251 C 
ATOM     29  H   UNL A   1      39.910  18.271  25.937  1.00  0.00     0.163 HD
ATOM     30  O   UNL A   1      42.288  18.433  26.014  1.00  0.00    -0.269 OA
BRANCH  28  31
ATOM     31  C   UNL A   1      42.132  20.723  26.495  1.00  0.00     0.039 A 
ATOM     32  C   UNL A   1      42.171  21.082  27.849  1.00  0.00     0.014 A 
ATOM     33  C   UNL A   1      42.530  21.660  25.539  1.00  0.00     0.014 A 
ATOM     34  C   UNL A   1      42.611  22.353  28.238  1.00  0.00     0.010 A 
ATOM     35  C   UNL A   1      43.045  22.901  25.930  1.00  0.00     0.010 A 
ATOM     36  C   UNL A   1      43.059  23.276  27.282  1.00  0.00    -0.014 A 
BRANCH  36  37
ATOM     37  C   UNL A   1      43.473  24.651  27.681  1.00  0.00     0.031 A 
ATOM     38  C   UNL A   1      42.433  25.690  28.019  1.00  0.00     0.074 A 
ATOM     39  C   UNL A   1      44.778  24.981  27.729  1.00  0.00     0.049 A 
ATOM     40  N   UNL A   1      42.593  26.943  28.371  1.00  0.00    -0.248 NA
ATOM     41  C   UNL A   1      41.026  25.272  27.927  1.00  0.00     0.031 C 
ATOM     42  C   UNL A   1      45.888  24.090  27.391  1.00  0.00     0.029 A 
ATOM     43  N   UNL A   1      45.392  26.159  28.081  1.00  0.00    -0.354 N 
ATOM     44  C   UNL A   1      41.314  27.463  28.519  1.00  0.00     0.074 A 
ATOM     45  C   UNL A   1      40.388  26.405  28.176  1.00  0.00     0.031 C 
ATOM     46  C   UNL A   1      47.046  24.744  27.578  1.00  0.00     0.029 A 
ATOM     47  C   UNL A   1      46.762  26.106  28.022  1.00  0.00     0.049 A 
ATOM     48  H   UNL A   1      44.895  26.965  28.350  1.00  0.00     0.167 HD
ATOM     49  C   UNL A   1      40.939  28.701  28.926  1.00  0.00     0.037 A 
ATOM     50  C   UNL A   1      47.686  27.046  28.299  1.00  0.00     0.037 A 
ATOM     51  C   UNL A   1      41.853  29.745  29.309  1.00  0.00     0.049 A 
ATOM     52  C   UNL A   1      47.247  28.404  28.778  1.00  0.00     0.074 A 
ATOM     53  C   UNL A   1      41.566  31.012  29.788  1.00  0.00     0.029 A 
ATOM     54  N   UNL A   1      43.235  29.639  29.262  1.00  0.00    -0.354 N 
ATOM     55  N   UNL A   1      46.035  28.863  28.968  1.00  0.00    -0.248 NA
ATOM     56  C   UNL A   1      48.309  29.372  29.091  1.00  0.00     0.031 C 
ATOM     57  C   UNL A   1      42.774  31.685  30.001  1.00  0.00     0.029 A 
ATOM     58  C   UNL A   1      43.813  30.823  29.693  1.00  0.00     0.049 A 
ATOM     59  H   UNL A   1      43.731  28.842  28.967  1.00  0.00     0.167 HD
ATOM     60  C   UNL A   1      46.187  30.157  29.447  1.00  0.00     0.074 A 
ATOM     61  C   UNL A   1      47.610  30.408  29.531  1.00  0.00     0.031 C 
ATOM     62  C   UNL A   1      45.231  31.056  29.785  1.00  0.00     0.037 A 
BRANCH  49  63
ATOM     63  C   UNL A   1      39.469  28.994  28.985  1.00  0.00     0.064 A 
ATOM     64  C   UNL A   1      38.748  29.366  27.840  1.00  0.00     0.173 A 
ATOM     65  C   UNL A   1      38.764  28.867  30.193  1.00  0.00     0.173 A 
ATOM     66  F   UNL A   1      39.377  29.510  26.664  1.00  0.00    -0.203 F 
ATOM     67  C   UNL A   1      37.382  29.630  27.908  1.00  0.00     0.198 A 
ATOM     68  C   UNL A   1      37.393  29.105  30.251  1.00  0.00     0.198 A 
ATOM     69  F   UNL A   1      39.404  28.505  31.315  1.00  0.00    -0.203 F 
ATOM     70  F   UNL A   1      36.724  30.030  26.812  1.00  0.00    -0.200 F 
ATOM     71  C   UNL A   1      36.705  29.493  29.111  1.00  0.00     0.200 A 
ATOM     72  F   UNL A   1      36.738  28.961  31.411  1.00  0.00    -0.200 F 
ATOM     73  F   UNL A   1      35.390  29.743  29.173  1.00  0.00    -0.200 F 
ENDBRANCH  49  63
BRANCH  50  74
ATOM     74  C   UNL A   1      49.130  26.723  28.169  1.00  0.00     0.064 A 
ATOM     75  C   UNL A   1      49.877  26.314  29.283  1.00  0.00     0.173 A 
ATOM     76  C   UNL A   1      49.791  26.820  26.937  1.00  0.00     0.173 A 
ATOM     77  F   UNL A   1      49.292  26.231  30.486  1.00  0.00    -0.203 F 
ATOM     78  C   UNL A   1      51.236  26.030  29.172  1.00  0.00     0.198 A 
ATOM     79  C   UNL A   1      51.145  26.512  26.822  1.00  0.00     0.198 A 
ATOM     80  F   UNL A   1      49.120  27.206  25.842  1.00  0.00    -0.203 F 
ATOM     81  F   UNL A   1      51.937  25.683  30.261  1.00  0.00    -0.200 F 
ATOM     82  C   UNL A   1      51.868  26.123  27.941  1.00  0.00     0.200 A 
ATOM     83  F   UNL A   1      51.752  26.595  25.630  1.00  0.00    -0.200 F 
ATOM     84  F   UNL A   1      53.175  25.848  27.834  1.00  0.00    -0.200 F 
ENDBRANCH  50  74
BRANCH  62  85
ATOM     85  C   UNL A   1      45.690  32.384  30.313  1.00  0.00     0.064 A 
ATOM     86  C   UNL A   1      45.900  33.480  29.463  1.00  0.00     0.173 A 
ATOM     87  C   UNL A   1      45.887  32.570  31.690  1.00  0.00     0.173 A 
ATOM     88  F   UNL A   1      45.740  33.347  28.138  1.00  0.00    -0.203 F 
ATOM     89  C   UNL A   1      46.316  34.707  29.971  1.00  0.00     0.198 A 
ATOM     90  C   UNL A   1      46.279  33.806  32.196  1.00  0.00     0.198 A 
ATOM     91  F   UNL A   1      45.694  31.555  32.544  1.00  0.00    -0.203 F 
ATOM     92  F   UNL A   1      46.554  35.729  29.136  1.00  0.00    -0.200 F 
ATOM     93  C   UNL A   1      46.499  34.872  31.336  1.00  0.00     0.200 A 
ATOM     94  F   UNL A   1      46.445  33.966  33.516  1.00  0.00    -0.200 F 
ATOM     95  F   UNL A   1      46.896  36.056  31.823  1.00  0.00    -0.200 F 
ENDBRANCH  62  85
ENDBRANCH  36  37
ENDBRANCH  28  31
ENDBRANCH  26  27
ENDBRANCH  25  26
ENDBRANCH   1  25
TORSDOF 15
ENDMDL
MODEL 2
REMARK VINA RESULT:     -11.5      0.644      1.718
REMARK SMILES CC[C@H](NC(=O)N1CCO[C@@H](CC(=O)NCCCNC(=O)c2ccc(-c3c4nc(c(-c5c(F)c(F)c(F)c(F)c5F)c5ccc([nH]5)c(-c5c(F)c(F)c(F)c(F)c5F)c5nc(c(-c6c(F)c(F)c(F)c(F)c6F)c6ccc3[nH]6)C=C5)C=C4)cc2)C1)c1cccs1
REMARK SMILES IDX 16 1 15 2 13 3 14 4 12 6 11 7 7 8 8 9 85 10 9 11 10 12 5 13
REMARK SMILES IDX 4 14 6 16 3 17 2 18 1 19 86 20 87 21 90 22 88 23 89 24 17 25
REMARK SMILES IDX 18 26 19 27 20 28 21 30 22 31 23 32 84 33 24 34 83 35 25 36
REMARK SMILES IDX 26 37 27 38 77 39 28 40 82 41 76 42 78 43 29 44 81 45 75 46
REMARK SMILES IDX 74 47 30 49 62 50 42 51 61 52 43 53 46 54 60 55 79 56 44 57
REMARK SMILES IDX 45 58 59 60 80 61 47 62 31 63 32 64 40 65 33 66 34 67 38 68
REMARK SMILES IDX 41 69 35 70 36 71 39 72 37 73 63 74 64 75 72 76 65 77 66 78
REMARK SMILES IDX 70 79 73 80 67 81 68 82 71 83 69 84 48 85 49 86 57 87 50 88
REMARK SMILES IDX 51 89 55 90 58 91 52 92 53 93 56 94 54 95
REMARK H PARENT 15 5 4 15 19 29 78 48 46 59
REMARK Flexibility Score: inf
ROOT
ATOM      1  C   UNL A   1      36.899  20.098  24.990  1.00  0.00     0.117 C 
ENDROOT
BRANCH   1   2
ATOM      2  N   UNL A   1      37.015  21.428  24.400  1.00  0.00    -0.356 N 
ATOM      3  C   UNL A   1      36.544  22.643  24.804  1.00  0.00     0.222 C 
ATOM      4  O   UNL A   1      36.778  23.622  24.093  1.00  0.00    -0.275 OA
ATOM      5  H   UNL A   1      37.528  21.454  23.561  1.00  0.00     0.163 HD
BRANCH   3   6
ATOM      6  C   UNL A   1      35.710  22.788  26.059  1.00  0.00     0.133 C 
BRANCH   6   7
ATOM      7  C   UNL A   1      34.301  22.211  25.879  1.00  0.00     0.147 C 
ATOM      8  N   UNL A   1      31.880  22.940  25.956  1.00  0.00    -0.320 N 
ATOM      9  C   UNL A   1      31.760  22.503  24.563  1.00  0.00     0.150 C 
ATOM     10  C   UNL A   1      33.256  23.234  26.329  1.00  0.00     0.154 C 
ATOM     11  C   UNL A   1      32.801  21.434  24.218  1.00  0.00     0.182 C 
ATOM     12  O   UNL A   1      34.132  21.903  24.480  1.00  0.00    -0.374 OA
BRANCH   8  13
ATOM     13  C   UNL A   1      30.933  23.610  26.685  1.00  0.00     0.318 C 
ATOM     14  N   UNL A   1      30.704  24.920  26.545  1.00  0.00    -0.330 N 
ATOM     15  H   UNL A   1      30.149  25.291  27.268  1.00  0.00     0.166 HD
ATOM     16  O   UNL A   1      30.214  23.034  27.510  1.00  0.00    -0.249 OA
BRANCH  14  17
ATOM     17  C   UNL A   1      31.091  25.913  25.565  1.00  0.00     0.124 C 
BRANCH  17  18
ATOM     18  C   UNL A   1      29.846  26.543  24.915  1.00  0.00     0.027 C 
ATOM     19  C   UNL A   1      30.198  27.368  23.679  1.00  0.00     0.006 C 
ENDBRANCH  17  18
BRANCH  17  20
ATOM     20  C   UNL A   1      31.967  26.965  26.218  1.00  0.00     0.027 A 
ATOM     21  C   UNL A   1      31.578  27.908  27.157  1.00  0.00     0.017 A 
ATOM     22  S   UNL A   1      33.632  27.163  25.819  1.00  0.00    -0.147 S 
ATOM     23  C   UNL A   1      32.611  28.839  27.464  1.00  0.00     0.012 A 
ATOM     24  C   UNL A   1      33.771  28.566  26.777  1.00  0.00     0.065 A 
ENDBRANCH  17  20
ENDBRANCH  14  17
ENDBRANCH   8  13
ENDBRANCH   6   7
ENDBRANCH   3   6
ENDBRANCH   1   2
BRANCH   1  25
ATOM     25  C   UNL A   1      38.216  19.316  24.977  1.00  0.00     0.042 C 
BRANCH  25  26
ATOM     26  C   UNL A   1      39.349  19.933  25.786  1.00  0.00     0.118 C 
BRANCH  26  27
ATOM     27  N   UNL A   1      40.430  18.988  26.003  1.00  0.00    -0.352 N 
ATOM     28  C   UNL A   1      41.778  19.192  26.174  1.00  0.00     0.251 C 
ATOM     29  H   UNL A   1      40.151  18.045  26.033  1.00  0.00     0.163 HD
ATOM     30  O   UNL A   1      42.529  18.223  26.089  1.00  0.00    -0.269 OA
BRANCH  28  31
ATOM     31  C   UNL A   1      42.361  20.531  26.463  1.00  0.00     0.039 A 
ATOM     32  C   UNL A   1      42.349  20.980  27.792  1.00  0.00     0.014 A 
ATOM     33  C   UNL A   1      42.804  21.401  25.464  1.00  0.00     0.014 A 
ATOM     34  C   UNL A   1      42.782  22.273  28.112  1.00  0.00     0.010 A 
ATOM     35  C   UNL A   1      43.310  22.664  25.792  1.00  0.00     0.010 A 
ATOM     36  C   UNL A   1      43.274  23.128  27.115  1.00  0.00    -0.014 A 
BRANCH  36  37
ATOM     37  C   UNL A   1      43.681  24.525  27.439  1.00  0.00     0.031 A 
ATOM     38  C   UNL A   1      42.642  25.550  27.822  1.00  0.00     0.074 A 
ATOM     39  C   UNL A   1      44.976  24.887  27.377  1.00  0.00     0.049 A 
ATOM     40  N   UNL A   1      42.796  26.817  28.122  1.00  0.00    -0.248 NA
ATOM     41  C   UNL A   1      41.244  25.096  27.851  1.00  0.00     0.031 C 
ATOM     42  C   UNL A   1      46.080  24.012  26.983  1.00  0.00     0.029 A 
ATOM     43  N   UNL A   1      45.584  26.090  27.644  1.00  0.00    -0.354 N 
ATOM     44  C   UNL A   1      41.518  27.311  28.351  1.00  0.00     0.074 A 
ATOM     45  C   UNL A   1      40.597  26.221  28.113  1.00  0.00     0.031 C 
ATOM     46  C   UNL A   1      47.232  24.699  27.060  1.00  0.00     0.029 A 
ATOM     47  C   UNL A   1      46.947  26.068  27.482  1.00  0.00     0.049 A 
ATOM     48  H   UNL A   1      45.088  26.893  27.925  1.00  0.00     0.167 HD
ATOM     49  C   UNL A   1      41.143  28.553  28.747  1.00  0.00     0.037 A 
ATOM     50  C   UNL A   1      47.864  27.038  27.658  1.00  0.00     0.037 A 
ATOM     51  C   UNL A   1      42.055  29.630  29.026  1.00  0.00     0.049 A 
ATOM     52  C   UNL A   1      47.427  28.400  28.127  1.00  0.00     0.074 A 
ATOM     53  C   UNL A   1      41.773  30.905  29.485  1.00  0.00     0.029 A 
ATOM     54  N   UNL A   1      43.432  29.556  28.877  1.00  0.00    -0.354 N 
ATOM     55  N   UNL A   1      46.221  28.837  28.394  1.00  0.00    -0.248 NA
ATOM     56  C   UNL A   1      48.485  29.403  28.327  1.00  0.00     0.031 C 
ATOM     57  C   UNL A   1      42.976  31.613  29.585  1.00  0.00     0.029 A 
ATOM     58  C   UNL A   1      44.010  30.766  29.225  1.00  0.00     0.049 A 
ATOM     59  H   UNL A   1      43.925  28.761  28.570  1.00  0.00     0.167 HD
ATOM     60  C   UNL A   1      46.375  30.149  28.819  1.00  0.00     0.074 A 
ATOM     61  C   UNL A   1      47.794  30.436  28.787  1.00  0.00     0.031 C 
ATOM     62  C   UNL A   1      45.425  31.036  29.201  1.00  0.00     0.037 A 
BRANCH  49  63
ATOM     63  C   UNL A   1      39.674  28.812  28.908  1.00  0.00     0.064 A 
ATOM     64  C   UNL A   1      39.026  28.624  30.139  1.00  0.00     0.173 A 
ATOM     65  C   UNL A   1      38.912  29.289  27.831  1.00  0.00     0.173 A 
ATOM     66  F   UNL A   1      39.709  28.161  31.197  1.00  0.00    -0.203 F 
ATOM     67  C   UNL A   1      37.663  28.873  30.277  1.00  0.00     0.198 A 
ATOM     68  C   UNL A   1      37.554  29.563  27.980  1.00  0.00     0.198 A 
ATOM     69  F   UNL A   1      39.484  29.494  26.635  1.00  0.00    -0.203 F 
ATOM     70  F   UNL A   1      37.056  28.640  31.448  1.00  0.00    -0.200 F 
ATOM     71  C   UNL A   1      36.930  29.348  29.199  1.00  0.00     0.200 A 
ATOM     72  F   UNL A   1      36.850  30.034  26.942  1.00  0.00    -0.200 F 
ATOM     73  F   UNL A   1      35.619  29.592  29.335  1.00  0.00    -0.200 F 
ENDBRANCH  49  63
BRANCH  50  74
ATOM     74  C   UNL A   1      49.302  26.745  27.428  1.00  0.00     0.064 A 
ATOM     75  C   UNL A   1      49.859  26.848  26.145  1.00  0.00     0.173 A 
ATOM     76  C   UNL A   1      50.144  26.352  28.477  1.00  0.00     0.173 A 
ATOM     77  F   UNL A   1      49.086  27.197  25.106  1.00  0.00    -0.203 F 
ATOM     78  C   UNL A   1      51.201  26.553  25.918  1.00  0.00     0.198 A 
ATOM     79  C   UNL A   1      51.492  26.081  28.254  1.00  0.00     0.198 A 
ATOM     80  F   UNL A   1      49.658  26.238  29.722  1.00  0.00    -0.203 F 
ATOM     81  F   UNL A   1      51.698  26.618  24.675  1.00  0.00    -0.200 F 
ATOM     82  C   UNL A   1      52.018  26.175  26.973  1.00  0.00     0.200 A 
ATOM     83  F   UNL A   1      52.282  25.724  29.276  1.00  0.00    -0.200 F 
ATOM     84  F   UNL A   1      53.310  25.893  26.755  1.00  0.00    -0.200 F 
ENDBRANCH  50  74
BRANCH  62  85
ATOM     85  C   UNL A   1      45.888  32.391  29.651  1.00  0.00     0.064 A 
ATOM     86  C   UNL A   1      45.996  33.465  28.755  1.00  0.00     0.173 A 
ATOM     87  C   UNL A   1      46.192  32.625  31.001  1.00  0.00     0.173 A 
ATOM     88  F   UNL A   1      45.731  33.287  27.452  1.00  0.00    -0.203 F 
ATOM     89  C   UNL A   1      46.417  34.718  29.191  1.00  0.00     0.198 A 
ATOM     90  C   UNL A   1      46.588  33.886  31.437  1.00  0.00     0.198 A 
ATOM     91  F   UNL A   1      46.097  31.632  31.897  1.00  0.00    -0.203 F 
ATOM     92  F   UNL A   1      46.556  35.719  28.311  1.00  0.00    -0.200 F 
ATOM     93  C   UNL A   1      46.706  34.930  30.531  1.00  0.00     0.200 A 
ATOM     94  F   UNL A   1      46.857  34.091  32.734  1.00  0.00    -0.200 F 
ATOM     95  F   UNL A   1      47.108  36.139  30.949  1.00  0.00    -0.200 F 
ENDBRANCH  62  85
ENDBRANCH  36  37
ENDBRANCH  28  31
ENDBRANCH  26  27
ENDBRANCH  25  26
ENDBRANCH   1  25
TORSDOF 15
ENDMDL
MODEL 3
REMARK VINA RESULT:     -11.4      5.427     10.563
REMARK SMILES CC[C@H](NC(=O)N1CCO[C@@H](CC(=O)NCCCNC(=O)c2ccc(-c3c4nc(c(-c5c(F)c(F)c(F)c(F)c5F)c5ccc([nH]5)c(-c5c(F)c(F)c(F)c(F)c5F)c5nc(c(-c6c(F)c(F)c(F)c(F)c6F)c6ccc3[nH]6)C=C5)C=C4)cc2)C1)c1cccs1
REMARK SMILES IDX 16 1 15 2 13 3 14 4 12 6 11 7 7 8 8 9 85 10 9 11 10 12 5 13
REMARK SMILES IDX 4 14 6 16 3 17 2 18 1 19 86 20 87 21 90 22 88 23 89 24 17 25
REMARK SMILES IDX 18 26 19 27 20 28 21 30 22 31 23 32 84 33 24 34 83 35 25 36
REMARK SMILES IDX 26 37 27 38 77 39 28 40 82 41 76 42 78 43 29 44 81 45 75 46
REMARK SMILES IDX 74 47 30 49 62 50 42 51 61 52 43 53 46 54 60 55 79 56 44 57
REMARK SMILES IDX 45 58 59 60 80 61 47 62 31 63 32 64 40 65 33 66 34 67 38 68
REMARK SMILES IDX 41 69 35 70 36 71 39 72 37 73 63 74 64 75 72 76 65 77 66 78
REMARK SMILES IDX 70 79 73 80 67 81 68 82 71 83 69 84 48 85 49 86 57 87 50 88
REMARK SMILES IDX 51 89 55 90 58 91 52 92 53 93 56 94 54 95
REMARK H PARENT 15 5 4 15 19 29 78 48 46 59
REMARK Flexibility Score: inf
ROOT
ATOM      1  C   UNL A   1      31.334  30.961  25.993  1.00  0.00     0.117 C 
ENDROOT
BRANCH   1   2
ATOM      2  N   UNL A   1      32.158  30.084  26.819  1.00  0.00    -0.356 N 
ATOM      3  C   UNL A   1      33.145  29.198  26.496  1.00  0.00     0.222 C 
ATOM      4  O   UNL A   1      33.674  28.561  27.409  1.00  0.00    -0.275 OA
ATOM      5  H   UNL A   1      31.968  30.142  27.783  1.00  0.00     0.163 HD
BRANCH   3   6
ATOM      6  C   UNL A   1      33.549  28.957  25.058  1.00  0.00     0.133 C 
BRANCH   6   7
ATOM      7  C   UNL A   1      32.597  27.985  24.352  1.00  0.00     0.147 C 
ATOM      8  N   UNL A   1      32.576  25.651  23.378  1.00  0.00    -0.320 N 
ATOM      9  C   UNL A   1      31.504  25.324  24.321  1.00  0.00     0.150 C 
ATOM     10  C   UNL A   1      33.378  26.782  23.819  1.00  0.00     0.154 C 
ATOM     11  C   UNL A   1      30.735  26.577  24.751  1.00  0.00     0.182 C 
ATOM     12  O   UNL A   1      31.615  27.557  25.318  1.00  0.00    -0.374 OA
BRANCH   8  13
ATOM     13  C   UNL A   1      33.228  24.776  22.549  1.00  0.00     0.318 C 
ATOM     14  N   UNL A   1      33.856  23.683  22.998  1.00  0.00    -0.330 N 
ATOM     15  H   UNL A   1      34.441  23.273  22.321  1.00  0.00     0.166 HD
ATOM     16  O   UNL A   1      33.257  24.934  21.323  1.00  0.00    -0.249 OA
BRANCH  14  17
ATOM     17  C   UNL A   1      33.867  22.972  24.259  1.00  0.00     0.124 C 
BRANCH  17  18
ATOM     18  C   UNL A   1      33.253  21.571  24.092  1.00  0.00     0.027 C 
ATOM     19  C   UNL A   1      32.114  21.322  25.077  1.00  0.00     0.006 C 
ENDBRANCH  17  18
BRANCH  17  20
ATOM     20  C   UNL A   1      35.285  22.896  24.793  1.00  0.00     0.027 A 
ATOM     21  C   UNL A   1      36.084  23.957  25.186  1.00  0.00     0.017 A 
ATOM     22  S   UNL A   1      36.141  21.408  24.940  1.00  0.00    -0.147 S 
ATOM     23  C   UNL A   1      37.413  23.557  25.507  1.00  0.00     0.012 A 
ATOM     24  C   UNL A   1      37.586  22.198  25.381  1.00  0.00     0.065 A 
ENDBRANCH  17  20
ENDBRANCH  14  17
ENDBRANCH   8  13
ENDBRANCH   6   7
ENDBRANCH   3   6
ENDBRANCH   1   2
BRANCH   1  25
ATOM     25  C   UNL A   1      31.269  32.397  26.520  1.00  0.00     0.042 C 
BRANCH  25  26
ATOM     26  C   UNL A   1      32.504  32.874  27.273  1.00  0.00     0.118 C 
BRANCH  26  27
ATOM     27  N   UNL A   1      32.419  34.285  27.607  1.00  0.00    -0.352 N 
ATOM     28  C   UNL A   1      33.003  35.002  28.622  1.00  0.00     0.251 C 
ATOM     29  H   UNL A   1      31.849  34.815  27.005  1.00  0.00     0.163 HD
ATOM     30  O   UNL A   1      32.582  36.134  28.851  1.00  0.00    -0.269 OA
BRANCH  28  31
ATOM     31  C   UNL A   1      34.122  34.469  29.447  1.00  0.00     0.039 A 
ATOM     32  C   UNL A   1      35.404  34.445  28.878  1.00  0.00     0.014 A 
ATOM     33  C   UNL A   1      33.933  33.887  30.702  1.00  0.00     0.014 A 
ATOM     34  C   UNL A   1      36.476  33.857  29.560  1.00  0.00     0.010 A 
ATOM     35  C   UNL A   1      35.018  33.370  31.418  1.00  0.00     0.010 A 
ATOM     36  C   UNL A   1      36.296  33.317  30.842  1.00  0.00    -0.014 A 
BRANCH  36  37
ATOM     37  C   UNL A   1      37.418  32.637  31.549  1.00  0.00     0.031 A 
ATOM     38  C   UNL A   1      38.139  31.483  30.898  1.00  0.00     0.074 A 
ATOM     39  C   UNL A   1      37.787  33.036  32.781  1.00  0.00     0.049 A 
ATOM     40  N   UNL A   1      39.127  30.753  31.358  1.00  0.00    -0.248 NA
ATOM     41  C   UNL A   1      37.675  31.083  29.561  1.00  0.00     0.031 C 
ATOM     42  C   UNL A   1      37.153  34.110  33.546  1.00  0.00     0.029 A 
ATOM     43  N   UNL A   1      38.786  32.583  33.608  1.00  0.00    -0.354 N 
ATOM     44  C   UNL A   1      39.383  29.800  30.381  1.00  0.00     0.074 A 
ATOM     45  C   UNL A   1      38.420  30.014  29.322  1.00  0.00     0.031 C 
ATOM     46  C   UNL A   1      37.795  34.250  34.718  1.00  0.00     0.029 A 
ATOM     47  C   UNL A   1      38.867  33.262  34.799  1.00  0.00     0.049 A 
ATOM     48  H   UNL A   1      39.387  31.841  33.369  1.00  0.00     0.167 HD
ATOM     49  C   UNL A   1      40.346  28.846  30.353  1.00  0.00     0.037 A 
ATOM     50  C   UNL A   1      39.711  33.108  35.837  1.00  0.00     0.037 A 
ATOM     51  C   UNL A   1      41.333  28.653  31.382  1.00  0.00     0.049 A 
ATOM     52  C   UNL A   1      40.791  32.062  35.770  1.00  0.00     0.074 A 
ATOM     53  C   UNL A   1      42.382  27.750  31.415  1.00  0.00     0.029 A 
ATOM     54  N   UNL A   1      41.397  29.382  32.559  1.00  0.00    -0.354 N 
ATOM     55  N   UNL A   1      41.057  31.205  34.816  1.00  0.00    -0.248 NA
ATOM     56  C   UNL A   1      41.696  31.970  36.926  1.00  0.00     0.031 C 
ATOM     57  C   UNL A   1      43.062  27.911  32.627  1.00  0.00     0.029 A 
ATOM     58  C   UNL A   1      42.461  28.941  33.330  1.00  0.00     0.049 A 
ATOM     59  H   UNL A   1      40.778  30.106  32.810  1.00  0.00     0.167 HD
ATOM     60  C   UNL A   1      42.171  30.494  35.239  1.00  0.00     0.074 A 
ATOM     61  C   UNL A   1      42.541  31.027  36.534  1.00  0.00     0.031 C 
ATOM     62  C   UNL A   1      42.827  29.488  34.611  1.00  0.00     0.037 A 
BRANCH  49  63
ATOM     63  C   UNL A   1      40.383  27.936  29.160  1.00  0.00     0.064 A 
ATOM     64  C   UNL A   1      39.608  26.767  29.104  1.00  0.00     0.173 A 
ATOM     65  C   UNL A   1      41.174  28.253  28.045  1.00  0.00     0.173 A 
ATOM     66  F   UNL A   1      38.842  26.415  30.148  1.00  0.00    -0.203 F 
ATOM     67  C   UNL A   1      39.648  25.933  27.989  1.00  0.00     0.198 A 
ATOM     68  C   UNL A   1      41.190  27.431  26.921  1.00  0.00     0.198 A 
ATOM     69  F   UNL A   1      41.927  29.363  28.044  1.00  0.00    -0.203 F 
ATOM     70  F   UNL A   1      38.937  24.798  27.978  1.00  0.00    -0.200 F 
ATOM     71  C   UNL A   1      40.433  26.269  26.897  1.00  0.00     0.200 A 
ATOM     72  F   UNL A   1      41.940  27.763  25.861  1.00  0.00    -0.200 F 
ATOM     73  F   UNL A   1      40.467  25.468  25.823  1.00  0.00    -0.200 F 
ENDBRANCH  49  63
BRANCH  50  74
ATOM     74  C   UNL A   1      39.594  33.998  37.020  1.00  0.00     0.064 A 
ATOM     75  C   UNL A   1      38.841  33.611  38.138  1.00  0.00     0.173 A 
ATOM     76  C   UNL A   1      40.225  35.249  37.058  1.00  0.00     0.173 A 
ATOM     77  F   UNL A   1      38.199  32.434  38.138  1.00  0.00    -0.203 F 
ATOM     78  C   UNL A   1      38.709  34.450  39.242  1.00  0.00     0.198 A 
ATOM     79  C   UNL A   1      40.113  36.077  38.172  1.00  0.00     0.198 A 
ATOM     80  F   UNL A   1      40.957  35.664  36.013  1.00  0.00    -0.203 F 
ATOM     81  F   UNL A   1      37.948  34.075  40.279  1.00  0.00    -0.200 F 
ATOM     82  C   UNL A   1      39.350  35.680  39.261  1.00  0.00     0.200 A 
ATOM     83  F   UNL A   1      40.740  37.262  38.192  1.00  0.00    -0.200 F 
ATOM     84  F   UNL A   1      39.225  36.487  40.324  1.00  0.00    -0.200 F 
ENDBRANCH  50  74
BRANCH  62  85
ATOM     85  C   UNL A   1      44.036  28.921  35.296  1.00  0.00     0.064 A 
ATOM     86  C   UNL A   1      43.937  27.841  36.186  1.00  0.00     0.173 A 
ATOM     87  C   UNL A   1      45.311  29.442  35.030  1.00  0.00     0.173 A 
ATOM     88  F   UNL A   1      42.737  27.319  36.483  1.00  0.00    -0.203 F 
ATOM     89  C   UNL A   1      45.070  27.320  36.804  1.00  0.00     0.198 A 
ATOM     90  C   UNL A   1      46.445  28.901  35.632  1.00  0.00     0.198 A 
ATOM     91  F   UNL A   1      45.459  30.469  34.182  1.00  0.00    -0.203 F 
ATOM     92  F   UNL A   1      44.948  26.317  37.685  1.00  0.00    -0.200 F 
ATOM     93  C   UNL A   1      46.322  27.845  36.523  1.00  0.00     0.200 A 
ATOM     94  F   UNL A   1      47.655  29.403  35.351  1.00  0.00    -0.200 F 
ATOM     95  F   UNL A   1      47.412  27.339  37.117  1.00  0.00    -0.200 F 
ENDBRANCH  62  85
ENDBRANCH  36  37
ENDBRANCH  28  31
ENDBRANCH  26  27
ENDBRANCH  25  26
ENDBRANCH   1  25
TORSDOF 15
ENDMDL
