MODEL 1
REMARK VINA RESULT:     -13.9      0.000      0.000
REMARK SMILES Cc1ccccc1[C@@H](Cc1c(Cl)cccc1Cl)C(=O)NCCCNC(=O)c1ccc(-c2c3nc(c(-c4c(F)c(F)c(F)c(F)c4F)c4ccc([nH]4)c(-c4c(F)c(F)c(F)c(F)c4F)c4nc(c(-c5c(F)c(F)c(F)c(F)c5F)c5ccc2[nH]5)C=C4)C=C3)cc1
REMARK SMILES IDX 22 1 21 2 20 3 18 4 19 5 8 7 7 8 1 9 2 10 3 11 4 12 6 13
REMARK SMILES IDX 5 14 9 15 10 16 11 17 16 18 12 19 13 20 15 21 17 22 14 23
REMARK SMILES IDX 23 24 24 25 25 26 26 28 27 29 28 30 89 31 29 32 88 33 30 34
REMARK SMILES IDX 31 35 32 36 82 37 33 38 87 39 81 40 83 41 34 42 86 43 80 44
REMARK SMILES IDX 79 45 35 47 67 48 47 49 66 50 48 51 51 52 65 53 84 54 49 55
REMARK SMILES IDX 50 56 64 58 85 59 52 60 36 61 37 62 45 63 38 64 39 65 43 66
REMARK SMILES IDX 46 67 40 68 41 69 44 70 42 71 68 72 69 73 77 74 70 75 71 76
REMARK SMILES IDX 75 77 78 78 72 79 73 80 76 81 74 82 53 83 54 84 62 85 55 86
REMARK SMILES IDX 56 87 60 88 63 89 57 90 58 91 61 92 59 93
REMARK H PARENT 20 6 24 27 83 46 51 57
REMARK Flexibility Score: inf
ROOT
ATOM      1  C   UNL A   1      38.809  22.008  26.042  1.00  0.00     0.042 C 
ENDROOT
BRANCH   1   2
ATOM      2  C   UNL A   1      37.641  22.941  25.738  1.00  0.00     0.117 C 
BRANCH   2   3
ATOM      3  N   UNL A   1      37.442  23.092  24.311  1.00  0.00    -0.355 N 
ATOM      4  C   UNL A   1      36.318  23.148  23.548  1.00  0.00     0.227 C 
ATOM      5  O   UNL A   1      36.505  23.014  22.330  1.00  0.00    -0.274 OA
ATOM      6  H   UNL A   1      38.278  23.169  23.796  1.00  0.00     0.163 HD
BRANCH   4   7
ATOM      7  C   UNL A   1      34.881  23.348  24.085  1.00  0.00     0.113 C 
BRANCH   7   8
ATOM      8  C   UNL A   1      34.135  22.008  24.223  1.00  0.00    -0.032 A 
ATOM      9  C   UNL A   1      32.015  22.783  22.964  1.00  0.00     0.044 C 
ATOM     10  C   UNL A   1      32.900  21.738  23.591  1.00  0.00    -0.047 A 
ATOM     11  C   UNL A   1      32.430  20.409  23.526  1.00  0.00     0.004 A 
ATOM     12  C   UNL A   1      33.121  19.365  24.132  1.00  0.00     0.000 A 
ATOM     13  C   UNL A   1      34.735  20.955  24.937  1.00  0.00     0.005 A 
ATOM     14  C   UNL A   1      34.257  19.644  24.871  1.00  0.00     0.000 A 
ENDBRANCH   7   8
BRANCH   7  15
ATOM     15  C   UNL A   1      34.657  24.335  25.259  1.00  0.00     0.057 C 
BRANCH  15  16
ATOM     16  C   UNL A   1      33.262  24.879  25.561  1.00  0.00    -0.010 A 
ATOM     17  C   UNL A   1      32.853  26.124  25.020  1.00  0.00     0.045 A 
ATOM     18  C   UNL A   1      32.333  24.233  26.402  1.00  0.00     0.045 A 
ATOM     19  Cl  UNL A   1      33.919  27.144  24.107  1.00  0.00    -0.084 Cl
ATOM     20  C   UNL A   1      31.557  26.623  25.208  1.00  0.00     0.021 A 
ATOM     21  C   UNL A   1      31.025  24.722  26.561  1.00  0.00     0.021 A 
ATOM     22  Cl  UNL A   1      32.725  22.862  27.376  1.00  0.00    -0.084 Cl
ATOM     23  C   UNL A   1      30.631  25.907  25.953  1.00  0.00     0.003 A 
ENDBRANCH  15  16
ENDBRANCH   7  15
ENDBRANCH   4   7
ENDBRANCH   2   3
ENDBRANCH   1   2
BRANCH   1  24
ATOM     24  C   UNL A   1      39.707  22.487  27.168  1.00  0.00     0.118 C 
BRANCH  24  25
ATOM     25  N   UNL A   1      41.037  22.885  26.709  1.00  0.00    -0.352 N 
ATOM     26  C   UNL A   1      41.537  24.163  26.517  1.00  0.00     0.251 C 
ATOM     27  H   UNL A   1      41.659  22.149  26.512  1.00  0.00     0.163 HD
ATOM     28  O   UNL A   1      42.696  24.346  26.190  1.00  0.00    -0.269 OA
BRANCH  26  29
ATOM     29  C   UNL A   1      40.657  25.301  26.855  1.00  0.00     0.039 A 
ATOM     30  C   UNL A   1      40.861  26.501  26.169  1.00  0.00     0.014 A 
ATOM     31  C   UNL A   1      39.895  25.259  28.018  1.00  0.00     0.014 A 
ATOM     32  C   UNL A   1      40.523  27.696  26.796  1.00  0.00     0.010 A 
ATOM     33  C   UNL A   1      39.666  26.443  28.690  1.00  0.00     0.010 A 
ATOM     34  C   UNL A   1      40.049  27.658  28.108  1.00  0.00    -0.014 A 
BRANCH  34  35
ATOM     35  C   UNL A   1      40.053  28.831  28.976  1.00  0.00     0.031 A 
ATOM     36  C   UNL A   1      39.010  29.868  28.839  1.00  0.00     0.074 A 
ATOM     37  C   UNL A   1      40.989  28.950  29.944  1.00  0.00     0.049 A 
ATOM     38  N   UNL A   1      39.153  31.098  29.203  1.00  0.00    -0.248 NA
ATOM     39  C   UNL A   1      37.724  29.606  28.210  1.00  0.00     0.031 C 
ATOM     40  C   UNL A   1      40.992  29.902  31.053  1.00  0.00     0.029 A 
ATOM     41  N   UNL A   1      42.259  28.344  30.003  1.00  0.00    -0.354 N 
ATOM     42  C   UNL A   1      37.922  31.711  29.126  1.00  0.00     0.074 A 
ATOM     43  C   UNL A   1      37.094  30.765  28.416  1.00  0.00     0.031 C 
ATOM     44  C   UNL A   1      42.251  30.055  31.490  1.00  0.00     0.029 A 
ATOM     45  C   UNL A   1      43.110  29.309  30.590  1.00  0.00     0.049 A 
ATOM     46  H   UNL A   1      42.501  27.441  29.698  1.00  0.00     0.167 HD
ATOM     47  C   UNL A   1      37.724  32.885  29.798  1.00  0.00     0.037 A 
ATOM     48  C   UNL A   1      44.189  29.824  29.933  1.00  0.00     0.037 A 
ATOM     49  C   UNL A   1      38.975  33.369  30.388  1.00  0.00     0.049 A 
ATOM     50  C   UNL A   1      44.172  31.326  29.799  1.00  0.00     0.074 A 
ATOM     51  C   UNL A   1      39.485  33.321  31.677  1.00  0.00     0.029 A 
ATOM     52  N   UNL A   1      40.025  33.758  29.564  1.00  0.00    -0.354 N 
ATOM     53  N   UNL A   1      43.097  32.051  29.925  1.00  0.00    -0.248 NA
ATOM     54  C   UNL A   1      45.348  32.124  29.464  1.00  0.00     0.031 C 
ATOM     55  C   UNL A   1      40.858  33.661  31.619  1.00  0.00     0.029 A 
ATOM     56  C   UNL A   1      41.182  33.923  30.300  1.00  0.00     0.049 A 
ATOM     57  H   UNL A   1      39.954  33.896  28.591  1.00  0.00     0.167 HD
ATOM     58  C   UNL A   1      43.397  33.363  29.665  1.00  0.00     0.074 A 
ATOM     59  C   UNL A   1      44.824  33.361  29.406  1.00  0.00     0.031 C 
ATOM     60  C   UNL A   1      42.429  34.327  29.667  1.00  0.00     0.037 A 
BRANCH  47  61
ATOM     61  C   UNL A   1      36.363  33.445  30.191  1.00  0.00     0.064 A 
ATOM     62  C   UNL A   1      35.507  34.008  29.214  1.00  0.00     0.173 A 
ATOM     63  C   UNL A   1      35.869  33.541  31.505  1.00  0.00     0.173 A 
ATOM     64  F   UNL A   1      35.755  33.878  27.905  1.00  0.00    -0.203 F 
ATOM     65  C   UNL A   1      34.350  34.723  29.540  1.00  0.00     0.198 A 
ATOM     66  C   UNL A   1      34.736  34.293  31.839  1.00  0.00     0.198 A 
ATOM     67  F   UNL A   1      36.409  32.851  32.512  1.00  0.00    -0.203 F 
ATOM     68  F   UNL A   1      33.596  35.249  28.564  1.00  0.00    -0.200 F 
ATOM     69  C   UNL A   1      33.986  34.901  30.857  1.00  0.00     0.200 A 
ATOM     70  F   UNL A   1      34.377  34.415  33.125  1.00  0.00    -0.200 F 
ATOM     71  F   UNL A   1      32.901  35.619  31.175  1.00  0.00    -0.200 F 
ENDBRANCH  47  61
BRANCH  48  72
ATOM     72  C   UNL A   1      44.778  28.893  28.939  1.00  0.00     0.064 A 
ATOM     73  C   UNL A   1      45.649  27.889  29.396  1.00  0.00     0.173 A 
ATOM     74  C   UNL A   1      44.225  28.742  27.662  1.00  0.00     0.173 A 
ATOM     75  F   UNL A   1      46.203  27.986  30.616  1.00  0.00    -0.203 F 
ATOM     76  C   UNL A   1      45.866  26.727  28.659  1.00  0.00     0.198 A 
ATOM     77  C   UNL A   1      44.453  27.581  26.920  1.00  0.00     0.198 A 
ATOM     78  F   UNL A   1      43.370  29.656  27.181  1.00  0.00    -0.203 F 
ATOM     79  F   UNL A   1      46.612  25.738  29.173  1.00  0.00    -0.200 F 
ATOM     80  C   UNL A   1      45.245  26.564  27.433  1.00  0.00     0.200 A 
ATOM     81  F   UNL A   1      43.826  27.406  25.749  1.00  0.00    -0.200 F 
ATOM     82  F   UNL A   1      45.371  25.408  26.766  1.00  0.00    -0.200 F 
ENDBRANCH  48  72
BRANCH  60  83
ATOM     83  C   UNL A   1      42.574  35.749  29.176  1.00  0.00     0.064 A 
ATOM     84  C   UNL A   1      41.965  36.250  28.014  1.00  0.00     0.173 A 
ATOM     85  C   UNL A   1      43.243  36.714  29.972  1.00  0.00     0.173 A 
ATOM     86  F   UNL A   1      41.201  35.472  27.236  1.00  0.00    -0.203 F 
ATOM     87  C   UNL A   1      42.068  37.594  27.642  1.00  0.00     0.198 A 
ATOM     88  C   UNL A   1      43.295  38.065  29.627  1.00  0.00     0.198 A 
ATOM     89  F   UNL A   1      43.843  36.381  31.123  1.00  0.00    -0.203 F 
ATOM     90  F   UNL A   1      41.502  38.011  26.500  1.00  0.00    -0.200 F 
ATOM     91  C   UNL A   1      42.722  38.503  28.452  1.00  0.00     0.200 A 
ATOM     92  F   UNL A   1      43.887  38.940  30.452  1.00  0.00    -0.200 F 
ATOM     93  F   UNL A   1      42.778  39.798  28.115  1.00  0.00    -0.200 F 
ENDBRANCH  60  83
ENDBRANCH  34  35
ENDBRANCH  26  29
ENDBRANCH  24  25
ENDBRANCH   1  24
TORSDOF 13
ENDMDL
MODEL 2
REMARK VINA RESULT:     -13.8      4.020     10.140
REMARK SMILES Cc1ccccc1[C@@H](Cc1c(Cl)cccc1Cl)C(=O)NCCCNC(=O)c1ccc(-c2c3nc(c(-c4c(F)c(F)c(F)c(F)c4F)c4ccc([nH]4)c(-c4c(F)c(F)c(F)c(F)c4F)c4nc(c(-c5c(F)c(F)c(F)c(F)c5F)c5ccc2[nH]5)C=C4)C=C3)cc1
REMARK SMILES IDX 22 1 21 2 20 3 18 4 19 5 8 7 7 8 1 9 2 10 3 11 4 12 6 13
REMARK SMILES IDX 5 14 9 15 10 16 11 17 16 18 12 19 13 20 15 21 17 22 14 23
REMARK SMILES IDX 23 24 24 25 25 26 26 28 27 29 28 30 89 31 29 32 88 33 30 34
REMARK SMILES IDX 31 35 32 36 82 37 33 38 87 39 81 40 83 41 34 42 86 43 80 44
REMARK SMILES IDX 79 45 35 47 67 48 47 49 66 50 48 51 51 52 65 53 84 54 49 55
REMARK SMILES IDX 50 56 64 58 85 59 52 60 36 61 37 62 45 63 38 64 39 65 43 66
REMARK SMILES IDX 46 67 40 68 41 69 44 70 42 71 68 72 69 73 77 74 70 75 71 76
REMARK SMILES IDX 75 77 78 78 72 79 73 80 76 81 74 82 53 83 54 84 62 85 55 86
REMARK SMILES IDX 56 87 60 88 63 89 57 90 58 91 61 92 59 93
REMARK H PARENT 20 6 24 27 83 46 51 57
REMARK Flexibility Score: inf
ROOT
ATOM      1  C   UNL A   1      33.862  31.075  27.262  1.00  0.00     0.042 C 
ENDROOT
BRANCH   1   2
ATOM      2  C   UNL A   1      33.894  29.566  27.040  1.00  0.00     0.117 C 
BRANCH   2   3
ATOM      3  N   UNL A   1      32.795  28.908  27.718  1.00  0.00    -0.355 N 
ATOM      4  C   UNL A   1      31.898  27.972  27.307  1.00  0.00     0.227 C 
ATOM      5  O   UNL A   1      30.922  27.819  28.055  1.00  0.00    -0.274 OA
ATOM      6  H   UNL A   1      32.674  29.192  28.654  1.00  0.00     0.163 HD
BRANCH   4   7
ATOM      7  C   UNL A   1      32.012  27.133  26.013  1.00  0.00     0.113 C 
BRANCH   7   8
ATOM      8  C   UNL A   1      31.152  27.719  24.878  1.00  0.00    -0.032 A 
ATOM      9  C   UNL A   1      30.084  25.465  24.200  1.00  0.00     0.044 C 
ATOM     10  C   UNL A   1      30.190  26.967  24.166  1.00  0.00    -0.047 A 
ATOM     11  C   UNL A   1      29.250  27.636  23.354  1.00  0.00     0.004 A 
ATOM     12  C   UNL A   1      29.291  29.016  23.182  1.00  0.00     0.000 A 
ATOM     13  C   UNL A   1      31.248  29.089  24.577  1.00  0.00     0.005 A 
ATOM     14  C   UNL A   1      30.315  29.739  23.766  1.00  0.00     0.000 A 
ENDBRANCH   7   8
BRANCH   7  15
ATOM     15  C   UNL A   1      33.412  26.636  25.570  1.00  0.00     0.057 C 
BRANCH  15  16
ATOM     16  C   UNL A   1      33.556  25.380  24.712  1.00  0.00    -0.010 A 
ATOM     17  C   UNL A   1      33.701  25.493  23.307  1.00  0.00     0.045 A 
ATOM     18  C   UNL A   1      33.511  24.068  25.228  1.00  0.00     0.045 A 
ATOM     19  Cl  UNL A   1      33.602  27.012  22.474  1.00  0.00    -0.084 Cl
ATOM     20  C   UNL A   1      33.912  24.372  22.492  1.00  0.00     0.021 A 
ATOM     21  C   UNL A   1      33.755  22.951  24.412  1.00  0.00     0.021 A 
ATOM     22  Cl  UNL A   1      33.068  23.701  26.856  1.00  0.00    -0.084 Cl
ATOM     23  C   UNL A   1      33.972  23.102  23.048  1.00  0.00     0.003 A 
ENDBRANCH  15  16
ENDBRANCH   7  15
ENDBRANCH   4   7
ENDBRANCH   2   3
ENDBRANCH   1   2
BRANCH   1  24
ATOM     24  C   UNL A   1      35.196  31.668  27.675  1.00  0.00     0.118 C 
BRANCH  24  25
ATOM     25  N   UNL A   1      35.290  31.923  29.111  1.00  0.00    -0.352 N 
ATOM     26  C   UNL A   1      35.964  31.191  30.076  1.00  0.00     0.251 C 
ATOM     27  H   UNL A   1      34.811  32.719  29.436  1.00  0.00     0.163 HD
ATOM     28  O   UNL A   1      36.008  31.562  31.235  1.00  0.00    -0.269 OA
BRANCH  26  29
ATOM     29  C   UNL A   1      36.743  30.019  29.626  1.00  0.00     0.039 A 
ATOM     30  C   UNL A   1      37.086  29.064  30.587  1.00  0.00     0.014 A 
ATOM     31  C   UNL A   1      37.369  30.045  28.383  1.00  0.00     0.014 A 
ATOM     32  C   UNL A   1      38.238  28.308  30.397  1.00  0.00     0.010 A 
ATOM     33  C   UNL A   1      38.572  29.383  28.247  1.00  0.00     0.010 A 
ATOM     34  C   UNL A   1      39.042  28.571  29.288  1.00  0.00    -0.014 A 
BRANCH  34  35
ATOM     35  C   UNL A   1      40.434  28.141  29.208  1.00  0.00     0.031 A 
ATOM     36  C   UNL A   1      40.775  26.798  28.695  1.00  0.00     0.074 A 
ATOM     37  C   UNL A   1      41.424  28.990  29.565  1.00  0.00     0.049 A 
ATOM     38  N   UNL A   1      41.858  26.160  28.988  1.00  0.00    -0.248 NA
ATOM     39  C   UNL A   1      39.873  26.033  27.846  1.00  0.00     0.031 C 
ATOM     40  C   UNL A   1      42.854  28.832  29.309  1.00  0.00     0.029 A 
ATOM     41  N   UNL A   1      41.345  30.101  30.426  1.00  0.00    -0.354 N 
ATOM     42  C   UNL A   1      41.935  25.055  28.169  1.00  0.00     0.074 A 
ATOM     43  C   UNL A   1      40.633  24.976  27.548  1.00  0.00     0.031 C 
ATOM     44  C   UNL A   1      43.537  29.571  30.195  1.00  0.00     0.029 A 
ATOM     45  C   UNL A   1      42.572  30.120  31.129  1.00  0.00     0.049 A 
ATOM     46  H   UNL A   1      40.595  30.730  30.519  1.00  0.00     0.167 HD
ATOM     47  C   UNL A   1      43.140  24.428  28.015  1.00  0.00     0.037 A 
ATOM     48  C   UNL A   1      42.635  29.990  32.486  1.00  0.00     0.037 A 
ATOM     49  C   UNL A   1      44.146  24.997  28.915  1.00  0.00     0.049 A 
ATOM     50  C   UNL A   1      43.488  28.839  32.957  1.00  0.00     0.074 A 
ATOM     51  C   UNL A   1      45.179  25.900  28.717  1.00  0.00     0.029 A 
ATOM     52  N   UNL A   1      43.999  24.864  30.292  1.00  0.00    -0.354 N 
ATOM     53  N   UNL A   1      43.820  27.829  32.204  1.00  0.00    -0.248 NA
ATOM     54  C   UNL A   1      43.991  28.708  34.322  1.00  0.00     0.031 C 
ATOM     55  C   UNL A   1      45.638  26.329  29.985  1.00  0.00     0.029 A 
ATOM     56  C   UNL A   1      44.892  25.683  30.955  1.00  0.00     0.049 A 
ATOM     57  H   UNL A   1      43.350  24.269  30.732  1.00  0.00     0.167 HD
ATOM     58  C   UNL A   1      44.523  26.917  32.947  1.00  0.00     0.074 A 
ATOM     59  C   UNL A   1      44.626  27.523  34.260  1.00  0.00     0.031 C 
ATOM     60  C   UNL A   1      44.938  25.731  32.409  1.00  0.00     0.037 A 
BRANCH  47  61
ATOM     61  C   UNL A   1      43.505  23.516  26.851  1.00  0.00     0.064 A 
ATOM     62  C   UNL A   1      43.074  22.169  26.829  1.00  0.00     0.173 A 
ATOM     63  C   UNL A   1      44.338  23.866  25.772  1.00  0.00     0.173 A 
ATOM     64  F   UNL A   1      42.167  21.708  27.699  1.00  0.00    -0.203 F 
ATOM     65  C   UNL A   1      43.551  21.233  25.904  1.00  0.00     0.198 A 
ATOM     66  C   UNL A   1      44.852  22.924  24.871  1.00  0.00     0.198 A 
ATOM     67  F   UNL A   1      44.630  25.138  25.491  1.00  0.00    -0.203 F 
ATOM     68  F   UNL A   1      43.116  19.967  25.955  1.00  0.00    -0.200 F 
ATOM     69  C   UNL A   1      44.472  21.603  24.949  1.00  0.00     0.200 A 
ATOM     70  F   UNL A   1      45.713  23.317  23.922  1.00  0.00    -0.200 F 
ATOM     71  F   UNL A   1      44.962  20.702  24.086  1.00  0.00    -0.200 F 
ENDBRANCH  47  61
BRANCH  48  72
ATOM     72  C   UNL A   1      41.427  30.490  33.187  1.00  0.00     0.064 A 
ATOM     73  C   UNL A   1      41.289  31.876  33.376  1.00  0.00     0.173 A 
ATOM     74  C   UNL A   1      40.282  29.697  33.325  1.00  0.00     0.173 A 
ATOM     75  F   UNL A   1      42.357  32.681  33.252  1.00  0.00    -0.203 F 
ATOM     76  C   UNL A   1      40.039  32.458  33.578  1.00  0.00     0.198 A 
ATOM     77  C   UNL A   1      39.032  30.282  33.538  1.00  0.00     0.198 A 
ATOM     78  F   UNL A   1      40.348  28.372  33.134  1.00  0.00    -0.203 F 
ATOM     79  F   UNL A   1      39.926  33.793  33.642  1.00  0.00    -0.200 F 
ATOM     80  C   UNL A   1      38.908  31.661  33.631  1.00  0.00     0.200 A 
ATOM     81  F   UNL A   1      37.933  29.516  33.556  1.00  0.00    -0.200 F 
ATOM     82  F   UNL A   1      37.696  32.224  33.725  1.00  0.00    -0.200 F 
ENDBRANCH  48  72
BRANCH  60  83
ATOM     83  C   UNL A   1      45.507  24.551  33.163  1.00  0.00     0.064 A 
ATOM     84  C   UNL A   1      46.799  24.513  33.713  1.00  0.00     0.173 A 
ATOM     85  C   UNL A   1      44.681  23.443  33.482  1.00  0.00     0.173 A 
ATOM     86  F   UNL A   1      47.640  25.548  33.591  1.00  0.00    -0.203 F 
ATOM     87  C   UNL A   1      47.253  23.426  34.467  1.00  0.00     0.198 A 
ATOM     88  C   UNL A   1      45.118  22.387  34.283  1.00  0.00     0.198 A 
ATOM     89  F   UNL A   1      43.415  23.363  33.049  1.00  0.00    -0.203 F 
ATOM     90  F   UNL A   1      48.510  23.422  34.933  1.00  0.00    -0.200 F 
ATOM     91  C   UNL A   1      46.410  22.370  34.762  1.00  0.00     0.200 A 
ATOM     92  F   UNL A   1      44.271  21.399  34.602  1.00  0.00    -0.200 F 
ATOM     93  F   UNL A   1      46.835  21.354  35.524  1.00  0.00    -0.200 F 
ENDBRANCH  60  83
ENDBRANCH  34  35
ENDBRANCH  26  29
ENDBRANCH  24  25
ENDBRANCH   1  24
TORSDOF 13
ENDMDL
MODEL 3
REMARK VINA RESULT:     -13.6      3.910      9.490
REMARK SMILES Cc1ccccc1[C@@H](Cc1c(Cl)cccc1Cl)C(=O)NCCCNC(=O)c1ccc(-c2c3nc(c(-c4c(F)c(F)c(F)c(F)c4F)c4ccc([nH]4)c(-c4c(F)c(F)c(F)c(F)c4F)c4nc(c(-c5c(F)c(F)c(F)c(F)c5F)c5ccc2[nH]5)C=C4)C=C3)cc1
REMARK SMILES IDX 22 1 21 2 20 3 18 4 19 5 8 7 7 8 1 9 2 10 3 11 4 12 6 13
REMARK SMILES IDX 5 14 9 15 10 16 11 17 16 18 12 19 13 20 15 21 17 22 14 23
REMARK SMILES IDX 23 24 24 25 25 26 26 28 27 29 28 30 89 31 29 32 88 33 30 34
REMARK SMILES IDX 31 35 32 36 82 37 33 38 87 39 81 40 83 41 34 42 86 43 80 44
REMARK SMILES IDX 79 45 35 47 67 48 47 49 66 50 48 51 51 52 65 53 84 54 49 55
REMARK SMILES IDX 50 56 64 58 85 59 52 60 36 61 37 62 45 63 38 64 39 65 43 66
REMARK SMILES IDX 46 67 40 68 41 69 44 70 42 71 68 72 69 73 77 74 70 75 71 76
REMARK SMILES IDX 75 77 78 78 72 79 73 80 76 81 74 82 53 83 54 84 62 85 55 86
REMARK SMILES IDX 56 87 60 88 63 89 57 90 58 91 61 92 59 93
REMARK H PARENT 20 6 24 27 83 46 51 57
REMARK Flexibility Score: inf
ROOT
ATOM      1  C   UNL A   1      35.135  29.865  27.914  1.00  0.00     0.042 C 
ENDROOT
BRANCH   1   2
ATOM      2  C   UNL A   1      34.120  29.265  26.945  1.00  0.00     0.117 C 
BRANCH   2   3
ATOM      3  N   UNL A   1      32.962  28.748  27.646  1.00  0.00    -0.355 N 
ATOM      4  C   UNL A   1      31.982  27.882  27.273  1.00  0.00     0.227 C 
ATOM      5  O   UNL A   1      30.993  27.858  28.020  1.00  0.00    -0.274 OA
ATOM      6  H   UNL A   1      32.867  29.086  28.566  1.00  0.00     0.163 HD
BRANCH   4   7
ATOM      7  C   UNL A   1      32.019  26.975  26.021  1.00  0.00     0.113 C 
BRANCH   7   8
ATOM      8  C   UNL A   1      31.165  27.551  24.877  1.00  0.00    -0.032 A 
ATOM      9  C   UNL A   1      30.010  25.315  24.290  1.00  0.00     0.044 C 
ATOM     10  C   UNL A   1      30.168  26.810  24.202  1.00  0.00    -0.047 A 
ATOM     11  C   UNL A   1      29.242  27.483  23.378  1.00  0.00     0.004 A 
ATOM     12  C   UNL A   1      29.329  28.854  23.158  1.00  0.00     0.000 A 
ATOM     13  C   UNL A   1      31.306  28.906  24.526  1.00  0.00     0.005 A 
ATOM     14  C   UNL A   1      30.386  29.561  23.704  1.00  0.00     0.000 A 
ENDBRANCH   7   8
BRANCH   7  15
ATOM     15  C   UNL A   1      33.379  26.380  25.574  1.00  0.00     0.057 C 
BRANCH  15  16
ATOM     16  C   UNL A   1      33.432  25.090  24.757  1.00  0.00    -0.010 A 
ATOM     17  C   UNL A   1      33.585  25.148  23.349  1.00  0.00     0.045 A 
ATOM     18  C   UNL A   1      33.293  23.802  25.313  1.00  0.00     0.045 A 
ATOM     19  Cl  UNL A   1      33.597  26.644  22.469  1.00  0.00    -0.084 Cl
ATOM     20  C   UNL A   1      33.716  23.990  22.570  1.00  0.00     0.021 A 
ATOM     21  C   UNL A   1      33.456  22.645  24.533  1.00  0.00     0.021 A 
ATOM     22  Cl  UNL A   1      32.823  23.519  26.951  1.00  0.00    -0.084 Cl
ATOM     23  C   UNL A   1      33.684  22.737  23.165  1.00  0.00     0.003 A 
ENDBRANCH  15  16
ENDBRANCH   7  15
ENDBRANCH   4   7
ENDBRANCH   2   3
ENDBRANCH   1   2
BRANCH   1  24
ATOM     24  C   UNL A   1      35.421  31.337  27.678  1.00  0.00     0.118 C 
BRANCH  24  25
ATOM     25  N   UNL A   1      34.431  32.219  28.294  1.00  0.00    -0.352 N 
ATOM     26  C   UNL A   1      34.590  33.075  29.372  1.00  0.00     0.251 C 
ATOM     27  H   UNL A   1      33.534  32.203  27.890  1.00  0.00     0.163 HD
ATOM     28  O   UNL A   1      33.687  33.805  29.739  1.00  0.00    -0.269 OA
BRANCH  26  29
ATOM     29  C   UNL A   1      35.936  33.174  29.975  1.00  0.00     0.039 A 
ATOM     30  C   UNL A   1      36.937  33.793  29.221  1.00  0.00     0.014 A 
ATOM     31  C   UNL A   1      36.249  32.401  31.088  1.00  0.00     0.014 A 
ATOM     32  C   UNL A   1      38.260  33.418  29.430  1.00  0.00     0.010 A 
ATOM     33  C   UNL A   1      37.544  31.941  31.218  1.00  0.00     0.010 A 
ATOM     34  C   UNL A   1      38.535  32.396  30.339  1.00  0.00    -0.014 A 
BRANCH  34  35
ATOM     35  C   UNL A   1      39.797  31.664  30.336  1.00  0.00     0.031 A 
ATOM     36  C   UNL A   1      39.900  30.349  29.670  1.00  0.00     0.074 A 
ATOM     37  C   UNL A   1      40.895  32.210  30.908  1.00  0.00     0.049 A 
ATOM     38  N   UNL A   1      40.770  29.445  29.974  1.00  0.00    -0.248 NA
ATOM     39  C   UNL A   1      38.970  29.922  28.635  1.00  0.00     0.031 C 
ATOM     40  C   UNL A   1      42.276  31.752  30.774  1.00  0.00     0.029 A 
ATOM     41  N   UNL A   1      40.951  33.199  31.908  1.00  0.00    -0.354 N 
ATOM     42  C   UNL A   1      40.708  28.457  29.015  1.00  0.00     0.074 A 
ATOM     43  C   UNL A   1      39.512  28.759  28.265  1.00  0.00     0.031 C 
ATOM     44  C   UNL A   1      42.985  32.201  31.821  1.00  0.00     0.029 A 
ATOM     45  C   UNL A   1      42.051  32.847  32.725  1.00  0.00     0.049 A 
ATOM     46  H   UNL A   1      40.350  33.971  32.016  1.00  0.00     0.167 HD
ATOM     47  C   UNL A   1      41.756  27.588  28.893  1.00  0.00     0.037 A 
ATOM     48  C   UNL A   1      41.908  32.546  34.048  1.00  0.00     0.037 A 
ATOM     49  C   UNL A   1      42.737  27.795  29.960  1.00  0.00     0.049 A 
ATOM     50  C   UNL A   1      42.420  31.180  34.430  1.00  0.00     0.074 A 
ATOM     51  C   UNL A   1      43.960  28.449  29.998  1.00  0.00     0.029 A 
ATOM     52  N   UNL A   1      42.389  27.539  31.282  1.00  0.00    -0.354 N 
ATOM     53  N   UNL A   1      42.617  30.216  33.575  1.00  0.00    -0.248 NA
ATOM     54  C   UNL A   1      42.701  30.775  35.804  1.00  0.00     0.031 C 
ATOM     55  C   UNL A   1      44.334  28.606  31.354  1.00  0.00     0.029 A 
ATOM     56  C   UNL A   1      43.345  28.042  32.142  1.00  0.00     0.049 A 
ATOM     57  H   UNL A   1      41.574  27.065  31.565  1.00  0.00     0.167 HD
ATOM     58  C   UNL A   1      43.002  29.084  34.245  1.00  0.00     0.074 A 
ATOM     59  C   UNL A   1      43.064  29.490  35.635  1.00  0.00     0.031 C 
ATOM     60  C   UNL A   1      43.213  27.906  33.585  1.00  0.00     0.037 A 
BRANCH  47  61
ATOM     61  C   UNL A   1      42.061  26.760  27.651  1.00  0.00     0.064 A 
ATOM     62  C   UNL A   1      41.418  25.518  27.438  1.00  0.00     0.173 A 
ATOM     63  C   UNL A   1      43.025  27.077  26.676  1.00  0.00     0.173 A 
ATOM     64  F   UNL A   1      40.379  25.128  28.188  1.00  0.00    -0.203 F 
ATOM     65  C   UNL A   1      41.808  24.622  26.437  1.00  0.00     0.198 A 
ATOM     66  C   UNL A   1      43.448  26.165  25.701  1.00  0.00     0.198 A 
ATOM     67  F   UNL A   1      43.543  28.303  26.571  1.00  0.00    -0.203 F 
ATOM     68  F   UNL A   1      41.168  23.451  26.306  1.00  0.00    -0.200 F 
ATOM     69  C   UNL A   1      42.852  24.929  25.593  1.00  0.00     0.200 A 
ATOM     70  F   UNL A   1      44.438  26.506  24.862  1.00  0.00    -0.200 F 
ATOM     71  F   UNL A   1      43.256  24.058  24.659  1.00  0.00    -0.200 F 
ENDBRANCH  47  61
BRANCH  48  72
ATOM     72  C   UNL A   1      40.758  33.228  34.691  1.00  0.00     0.064 A 
ATOM     73  C   UNL A   1      39.546  32.525  34.813  1.00  0.00     0.173 A 
ATOM     74  C   UNL A   1      40.936  34.363  35.491  1.00  0.00     0.173 A 
ATOM     75  F   UNL A   1      39.329  31.428  34.070  1.00  0.00    -0.203 F 
ATOM     76  C   UNL A   1      38.603  32.872  35.778  1.00  0.00     0.198 A 
ATOM     77  C   UNL A   1      39.983  34.714  36.449  1.00  0.00     0.198 A 
ATOM     78  F   UNL A   1      42.079  35.060  35.434  1.00  0.00    -0.203 F 
ATOM     79  F   UNL A   1      37.509  32.114  35.946  1.00  0.00    -0.200 F 
ATOM     80  C   UNL A   1      38.836  33.951  36.613  1.00  0.00     0.200 A 
ATOM     81  F   UNL A   1      40.222  35.737  37.281  1.00  0.00    -0.200 F 
ATOM     82  F   UNL A   1      37.979  34.227  37.606  1.00  0.00    -0.200 F 
ENDBRANCH  48  72
BRANCH  60  83
ATOM     83  C   UNL A   1      43.408  26.545  34.213  1.00  0.00     0.064 A 
ATOM     84  C   UNL A   1      42.384  25.801  34.822  1.00  0.00     0.173 A 
ATOM     85  C   UNL A   1      44.650  25.872  34.085  1.00  0.00     0.173 A 
ATOM     86  F   UNL A   1      41.131  26.270  34.899  1.00  0.00    -0.203 F 
ATOM     87  C   UNL A   1      42.599  24.513  35.322  1.00  0.00     0.198 A 
ATOM     88  C   UNL A   1      44.845  24.565  34.533  1.00  0.00     0.198 A 
ATOM     89  F   UNL A   1      45.705  26.452  33.496  1.00  0.00    -0.203 F 
ATOM     90  F   UNL A   1      41.597  23.863  35.932  1.00  0.00    -0.200 F 
ATOM     91  C   UNL A   1      43.824  23.891  35.167  1.00  0.00     0.200 A 
ATOM     92  F   UNL A   1      46.022  23.960  34.326  1.00  0.00    -0.200 F 
ATOM     93  F   UNL A   1      44.011  22.639  35.606  1.00  0.00    -0.200 F 
ENDBRANCH  60  83
ENDBRANCH  34  35
ENDBRANCH  26  29
ENDBRANCH  24  25
ENDBRANCH   1  24
TORSDOF 13
ENDMDL
