MODEL 1
REMARK VINA RESULT:     -12.4      0.000      0.000
REMARK SMILES CC(C)[C@H](NS(=O)(=O)c1cccc(F)c1)C(=O)NCCCNC(=O)c1ccc(-c2c3nc(c(-c4c(F)c(F)c(F)c(F)c4F)c4ccc([nH]4)c(-c4c(F)c(F)c(F)c(F)c4F)c4nc(c(-c5c(F)c(F)c(F)c(F)c5F)c5ccc2[nH]5)C=C4)C=C3)cc1
REMARK SMILES IDX 19 1 18 2 16 3 17 4 4 6 2 7 1 8 3 9 5 10 6 12 7 13 8 14 9 15
REMARK SMILES IDX 10 16 15 17 11 18 13 19 12 20 14 21 20 22 21 23 22 24 23 25
REMARK SMILES IDX 24 27 25 28 26 29 87 30 27 31 86 32 28 33 29 34 30 35 80 36
REMARK SMILES IDX 31 37 85 38 79 39 81 40 32 41 84 42 78 43 77 44 33 46 65 47
REMARK SMILES IDX 45 48 64 49 46 50 49 51 63 52 82 53 47 54 48 55 62 57 83 58
REMARK SMILES IDX 50 59 34 60 35 61 43 62 36 63 37 64 41 65 44 66 38 67 39 68
REMARK SMILES IDX 42 69 40 70 66 71 67 72 75 73 68 74 69 75 73 76 76 77 70 78
REMARK SMILES IDX 71 79 74 80 72 81 51 82 52 83 60 84 53 85 54 86 58 87 61 88
REMARK SMILES IDX 55 89 56 90 59 91 57 92
REMARK H PARENT 18 5 5 11 22 26 81 45 49 56
REMARK Flexibility Score: inf
ROOT
ATOM      1  C   UNL A   1      31.957  30.632  26.142  1.00  0.00     0.117 C 
ENDROOT
BRANCH   1   2
ATOM      2  N   UNL A   1      31.614  29.468  26.938  1.00  0.00    -0.355 N 
ATOM      3  C   UNL A   1      31.393  28.173  26.592  1.00  0.00     0.238 C 
ATOM      4  O   UNL A   1      31.207  27.381  27.522  1.00  0.00    -0.273 OA
ATOM      5  H   UNL A   1      31.524  29.650  27.902  1.00  0.00     0.163 HD
BRANCH   3   6
ATOM      6  C   UNL A   1      31.355  27.682  25.137  1.00  0.00     0.161 C 
BRANCH   6   7
ATOM      7  C   UNL A   1      32.659  27.010  24.652  1.00  0.00     0.010 C 
ATOM      8  C   UNL A   1      32.500  25.760  23.790  1.00  0.00     0.009 C 
ATOM      9  C   UNL A   1      33.550  28.018  23.914  1.00  0.00     0.009 C 
ENDBRANCH   6   7
BRANCH   6  10
ATOM     10  N   UNL A   1      30.833  28.736  24.241  1.00  0.00    -0.198 NA
ATOM     11  H   UNL A   1      31.648  29.128  23.768  1.00  0.00     0.142 HD
BRANCH  10  12
ATOM     12  S   UNL A   1      29.699  28.450  23.039  1.00  0.00     0.241 S 
ATOM     13  O   UNL A   1      30.464  27.972  21.915  1.00  0.00    -0.207 OA
ATOM     14  O   UNL A   1      28.606  27.674  23.589  1.00  0.00    -0.207 OA
BRANCH  12  15
ATOM     15  C   UNL A   1      29.050  30.050  22.608  1.00  0.00     0.085 A 
ATOM     16  C   UNL A   1      29.130  31.103  23.529  1.00  0.00     0.022 A 
ATOM     17  C   UNL A   1      28.535  30.272  21.330  1.00  0.00     0.061 A 
ATOM     18  C   UNL A   1      28.641  32.366  23.182  1.00  0.00     0.004 A 
ATOM     19  C   UNL A   1      28.018  31.522  21.016  1.00  0.00     0.124 A 
ATOM     20  C   UNL A   1      28.065  32.570  21.929  1.00  0.00     0.039 A 
ATOM     21  F   UNL A   1      27.464  31.720  19.813  1.00  0.00    -0.207 F 
ENDBRANCH  12  15
ENDBRANCH  10  12
ENDBRANCH   6  10
ENDBRANCH   3   6
ENDBRANCH   1   2
BRANCH   1  22
ATOM     22  C   UNL A   1      31.604  31.937  26.834  1.00  0.00     0.042 C 
BRANCH  22  23
ATOM     23  C   UNL A   1      32.809  32.783  27.224  1.00  0.00     0.118 C 
BRANCH  23  24
ATOM     24  N   UNL A   1      32.461  34.144  27.613  1.00  0.00    -0.352 N 
ATOM     25  C   UNL A   1      32.974  34.940  28.609  1.00  0.00     0.251 C 
ATOM     26  H   UNL A   1      31.745  34.558  27.079  1.00  0.00     0.163 HD
ATOM     27  O   UNL A   1      32.438  36.010  28.881  1.00  0.00    -0.269 OA
BRANCH  25  28
ATOM     28  C   UNL A   1      34.154  34.492  29.377  1.00  0.00     0.039 A 
ATOM     29  C   UNL A   1      33.970  33.911  30.633  1.00  0.00     0.014 A 
ATOM     30  C   UNL A   1      35.439  34.626  28.849  1.00  0.00     0.014 A 
ATOM     31  C   UNL A   1      35.067  33.376  31.314  1.00  0.00     0.010 A 
ATOM     32  C   UNL A   1      36.510  34.000  29.474  1.00  0.00     0.010 A 
ATOM     33  C   UNL A   1      36.336  33.369  30.715  1.00  0.00    -0.014 A 
BRANCH  33  34
ATOM     34  C   UNL A   1      37.508  32.727  31.364  1.00  0.00     0.031 A 
ATOM     35  C   UNL A   1      38.214  31.594  30.670  1.00  0.00     0.074 A 
ATOM     36  C   UNL A   1      37.889  33.108  32.599  1.00  0.00     0.049 A 
ATOM     37  N   UNL A   1      39.157  30.806  31.119  1.00  0.00    -0.248 NA
ATOM     38  C   UNL A   1      37.779  31.282  29.298  1.00  0.00     0.031 C 
ATOM     39  C   UNL A   1      37.266  34.171  33.389  1.00  0.00     0.029 A 
ATOM     40  N   UNL A   1      38.891  32.637  33.412  1.00  0.00    -0.354 N 
ATOM     41  C   UNL A   1      39.411  29.901  30.097  1.00  0.00     0.074 A 
ATOM     42  C   UNL A   1      38.484  30.194  29.027  1.00  0.00     0.031 C 
ATOM     43  C   UNL A   1      37.924  34.300  34.553  1.00  0.00     0.029 A 
ATOM     44  C   UNL A   1      38.983  33.296  34.615  1.00  0.00     0.049 A 
ATOM     45  H   UNL A   1      39.487  31.897  33.157  1.00  0.00     0.167 HD
ATOM     46  C   UNL A   1      40.356  28.935  30.042  1.00  0.00     0.037 A 
ATOM     47  C   UNL A   1      39.823  33.107  35.650  1.00  0.00     0.037 A 
ATOM     48  C   UNL A   1      41.308  28.677  31.088  1.00  0.00     0.049 A 
ATOM     49  C   UNL A   1      40.853  32.013  35.568  1.00  0.00     0.074 A 
ATOM     50  C   UNL A   1      42.323  27.737  31.115  1.00  0.00     0.029 A 
ATOM     51  N   UNL A   1      41.375  29.376  32.283  1.00  0.00    -0.354 N 
ATOM     52  N   UNL A   1      41.093  31.177  34.589  1.00  0.00    -0.248 NA
ATOM     53  C   UNL A   1      41.729  31.835  36.736  1.00  0.00     0.031 C 
ATOM     54  C   UNL A   1      42.988  27.849  32.338  1.00  0.00     0.029 A 
ATOM     55  C   UNL A   1      42.413  28.886  33.055  1.00  0.00     0.049 A 
ATOM     56  H   UNL A   1      40.773  30.110  32.544  1.00  0.00     0.167 HD
ATOM     57  C   UNL A   1      42.165  30.399  35.005  1.00  0.00     0.074 A 
ATOM     58  C   UNL A   1      42.534  30.866  36.324  1.00  0.00     0.031 C 
ATOM     59  C   UNL A   1      42.785  29.387  34.352  1.00  0.00     0.037 A 
BRANCH  46  60
ATOM     60  C   UNL A   1      40.439  28.105  28.797  1.00  0.00     0.064 A 
ATOM     61  C   UNL A   1      39.763  26.880  28.705  1.00  0.00     0.173 A 
ATOM     62  C   UNL A   1      41.256  28.487  27.722  1.00  0.00     0.173 A 
ATOM     63  F   UNL A   1      38.971  26.467  29.706  1.00  0.00    -0.203 F 
ATOM     64  C   UNL A   1      39.915  26.061  27.589  1.00  0.00     0.198 A 
ATOM     65  C   UNL A   1      41.384  27.679  26.597  1.00  0.00     0.198 A 
ATOM     66  F   UNL A   1      41.913  29.658  27.757  1.00  0.00    -0.203 F 
ATOM     67  F   UNL A   1      39.287  24.877  27.537  1.00  0.00    -0.200 F 
ATOM     68  C   UNL A   1      40.724  26.461  26.536  1.00  0.00     0.200 A 
ATOM     69  F   UNL A   1      42.147  28.080  25.570  1.00  0.00    -0.200 F 
ATOM     70  F   UNL A   1      40.867  25.674  25.462  1.00  0.00    -0.200 F 
ENDBRANCH  46  60
BRANCH  47  71
ATOM     71  C   UNL A   1      39.756  33.998  36.839  1.00  0.00     0.064 A 
ATOM     72  C   UNL A   1      40.496  35.188  36.913  1.00  0.00     0.173 A 
ATOM     73  C   UNL A   1      38.940  33.670  37.930  1.00  0.00     0.173 A 
ATOM     74  F   UNL A   1      41.294  35.547  35.897  1.00  0.00    -0.203 F 
ATOM     75  C   UNL A   1      40.426  36.009  38.037  1.00  0.00     0.198 A 
ATOM     76  C   UNL A   1      38.850  34.505  39.041  1.00  0.00     0.198 A 
ATOM     77  F   UNL A   1      38.198  32.553  37.897  1.00  0.00    -0.203 F 
ATOM     78  F   UNL A   1      41.159  37.129  38.092  1.00  0.00    -0.200 F 
ATOM     79  C   UNL A   1      39.597  35.672  39.097  1.00  0.00     0.200 A 
ATOM     80  F   UNL A   1      38.027  34.187  40.050  1.00  0.00    -0.200 F 
ATOM     81  F   UNL A   1      39.513  36.473  40.167  1.00  0.00    -0.200 F 
ENDBRANCH  47  71
BRANCH  59  82
ATOM     82  C   UNL A   1      43.961  28.740  35.023  1.00  0.00     0.064 A 
ATOM     83  C   UNL A   1      45.259  29.218  34.786  1.00  0.00     0.173 A 
ATOM     84  C   UNL A   1      43.812  27.595  35.816  1.00  0.00     0.173 A 
ATOM     85  F   UNL A   1      45.450  30.306  34.023  1.00  0.00    -0.203 F 
ATOM     86  C   UNL A   1      46.368  28.560  35.305  1.00  0.00     0.198 A 
ATOM     87  C   UNL A   1      44.925  26.954  36.355  1.00  0.00     0.198 A 
ATOM     88  F   UNL A   1      42.590  27.108  36.079  1.00  0.00    -0.203 F 
ATOM     89  F   UNL A   1      47.601  29.010  35.034  1.00  0.00    -0.200 F 
ATOM     90  C   UNL A   1      46.201  27.429  36.090  1.00  0.00     0.200 A 
ATOM     91  F   UNL A   1      44.761  25.874  37.132  1.00  0.00    -0.200 F 
ATOM     92  F   UNL A   1      47.270  26.797  36.592  1.00  0.00    -0.200 F 
ENDBRANCH  59  82
ENDBRANCH  33  34
ENDBRANCH  25  28
ENDBRANCH  23  24
ENDBRANCH  22  23
ENDBRANCH   1  22
TORSDOF 14
ENDMDL
MODEL 2
REMARK VINA RESULT:     -12.4      3.404      5.695
REMARK SMILES CC(C)[C@H](NS(=O)(=O)c1cccc(F)c1)C(=O)NCCCNC(=O)c1ccc(-c2c3nc(c(-c4c(F)c(F)c(F)c(F)c4F)c4ccc([nH]4)c(-c4c(F)c(F)c(F)c(F)c4F)c4nc(c(-c5c(F)c(F)c(F)c(F)c5F)c5ccc2[nH]5)C=C4)C=C3)cc1
REMARK SMILES IDX 19 1 18 2 16 3 17 4 4 6 2 7 1 8 3 9 5 10 6 12 7 13 8 14 9 15
REMARK SMILES IDX 10 16 15 17 11 18 13 19 12 20 14 21 20 22 21 23 22 24 23 25
REMARK SMILES IDX 24 27 25 28 26 29 87 30 27 31 86 32 28 33 29 34 30 35 80 36
REMARK SMILES IDX 31 37 85 38 79 39 81 40 32 41 84 42 78 43 77 44 33 46 65 47
REMARK SMILES IDX 45 48 64 49 46 50 49 51 63 52 82 53 47 54 48 55 62 57 83 58
REMARK SMILES IDX 50 59 34 60 35 61 43 62 36 63 37 64 41 65 44 66 38 67 39 68
REMARK SMILES IDX 42 69 40 70 66 71 67 72 75 73 68 74 69 75 73 76 76 77 70 78
REMARK SMILES IDX 71 79 74 80 72 81 51 82 52 83 60 84 53 85 54 86 58 87 61 88
REMARK SMILES IDX 55 89 56 90 59 91 57 92
REMARK H PARENT 18 5 5 11 22 26 81 45 49 56
REMARK Flexibility Score: inf
ROOT
ATOM      1  C   UNL A   1      33.313  26.351  25.653  1.00  0.00     0.117 C 
ENDROOT
BRANCH   1   2
ATOM      2  N   UNL A   1      33.528  26.052  24.249  1.00  0.00    -0.355 N 
ATOM      3  C   UNL A   1      34.011  24.945  23.627  1.00  0.00     0.238 C 
ATOM      4  O   UNL A   1      33.988  24.956  22.392  1.00  0.00    -0.273 OA
ATOM      5  H   UNL A   1      33.281  26.784  23.637  1.00  0.00     0.163 HD
BRANCH   3   6
ATOM      6  C   UNL A   1      34.574  23.730  24.381  1.00  0.00     0.161 C 
BRANCH   6   7
ATOM      7  C   UNL A   1      36.118  23.650  24.407  1.00  0.00     0.010 C 
ATOM      8  C   UNL A   1      36.756  23.254  25.736  1.00  0.00     0.009 C 
ATOM      9  C   UNL A   1      36.633  22.715  23.304  1.00  0.00     0.009 C 
ENDBRANCH   6   7
BRANCH   6  10
ATOM     10  N   UNL A   1      33.899  22.487  23.952  1.00  0.00    -0.198 NA
ATOM     11  H   UNL A   1      34.621  21.915  23.513  1.00  0.00     0.142 HD
BRANCH  10  12
ATOM     12  S   UNL A   1      33.083  21.468  25.004  1.00  0.00     0.241 S 
ATOM     13  O   UNL A   1      33.861  21.490  26.217  1.00  0.00    -0.207 OA
ATOM     14  O   UNL A   1      31.676  21.813  25.008  1.00  0.00    -0.207 OA
BRANCH  12  15
ATOM     15  C   UNL A   1      33.229  19.841  24.299  1.00  0.00     0.085 A 
ATOM     16  C   UNL A   1      32.345  19.439  23.289  1.00  0.00     0.022 A 
ATOM     17  C   UNL A   1      34.268  18.999  24.699  1.00  0.00     0.061 A 
ATOM     18  C   UNL A   1      32.474  18.169  22.718  1.00  0.00     0.004 A 
ATOM     19  C   UNL A   1      34.358  17.726  24.151  1.00  0.00     0.124 A 
ATOM     20  C   UNL A   1      33.471  17.303  23.166  1.00  0.00     0.039 A 
ATOM     21  F   UNL A   1      35.314  16.893  24.579  1.00  0.00    -0.207 F 
ENDBRANCH  12  15
ENDBRANCH  10  12
ENDBRANCH   6  10
ENDBRANCH   3   6
ENDBRANCH   1   2
BRANCH   1  22
ATOM     22  C   UNL A   1      32.577  27.662  25.864  1.00  0.00     0.042 C 
BRANCH  22  23
ATOM     23  C   UNL A   1      33.328  28.887  25.358  1.00  0.00     0.118 C 
BRANCH  23  24
ATOM     24  N   UNL A   1      32.798  30.144  25.872  1.00  0.00    -0.352 N 
ATOM     25  C   UNL A   1      33.266  30.958  26.877  1.00  0.00     0.251 C 
ATOM     26  H   UNL A   1      31.977  30.460  25.431  1.00  0.00     0.163 HD
ATOM     27  O   UNL A   1      32.590  31.903  27.270  1.00  0.00    -0.269 OA
BRANCH  25  28
ATOM     28  C   UNL A   1      34.572  30.674  27.508  1.00  0.00     0.039 A 
ATOM     29  C   UNL A   1      35.497  31.710  27.655  1.00  0.00     0.014 A 
ATOM     30  C   UNL A   1      34.875  29.394  27.972  1.00  0.00     0.014 A 
ATOM     31  C   UNL A   1      36.684  31.481  28.357  1.00  0.00     0.010 A 
ATOM     32  C   UNL A   1      36.001  29.195  28.760  1.00  0.00     0.010 A 
ATOM     33  C   UNL A   1      36.920  30.235  28.959  1.00  0.00    -0.014 A 
BRANCH  33  34
ATOM     34  C   UNL A   1      38.124  29.981  29.792  1.00  0.00     0.031 A 
ATOM     35  C   UNL A   1      39.215  29.089  29.266  1.00  0.00     0.074 A 
ATOM     36  C   UNL A   1      38.202  30.486  31.039  1.00  0.00     0.049 A 
ATOM     37  N   UNL A   1      40.273  28.624  29.881  1.00  0.00    -0.248 NA
ATOM     38  C   UNL A   1      39.085  28.630  27.873  1.00  0.00     0.031 C 
ATOM     39  C   UNL A   1      37.196  31.338  31.674  1.00  0.00     0.029 A 
ATOM     40  N   UNL A   1      39.173  30.350  32.001  1.00  0.00    -0.354 N 
ATOM     41  C   UNL A   1      40.917  27.809  28.959  1.00  0.00     0.074 A 
ATOM     42  C   UNL A   1      40.104  27.791  27.764  1.00  0.00     0.031 C 
ATOM     43  C   UNL A   1      37.619  31.683  32.901  1.00  0.00     0.029 A 
ATOM     44  C   UNL A   1      38.902  31.036  33.161  1.00  0.00     0.049 A 
ATOM     45  H   UNL A   1      39.987  29.812  31.871  1.00  0.00     0.167 HD
ATOM     46  C   UNL A   1      42.098  27.162  29.087  1.00  0.00     0.037 A 
ATOM     47  C   UNL A   1      39.607  31.127  34.304  1.00  0.00     0.037 A 
ATOM     48  C   UNL A   1      42.928  27.220  30.259  1.00  0.00     0.049 A 
ATOM     49  C   UNL A   1      40.910  30.382  34.423  1.00  0.00     0.074 A 
ATOM     50  C   UNL A   1      44.155  26.620  30.475  1.00  0.00     0.029 A 
ATOM     51  N   UNL A   1      42.622  27.936  31.406  1.00  0.00    -0.354 N 
ATOM     52  N   UNL A   1      41.515  29.629  33.537  1.00  0.00    -0.248 NA
ATOM     53  C   UNL A   1      41.627  30.496  35.702  1.00  0.00     0.031 C 
ATOM     54  C   UNL A   1      44.582  26.952  31.762  1.00  0.00     0.029 A 
ATOM     55  C   UNL A   1      43.639  27.791  32.333  1.00  0.00     0.049 A 
ATOM     56  H   UNL A   1      41.805  28.467  31.541  1.00  0.00     0.167 HD
ATOM     57  C   UNL A   1      42.696  29.211  34.135  1.00  0.00     0.074 A 
ATOM     58  C   UNL A   1      42.727  29.798  35.458  1.00  0.00     0.031 C 
ATOM     59  C   UNL A   1      43.666  28.410  33.632  1.00  0.00     0.037 A 
BRANCH  46  60
ATOM     60  C   UNL A   1      42.589  26.363  27.917  1.00  0.00     0.064 A 
ATOM     61  C   UNL A   1      43.406  26.949  26.940  1.00  0.00     0.173 A 
ATOM     62  C   UNL A   1      42.184  25.033  27.725  1.00  0.00     0.173 A 
ATOM     63  F   UNL A   1      43.819  28.219  27.076  1.00  0.00    -0.203 F 
ATOM     64  C   UNL A   1      43.784  26.239  25.804  1.00  0.00     0.198 A 
ATOM     65  C   UNL A   1      42.586  24.318  26.601  1.00  0.00     0.198 A 
ATOM     66  F   UNL A   1      41.414  24.424  28.639  1.00  0.00    -0.203 F 
ATOM     67  F   UNL A   1      44.535  26.830  24.864  1.00  0.00    -0.200 F 
ATOM     68  C   UNL A   1      43.376  24.924  25.636  1.00  0.00     0.200 A 
ATOM     69  F   UNL A   1      42.211  23.040  26.454  1.00  0.00    -0.200 F 
ATOM     70  F   UNL A   1      43.743  24.241  24.544  1.00  0.00    -0.200 F 
ENDBRANCH  46  60
BRANCH  47  71
ATOM     71  C   UNL A   1      39.122  31.987  35.415  1.00  0.00     0.064 A 
ATOM     72  C   UNL A   1      38.361  31.469  36.473  1.00  0.00     0.173 A 
ATOM     73  C   UNL A   1      39.419  33.357  35.437  1.00  0.00     0.173 A 
ATOM     74  F   UNL A   1      38.046  30.166  36.499  1.00  0.00    -0.203 F 
ATOM     75  C   UNL A   1      37.910  32.291  37.505  1.00  0.00     0.198 A 
ATOM     76  C   UNL A   1      38.991  34.172  36.482  1.00  0.00     0.198 A 
ATOM     77  F   UNL A   1      40.162  33.896  34.458  1.00  0.00    -0.203 F 
ATOM     78  F   UNL A   1      37.165  31.775  38.492  1.00  0.00    -0.200 F 
ATOM     79  C   UNL A   1      38.232  33.640  37.513  1.00  0.00     0.200 A 
ATOM     80  F   UNL A   1      39.329  35.469  36.498  1.00  0.00    -0.200 F 
ATOM     81  F   UNL A   1      37.817  34.425  38.516  1.00  0.00    -0.200 F 
ENDBRANCH  47  71
BRANCH  59  82
ATOM     82  C   UNL A   1      44.872  28.154  34.486  1.00  0.00     0.064 A 
ATOM     83  C   UNL A   1      44.877  27.086  35.397  1.00  0.00     0.173 A 
ATOM     84  C   UNL A   1      45.975  29.017  34.473  1.00  0.00     0.173 A 
ATOM     85  F   UNL A   1      43.837  26.239  35.453  1.00  0.00    -0.203 F 
ATOM     86  C   UNL A   1      45.938  26.903  36.278  1.00  0.00     0.198 A 
ATOM     87  C   UNL A   1      47.047  28.815  35.339  1.00  0.00     0.198 A 
ATOM     88  F   UNL A   1      46.020  30.044  33.612  1.00  0.00    -0.203 F 
ATOM     89  F   UNL A   1      45.904  25.900  37.167  1.00  0.00    -0.200 F 
ATOM     90  C   UNL A   1      47.022  27.767  36.248  1.00  0.00     0.200 A 
ATOM     91  F   UNL A   1      48.105  29.637  35.295  1.00  0.00    -0.200 F 
ATOM     92  F   UNL A   1      48.045  27.589  37.095  1.00  0.00    -0.200 F 
ENDBRANCH  59  82
ENDBRANCH  33  34
ENDBRANCH  25  28
ENDBRANCH  23  24
ENDBRANCH  22  23
ENDBRANCH   1  22
TORSDOF 14
ENDMDL
MODEL 3
REMARK VINA RESULT:     -12.4      1.817      3.426
REMARK SMILES CC(C)[C@H](NS(=O)(=O)c1cccc(F)c1)C(=O)NCCCNC(=O)c1ccc(-c2c3nc(c(-c4c(F)c(F)c(F)c(F)c4F)c4ccc([nH]4)c(-c4c(F)c(F)c(F)c(F)c4F)c4nc(c(-c5c(F)c(F)c(F)c(F)c5F)c5ccc2[nH]5)C=C4)C=C3)cc1
REMARK SMILES IDX 19 1 18 2 16 3 17 4 4 6 2 7 1 8 3 9 5 10 6 12 7 13 8 14 9 15
REMARK SMILES IDX 10 16 15 17 11 18 13 19 12 20 14 21 20 22 21 23 22 24 23 25
REMARK SMILES IDX 24 27 25 28 26 29 87 30 27 31 86 32 28 33 29 34 30 35 80 36
REMARK SMILES IDX 31 37 85 38 79 39 81 40 32 41 84 42 78 43 77 44 33 46 65 47
REMARK SMILES IDX 45 48 64 49 46 50 49 51 63 52 82 53 47 54 48 55 62 57 83 58
REMARK SMILES IDX 50 59 34 60 35 61 43 62 36 63 37 64 41 65 44 66 38 67 39 68
REMARK SMILES IDX 42 69 40 70 66 71 67 72 75 73 68 74 69 75 73 76 76 77 70 78
REMARK SMILES IDX 71 79 74 80 72 81 51 82 52 83 60 84 53 85 54 86 58 87 61 88
REMARK SMILES IDX 55 89 56 90 59 91 57 92
REMARK H PARENT 18 5 5 11 22 26 81 45 49 56
REMARK Flexibility Score: inf
ROOT
ATOM      1  C   UNL A   1      31.956  30.554  25.943  1.00  0.00     0.117 C 
ENDROOT
BRANCH   1   2
ATOM      2  N   UNL A   1      31.000  30.424  24.859  1.00  0.00    -0.355 N 
ATOM      3  C   UNL A   1      30.671  29.369  24.069  1.00  0.00     0.238 C 
ATOM      4  O   UNL A   1      29.736  29.545  23.281  1.00  0.00    -0.273 OA
ATOM      5  H   UNL A   1      30.501  31.250  24.659  1.00  0.00     0.163 HD
BRANCH   3   6
ATOM      6  C   UNL A   1      31.403  28.019  24.114  1.00  0.00     0.161 C 
BRANCH   6   7
ATOM      7  C   UNL A   1      32.076  27.610  22.784  1.00  0.00     0.010 C 
ATOM      8  C   UNL A   1      33.602  27.592  22.771  1.00  0.00     0.009 C 
ATOM      9  C   UNL A   1      31.554  26.248  22.306  1.00  0.00     0.009 C 
ENDBRANCH   6   7
BRANCH   6  10
ATOM     10  N   UNL A   1      30.547  26.977  24.719  1.00  0.00    -0.198 NA
ATOM     11  H   UNL A   1      30.405  26.276  23.991  1.00  0.00     0.142 HD
BRANCH  10  12
ATOM     12  S   UNL A   1      30.965  26.125  26.102  1.00  0.00     0.241 S 
ATOM     13  O   UNL A   1      31.440  27.127  27.023  1.00  0.00    -0.207 OA
ATOM     14  O   UNL A   1      29.882  25.231  26.457  1.00  0.00    -0.207 OA
BRANCH  12  15
ATOM     15  C   UNL A   1      32.356  25.117  25.637  1.00  0.00     0.085 A 
ATOM     16  C   UNL A   1      33.656  25.623  25.772  1.00  0.00     0.022 A 
ATOM     17  C   UNL A   1      32.154  23.803  25.213  1.00  0.00     0.061 A 
ATOM     18  C   UNL A   1      34.750  24.823  25.429  1.00  0.00     0.004 A 
ATOM     19  C   UNL A   1      33.249  23.036  24.839  1.00  0.00     0.124 A 
ATOM     20  C   UNL A   1      34.544  23.533  24.941  1.00  0.00     0.039 A 
ATOM     21  F   UNL A   1      33.054  21.797  24.370  1.00  0.00    -0.207 F 
ENDBRANCH  12  15
ENDBRANCH  10  12
ENDBRANCH   6  10
ENDBRANCH   3   6
ENDBRANCH   1   2
BRANCH   1  22
ATOM     22  C   UNL A   1      31.639  31.719  26.864  1.00  0.00     0.042 C 
BRANCH  22  23
ATOM     23  C   UNL A   1      32.853  32.549  27.260  1.00  0.00     0.118 C 
BRANCH  23  24
ATOM     24  N   UNL A   1      32.530  33.936  27.572  1.00  0.00    -0.352 N 
ATOM     25  C   UNL A   1      33.049  34.774  28.531  1.00  0.00     0.251 C 
ATOM     26  H   UNL A   1      31.830  34.336  27.007  1.00  0.00     0.163 HD
ATOM     27  O   UNL A   1      32.533  35.867  28.738  1.00  0.00    -0.269 OA
BRANCH  25  28
ATOM     28  C   UNL A   1      34.209  34.342  29.337  1.00  0.00     0.039 A 
ATOM     29  C   UNL A   1      33.991  33.712  30.564  1.00  0.00     0.014 A 
ATOM     30  C   UNL A   1      35.510  34.539  28.873  1.00  0.00     0.014 A 
ATOM     31  C   UNL A   1      35.075  33.194  31.277  1.00  0.00     0.010 A 
ATOM     32  C   UNL A   1      36.575  33.931  29.526  1.00  0.00     0.010 A 
ATOM     33  C   UNL A   1      36.370  33.253  30.736  1.00  0.00    -0.014 A 
BRANCH  33  34
ATOM     34  C   UNL A   1      37.535  32.631  31.417  1.00  0.00     0.031 A 
ATOM     35  C   UNL A   1      38.279  31.511  30.743  1.00  0.00     0.074 A 
ATOM     36  C   UNL A   1      37.874  33.018  32.663  1.00  0.00     0.049 A 
ATOM     37  N   UNL A   1      39.223  30.740  31.218  1.00  0.00    -0.248 NA
ATOM     38  C   UNL A   1      37.887  31.192  29.360  1.00  0.00     0.031 C 
ATOM     39  C   UNL A   1      37.212  34.070  33.435  1.00  0.00     0.029 A 
ATOM     40  N   UNL A   1      38.862  32.565  33.503  1.00  0.00    -0.354 N 
ATOM     41  C   UNL A   1      39.521  29.840  30.203  1.00  0.00     0.074 A 
ATOM     42  C   UNL A   1      38.619  30.116  29.108  1.00  0.00     0.031 C 
ATOM     43  C   UNL A   1      37.836  34.210  34.616  1.00  0.00     0.029 A 
ATOM     44  C   UNL A   1      38.910  33.225  34.707  1.00  0.00     0.049 A 
ATOM     45  H   UNL A   1      39.479  31.835  33.264  1.00  0.00     0.167 HD
ATOM     46  C   UNL A   1      40.484  28.891  30.174  1.00  0.00     0.037 A 
ATOM     47  C   UNL A   1      39.724  33.051  35.765  1.00  0.00     0.037 A 
ATOM     48  C   UNL A   1      41.411  28.649  31.245  1.00  0.00     0.049 A 
ATOM     49  C   UNL A   1      40.776  31.975  35.711  1.00  0.00     0.074 A 
ATOM     50  C   UNL A   1      42.441  27.727  31.301  1.00  0.00     0.029 A 
ATOM     51  N   UNL A   1      41.433  29.348  32.442  1.00  0.00    -0.354 N 
ATOM     52  N   UNL A   1      41.057  31.143  34.739  1.00  0.00    -0.248 NA
ATOM     53  C   UNL A   1      41.622  31.811  36.903  1.00  0.00     0.031 C 
ATOM     54  C   UNL A   1      43.070  27.850  32.541  1.00  0.00     0.029 A 
ATOM     55  C   UNL A   1      42.458  28.876  33.243  1.00  0.00     0.049 A 
ATOM     56  H   UNL A   1      40.812  30.072  32.686  1.00  0.00     0.167 HD
ATOM     57  C   UNL A   1      42.131  30.384  35.184  1.00  0.00     0.074 A 
ATOM     58  C   UNL A   1      42.456  30.858  36.513  1.00  0.00     0.031 C 
ATOM     59  C   UNL A   1      42.786  29.383  34.549  1.00  0.00     0.037 A 
BRANCH  46  60
ATOM     60  C   UNL A   1      40.615  28.062  28.932  1.00  0.00     0.064 A 
ATOM     61  C   UNL A   1      41.401  28.501  27.856  1.00  0.00     0.173 A 
ATOM     62  C   UNL A   1      39.896  26.867  28.776  1.00  0.00     0.173 A 
ATOM     63  F   UNL A   1      42.105  29.639  27.953  1.00  0.00    -0.203 F 
ATOM     64  C   UNL A   1      41.447  27.783  26.664  1.00  0.00     0.198 A 
ATOM     65  C   UNL A   1      39.967  26.137  27.594  1.00  0.00     0.198 A 
ATOM     66  F   UNL A   1      39.142  26.398  29.783  1.00  0.00    -0.203 F 
ATOM     67  F   UNL A   1      42.176  28.239  25.636  1.00  0.00    -0.200 F 
ATOM     68  C   UNL A   1      40.732  26.602  26.535  1.00  0.00     0.200 A 
ATOM     69  F   UNL A   1      39.295  24.983  27.480  1.00  0.00    -0.200 F 
ATOM     70  F   UNL A   1      40.781  25.909  25.389  1.00  0.00    -0.200 F 
ENDBRANCH  46  60
BRANCH  47  71
ATOM     71  C   UNL A   1      39.610  33.940  36.951  1.00  0.00     0.064 A 
ATOM     72  C   UNL A   1      40.222  35.201  36.991  1.00  0.00     0.173 A 
ATOM     73  C   UNL A   1      38.875  33.537  38.075  1.00  0.00     0.173 A 
ATOM     74  F   UNL A   1      40.939  35.634  35.943  1.00  0.00    -0.203 F 
ATOM     75  C   UNL A   1      40.109  36.021  38.113  1.00  0.00     0.198 A 
ATOM     76  C   UNL A   1      38.740  34.368  39.185  1.00  0.00     0.198 A 
ATOM     77  F   UNL A   1      38.254  32.348  38.076  1.00  0.00    -0.203 F 
ATOM     78  F   UNL A   1      40.722  37.212  38.135  1.00  0.00    -0.200 F 
ATOM     79  C   UNL A   1      39.362  35.607  39.206  1.00  0.00     0.200 A 
ATOM     80  F   UNL A   1      37.995  33.973  40.226  1.00  0.00    -0.200 F 
ATOM     81  F   UNL A   1      39.235  36.404  40.276  1.00  0.00    -0.200 F 
ENDBRANCH  47  71
BRANCH  59  82
ATOM     82  C   UNL A   1      43.954  28.757  35.251  1.00  0.00     0.064 A 
ATOM     83  C   UNL A   1      43.750  27.707  36.161  1.00  0.00     0.173 A 
ATOM     84  C   UNL A   1      45.254  29.258  35.100  1.00  0.00     0.173 A 
ATOM     85  F   UNL A   1      42.521  27.203  36.346  1.00  0.00    -0.203 F 
ATOM     86  C   UNL A   1      44.806  27.194  36.907  1.00  0.00     0.198 A 
ATOM     87  C   UNL A   1      46.312  28.724  35.830  1.00  0.00     0.198 A 
ATOM     88  F   UNL A   1      45.498  30.253  34.234  1.00  0.00    -0.203 F 
ATOM     89  F   UNL A   1      44.583  26.218  37.798  1.00  0.00    -0.200 F 
ATOM     90  C   UNL A   1      46.086  27.701  36.740  1.00  0.00     0.200 A 
ATOM     91  F   UNL A   1      47.552  29.200  35.653  1.00  0.00    -0.200 F 
ATOM     92  F   UNL A   1      47.102  27.205  37.458  1.00  0.00    -0.200 F 
ENDBRANCH  59  82
ENDBRANCH  33  34
ENDBRANCH  25  28
ENDBRANCH  23  24
ENDBRANCH  22  23
ENDBRANCH   1  22
TORSDOF 14
ENDMDL
