MODEL 1
REMARK VINA RESULT:     -13.1      0.000      0.000
REMARK SMILES O=C(NCCCNC(=O)c1cccc(NC(=O)c2cc3ccccc3[nH]2)c1)c1ccc(-c2c3nc(c(-c4c(F)c(F)c(F)c(F)c4F)c4ccc([nH]4)c(-c4c(F)c(F)c(F)c(F)c4F)c4nc(c(-c5c(F)c(F)c(F)c(F)c5F)c5ccc2[nH]5)C=C4)C=C3)cc1
REMARK SMILES IDX 5 1 4 2 3 3 1 4 2 5 28 7 29 8 90 9 30 10 89 11 31 12 32 13
REMARK SMILES IDX 33 14 83 15 34 16 88 17 82 18 84 19 35 20 87 21 81 22 80 23
REMARK SMILES IDX 36 25 68 26 48 27 67 28 49 29 52 30 66 31 85 32 50 33 51 34
REMARK SMILES IDX 65 36 86 37 53 38 37 39 38 40 46 41 39 42 40 43 44 44 47 45
REMARK SMILES IDX 41 46 42 47 45 48 43 49 69 50 70 51 78 52 71 53 72 54 76 55
REMARK SMILES IDX 79 56 73 57 74 58 77 59 75 60 54 61 55 62 63 63 56 64 57 65
REMARK SMILES IDX 61 66 64 67 58 68 59 69 62 70 60 71 6 72 7 73 8 74 9 76
REMARK SMILES IDX 10 77 11 78 27 79 12 80 14 81 13 82 15 83 16 84 17 86 18 87
REMARK SMILES IDX 19 88 26 89 20 90 25 91 21 93 24 94 22 95 23 96
REMARK H PARENT 3 6 84 24 52 35 7 75 15 85 26 92
REMARK Flexibility Score: inf
ROOT
ATOM      1  C   UNL A   1      31.251  31.808  26.486  1.00  0.00     0.042 C 
ENDROOT
BRANCH   1   2
ATOM      2  C   UNL A   1      32.571  32.451  26.876  1.00  0.00     0.118 C 
BRANCH   2   3
ATOM      3  N   UNL A   1      32.411  33.818  27.354  1.00  0.00    -0.352 N 
ATOM      4  O   UNL A   1      32.632  35.576  28.742  1.00  0.00    -0.269 OA
ATOM      5  C   UNL A   1      33.041  34.475  28.381  1.00  0.00     0.251 C 
ATOM      6  H   UNL A   1      31.749  34.355  26.862  1.00  0.00     0.163 HD
BRANCH   5   7
ATOM      7  C   UNL A   1      34.202  33.864  29.064  1.00  0.00     0.039 A 
ATOM      8  C   UNL A   1      34.028  32.820  29.975  1.00  0.00     0.014 A 
ATOM      9  C   UNL A   1      35.489  34.311  28.751  1.00  0.00     0.014 A 
ATOM     10  C   UNL A   1      35.119  32.316  30.673  1.00  0.00     0.010 A 
ATOM     11  C   UNL A   1      36.596  33.737  29.381  1.00  0.00     0.010 A 
ATOM     12  C   UNL A   1      36.417  32.746  30.359  1.00  0.00    -0.014 A 
BRANCH  12  13
ATOM     13  C   UNL A   1      37.577  32.063  30.984  1.00  0.00     0.031 A 
ATOM     14  C   UNL A   1      38.357  31.018  30.244  1.00  0.00     0.074 A 
ATOM     15  C   UNL A   1      37.910  32.402  32.245  1.00  0.00     0.049 A 
ATOM     16  N   UNL A   1      39.374  30.304  30.660  1.00  0.00    -0.248 NA
ATOM     17  C   UNL A   1      37.944  30.724  28.863  1.00  0.00     0.031 C 
ATOM     18  C   UNL A   1      37.206  33.393  33.063  1.00  0.00     0.029 A 
ATOM     19  N   UNL A   1      38.917  31.956  33.061  1.00  0.00    -0.354 N 
ATOM     20  C   UNL A   1      39.706  29.464  29.606  1.00  0.00     0.074 A 
ATOM     21  C   UNL A   1      38.776  29.743  28.533  1.00  0.00     0.031 C 
ATOM     22  C   UNL A   1      37.815  33.498  34.251  1.00  0.00     0.029 A 
ATOM     23  C   UNL A   1      38.907  32.535  34.307  1.00  0.00     0.049 A 
ATOM     24  H   UNL A   1      39.583  31.286  32.781  1.00  0.00     0.167 HD
ATOM     25  C   UNL A   1      40.701  28.546  29.549  1.00  0.00     0.037 A 
ATOM     26  C   UNL A   1      39.667  32.291  35.389  1.00  0.00     0.037 A 
ATOM     27  C   UNL A   1      41.638  28.299  30.615  1.00  0.00     0.049 A 
ATOM     28  C   UNL A   1      40.740  31.245  35.300  1.00  0.00     0.074 A 
ATOM     29  C   UNL A   1      42.733  27.453  30.620  1.00  0.00     0.029 A 
ATOM     30  N   UNL A   1      41.580  28.886  31.871  1.00  0.00    -0.354 N 
ATOM     31  N   UNL A   1      41.089  30.506  34.276  1.00  0.00    -0.248 NA
ATOM     32  C   UNL A   1      41.518  30.991  36.519  1.00  0.00     0.031 C 
ATOM     33  C   UNL A   1      43.303  27.483  31.896  1.00  0.00     0.029 A 
ATOM     34  C   UNL A   1      42.594  28.386  32.673  1.00  0.00     0.049 A 
ATOM     35  H   UNL A   1      40.917  29.557  32.151  1.00  0.00     0.167 HD
ATOM     36  C   UNL A   1      42.130  29.707  34.720  1.00  0.00     0.074 A 
ATOM     37  C   UNL A   1      42.376  30.070  36.101  1.00  0.00     0.031 C 
ATOM     38  C   UNL A   1      42.818  28.753  34.047  1.00  0.00     0.037 A 
BRANCH  25  39
ATOM     39  C   UNL A   1      40.831  27.719  28.303  1.00  0.00     0.064 A 
ATOM     40  C   UNL A   1      41.618  28.130  27.219  1.00  0.00     0.173 A 
ATOM     41  C   UNL A   1      40.226  26.454  28.234  1.00  0.00     0.173 A 
ATOM     42  F   UNL A   1      42.211  29.332  27.233  1.00  0.00    -0.203 F 
ATOM     43  C   UNL A   1      41.786  27.309  26.106  1.00  0.00     0.198 A 
ATOM     44  C   UNL A   1      40.416  25.626  27.131  1.00  0.00     0.198 A 
ATOM     45  F   UNL A   1      39.469  26.009  29.249  1.00  0.00    -0.203 F 
ATOM     46  F   UNL A   1      42.524  27.732  25.069  1.00  0.00    -0.200 F 
ATOM     47  C   UNL A   1      41.194  26.056  26.066  1.00  0.00     0.200 A 
ATOM     48  F   UNL A   1      39.853  24.410  27.101  1.00  0.00    -0.200 F 
ATOM     49  F   UNL A   1      41.372  25.261  25.001  1.00  0.00    -0.200 F 
ENDBRANCH  25  39
BRANCH  26  50
ATOM     50  C   UNL A   1      39.406  33.023  36.655  1.00  0.00     0.064 A 
ATOM     51  C   UNL A   1      40.090  34.206  36.962  1.00  0.00     0.173 A 
ATOM     52  C   UNL A   1      38.464  32.553  37.583  1.00  0.00     0.173 A 
ATOM     53  F   UNL A   1      41.013  34.685  36.115  1.00  0.00    -0.203 F 
ATOM     54  C   UNL A   1      39.855  34.883  38.158  1.00  0.00     0.198 A 
ATOM     55  C   UNL A   1      38.205  33.248  38.763  1.00  0.00     0.198 A 
ATOM     56  F   UNL A   1      37.778  31.428  37.334  1.00  0.00    -0.203 F 
ATOM     57  F   UNL A   1      40.555  35.986  38.449  1.00  0.00    -0.200 F 
ATOM     58  C   UNL A   1      38.908  34.406  39.053  1.00  0.00     0.200 A 
ATOM     59  F   UNL A   1      37.277  32.793  39.615  1.00  0.00    -0.200 F 
ATOM     60  F   UNL A   1      38.678  35.060  40.200  1.00  0.00    -0.200 F 
ENDBRANCH  26  50
BRANCH  38  61
ATOM     61  C   UNL A   1      43.905  28.041  34.794  1.00  0.00     0.064 A 
ATOM     62  C   UNL A   1      43.665  26.823  35.445  1.00  0.00     0.173 A 
ATOM     63  C   UNL A   1      45.208  28.560  34.827  1.00  0.00     0.173 A 
ATOM     64  F   UNL A   1      42.431  26.296  35.458  1.00  0.00    -0.203 F 
ATOM     65  C   UNL A   1      44.687  26.157  36.116  1.00  0.00     0.198 A 
ATOM     66  C   UNL A   1      46.233  27.878  35.473  1.00  0.00     0.198 A 
ATOM     67  F   UNL A   1      45.488  29.722  34.216  1.00  0.00    -0.203 F 
ATOM     68  F   UNL A   1      44.426  25.015  36.766  1.00  0.00    -0.200 F 
ATOM     69  C   UNL A   1      45.971  26.681  36.121  1.00  0.00     0.200 A 
ATOM     70  F   UNL A   1      47.476  28.379  35.468  1.00  0.00    -0.200 F 
ATOM     71  F   UNL A   1      46.956  26.033  36.759  1.00  0.00    -0.200 F 
ENDBRANCH  38  61
ENDBRANCH  12  13
ENDBRANCH   5   7
ENDBRANCH   2   3
ENDBRANCH   1   2
BRANCH   1  72
ATOM     72  C   UNL A   1      31.403  30.478  25.764  1.00  0.00     0.118 C 
BRANCH  72  73
ATOM     73  N   UNL A   1      32.521  29.689  26.271  1.00  0.00    -0.352 N 
ATOM     74  C   UNL A   1      32.769  28.335  26.205  1.00  0.00     0.251 C 
ATOM     75  H   UNL A   1      33.213  30.211  26.738  1.00  0.00     0.163 HD
ATOM     76  O   UNL A   1      33.663  27.842  26.876  1.00  0.00    -0.269 OA
BRANCH  74  77
ATOM     77  C   UNL A   1      31.951  27.477  25.321  1.00  0.00     0.041 A 
ATOM     78  C   UNL A   1      32.137  27.509  23.941  1.00  0.00     0.014 A 
ATOM     79  C   UNL A   1      31.008  26.615  25.875  1.00  0.00     0.040 A 
ATOM     80  C   UNL A   1      31.430  26.611  23.135  1.00  0.00     0.003 A 
ATOM     81  C   UNL A   1      30.383  25.647  25.089  1.00  0.00     0.042 A 
ATOM     82  C   UNL A   1      30.572  25.659  23.710  1.00  0.00     0.026 A 
BRANCH  81  83
ATOM     83  N   UNL A   1      29.774  24.625  25.821  1.00  0.00    -0.321 N 
ATOM     84  C   UNL A   1      30.263  23.702  26.690  1.00  0.00     0.272 C 
ATOM     85  H   UNL A   1      28.802  24.562  25.681  1.00  0.00     0.170 HD
ATOM     86  O   UNL A   1      29.528  23.384  27.626  1.00  0.00    -0.267 OA
BRANCH  84  87
ATOM     87  C   UNL A   1      31.466  22.968  26.408  1.00  0.00     0.105 A 
ATOM     88  C   UNL A   1      31.698  22.112  25.340  1.00  0.00     0.042 A 
ATOM     89  N   UNL A   1      32.709  23.462  26.757  1.00  0.00    -0.351 N 
ATOM     90  C   UNL A   1      32.854  22.654  24.696  1.00  0.00     0.000 A 
ATOM     91  C   UNL A   1      33.427  23.567  25.581  1.00  0.00     0.046 A 
ATOM     92  H   UNL A   1      33.021  23.692  27.663  1.00  0.00     0.167 HD
ATOM     93  C   UNL A   1      33.348  22.578  23.382  1.00  0.00     0.010 A 
ATOM     94  C   UNL A   1      34.443  24.452  25.214  1.00  0.00     0.026 A 
ATOM     95  C   UNL A   1      34.319  23.503  22.976  1.00  0.00     0.001 A 
ATOM     96  C   UNL A   1      34.845  24.432  23.876  1.00  0.00     0.002 A 
ENDBRANCH  84  87
ENDBRANCH  81  83
ENDBRANCH  74  77
ENDBRANCH  72  73
ENDBRANCH   1  72
TORSDOF 12
ENDMDL
MODEL 2
REMARK VINA RESULT:     -13.1      0.130      1.589
REMARK SMILES O=C(NCCCNC(=O)c1cccc(NC(=O)c2cc3ccccc3[nH]2)c1)c1ccc(-c2c3nc(c(-c4c(F)c(F)c(F)c(F)c4F)c4ccc([nH]4)c(-c4c(F)c(F)c(F)c(F)c4F)c4nc(c(-c5c(F)c(F)c(F)c(F)c5F)c5ccc2[nH]5)C=C4)C=C3)cc1
REMARK SMILES IDX 5 1 4 2 3 3 1 4 2 5 28 7 29 8 90 9 30 10 89 11 31 12 32 13
REMARK SMILES IDX 33 14 83 15 34 16 88 17 82 18 84 19 35 20 87 21 81 22 80 23
REMARK SMILES IDX 36 25 68 26 48 27 67 28 49 29 52 30 66 31 85 32 50 33 51 34
REMARK SMILES IDX 65 36 86 37 53 38 37 39 38 40 46 41 39 42 40 43 44 44 47 45
REMARK SMILES IDX 41 46 42 47 45 48 43 49 69 50 70 51 78 52 71 53 72 54 76 55
REMARK SMILES IDX 79 56 73 57 74 58 77 59 75 60 54 61 55 62 63 63 56 64 57 65
REMARK SMILES IDX 61 66 64 67 58 68 59 69 62 70 60 71 6 72 7 73 8 74 9 76
REMARK SMILES IDX 10 77 11 78 27 79 12 80 14 81 13 82 15 83 16 84 17 86 18 87
REMARK SMILES IDX 19 88 26 89 20 90 25 91 21 93 24 94 22 95 23 96
REMARK H PARENT 3 6 84 24 52 35 7 75 15 85 26 92
REMARK Flexibility Score: inf
ROOT
ATOM      1  C   UNL A   1      31.252  31.812  26.486  1.00  0.00     0.042 C 
ENDROOT
BRANCH   1   2
ATOM      2  C   UNL A   1      32.566  32.451  26.904  1.00  0.00     0.118 C 
BRANCH   2   3
ATOM      3  N   UNL A   1      32.401  33.818  27.379  1.00  0.00    -0.352 N 
ATOM      4  O   UNL A   1      32.623  35.582  28.758  1.00  0.00    -0.269 OA
ATOM      5  C   UNL A   1      33.037  34.484  28.396  1.00  0.00     0.251 C 
ATOM      6  H   UNL A   1      31.728  34.347  26.894  1.00  0.00     0.163 HD
BRANCH   5   7
ATOM      7  C   UNL A   1      34.211  33.885  29.067  1.00  0.00     0.039 A 
ATOM      8  C   UNL A   1      34.058  32.836  29.976  1.00  0.00     0.014 A 
ATOM      9  C   UNL A   1      35.490  34.348  28.744  1.00  0.00     0.014 A 
ATOM     10  C   UNL A   1      35.161  32.344  30.663  1.00  0.00     0.010 A 
ATOM     11  C   UNL A   1      36.610  33.786  29.362  1.00  0.00     0.010 A 
ATOM     12  C   UNL A   1      36.452  32.790  30.339  1.00  0.00    -0.014 A 
BRANCH  12  13
ATOM     13  C   UNL A   1      37.625  32.120  30.951  1.00  0.00     0.031 A 
ATOM     14  C   UNL A   1      38.409  31.083  30.203  1.00  0.00     0.074 A 
ATOM     15  C   UNL A   1      37.967  32.461  32.209  1.00  0.00     0.049 A 
ATOM     16  N   UNL A   1      39.438  30.380  30.608  1.00  0.00    -0.248 NA
ATOM     17  C   UNL A   1      37.985  30.786  28.826  1.00  0.00     0.031 C 
ATOM     18  C   UNL A   1      37.260  33.445  33.034  1.00  0.00     0.029 A 
ATOM     19  N   UNL A   1      38.988  32.026  33.014  1.00  0.00    -0.354 N 
ATOM     20  C   UNL A   1      39.768  29.544  29.550  1.00  0.00     0.074 A 
ATOM     21  C   UNL A   1      38.824  29.814  28.487  1.00  0.00     0.031 C 
ATOM     22  C   UNL A   1      37.881  33.556  34.217  1.00  0.00     0.029 A 
ATOM     23  C   UNL A   1      38.984  32.604  34.261  1.00  0.00     0.049 A 
ATOM     24  H   UNL A   1      39.657  31.364  32.728  1.00  0.00     0.167 HD
ATOM     25  C   UNL A   1      40.772  28.638  29.482  1.00  0.00     0.037 A 
ATOM     26  C   UNL A   1      39.757  32.367  35.335  1.00  0.00     0.037 A 
ATOM     27  C   UNL A   1      41.722  28.400  30.539  1.00  0.00     0.049 A 
ATOM     28  C   UNL A   1      40.841  31.333  35.235  1.00  0.00     0.074 A 
ATOM     29  C   UNL A   1      42.827  27.566  30.532  1.00  0.00     0.029 A 
ATOM     30  N   UNL A   1      41.671  28.985  31.795  1.00  0.00    -0.354 N 
ATOM     31  N   UNL A   1      41.187  30.599  34.206  1.00  0.00    -0.248 NA
ATOM     32  C   UNL A   1      41.634  31.087  36.445  1.00  0.00     0.031 C 
ATOM     33  C   UNL A   1      43.409  27.601  31.802  1.00  0.00     0.029 A 
ATOM     34  C   UNL A   1      42.699  28.496  32.586  1.00  0.00     0.049 A 
ATOM     35  H   UNL A   1      41.004  29.649  32.083  1.00  0.00     0.167 HD
ATOM     36  C   UNL A   1      42.241  29.811  34.639  1.00  0.00     0.074 A 
ATOM     37  C   UNL A   1      42.497  30.176  36.018  1.00  0.00     0.031 C 
ATOM     38  C   UNL A   1      42.933  28.865  33.959  1.00  0.00     0.037 A 
BRANCH  25  39
ATOM     39  C   UNL A   1      40.898  27.812  28.235  1.00  0.00     0.064 A 
ATOM     40  C   UNL A   1      41.678  28.227  27.147  1.00  0.00     0.173 A 
ATOM     41  C   UNL A   1      40.297  26.545  28.166  1.00  0.00     0.173 A 
ATOM     42  F   UNL A   1      42.268  29.431  27.160  1.00  0.00    -0.203 F 
ATOM     43  C   UNL A   1      41.844  27.409  26.032  1.00  0.00     0.198 A 
ATOM     44  C   UNL A   1      40.484  25.720  27.061  1.00  0.00     0.198 A 
ATOM     45  F   UNL A   1      39.546  26.096  29.185  1.00  0.00    -0.203 F 
ATOM     46  F   UNL A   1      42.574  27.836  24.992  1.00  0.00    -0.200 F 
ATOM     47  C   UNL A   1      41.255  26.154  25.993  1.00  0.00     0.200 A 
ATOM     48  F   UNL A   1      39.925  24.502  27.033  1.00  0.00    -0.200 F 
ATOM     49  F   UNL A   1      41.431  25.361  24.926  1.00  0.00    -0.200 F 
ENDBRANCH  25  39
BRANCH  26  50
ATOM     50  C   UNL A   1      39.502  33.096  36.604  1.00  0.00     0.064 A 
ATOM     51  C   UNL A   1      38.579  32.617  37.542  1.00  0.00     0.173 A 
ATOM     52  C   UNL A   1      40.180  34.288  36.904  1.00  0.00     0.173 A 
ATOM     53  F   UNL A   1      37.893  31.492  37.292  1.00  0.00    -0.203 F 
ATOM     54  C   UNL A   1      38.330  33.311  38.725  1.00  0.00     0.198 A 
ATOM     55  C   UNL A   1      39.955  34.964  38.102  1.00  0.00     0.198 A 
ATOM     56  F   UNL A   1      41.078  34.786  36.042  1.00  0.00    -0.203 F 
ATOM     57  F   UNL A   1      37.409  32.857  39.584  1.00  0.00    -0.200 F 
ATOM     58  C   UNL A   1      39.023  34.479  39.006  1.00  0.00     0.200 A 
ATOM     59  F   UNL A   1      40.640  36.081  38.376  1.00  0.00    -0.200 F 
ATOM     60  F   UNL A   1      38.788  35.143  40.146  1.00  0.00    -0.200 F 
ENDBRANCH  26  50
BRANCH  38  61
ATOM     61  C   UNL A   1      44.035  28.164  34.694  1.00  0.00     0.064 A 
ATOM     62  C   UNL A   1      45.325  28.706  34.764  1.00  0.00     0.173 A 
ATOM     63  C   UNL A   1      43.788  26.959  35.369  1.00  0.00     0.173 A 
ATOM     64  F   UNL A   1      45.614  29.846  34.119  1.00  0.00    -0.203 F 
ATOM     65  C   UNL A   1      46.335  28.060  35.471  1.00  0.00     0.198 A 
ATOM     66  C   UNL A   1      44.791  26.330  36.098  1.00  0.00     0.198 A 
ATOM     67  F   UNL A   1      42.567  26.402  35.334  1.00  0.00    -0.203 F 
ATOM     68  F   UNL A   1      47.572  28.574  35.490  1.00  0.00    -0.200 F 
ATOM     69  C   UNL A   1      46.065  26.877  36.144  1.00  0.00     0.200 A 
ATOM     70  F   UNL A   1      44.526  25.194  36.758  1.00  0.00    -0.200 F 
ATOM     71  F   UNL A   1      47.036  26.261  36.832  1.00  0.00    -0.200 F 
ENDBRANCH  38  61
ENDBRANCH  12  13
ENDBRANCH   5   7
ENDBRANCH   2   3
ENDBRANCH   1   2
BRANCH   1  72
ATOM     72  C   UNL A   1      31.415  30.482  25.767  1.00  0.00     0.118 C 
BRANCH  72  73
ATOM     73  N   UNL A   1      32.510  29.683  26.306  1.00  0.00    -0.352 N 
ATOM     74  C   UNL A   1      32.740  28.324  26.260  1.00  0.00     0.251 C 
ATOM     75  H   UNL A   1      33.200  30.200  26.782  1.00  0.00     0.163 HD
ATOM     76  O   UNL A   1      33.612  27.826  26.955  1.00  0.00    -0.269 OA
BRANCH  74  77
ATOM     77  C   UNL A   1      31.928  27.469  25.368  1.00  0.00     0.041 A 
ATOM     78  C   UNL A   1      32.129  27.498  23.990  1.00  0.00     0.014 A 
ATOM     79  C   UNL A   1      30.975  26.612  25.912  1.00  0.00     0.040 A 
ATOM     80  C   UNL A   1      31.428  26.602  23.177  1.00  0.00     0.003 A 
ATOM     81  C   UNL A   1      30.355  25.645  25.120  1.00  0.00     0.042 A 
ATOM     82  C   UNL A   1      30.560  25.654  23.743  1.00  0.00     0.026 A 
BRANCH  81  83
ATOM     83  N   UNL A   1      29.733  24.626  25.847  1.00  0.00    -0.321 N 
ATOM     84  C   UNL A   1      30.212  23.690  26.708  1.00  0.00     0.272 C 
ATOM     85  H   UNL A   1      28.760  24.578  25.709  1.00  0.00     0.170 HD
ATOM     86  O   UNL A   1      29.475  23.375  27.643  1.00  0.00    -0.267 OA
BRANCH  84  87
ATOM     87  C   UNL A   1      31.404  22.941  26.417  1.00  0.00     0.105 A 
ATOM     88  C   UNL A   1      31.612  22.070  25.357  1.00  0.00     0.042 A 
ATOM     89  N   UNL A   1      32.657  23.428  26.741  1.00  0.00    -0.351 N 
ATOM     90  C   UNL A   1      32.762  22.592  24.689  1.00  0.00     0.000 A 
ATOM     91  C   UNL A   1      33.357  23.511  25.553  1.00  0.00     0.046 A 
ATOM     92  H   UNL A   1      32.984  23.667  27.639  1.00  0.00     0.167 HD
ATOM     93  C   UNL A   1      33.236  22.495  23.368  1.00  0.00     0.010 A 
ATOM     94  C   UNL A   1      34.376  24.382  25.159  1.00  0.00     0.026 A 
ATOM     95  C   UNL A   1      34.209  23.405  22.936  1.00  0.00     0.001 A 
ATOM     96  C   UNL A   1      34.757  24.341  23.815  1.00  0.00     0.002 A 
ENDBRANCH  84  87
ENDBRANCH  81  83
ENDBRANCH  74  77
ENDBRANCH  72  73
ENDBRANCH   1  72
TORSDOF 12
ENDMDL
MODEL 3
REMARK VINA RESULT:     -13.1      1.110      1.671
REMARK SMILES O=C(NCCCNC(=O)c1cccc(NC(=O)c2cc3ccccc3[nH]2)c1)c1ccc(-c2c3nc(c(-c4c(F)c(F)c(F)c(F)c4F)c4ccc([nH]4)c(-c4c(F)c(F)c(F)c(F)c4F)c4nc(c(-c5c(F)c(F)c(F)c(F)c5F)c5ccc2[nH]5)C=C4)C=C3)cc1
REMARK SMILES IDX 5 1 4 2 3 3 1 4 2 5 28 7 29 8 90 9 30 10 89 11 31 12 32 13
REMARK SMILES IDX 33 14 83 15 34 16 88 17 82 18 84 19 35 20 87 21 81 22 80 23
REMARK SMILES IDX 36 25 68 26 48 27 67 28 49 29 52 30 66 31 85 32 50 33 51 34
REMARK SMILES IDX 65 36 86 37 53 38 37 39 38 40 46 41 39 42 40 43 44 44 47 45
REMARK SMILES IDX 41 46 42 47 45 48 43 49 69 50 70 51 78 52 71 53 72 54 76 55
REMARK SMILES IDX 79 56 73 57 74 58 77 59 75 60 54 61 55 62 63 63 56 64 57 65
REMARK SMILES IDX 61 66 64 67 58 68 59 69 62 70 60 71 6 72 7 73 8 74 9 76
REMARK SMILES IDX 10 77 11 78 27 79 12 80 14 81 13 82 15 83 16 84 17 86 18 87
REMARK SMILES IDX 19 88 26 89 20 90 25 91 21 93 24 94 22 95 23 96
REMARK H PARENT 3 6 84 24 52 35 7 75 15 85 26 92
REMARK Flexibility Score: inf
ROOT
ATOM      1  C   UNL A   1      31.405  32.187  26.509  1.00  0.00     0.042 C 
ENDROOT
BRANCH   1   2
ATOM      2  C   UNL A   1      32.650  32.775  27.151  1.00  0.00     0.118 C 
BRANCH   2   3
ATOM      3  N   UNL A   1      32.449  34.137  27.626  1.00  0.00    -0.352 N 
ATOM      4  O   UNL A   1      32.594  35.897  29.021  1.00  0.00    -0.269 OA
ATOM      5  C   UNL A   1      33.036  34.806  28.670  1.00  0.00     0.251 C 
ATOM      6  H   UNL A   1      31.788  34.660  27.117  1.00  0.00     0.163 HD
BRANCH   5   7
ATOM      7  C   UNL A   1      34.191  34.219  29.384  1.00  0.00     0.039 A 
ATOM      8  C   UNL A   1      34.001  33.351  30.461  1.00  0.00     0.014 A 
ATOM      9  C   UNL A   1      35.485  34.503  28.937  1.00  0.00     0.014 A 
ATOM     10  C   UNL A   1      35.094  32.877  31.175  1.00  0.00     0.010 A 
ATOM     11  C   UNL A   1      36.585  33.948  29.595  1.00  0.00     0.010 A 
ATOM     12  C   UNL A   1      36.398  33.144  30.730  1.00  0.00    -0.014 A 
BRANCH  12  13
ATOM     13  C   UNL A   1      37.542  32.477  31.397  1.00  0.00     0.031 A 
ATOM     14  C   UNL A   1      38.261  31.329  30.752  1.00  0.00     0.074 A 
ATOM     15  C   UNL A   1      37.919  32.925  32.611  1.00  0.00     0.049 A 
ATOM     16  N   UNL A   1      39.257  30.617  31.218  1.00  0.00    -0.248 NA
ATOM     17  C   UNL A   1      37.804  30.918  29.416  1.00  0.00     0.031 C 
ATOM     18  C   UNL A   1      37.276  34.023  33.338  1.00  0.00     0.029 A 
ATOM     19  N   UNL A   1      38.926  32.520  33.448  1.00  0.00    -0.354 N 
ATOM     20  C   UNL A   1      39.528  29.662  30.249  1.00  0.00     0.074 A 
ATOM     21  C   UNL A   1      38.586  29.873  29.171  1.00  0.00     0.031 C 
ATOM     22  C   UNL A   1      37.917  34.220  34.498  1.00  0.00     0.029 A 
ATOM     23  C   UNL A   1      38.969  33.220  34.629  1.00  0.00     0.049 A 
ATOM     24  H   UNL A   1      39.556  31.797  33.225  1.00  0.00     0.167 HD
ATOM     25  C   UNL A   1      40.483  28.701  30.265  1.00  0.00     0.037 A 
ATOM     26  C   UNL A   1      39.743  33.052  35.716  1.00  0.00     0.037 A 
ATOM     27  C   UNL A   1      41.433  28.521  31.333  1.00  0.00     0.049 A 
ATOM     28  C   UNL A   1      40.770  31.957  35.713  1.00  0.00     0.074 A 
ATOM     29  C   UNL A   1      42.492  27.632  31.402  1.00  0.00     0.029 A 
ATOM     30  N   UNL A   1      41.430  29.232  32.523  1.00  0.00    -0.354 N 
ATOM     31  N   UNL A   1      41.063  31.105  34.761  1.00  0.00    -0.248 NA
ATOM     32  C   UNL A   1      41.565  31.792  36.935  1.00  0.00     0.031 C 
ATOM     33  C   UNL A   1      43.093  27.764  32.657  1.00  0.00     0.029 A 
ATOM     34  C   UNL A   1      42.441  28.771  33.352  1.00  0.00     0.049 A 
ATOM     35  H   UNL A   1      40.802  29.956  32.747  1.00  0.00     0.167 HD
ATOM     36  C   UNL A   1      42.081  30.310  35.264  1.00  0.00     0.074 A 
ATOM     37  C   UNL A   1      42.373  30.798  36.596  1.00  0.00     0.031 C 
ATOM     38  C   UNL A   1      42.712  29.264  34.678  1.00  0.00     0.037 A 
BRANCH  25  39
ATOM     39  C   UNL A   1      40.548  27.748  29.107  1.00  0.00     0.064 A 
ATOM     40  C   UNL A   1      39.722  26.619  29.028  1.00  0.00     0.173 A 
ATOM     41  C   UNL A   1      41.392  28.021  28.018  1.00  0.00     0.173 A 
ATOM     42  F   UNL A   1      38.903  26.310  30.044  1.00  0.00    -0.203 F 
ATOM     43  C   UNL A   1      39.745  25.792  27.907  1.00  0.00     0.198 A 
ATOM     44  C   UNL A   1      41.395  27.207  26.889  1.00  0.00     0.198 A 
ATOM     45  F   UNL A   1      42.197  29.095  28.039  1.00  0.00    -0.203 F 
ATOM     46  F   UNL A   1      38.963  24.703  27.863  1.00  0.00    -0.200 F 
ATOM     47  C   UNL A   1      40.573  26.091  26.836  1.00  0.00     0.200 A 
ATOM     48  F   UNL A   1      42.186  27.506  25.850  1.00  0.00    -0.200 F 
ATOM     49  F   UNL A   1      40.580  25.304  25.751  1.00  0.00    -0.200 F 
ENDBRANCH  25  39
BRANCH  26  50
ATOM     50  C   UNL A   1      39.543  33.919  36.907  1.00  0.00     0.064 A 
ATOM     51  C   UNL A   1      40.138  35.184  36.990  1.00  0.00     0.173 A 
ATOM     52  C   UNL A   1      38.749  33.497  37.984  1.00  0.00     0.173 A 
ATOM     53  F   UNL A   1      40.921  35.623  35.994  1.00  0.00    -0.203 F 
ATOM     54  C   UNL A   1      39.962  35.987  38.116  1.00  0.00     0.198 A 
ATOM     55  C   UNL A   1      38.546  34.314  39.093  1.00  0.00     0.198 A 
ATOM     56  F   UNL A   1      38.152  32.296  37.950  1.00  0.00    -0.203 F 
ATOM     57  F   UNL A   1      40.580  37.173  38.192  1.00  0.00    -0.200 F 
ATOM     58  C   UNL A   1      39.160  35.555  39.162  1.00  0.00     0.200 A 
ATOM     59  F   UNL A   1      37.757  33.899  40.093  1.00  0.00    -0.200 F 
ATOM     60  F   UNL A   1      38.987  36.330  40.241  1.00  0.00    -0.200 F 
ENDBRANCH  26  50
BRANCH  38  61
ATOM     61  C   UNL A   1      43.785  28.583  35.472  1.00  0.00     0.064 A 
ATOM     62  C   UNL A   1      43.489  27.524  36.341  1.00  0.00     0.173 A 
ATOM     63  C   UNL A   1      45.128  28.965  35.332  1.00  0.00     0.173 A 
ATOM     64  F   UNL A   1      42.218  27.136  36.523  1.00  0.00    -0.203 F 
ATOM     65  C   UNL A   1      44.496  26.882  37.056  1.00  0.00     0.198 A 
ATOM     66  C   UNL A   1      46.135  28.303  36.026  1.00  0.00     0.198 A 
ATOM     67  F   UNL A   1      45.463  29.972  34.510  1.00  0.00    -0.203 F 
ATOM     68  F   UNL A   1      44.186  25.901  37.913  1.00  0.00    -0.200 F 
ATOM     69  C   UNL A   1      45.819  27.267  36.891  1.00  0.00     0.200 A 
ATOM     70  F   UNL A   1      47.414  28.667  35.856  1.00  0.00    -0.200 F 
ATOM     71  F   UNL A   1      46.788  26.641  37.572  1.00  0.00    -0.200 F 
ENDBRANCH  38  61
ENDBRANCH  12  13
ENDBRANCH   5   7
ENDBRANCH   2   3
ENDBRANCH   1   2
BRANCH   1  72
ATOM     72  C   UNL A   1      31.505  30.697  26.222  1.00  0.00     0.118 C 
BRANCH  72  73
ATOM     73  N   UNL A   1      31.023  30.348  24.890  1.00  0.00    -0.352 N 
ATOM     74  C   UNL A   1      31.223  29.216  24.128  1.00  0.00     0.251 C 
ATOM     75  H   UNL A   1      30.462  31.035  24.463  1.00  0.00     0.163 HD
ATOM     76  O   UNL A   1      30.905  29.207  22.949  1.00  0.00    -0.269 OA
BRANCH  74  77
ATOM     77  C   UNL A   1      31.826  28.013  24.740  1.00  0.00     0.041 A 
ATOM     78  C   UNL A   1      33.178  27.995  25.073  1.00  0.00     0.014 A 
ATOM     79  C   UNL A   1      31.031  26.902  25.007  1.00  0.00     0.040 A 
ATOM     80  C   UNL A   1      33.701  26.889  25.750  1.00  0.00     0.003 A 
ATOM     81  C   UNL A   1      31.522  25.845  25.776  1.00  0.00     0.042 A 
ATOM     82  C   UNL A   1      32.868  25.823  26.127  1.00  0.00     0.026 A 
BRANCH  81  83
ATOM     83  N   UNL A   1      30.530  25.002  26.284  1.00  0.00    -0.321 N 
ATOM     84  C   UNL A   1      30.518  23.677  26.584  1.00  0.00     0.272 C 
ATOM     85  H   UNL A   1      29.675  25.457  26.459  1.00  0.00     0.170 HD
ATOM     86  O   UNL A   1      29.829  23.337  27.547  1.00  0.00    -0.267 OA
BRANCH  84  87
ATOM     87  C   UNL A   1      31.084  22.700  25.695  1.00  0.00     0.105 A 
ATOM     88  C   UNL A   1      31.243  22.806  24.321  1.00  0.00     0.042 A 
ATOM     89  N   UNL A   1      32.082  21.839  26.113  1.00  0.00    -0.351 N 
ATOM     90  C   UNL A   1      32.643  22.607  24.109  1.00  0.00     0.000 A 
ATOM     91  C   UNL A   1      33.164  22.074  25.287  1.00  0.00     0.046 A 
ATOM     92  H   UNL A   1      32.031  21.189  26.852  1.00  0.00     0.167 HD
ATOM     93  C   UNL A   1      33.528  23.002  23.090  1.00  0.00     0.010 A 
ATOM     94  C   UNL A   1      34.535  21.954  25.530  1.00  0.00     0.026 A 
ATOM     95  C   UNL A   1      34.905  22.953  23.342  1.00  0.00     0.001 A 
ATOM     96  C   UNL A   1      35.396  22.450  24.548  1.00  0.00     0.002 A 
ENDBRANCH  84  87
ENDBRANCH  81  83
ENDBRANCH  74  77
ENDBRANCH  72  73
ENDBRANCH   1  72
TORSDOF 12
ENDMDL
