MODEL 1
REMARK VINA RESULT:     -12.8      0.000      0.000
REMARK SMILES CC[C@@H]1CCCN(S(=O)(=O)c2cc(C(=O)NCCCNC(=O)c3ccc(-c4c5nc(c(-c6c(F)c(F)c(F)c(F)c6F)c6ccc([nH]6)c(-c6c(F)c(F)c(F)c(F)c6F)c6nc(c(-c7c(F)c(F)c(F)c(F)c7F)c7ccc4[nH]7)C=C6)C=C5)cc3)ccc2F)C1
REMARK SMILES IDX 17 1 16 2 14 3 15 4 13 6 11 7 12 8 88 9 87 10 89 11 86 12
REMARK SMILES IDX 8 13 9 14 10 15 7 16 3 17 4 18 90 19 5 20 6 21 2 22 1 23
REMARK SMILES IDX 18 24 19 25 20 26 21 27 22 29 23 30 24 31 85 32 25 33 84 34
REMARK SMILES IDX 26 35 27 36 28 37 78 38 29 39 83 40 77 41 79 42 30 43 82 44
REMARK SMILES IDX 76 45 75 46 31 48 63 49 43 50 62 51 44 52 47 53 61 54 80 55
REMARK SMILES IDX 45 56 46 57 60 59 81 60 48 61 32 62 33 63 41 64 34 65 35 66
REMARK SMILES IDX 39 67 42 68 36 69 37 70 40 71 38 72 64 73 65 74 73 75 66 76
REMARK SMILES IDX 67 77 71 78 74 79 68 80 69 81 72 82 70 83 49 84 50 85 58 86
REMARK SMILES IDX 51 87 52 88 56 89 59 90 53 91 54 92 57 93 55 94
REMARK H PARENT 16 5 20 28 79 47 47 58
REMARK Flexibility Score: inf
ROOT
ATOM      1  C   UNL A   1      33.524  28.960  22.750  1.00  0.00     0.118 C 
ENDROOT
BRANCH   1   2
ATOM      2  N   UNL A   1      33.653  27.732  21.990  1.00  0.00    -0.352 N 
ATOM      3  C   UNL A   1      32.926  26.571  21.963  1.00  0.00     0.251 C 
ATOM      4  O   UNL A   1      33.230  25.741  21.106  1.00  0.00    -0.269 OA
ATOM      5  H   UNL A   1      34.418  27.732  21.369  1.00  0.00     0.163 HD
BRANCH   3   6
ATOM      6  C   UNL A   1      31.804  26.257  22.897  1.00  0.00     0.041 A 
ATOM      7  C   UNL A   1      31.036  24.885  24.770  1.00  0.00     0.119 A 
ATOM      8  C   UNL A   1      31.985  25.170  23.774  1.00  0.00     0.038 A 
ATOM      9  C   UNL A   1      29.914  25.690  24.899  1.00  0.00     0.143 A 
ATOM     10  C   UNL A   1      29.703  26.745  24.021  1.00  0.00     0.041 A 
ATOM     11  F   UNL A   1      29.009  25.490  25.865  1.00  0.00    -0.206 F 
ATOM     12  C   UNL A   1      30.653  27.039  23.038  1.00  0.00     0.017 A 
BRANCH   7  13
ATOM     13  S   UNL A   1      31.380  23.659  25.991  1.00  0.00     0.246 S 
ATOM     14  O   UNL A   1      30.396  22.601  25.867  1.00  0.00    -0.207 OA
ATOM     15  O   UNL A   1      31.535  24.350  27.253  1.00  0.00    -0.207 OA
BRANCH  13  16
ATOM     16  N   UNL A   1      32.931  22.995  25.587  1.00  0.00    -0.197 NA
ATOM     17  C   UNL A   1      35.264  22.624  26.464  1.00  0.00     0.004 C 
ATOM     18  C   UNL A   1      35.281  21.245  25.798  1.00  0.00     0.006 C 
ATOM     19  C   UNL A   1      33.831  23.063  26.784  1.00  0.00     0.106 C 
ATOM     20  C   UNL A   1      34.268  21.100  24.670  1.00  0.00     0.017 C 
ATOM     21  C   UNL A   1      32.881  21.605  25.046  1.00  0.00     0.102 C 
BRANCH  17  22
ATOM     22  C   UNL A   1      36.098  23.712  25.754  1.00  0.00     0.001 C 
ATOM     23  C   UNL A   1      37.599  23.716  25.980  1.00  0.00     0.004 C 
ENDBRANCH  17  22
ENDBRANCH  13  16
ENDBRANCH   7  13
ENDBRANCH   3   6
ENDBRANCH   1   2
BRANCH   1  24
ATOM     24  C   UNL A   1      34.098  28.820  24.160  1.00  0.00     0.042 C 
BRANCH  24  25
ATOM     25  C   UNL A   1      33.040  28.776  25.261  1.00  0.00     0.118 C 
BRANCH  25  26
ATOM     26  N   UNL A   1      32.601  30.107  25.651  1.00  0.00    -0.352 N 
ATOM     27  C   UNL A   1      33.021  30.920  26.673  1.00  0.00     0.251 C 
ATOM     28  H   UNL A   1      31.887  30.486  25.090  1.00  0.00     0.163 HD
ATOM     29  O   UNL A   1      32.354  31.910  26.964  1.00  0.00    -0.269 OA
BRANCH  27  30
ATOM     30  C   UNL A   1      34.256  30.627  27.435  1.00  0.00     0.039 A 
ATOM     31  C   UNL A   1      35.185  31.656  27.625  1.00  0.00     0.014 A 
ATOM     32  C   UNL A   1      34.544  29.339  27.895  1.00  0.00     0.014 A 
ATOM     33  C   UNL A   1      36.374  31.407  28.315  1.00  0.00     0.010 A 
ATOM     34  C   UNL A   1      35.700  29.106  28.639  1.00  0.00     0.010 A 
ATOM     35  C   UNL A   1      36.630  30.135  28.850  1.00  0.00    -0.014 A 
BRANCH  35  36
ATOM     36  C   UNL A   1      37.861  29.864  29.635  1.00  0.00     0.031 A 
ATOM     37  C   UNL A   1      38.913  28.932  29.104  1.00  0.00     0.074 A 
ATOM     38  C   UNL A   1      37.999  30.408  30.859  1.00  0.00     0.049 A 
ATOM     39  N   UNL A   1      40.014  28.514  29.679  1.00  0.00    -0.248 NA
ATOM     40  C   UNL A   1      38.688  28.376  27.762  1.00  0.00     0.031 C 
ATOM     41  C   UNL A   1      37.027  31.293  31.501  1.00  0.00     0.029 A 
ATOM     42  N   UNL A   1      39.003  30.287  31.787  1.00  0.00    -0.354 N 
ATOM     43  C   UNL A   1      40.595  27.629  28.781  1.00  0.00     0.074 A 
ATOM     44  C   UNL A   1      39.711  27.542  27.639  1.00  0.00     0.031 C 
ATOM     45  C   UNL A   1      37.488  31.648  32.710  1.00  0.00     0.029 A 
ATOM     46  C   UNL A   1      38.770  30.989  32.944  1.00  0.00     0.049 A 
ATOM     47  H   UNL A   1      39.813  29.747  31.637  1.00  0.00     0.167 HD
ATOM     48  C   UNL A   1      41.771  26.965  28.893  1.00  0.00     0.037 A 
ATOM     49  C   UNL A   1      39.503  31.086  34.069  1.00  0.00     0.037 A 
ATOM     50  C   UNL A   1      42.666  27.088  30.013  1.00  0.00     0.049 A 
ATOM     51  C   UNL A   1      40.811  30.355  34.165  1.00  0.00     0.074 A 
ATOM     52  C   UNL A   1      43.919  26.525  30.178  1.00  0.00     0.029 A 
ATOM     53  N   UNL A   1      42.403  27.824  31.159  1.00  0.00    -0.354 N 
ATOM     54  N   UNL A   1      41.383  29.572  33.283  1.00  0.00    -0.248 NA
ATOM     55  C   UNL A   1      41.579  30.523  35.407  1.00  0.00     0.031 C 
ATOM     56  C   UNL A   1      44.395  26.882  31.443  1.00  0.00     0.029 A 
ATOM     57  C   UNL A   1      43.460  27.706  32.048  1.00  0.00     0.049 A 
ATOM     58  H   UNL A   1      41.587  28.350  31.319  1.00  0.00     0.167 HD
ATOM     59  C   UNL A   1      42.580  29.164  33.853  1.00  0.00     0.074 A 
ATOM     60  C   UNL A   1      42.660  29.797  35.154  1.00  0.00     0.031 C 
ATOM     61  C   UNL A   1      43.525  28.339  33.341  1.00  0.00     0.037 A 
BRANCH  48  62
ATOM     62  C   UNL A   1      42.164  26.044  27.775  1.00  0.00     0.064 A 
ATOM     63  C   UNL A   1      43.086  26.461  26.802  1.00  0.00     0.173 A 
ATOM     64  C   UNL A   1      41.588  24.773  27.631  1.00  0.00     0.173 A 
ATOM     65  F   UNL A   1      43.660  27.670  26.888  1.00  0.00    -0.203 F 
ATOM     66  C   UNL A   1      43.413  25.640  25.726  1.00  0.00     0.198 A 
ATOM     67  C   UNL A   1      41.939  23.944  26.568  1.00  0.00     0.198 A 
ATOM     68  F   UNL A   1      40.708  24.324  28.538  1.00  0.00    -0.203 F 
ATOM     69  F   UNL A   1      44.278  26.070  24.796  1.00  0.00    -0.200 F 
ATOM     70  C   UNL A   1      42.844  24.381  25.614  1.00  0.00     0.200 A 
ATOM     71  F   UNL A   1      41.406  22.718  26.475  1.00  0.00    -0.200 F 
ATOM     72  F   UNL A   1      43.172  23.585  24.586  1.00  0.00    -0.200 F 
ENDBRANCH  48  62
BRANCH  49  73
ATOM     73  C   UNL A   1      39.012  31.944  35.177  1.00  0.00     0.064 A 
ATOM     74  C   UNL A   1      39.284  33.320  35.210  1.00  0.00     0.173 A 
ATOM     75  C   UNL A   1      38.320  31.387  36.261  1.00  0.00     0.173 A 
ATOM     76  F   UNL A   1      39.952  33.897  34.200  1.00  0.00    -0.203 F 
ATOM     77  C   UNL A   1      38.904  34.101  36.299  1.00  0.00     0.198 A 
ATOM     78  C   UNL A   1      37.922  32.174  37.339  1.00  0.00     0.198 A 
ATOM     79  F   UNL A   1      38.025  30.079  36.264  1.00  0.00    -0.203 F 
ATOM     80  F   UNL A   1      39.213  35.405  36.326  1.00  0.00    -0.200 F 
ATOM     81  C   UNL A   1      38.223  33.528  37.362  1.00  0.00     0.200 A 
ATOM     82  F   UNL A   1      37.250  31.619  38.357  1.00  0.00    -0.200 F 
ATOM     83  F   UNL A   1      37.860  34.279  38.411  1.00  0.00    -0.200 F 
ENDBRANCH  49  73
BRANCH  61  84
ATOM     84  C   UNL A   1      44.741  28.069  34.179  1.00  0.00     0.064 A 
ATOM     85  C   UNL A   1      44.752  27.002  35.092  1.00  0.00     0.173 A 
ATOM     86  C   UNL A   1      45.857  28.915  34.139  1.00  0.00     0.173 A 
ATOM     87  F   UNL A   1      43.704  26.170  35.172  1.00  0.00    -0.203 F 
ATOM     88  C   UNL A   1      45.831  26.806  35.949  1.00  0.00     0.198 A 
ATOM     89  C   UNL A   1      46.946  28.700  34.980  1.00  0.00     0.198 A 
ATOM     90  F   UNL A   1      45.898  29.939  33.274  1.00  0.00    -0.203 F 
ATOM     91  F   UNL A   1      45.805  25.805  36.838  1.00  0.00    -0.200 F 
ATOM     92  C   UNL A   1      46.927  27.654  35.891  1.00  0.00     0.200 A 
ATOM     93  F   UNL A   1      48.014  29.506  34.909  1.00  0.00    -0.200 F 
ATOM     94  F   UNL A   1      47.968  27.461  36.714  1.00  0.00    -0.200 F 
ENDBRANCH  61  84
ENDBRANCH  35  36
ENDBRANCH  27  30
ENDBRANCH  25  26
ENDBRANCH  24  25
ENDBRANCH   1  24
TORSDOF 13
ENDMDL
MODEL 2
REMARK VINA RESULT:     -12.8      0.196      1.596
REMARK SMILES CC[C@@H]1CCCN(S(=O)(=O)c2cc(C(=O)NCCCNC(=O)c3ccc(-c4c5nc(c(-c6c(F)c(F)c(F)c(F)c6F)c6ccc([nH]6)c(-c6c(F)c(F)c(F)c(F)c6F)c6nc(c(-c7c(F)c(F)c(F)c(F)c7F)c7ccc4[nH]7)C=C6)C=C5)cc3)ccc2F)C1
REMARK SMILES IDX 17 1 16 2 14 3 15 4 13 6 11 7 12 8 88 9 87 10 89 11 86 12
REMARK SMILES IDX 8 13 9 14 10 15 7 16 3 17 4 18 90 19 5 20 6 21 2 22 1 23
REMARK SMILES IDX 18 24 19 25 20 26 21 27 22 29 23 30 24 31 85 32 25 33 84 34
REMARK SMILES IDX 26 35 27 36 28 37 78 38 29 39 83 40 77 41 79 42 30 43 82 44
REMARK SMILES IDX 76 45 75 46 31 48 63 49 43 50 62 51 44 52 47 53 61 54 80 55
REMARK SMILES IDX 45 56 46 57 60 59 81 60 48 61 32 62 33 63 41 64 34 65 35 66
REMARK SMILES IDX 39 67 42 68 36 69 37 70 40 71 38 72 64 73 65 74 73 75 66 76
REMARK SMILES IDX 67 77 71 78 74 79 68 80 69 81 72 82 70 83 49 84 50 85 58 86
REMARK SMILES IDX 51 87 52 88 56 89 59 90 53 91 54 92 57 93 55 94
REMARK H PARENT 16 5 20 28 79 47 47 58
REMARK Flexibility Score: inf
ROOT
ATOM      1  C   UNL A   1      33.495  28.987  22.767  1.00  0.00     0.118 C 
ENDROOT
BRANCH   1   2
ATOM      2  N   UNL A   1      33.618  27.762  22.002  1.00  0.00    -0.352 N 
ATOM      3  C   UNL A   1      32.896  26.598  21.983  1.00  0.00     0.251 C 
ATOM      4  O   UNL A   1      33.190  25.772  21.118  1.00  0.00    -0.269 OA
ATOM      5  H   UNL A   1      34.372  27.768  21.368  1.00  0.00     0.163 HD
BRANCH   3   6
ATOM      6  C   UNL A   1      31.791  26.275  22.934  1.00  0.00     0.041 A 
ATOM      7  C   UNL A   1      31.060  24.895  24.815  1.00  0.00     0.119 A 
ATOM      8  C   UNL A   1      31.992  25.188  23.805  1.00  0.00     0.038 A 
ATOM      9  C   UNL A   1      29.936  25.693  24.964  1.00  0.00     0.143 A 
ATOM     10  C   UNL A   1      29.705  26.749  24.091  1.00  0.00     0.041 A 
ATOM     11  F   UNL A   1      29.047  25.486  25.943  1.00  0.00    -0.206 F 
ATOM     12  C   UNL A   1      30.637  27.050  23.094  1.00  0.00     0.017 A 
BRANCH   7  13
ATOM     13  S   UNL A   1      31.430  23.668  26.028  1.00  0.00     0.246 S 
ATOM     14  O   UNL A   1      30.464  22.594  25.902  1.00  0.00    -0.207 OA
ATOM     15  O   UNL A   1      31.579  24.355  27.293  1.00  0.00    -0.207 OA
BRANCH  13  16
ATOM     16  N   UNL A   1      32.990  23.033  25.614  1.00  0.00    -0.197 NA
ATOM     17  C   UNL A   1      35.331  22.689  26.480  1.00  0.00     0.004 C 
ATOM     18  C   UNL A   1      35.367  21.317  25.800  1.00  0.00     0.006 C 
ATOM     19  C   UNL A   1      33.892  23.103  26.809  1.00  0.00     0.106 C 
ATOM     20  C   UNL A   1      34.355  21.168  24.673  1.00  0.00     0.017 C 
ATOM     21  C   UNL A   1      32.961  21.648  25.059  1.00  0.00     0.102 C 
BRANCH  17  22
ATOM     22  C   UNL A   1      36.147  23.798  25.780  1.00  0.00     0.001 C 
ATOM     23  C   UNL A   1      37.635  23.871  26.066  1.00  0.00     0.004 C 
ENDBRANCH  17  22
ENDBRANCH  13  16
ENDBRANCH   7  13
ENDBRANCH   3   6
ENDBRANCH   1   2
BRANCH   1  24
ATOM     24  C   UNL A   1      34.066  28.838  24.178  1.00  0.00     0.042 C 
BRANCH  24  25
ATOM     25  C   UNL A   1      33.006  28.770  25.275  1.00  0.00     0.118 C 
BRANCH  25  26
ATOM     26  N   UNL A   1      32.549  30.093  25.676  1.00  0.00    -0.352 N 
ATOM     27  C   UNL A   1      32.969  30.909  26.695  1.00  0.00     0.251 C 
ATOM     28  H   UNL A   1      31.821  30.461  25.125  1.00  0.00     0.163 HD
ATOM     29  O   UNL A   1      32.289  31.886  26.998  1.00  0.00    -0.269 OA
BRANCH  27  30
ATOM     30  C   UNL A   1      34.219  30.634  27.439  1.00  0.00     0.039 A 
ATOM     31  C   UNL A   1      35.128  31.681  27.630  1.00  0.00     0.014 A 
ATOM     32  C   UNL A   1      34.541  29.348  27.881  1.00  0.00     0.014 A 
ATOM     33  C   UNL A   1      36.330  31.450  28.303  1.00  0.00     0.010 A 
ATOM     34  C   UNL A   1      35.710  29.132  28.609  1.00  0.00     0.010 A 
ATOM     35  C   UNL A   1      36.620  30.178  28.821  1.00  0.00    -0.014 A 
BRANCH  35  36
ATOM     36  C   UNL A   1      37.866  29.927  29.588  1.00  0.00     0.031 A 
ATOM     37  C   UNL A   1      38.920  29.004  29.045  1.00  0.00     0.074 A 
ATOM     38  C   UNL A   1      38.016  30.478  30.807  1.00  0.00     0.049 A 
ATOM     39  N   UNL A   1      40.034  28.601  29.606  1.00  0.00    -0.248 NA
ATOM     40  C   UNL A   1      38.682  28.439  27.709  1.00  0.00     0.031 C 
ATOM     41  C   UNL A   1      37.043  31.354  31.460  1.00  0.00     0.029 A 
ATOM     42  N   UNL A   1      39.035  30.373  31.721  1.00  0.00    -0.354 N 
ATOM     43  C   UNL A   1      40.613  27.720  28.703  1.00  0.00     0.074 A 
ATOM     44  C   UNL A   1      39.712  27.616  27.575  1.00  0.00     0.031 C 
ATOM     45  C   UNL A   1      37.518  31.721  32.660  1.00  0.00     0.029 A 
ATOM     46  C   UNL A   1      38.812  31.078  32.877  1.00  0.00     0.049 A 
ATOM     47  H   UNL A   1      39.849  29.842  31.561  1.00  0.00     0.167 HD
ATOM     48  C   UNL A   1      41.798  27.070  28.800  1.00  0.00     0.037 A 
ATOM     49  C   UNL A   1      39.560  31.189  33.991  1.00  0.00     0.037 A 
ATOM     50  C   UNL A   1      42.708  27.209  29.906  1.00  0.00     0.049 A 
ATOM     51  C   UNL A   1      40.878  30.474  34.071  1.00  0.00     0.074 A 
ATOM     52  C   UNL A   1      43.971  26.662  30.055  1.00  0.00     0.029 A 
ATOM     53  N   UNL A   1      42.454  27.947  31.053  1.00  0.00    -0.354 N 
ATOM     54  N   UNL A   1      41.445  29.693  33.184  1.00  0.00    -0.248 NA
ATOM     55  C   UNL A   1      41.662  30.657  35.300  1.00  0.00     0.031 C 
ATOM     56  C   UNL A   1      44.461  27.030  31.311  1.00  0.00     0.029 A 
ATOM     57  C   UNL A   1      43.526  27.846  31.926  1.00  0.00     0.049 A 
ATOM     58  H   UNL A   1      41.634  28.464  31.222  1.00  0.00     0.167 HD
ATOM     59  C   UNL A   1      42.656  29.302  33.738  1.00  0.00     0.074 A 
ATOM     60  C   UNL A   1      42.748  29.943  35.034  1.00  0.00     0.031 C 
ATOM     61  C   UNL A   1      43.603  28.486  33.215  1.00  0.00     0.037 A 
BRANCH  48  62
ATOM     62  C   UNL A   1      42.185  26.148  27.681  1.00  0.00     0.064 A 
ATOM     63  C   UNL A   1      41.664  24.847  27.619  1.00  0.00     0.173 A 
ATOM     64  C   UNL A   1      43.115  26.530  26.702  1.00  0.00     0.173 A 
ATOM     65  F   UNL A   1      40.777  24.430  28.535  1.00  0.00    -0.203 F 
ATOM     66  C   UNL A   1      42.062  23.962  26.621  1.00  0.00     0.198 A 
ATOM     67  C   UNL A   1      43.489  25.650  25.688  1.00  0.00     0.198 A 
ATOM     68  F   UNL A   1      43.637  27.765  26.711  1.00  0.00    -0.203 F 
ATOM     69  F   UNL A   1      41.569  22.715  26.597  1.00  0.00    -0.200 F 
ATOM     70  C   UNL A   1      42.969  24.366  25.654  1.00  0.00     0.200 A 
ATOM     71  F   UNL A   1      44.348  26.052  24.741  1.00  0.00    -0.200 F 
ATOM     72  F   UNL A   1      43.340  23.518  24.684  1.00  0.00    -0.200 F 
ENDBRANCH  48  62
BRANCH  49  73
ATOM     73  C   UNL A   1      39.076  32.047  35.102  1.00  0.00     0.064 A 
ATOM     74  C   UNL A   1      39.333  33.426  35.125  1.00  0.00     0.173 A 
ATOM     75  C   UNL A   1      38.406  31.487  36.199  1.00  0.00     0.173 A 
ATOM     76  F   UNL A   1      39.979  34.006  34.103  1.00  0.00    -0.203 F 
ATOM     77  C   UNL A   1      38.959  34.207  36.216  1.00  0.00     0.198 A 
ATOM     78  C   UNL A   1      38.015  32.275  37.279  1.00  0.00     0.198 A 
ATOM     79  F   UNL A   1      38.125  30.176  36.212  1.00  0.00    -0.203 F 
ATOM     80  F   UNL A   1      39.254  35.515  36.232  1.00  0.00    -0.200 F 
ATOM     81  C   UNL A   1      38.300  33.632  37.291  1.00  0.00     0.200 A 
ATOM     82  F   UNL A   1      37.364  31.717  38.309  1.00  0.00    -0.200 F 
ATOM     83  F   UNL A   1      37.945  34.383  38.343  1.00  0.00    -0.200 F 
ENDBRANCH  49  73
BRANCH  61  84
ATOM     84  C   UNL A   1      44.834  28.234  34.036  1.00  0.00     0.064 A 
ATOM     85  C   UNL A   1      45.961  29.060  33.897  1.00  0.00     0.173 A 
ATOM     86  C   UNL A   1      44.927  27.129  34.892  1.00  0.00     0.173 A 
ATOM     87  F   UNL A   1      45.922  30.126  33.084  1.00  0.00    -0.203 F 
ATOM     88  C   UNL A   1      47.143  28.775  34.573  1.00  0.00     0.198 A 
ATOM     89  C   UNL A   1      46.104  26.862  35.586  1.00  0.00     0.198 A 
ATOM     90  F   UNL A   1      43.873  26.319  35.067  1.00  0.00    -0.203 F 
ATOM     91  F   UNL A   1      48.218  29.555  34.398  1.00  0.00    -0.200 F 
ATOM     92  C   UNL A   1      47.214  27.678  35.418  1.00  0.00     0.200 A 
ATOM     93  F   UNL A   1      46.165  25.814  36.419  1.00  0.00    -0.200 F 
ATOM     94  F   UNL A   1      48.352  27.406  36.072  1.00  0.00    -0.200 F 
ENDBRANCH  61  84
ENDBRANCH  35  36
ENDBRANCH  27  30
ENDBRANCH  25  26
ENDBRANCH  24  25
ENDBRANCH   1  24
TORSDOF 13
ENDMDL
MODEL 3
REMARK VINA RESULT:     -12.5      1.907      3.308
REMARK SMILES CC[C@@H]1CCCN(S(=O)(=O)c2cc(C(=O)NCCCNC(=O)c3ccc(-c4c5nc(c(-c6c(F)c(F)c(F)c(F)c6F)c6ccc([nH]6)c(-c6c(F)c(F)c(F)c(F)c6F)c6nc(c(-c7c(F)c(F)c(F)c(F)c7F)c7ccc4[nH]7)C=C6)C=C5)cc3)ccc2F)C1
REMARK SMILES IDX 17 1 16 2 14 3 15 4 13 6 11 7 12 8 88 9 87 10 89 11 86 12
REMARK SMILES IDX 8 13 9 14 10 15 7 16 3 17 4 18 90 19 5 20 6 21 2 22 1 23
REMARK SMILES IDX 18 24 19 25 20 26 21 27 22 29 23 30 24 31 85 32 25 33 84 34
REMARK SMILES IDX 26 35 27 36 28 37 78 38 29 39 83 40 77 41 79 42 30 43 82 44
REMARK SMILES IDX 76 45 75 46 31 48 63 49 43 50 62 51 44 52 47 53 61 54 80 55
REMARK SMILES IDX 45 56 46 57 60 59 81 60 48 61 32 62 33 63 41 64 34 65 35 66
REMARK SMILES IDX 39 67 42 68 36 69 37 70 40 71 38 72 64 73 65 74 73 75 66 76
REMARK SMILES IDX 67 77 71 78 74 79 68 80 69 81 72 82 70 83 49 84 50 85 58 86
REMARK SMILES IDX 51 87 52 88 56 89 59 90 53 91 54 92 57 93 55 94
REMARK H PARENT 16 5 20 28 79 47 47 58
REMARK Flexibility Score: inf
ROOT
ATOM      1  C   UNL A   1      31.646  30.584  26.753  1.00  0.00     0.118 C 
ENDROOT
BRANCH   1   2
ATOM      2  N   UNL A   1      32.912  30.181  27.335  1.00  0.00    -0.352 N 
ATOM      3  C   UNL A   1      33.844  29.243  26.979  1.00  0.00     0.251 C 
ATOM      4  O   UNL A   1      34.891  29.222  27.628  1.00  0.00    -0.269 OA
ATOM      5  H   UNL A   1      33.147  30.681  28.150  1.00  0.00     0.163 HD
BRANCH   3   6
ATOM      6  C   UNL A   1      33.671  28.260  25.869  1.00  0.00     0.041 A 
ATOM      7  C   UNL A   1      32.773  26.089  25.192  1.00  0.00     0.119 A 
ATOM      8  C   UNL A   1      33.089  27.020  26.196  1.00  0.00     0.038 A 
ATOM      9  C   UNL A   1      33.026  26.398  23.865  1.00  0.00     0.143 A 
ATOM     10  C   UNL A   1      33.632  27.602  23.528  1.00  0.00     0.041 A 
ATOM     11  F   UNL A   1      32.695  25.565  22.870  1.00  0.00    -0.206 F 
ATOM     12  C   UNL A   1      33.934  28.536  24.523  1.00  0.00     0.017 A 
BRANCH   7  13
ATOM     13  S   UNL A   1      31.853  24.638  25.595  1.00  0.00     0.246 S 
ATOM     14  O   UNL A   1      30.684  24.585  24.739  1.00  0.00    -0.207 OA
ATOM     15  O   UNL A   1      31.691  24.625  27.033  1.00  0.00    -0.207 OA
BRANCH  13  16
ATOM     16  N   UNL A   1      32.870  23.292  25.192  1.00  0.00    -0.197 NA
ATOM     17  C   UNL A   1      34.668  21.773  26.090  1.00  0.00     0.004 C 
ATOM     18  C   UNL A   1      34.008  20.590  25.375  1.00  0.00     0.006 C 
ATOM     19  C   UNL A   1      33.643  22.868  26.404  1.00  0.00     0.106 C 
ATOM     20  C   UNL A   1      33.097  21.002  24.227  1.00  0.00     0.017 C 
ATOM     21  C   UNL A   1      32.143  22.130  24.600  1.00  0.00     0.102 C 
BRANCH  17  22
ATOM     22  C   UNL A   1      35.960  22.307  25.433  1.00  0.00     0.001 C 
ATOM     23  C   UNL A   1      36.380  23.731  25.750  1.00  0.00     0.004 C 
ENDBRANCH  17  22
ENDBRANCH  13  16
ENDBRANCH   7  13
ENDBRANCH   3   6
ENDBRANCH   1   2
BRANCH   1  24
ATOM     24  C   UNL A   1      31.417  32.091  26.876  1.00  0.00     0.042 C 
BRANCH  24  25
ATOM     25  C   UNL A   1      32.702  32.911  26.963  1.00  0.00     0.118 C 
BRANCH  25  26
ATOM     26  N   UNL A   1      32.484  34.202  27.599  1.00  0.00    -0.352 N 
ATOM     27  C   UNL A   1      33.040  34.742  28.731  1.00  0.00     0.251 C 
ATOM     28  H   UNL A   1      31.833  34.781  27.143  1.00  0.00     0.163 HD
ATOM     29  O   UNL A   1      32.542  35.754  29.218  1.00  0.00    -0.269 OA
BRANCH  27  30
ATOM     30  C   UNL A   1      34.222  34.129  29.378  1.00  0.00     0.039 A 
ATOM     31  C   UNL A   1      34.016  33.204  30.408  1.00  0.00     0.014 A 
ATOM     32  C   UNL A   1      35.523  34.508  29.038  1.00  0.00     0.014 A 
ATOM     33  C   UNL A   1      35.109  32.626  31.059  1.00  0.00     0.010 A 
ATOM     34  C   UNL A   1      36.614  33.884  29.643  1.00  0.00     0.010 A 
ATOM     35  C   UNL A   1      36.418  32.943  30.664  1.00  0.00    -0.014 A 
BRANCH  35  36
ATOM     36  C   UNL A   1      37.592  32.298  31.305  1.00  0.00     0.031 A 
ATOM     37  C   UNL A   1      38.307  31.168  30.620  1.00  0.00     0.074 A 
ATOM     38  C   UNL A   1      37.970  32.688  32.537  1.00  0.00     0.049 A 
ATOM     39  N   UNL A   1      39.298  30.431  31.058  1.00  0.00    -0.248 NA
ATOM     40  C   UNL A   1      37.832  30.800  29.279  1.00  0.00     0.031 C 
ATOM     41  C   UNL A   1      37.327  33.742  33.321  1.00  0.00     0.029 A 
ATOM     42  N   UNL A   1      38.977  32.233  33.352  1.00  0.00    -0.354 N 
ATOM     43  C   UNL A   1      39.546  29.500  30.059  1.00  0.00     0.074 A 
ATOM     44  C   UNL A   1      38.579  29.739  29.009  1.00  0.00     0.031 C 
ATOM     45  C   UNL A   1      37.964  33.866  34.496  1.00  0.00     0.029 A 
ATOM     46  C   UNL A   1      39.038  32.877  34.563  1.00  0.00     0.049 A 
ATOM     47  H   UNL A   1      39.597  31.514  33.092  1.00  0.00     0.167 HD
ATOM     48  C   UNL A   1      40.505  28.545  30.016  1.00  0.00     0.037 A 
ATOM     49  C   UNL A   1      39.859  32.689  35.613  1.00  0.00     0.037 A 
ATOM     50  C   UNL A   1      41.489  28.338  31.046  1.00  0.00     0.049 A 
ATOM     51  C   UNL A   1      40.927  31.636  35.536  1.00  0.00     0.074 A 
ATOM     52  C   UNL A   1      42.555  27.456  31.053  1.00  0.00     0.029 A 
ATOM     53  N   UNL A   1      41.528  29.024  32.251  1.00  0.00    -0.354 N 
ATOM     54  N   UNL A   1      41.193  30.803  34.560  1.00  0.00    -0.248 NA
ATOM     55  C   UNL A   1      41.811  31.497  36.702  1.00  0.00     0.031 C 
ATOM     56  C   UNL A   1      43.211  27.573  32.281  1.00  0.00     0.029 A 
ATOM     57  C   UNL A   1      42.585  28.563  33.021  1.00  0.00     0.049 A 
ATOM     58  H   UNL A   1      40.899  29.731  32.520  1.00  0.00     0.167 HD
ATOM     59  C   UNL A   1      42.279  30.051  34.983  1.00  0.00     0.074 A 
ATOM     60  C   UNL A   1      42.633  30.535  36.302  1.00  0.00     0.031 C 
ATOM     61  C   UNL A   1      42.923  29.051  34.335  1.00  0.00     0.037 A 
BRANCH  48  62
ATOM     62  C   UNL A   1      40.543  27.645  28.815  1.00  0.00     0.064 A 
ATOM     63  C   UNL A   1      41.316  27.988  27.695  1.00  0.00     0.173 A 
ATOM     64  C   UNL A   1      39.772  26.475  28.747  1.00  0.00     0.173 A 
ATOM     65  F   UNL A   1      42.066  29.100  27.705  1.00  0.00    -0.203 F 
ATOM     66  C   UNL A   1      41.313  27.193  26.552  1.00  0.00     0.198 A 
ATOM     67  C   UNL A   1      39.794  25.668  27.611  1.00  0.00     0.198 A 
ATOM     68  F   UNL A   1      39.023  26.098  29.793  1.00  0.00    -0.203 F 
ATOM     69  F   UNL A   1      42.040  27.554  25.484  1.00  0.00    -0.200 F 
ATOM     70  C   UNL A   1      40.557  26.032  26.513  1.00  0.00     0.200 A 
ATOM     71  F   UNL A   1      39.081  24.533  27.586  1.00  0.00    -0.200 F 
ATOM     72  F   UNL A   1      40.567  25.260  25.417  1.00  0.00    -0.200 F 
ENDBRANCH  48  62
BRANCH  49  73
ATOM     73  C   UNL A   1      39.710  33.555  36.810  1.00  0.00     0.064 A 
ATOM     74  C   UNL A   1      38.855  33.201  37.865  1.00  0.00     0.173 A 
ATOM     75  C   UNL A   1      40.370  34.789  36.887  1.00  0.00     0.173 A 
ATOM     76  F   UNL A   1      38.195  32.034  37.831  1.00  0.00    -0.203 F 
ATOM     77  C   UNL A   1      38.647  34.063  38.939  1.00  0.00     0.198 A 
ATOM     78  C   UNL A   1      40.177  35.639  37.973  1.00  0.00     0.198 A 
ATOM     79  F   UNL A   1      41.209  35.161  35.909  1.00  0.00    -0.203 F 
ATOM     80  F   UNL A   1      37.793  33.719  39.914  1.00  0.00    -0.200 F 
ATOM     81  C   UNL A   1      39.308  35.279  38.993  1.00  0.00     0.200 A 
ATOM     82  F   UNL A   1      40.830  36.808  38.029  1.00  0.00    -0.200 F 
ATOM     83  F   UNL A   1      39.105  36.110  40.025  1.00  0.00    -0.200 F 
ENDBRANCH  49  73
BRANCH  61  84
ATOM     84  C   UNL A   1      44.086  28.406  35.030  1.00  0.00     0.064 A 
ATOM     85  C   UNL A   1      45.388  28.898  34.842  1.00  0.00     0.173 A 
ATOM     86  C   UNL A   1      43.922  27.254  35.811  1.00  0.00     0.173 A 
ATOM     87  F   UNL A   1      45.595  29.994  34.097  1.00  0.00    -0.203 F 
ATOM     88  C   UNL A   1      46.485  28.245  35.395  1.00  0.00     0.198 A 
ATOM     89  C   UNL A   1      45.020  26.619  36.384  1.00  0.00     0.198 A 
ATOM     90  F   UNL A   1      42.697  26.755  36.029  1.00  0.00    -0.203 F 
ATOM     91  F   UNL A   1      47.721  28.710  35.173  1.00  0.00    -0.200 F 
ATOM     92  C   UNL A   1      46.301  27.108  36.167  1.00  0.00     0.200 A 
ATOM     93  F   UNL A   1      44.840  25.532  37.147  1.00  0.00    -0.200 F 
ATOM     94  F   UNL A   1      47.358  26.483  36.704  1.00  0.00    -0.200 F 
ENDBRANCH  61  84
ENDBRANCH  35  36
ENDBRANCH  27  30
ENDBRANCH  25  26
ENDBRANCH  24  25
ENDBRANCH   1  24
TORSDOF 13
ENDMDL
