MODEL 1
REMARK VINA RESULT:     -11.7      0.000      0.000
REMARK SMILES Cc1ccc(CNC(=O)NC[C@@H](CC(C)C)C(=O)NCCCNC(=O)c2ccc(-c3c4nc(c(-c5c(F)c(F)c(F)c(F)c5F)c5ccc([nH]5)c(-c5c(F)c(F)c(F)c(F)c5F)c5nc(c(-c6c(F)c(F)c(F)c(F)c6F)c6ccc3[nH]6)C=C5)C=C4)cc2)s1
REMARK SMILES IDX 20 1 19 2 17 3 18 4 12 6 11 7 10 8 7 9 8 10 9 12 6 14 5 15
REMARK SMILES IDX 1 16 2 17 3 18 89 19 4 20 13 21 14 22 15 23 16 24 21 25
REMARK SMILES IDX 22 26 23 27 24 28 25 30 26 31 27 32 88 33 28 34 87 35 29 36
REMARK SMILES IDX 30 37 31 38 81 39 32 40 86 41 80 42 82 43 33 44 85 45 79 46
REMARK SMILES IDX 78 47 34 49 66 50 46 51 65 52 47 53 50 54 64 55 83 56 48 57
REMARK SMILES IDX 49 58 63 60 84 61 51 62 35 63 36 64 44 65 37 66 38 67 42 68
REMARK SMILES IDX 45 69 39 70 40 71 43 72 41 73 67 74 68 75 76 76 69 77 70 78
REMARK SMILES IDX 74 79 77 80 71 81 72 82 75 83 73 84 52 85 53 86 61 87 54 88
REMARK SMILES IDX 55 89 59 90 62 91 56 92 57 93 60 94 58 95
REMARK H PARENT 19 5 7 11 10 13 23 29 82 48 50 59
REMARK Flexibility Score: inf
ROOT
ATOM      1  C   UNL A   1      33.894  28.392  22.887  1.00  0.00     0.117 C 
ENDROOT
BRANCH   1   2
ATOM      2  N   UNL A   1      33.321  27.503  21.891  1.00  0.00    -0.356 N 
ATOM      3  C   UNL A   1      32.672  26.319  22.005  1.00  0.00     0.224 C 
ATOM      4  O   UNL A   1      32.155  25.874  20.974  1.00  0.00    -0.275 OA
ATOM      5  H   UNL A   1      33.422  27.820  20.964  1.00  0.00     0.163 HD
BRANCH   3   6
ATOM      6  C   UNL A   1      32.548  25.551  23.312  1.00  0.00     0.098 C 
BRANCH   6   7
ATOM      7  C   UNL A   1      31.100  25.372  23.783  1.00  0.00     0.131 C 
BRANCH   7   8
ATOM      8  N   UNL A   1      30.779  26.217  24.923  1.00  0.00    -0.337 N 
ATOM      9  N   UNL A   1      31.095  24.843  26.815  1.00  0.00    -0.333 N 
ATOM     10  C   UNL A   1      30.960  26.043  26.240  1.00  0.00     0.315 C 
ATOM     11  H   UNL A   1      31.549  24.869  27.688  1.00  0.00     0.165 HD
ATOM     12  O   UNL A   1      31.011  27.045  26.955  1.00  0.00    -0.249 OA
ATOM     13  H   UNL A   1      30.352  27.071  24.684  1.00  0.00     0.165 HD
BRANCH   9  14
ATOM     14  C   UNL A   1      30.704  23.511  26.406  1.00  0.00     0.164 C 
BRANCH  14  15
ATOM     15  C   UNL A   1      31.898  22.602  26.374  1.00  0.00     0.024 A 
ATOM     16  C   UNL A   1      34.457  19.951  25.001  1.00  0.00     0.056 C 
ATOM     17  C   UNL A   1      33.636  20.950  25.743  1.00  0.00     0.002 A 
ATOM     18  C   UNL A   1      33.903  21.548  26.955  1.00  0.00     0.015 A 
ATOM     19  S   UNL A   1      32.152  21.492  25.089  1.00  0.00    -0.144 S 
ATOM     20  C   UNL A   1      32.903  22.498  27.319  1.00  0.00     0.017 A 
ENDBRANCH  14  15
ENDBRANCH   9  14
ENDBRANCH   7   8
ENDBRANCH   6   7
BRANCH   6  21
ATOM     21  C   UNL A   1      33.420  24.272  23.396  1.00  0.00     0.018 C 
BRANCH  21  22
ATOM     22  C   UNL A   1      34.882  24.415  23.870  1.00  0.00    -0.017 C 
ATOM     23  C   UNL A   1      34.974  24.691  25.376  1.00  0.00     0.007 C 
ATOM     24  C   UNL A   1      35.686  23.147  23.567  1.00  0.00     0.007 C 
ENDBRANCH  21  22
ENDBRANCH   6  21
ENDBRANCH   3   6
ENDBRANCH   1   2
BRANCH   1  25
ATOM     25  C   UNL A   1      32.843  29.172  23.648  1.00  0.00     0.042 C 
BRANCH  25  26
ATOM     26  C   UNL A   1      33.121  29.234  25.144  1.00  0.00     0.118 C 
BRANCH  26  27
ATOM     27  N   UNL A   1      32.595  30.442  25.775  1.00  0.00    -0.352 N 
ATOM     28  C   UNL A   1      33.057  31.173  26.846  1.00  0.00     0.251 C 
ATOM     29  H   UNL A   1      31.773  30.792  25.365  1.00  0.00     0.163 HD
ATOM     30  O   UNL A   1      32.360  32.051  27.335  1.00  0.00    -0.269 OA
BRANCH  28  31
ATOM     31  C   UNL A   1      34.382  30.872  27.428  1.00  0.00     0.039 A 
ATOM     32  C   UNL A   1      35.295  31.910  27.631  1.00  0.00     0.014 A 
ATOM     33  C   UNL A   1      34.715  29.570  27.794  1.00  0.00     0.014 A 
ATOM     34  C   UNL A   1      36.495  31.652  28.299  1.00  0.00     0.010 A 
ATOM     35  C   UNL A   1      35.840  29.341  28.572  1.00  0.00     0.010 A 
ATOM     36  C   UNL A   1      36.749  30.377  28.830  1.00  0.00    -0.014 A 
BRANCH  36  37
ATOM     37  C   UNL A   1      37.953  30.085  29.649  1.00  0.00     0.031 A 
ATOM     38  C   UNL A   1      39.010  29.153  29.117  1.00  0.00     0.074 A 
ATOM     39  C   UNL A   1      38.041  30.562  30.907  1.00  0.00     0.049 A 
ATOM     40  N   UNL A   1      40.050  28.644  29.727  1.00  0.00    -0.248 NA
ATOM     41  C   UNL A   1      38.849  28.692  27.729  1.00  0.00     0.031 C 
ATOM     42  C   UNL A   1      37.051  31.417  31.565  1.00  0.00     0.029 A 
ATOM     43  N   UNL A   1      39.008  30.383  31.865  1.00  0.00    -0.354 N 
ATOM     44  C   UNL A   1      40.630  27.770  28.816  1.00  0.00     0.074 A 
ATOM     45  C   UNL A   1      39.803  27.778  27.631  1.00  0.00     0.031 C 
ATOM     46  C   UNL A   1      37.477  31.717  32.802  1.00  0.00     0.029 A 
ATOM     47  C   UNL A   1      38.747  31.041  33.043  1.00  0.00     0.049 A 
ATOM     48  H   UNL A   1      39.813  29.835  31.722  1.00  0.00     0.167 HD
ATOM     49  C   UNL A   1      41.768  27.048  28.946  1.00  0.00     0.037 A 
ATOM     50  C   UNL A   1      39.453  31.088  34.189  1.00  0.00     0.037 A 
ATOM     51  C   UNL A   1      42.633  27.109  30.093  1.00  0.00     0.049 A 
ATOM     52  C   UNL A   1      40.744  30.321  34.282  1.00  0.00     0.074 A 
ATOM     53  C   UNL A   1      43.862  26.504  30.280  1.00  0.00     0.029 A 
ATOM     54  N   UNL A   1      42.363  27.835  31.243  1.00  0.00    -0.354 N 
ATOM     55  N   UNL A   1      41.320  29.558  33.387  1.00  0.00    -0.248 NA
ATOM     56  C   UNL A   1      41.484  30.425  35.548  1.00  0.00     0.031 C 
ATOM     57  C   UNL A   1      44.321  26.836  31.558  1.00  0.00     0.029 A 
ATOM     58  C   UNL A   1      43.397  27.680  32.151  1.00  0.00     0.049 A 
ATOM     59  H   UNL A   1      41.555  28.379  31.393  1.00  0.00     0.167 HD
ATOM     60  C   UNL A   1      42.503  29.119  33.964  1.00  0.00     0.074 A 
ATOM     61  C   UNL A   1      42.568  29.710  35.284  1.00  0.00     0.031 C 
ATOM     62  C   UNL A   1      43.451  28.298  33.450  1.00  0.00     0.037 A 
BRANCH  49  63
ATOM     63  C   UNL A   1      42.158  26.146  27.812  1.00  0.00     0.064 A 
ATOM     64  C   UNL A   1      43.121  26.524  26.865  1.00  0.00     0.173 A 
ATOM     65  C   UNL A   1      41.592  24.867  27.698  1.00  0.00     0.173 A 
ATOM     66  F   UNL A   1      43.682  27.741  26.923  1.00  0.00    -0.203 F 
ATOM     67  C   UNL A   1      43.484  25.667  25.830  1.00  0.00     0.198 A 
ATOM     68  C   UNL A   1      41.979  24.001  26.678  1.00  0.00     0.198 A 
ATOM     69  F   UNL A   1      40.669  24.454  28.579  1.00  0.00    -0.203 F 
ATOM     70  F   UNL A   1      44.371  26.070  24.909  1.00  0.00    -0.200 F 
ATOM     71  C   UNL A   1      42.919  24.404  25.741  1.00  0.00     0.200 A 
ATOM     72  F   UNL A   1      41.441  22.776  26.601  1.00  0.00    -0.200 F 
ATOM     73  F   UNL A   1      43.276  23.577  24.750  1.00  0.00    -0.200 F 
ENDBRANCH  49  63
BRANCH  50  74
ATOM     74  C   UNL A   1      38.981  31.918  35.328  1.00  0.00     0.064 A 
ATOM     75  C   UNL A   1      39.308  33.280  35.400  1.00  0.00     0.173 A 
ATOM     76  C   UNL A   1      38.221  31.373  36.372  1.00  0.00     0.173 A 
ATOM     77  F   UNL A   1      40.050  33.842  34.435  1.00  0.00    -0.203 F 
ATOM     78  C   UNL A   1      38.917  34.058  36.488  1.00  0.00     0.198 A 
ATOM     79  C   UNL A   1      37.807  32.159  37.447  1.00  0.00     0.198 A 
ATOM     80  F   UNL A   1      37.876  30.077  36.347  1.00  0.00    -0.203 F 
ATOM     81  F   UNL A   1      39.289  35.343  36.557  1.00  0.00    -0.200 F 
ATOM     82  C   UNL A   1      38.165  33.498  37.509  1.00  0.00     0.200 A 
ATOM     83  F   UNL A   1      37.070  31.618  38.425  1.00  0.00    -0.200 F 
ATOM     84  F   UNL A   1      37.793  34.245  38.556  1.00  0.00    -0.200 F 
ENDBRANCH  50  74
BRANCH  62  85
ATOM     85  C   UNL A   1      44.658  28.029  34.296  1.00  0.00     0.064 A 
ATOM     86  C   UNL A   1      44.716  26.928  35.163  1.00  0.00     0.173 A 
ATOM     87  C   UNL A   1      45.787  28.856  34.202  1.00  0.00     0.173 A 
ATOM     88  F   UNL A   1      43.656  26.119  35.298  1.00  0.00    -0.203 F 
ATOM     89  C   UNL A   1      45.855  26.680  35.925  1.00  0.00     0.198 A 
ATOM     90  C   UNL A   1      46.933  28.589  34.944  1.00  0.00     0.198 A 
ATOM     91  F   UNL A   1      45.781  29.916  33.380  1.00  0.00    -0.203 F 
ATOM     92  F   UNL A   1      45.873  25.649  36.780  1.00  0.00    -0.200 F 
ATOM     93  C   UNL A   1      46.963  27.506  35.809  1.00  0.00     0.200 A 
ATOM     94  F   UNL A   1      48.008  29.379  34.821  1.00  0.00    -0.200 F 
ATOM     95  F   UNL A   1      48.061  27.260  36.537  1.00  0.00    -0.200 F 
ENDBRANCH  62  85
ENDBRANCH  36  37
ENDBRANCH  28  31
ENDBRANCH  26  27
ENDBRANCH  25  26
ENDBRANCH   1  25
TORSDOF 16
ENDMDL
MODEL 2
REMARK VINA RESULT:     -11.6      2.181      3.535
REMARK SMILES Cc1ccc(CNC(=O)NC[C@@H](CC(C)C)C(=O)NCCCNC(=O)c2ccc(-c3c4nc(c(-c5c(F)c(F)c(F)c(F)c5F)c5ccc([nH]5)c(-c5c(F)c(F)c(F)c(F)c5F)c5nc(c(-c6c(F)c(F)c(F)c(F)c6F)c6ccc3[nH]6)C=C5)C=C4)cc2)s1
REMARK SMILES IDX 20 1 19 2 17 3 18 4 12 6 11 7 10 8 7 9 8 10 9 12 6 14 5 15
REMARK SMILES IDX 1 16 2 17 3 18 89 19 4 20 13 21 14 22 15 23 16 24 21 25
REMARK SMILES IDX 22 26 23 27 24 28 25 30 26 31 27 32 88 33 28 34 87 35 29 36
REMARK SMILES IDX 30 37 31 38 81 39 32 40 86 41 80 42 82 43 33 44 85 45 79 46
REMARK SMILES IDX 78 47 34 49 66 50 46 51 65 52 47 53 50 54 64 55 83 56 48 57
REMARK SMILES IDX 49 58 63 60 84 61 51 62 35 63 36 64 44 65 37 66 38 67 42 68
REMARK SMILES IDX 45 69 39 70 40 71 43 72 41 73 67 74 68 75 76 76 69 77 70 78
REMARK SMILES IDX 74 79 77 80 71 81 72 82 75 83 73 84 52 85 53 86 61 87 54 88
REMARK SMILES IDX 55 89 59 90 62 91 56 92 57 93 60 94 58 95
REMARK H PARENT 19 5 7 11 10 13 23 29 82 48 50 59
REMARK Flexibility Score: inf
ROOT
ATOM      1  C   UNL A   1      31.951  30.609  26.233  1.00  0.00     0.117 C 
ENDROOT
BRANCH   1   2
ATOM      2  N   UNL A   1      31.656  29.533  27.164  1.00  0.00    -0.356 N 
ATOM      3  C   UNL A   1      31.689  28.185  27.025  1.00  0.00     0.224 C 
ATOM      4  O   UNL A   1      31.537  27.522  28.057  1.00  0.00    -0.275 OA
ATOM      5  H   UNL A   1      31.383  29.839  28.059  1.00  0.00     0.163 HD
BRANCH   3   6
ATOM      6  C   UNL A   1      31.914  27.483  25.695  1.00  0.00     0.098 C 
BRANCH   6   7
ATOM      7  C   UNL A   1      32.505  26.075  25.837  1.00  0.00     0.131 C 
BRANCH   7   8
ATOM      8  N   UNL A   1      31.600  25.159  26.517  1.00  0.00    -0.337 N 
ATOM      9  N   UNL A   1      32.222  23.010  25.767  1.00  0.00    -0.333 N 
ATOM     10  C   UNL A   1      31.604  23.824  26.631  1.00  0.00     0.315 C 
ATOM     11  H   UNL A   1      32.434  22.124  26.140  1.00  0.00     0.165 HD
ATOM     12  O   UNL A   1      31.010  23.323  27.587  1.00  0.00    -0.249 OA
ATOM     13  H   UNL A   1      30.851  25.602  26.977  1.00  0.00     0.165 HD
BRANCH   9  14
ATOM     14  C   UNL A   1      32.641  23.177  24.392  1.00  0.00     0.164 C 
BRANCH  14  15
ATOM     15  C   UNL A   1      34.096  22.841  24.245  1.00  0.00     0.024 A 
ATOM     16  C   UNL A   1      37.510  20.976  24.822  1.00  0.00     0.056 C 
ATOM     17  C   UNL A   1      36.356  21.840  24.440  1.00  0.00     0.002 A 
ATOM     18  C   UNL A   1      36.303  22.819  23.472  1.00  0.00     0.015 A 
ATOM     19  S   UNL A   1      34.858  21.672  25.245  1.00  0.00    -0.144 S 
ATOM     20  C   UNL A   1      35.004  23.396  23.359  1.00  0.00     0.017 A 
ENDBRANCH  14  15
ENDBRANCH   9  14
ENDBRANCH   7   8
ENDBRANCH   6   7
BRANCH   6  21
ATOM     21  C   UNL A   1      30.732  27.593  24.697  1.00  0.00     0.018 C 
BRANCH  21  22
ATOM     22  C   UNL A   1      31.054  27.851  23.210  1.00  0.00    -0.017 C 
ATOM     23  C   UNL A   1      29.942  28.642  22.510  1.00  0.00     0.007 C 
ATOM     24  C   UNL A   1      32.364  28.630  23.056  1.00  0.00     0.007 C 
ENDBRANCH  21  22
ENDBRANCH   6  21
ENDBRANCH   3   6
ENDBRANCH   1   2
BRANCH   1  25
ATOM     25  C   UNL A   1      31.575  31.972  26.777  1.00  0.00     0.042 C 
BRANCH  25  26
ATOM     26  C   UNL A   1      32.768  32.734  27.337  1.00  0.00     0.118 C 
BRANCH  26  27
ATOM     27  N   UNL A   1      32.464  34.129  27.644  1.00  0.00    -0.352 N 
ATOM     28  C   UNL A   1      32.979  34.974  28.600  1.00  0.00     0.251 C 
ATOM     29  H   UNL A   1      31.775  34.533  27.069  1.00  0.00     0.163 HD
ATOM     30  O   UNL A   1      32.449  36.056  28.812  1.00  0.00    -0.269 OA
BRANCH  28  31
ATOM     31  C   UNL A   1      34.152  34.558  29.398  1.00  0.00     0.039 A 
ATOM     32  C   UNL A   1      33.962  34.036  30.680  1.00  0.00     0.014 A 
ATOM     33  C   UNL A   1      35.438  34.663  28.873  1.00  0.00     0.014 A 
ATOM     34  C   UNL A   1      35.054  33.523  31.385  1.00  0.00     0.010 A 
ATOM     35  C   UNL A   1      36.496  34.035  29.513  1.00  0.00     0.010 A 
ATOM     36  C   UNL A   1      36.320  33.462  30.780  1.00  0.00    -0.014 A 
BRANCH  36  37
ATOM     37  C   UNL A   1      37.484  32.817  31.441  1.00  0.00     0.031 A 
ATOM     38  C   UNL A   1      38.188  31.671  30.763  1.00  0.00     0.074 A 
ATOM     39  C   UNL A   1      37.832  33.182  32.691  1.00  0.00     0.049 A 
ATOM     40  N   UNL A   1      39.114  30.873  31.231  1.00  0.00    -0.248 NA
ATOM     41  C   UNL A   1      37.759  31.348  29.392  1.00  0.00     0.031 C 
ATOM     42  C   UNL A   1      37.186  34.229  33.485  1.00  0.00     0.029 A 
ATOM     43  N   UNL A   1      38.815  32.701  33.522  1.00  0.00    -0.354 N 
ATOM     44  C   UNL A   1      39.335  29.930  30.234  1.00  0.00     0.074 A 
ATOM     45  C   UNL A   1      38.416  30.222  29.158  1.00  0.00     0.031 C 
ATOM     46  C   UNL A   1      37.809  34.336  34.669  1.00  0.00     0.029 A 
ATOM     47  C   UNL A   1      38.869  33.337  34.739  1.00  0.00     0.049 A 
ATOM     48  H   UNL A   1      39.422  31.969  33.269  1.00  0.00     0.167 HD
ATOM     49  C   UNL A   1      40.245  28.928  30.208  1.00  0.00     0.037 A 
ATOM     50  C   UNL A   1      39.682  33.131  35.792  1.00  0.00     0.037 A 
ATOM     51  C   UNL A   1      41.213  28.694  31.245  1.00  0.00     0.049 A 
ATOM     52  C   UNL A   1      40.723  32.047  35.710  1.00  0.00     0.074 A 
ATOM     53  C   UNL A   1      42.248  27.776  31.267  1.00  0.00     0.029 A 
ATOM     54  N   UNL A   1      41.275  29.399  32.437  1.00  0.00    -0.354 N 
ATOM     55  N   UNL A   1      40.972  31.211  34.733  1.00  0.00    -0.248 NA
ATOM     56  C   UNL A   1      41.597  31.881  36.881  1.00  0.00     0.031 C 
ATOM     57  C   UNL A   1      42.916  27.903  32.489  1.00  0.00     0.029 A 
ATOM     58  C   UNL A   1      42.322  28.926  33.210  1.00  0.00     0.049 A 
ATOM     59  H   UNL A   1      40.664  30.127  32.696  1.00  0.00     0.167 HD
ATOM     60  C   UNL A   1      42.049  30.445  35.153  1.00  0.00     0.074 A 
ATOM     61  C   UNL A   1      42.414  30.922  36.471  1.00  0.00     0.031 C 
ATOM     62  C   UNL A   1      42.681  29.433  34.508  1.00  0.00     0.037 A 
BRANCH  49  63
ATOM     63  C   UNL A   1      40.252  28.020  29.014  1.00  0.00     0.064 A 
ATOM     64  C   UNL A   1      40.990  28.325  27.859  1.00  0.00     0.173 A 
ATOM     65  C   UNL A   1      39.548  26.807  29.041  1.00  0.00     0.173 A 
ATOM     66  F   UNL A   1      41.669  29.479  27.779  1.00  0.00    -0.203 F 
ATOM     67  C   UNL A   1      40.999  27.462  26.766  1.00  0.00     0.198 A 
ATOM     68  C   UNL A   1      39.584  25.933  27.957  1.00  0.00     0.198 A 
ATOM     69  F   UNL A   1      38.830  26.465  30.121  1.00  0.00    -0.203 F 
ATOM     70  F   UNL A   1      41.672  27.799  25.657  1.00  0.00    -0.200 F 
ATOM     71  C   UNL A   1      40.305  26.264  26.819  1.00  0.00     0.200 A 
ATOM     72  F   UNL A   1      38.922  24.769  28.014  1.00  0.00    -0.200 F 
ATOM     73  F   UNL A   1      40.323  25.431  25.770  1.00  0.00    -0.200 F 
ENDBRANCH  49  63
BRANCH  50  74
ATOM     74  C   UNL A   1      39.577  33.990  37.001  1.00  0.00     0.064 A 
ATOM     75  C   UNL A   1      38.821  33.573  38.107  1.00  0.00     0.173 A 
ATOM     76  C   UNL A   1      40.200  35.243  37.071  1.00  0.00     0.173 A 
ATOM     77  F   UNL A   1      38.190  32.391  38.078  1.00  0.00    -0.203 F 
ATOM     78  C   UNL A   1      38.670  34.391  39.225  1.00  0.00     0.198 A 
ATOM     79  C   UNL A   1      40.071  36.048  38.202  1.00  0.00     0.198 A 
ATOM     80  F   UNL A   1      40.939  35.685  36.043  1.00  0.00    -0.203 F 
ATOM     81  F   UNL A   1      37.899  33.990  40.245  1.00  0.00    -0.200 F 
ATOM     82  C   UNL A   1      39.298  35.626  39.274  1.00  0.00     0.200 A 
ATOM     83  F   UNL A   1      40.688  37.236  38.250  1.00  0.00    -0.200 F 
ATOM     84  F   UNL A   1      39.149  36.413  40.347  1.00  0.00    -0.200 F 
ENDBRANCH  50  74
BRANCH  62  85
ATOM     85  C   UNL A   1      43.856  28.808  35.197  1.00  0.00     0.064 A 
ATOM     86  C   UNL A   1      43.700  27.739  36.090  1.00  0.00     0.173 A 
ATOM     87  C   UNL A   1      45.157  29.256  34.922  1.00  0.00     0.173 A 
ATOM     88  F   UNL A   1      42.475  27.287  36.395  1.00  0.00    -0.203 F 
ATOM     89  C   UNL A   1      44.805  27.155  36.703  1.00  0.00     0.198 A 
ATOM     90  C   UNL A   1      46.260  28.651  35.515  1.00  0.00     0.198 A 
ATOM     91  F   UNL A   1      45.356  30.271  34.068  1.00  0.00    -0.203 F 
ATOM     92  F   UNL A   1      44.632  26.163  37.587  1.00  0.00    -0.200 F 
ATOM     93  C   UNL A   1      46.083  27.606  36.409  1.00  0.00     0.200 A 
ATOM     94  F   UNL A   1      47.496  29.079  35.220  1.00  0.00    -0.200 F 
ATOM     95  F   UNL A   1      47.147  27.038  36.994  1.00  0.00    -0.200 F 
ENDBRANCH  62  85
ENDBRANCH  36  37
ENDBRANCH  28  31
ENDBRANCH  26  27
ENDBRANCH  25  26
ENDBRANCH   1  25
TORSDOF 16
ENDMDL
MODEL 3
REMARK VINA RESULT:     -11.5      4.381      6.789
REMARK SMILES Cc1ccc(CNC(=O)NC[C@@H](CC(C)C)C(=O)NCCCNC(=O)c2ccc(-c3c4nc(c(-c5c(F)c(F)c(F)c(F)c5F)c5ccc([nH]5)c(-c5c(F)c(F)c(F)c(F)c5F)c5nc(c(-c6c(F)c(F)c(F)c(F)c6F)c6ccc3[nH]6)C=C5)C=C4)cc2)s1
REMARK SMILES IDX 20 1 19 2 17 3 18 4 12 6 11 7 10 8 7 9 8 10 9 12 6 14 5 15
REMARK SMILES IDX 1 16 2 17 3 18 89 19 4 20 13 21 14 22 15 23 16 24 21 25
REMARK SMILES IDX 22 26 23 27 24 28 25 30 26 31 27 32 88 33 28 34 87 35 29 36
REMARK SMILES IDX 30 37 31 38 81 39 32 40 86 41 80 42 82 43 33 44 85 45 79 46
REMARK SMILES IDX 78 47 34 49 66 50 46 51 65 52 47 53 50 54 64 55 83 56 48 57
REMARK SMILES IDX 49 58 63 60 84 61 51 62 35 63 36 64 44 65 37 66 38 67 42 68
REMARK SMILES IDX 45 69 39 70 40 71 43 72 41 73 67 74 68 75 76 76 69 77 70 78
REMARK SMILES IDX 74 79 77 80 71 81 72 82 75 83 73 84 52 85 53 86 61 87 54 88
REMARK SMILES IDX 55 89 59 90 62 91 56 92 57 93 60 94 58 95
REMARK H PARENT 19 5 7 11 10 13 23 29 82 48 50 59
REMARK Flexibility Score: inf
ROOT
ATOM      1  C   UNL A   1      35.722  23.319  23.899  1.00  0.00     0.117 C 
ENDROOT
BRANCH   1   2
ATOM      2  N   UNL A   1      34.655  23.050  22.951  1.00  0.00    -0.356 N 
ATOM      3  C   UNL A   1      33.427  22.497  23.107  1.00  0.00     0.224 C 
ATOM      4  O   UNL A   1      32.673  22.548  22.129  1.00  0.00    -0.275 OA
ATOM      5  H   UNL A   1      34.861  23.319  22.027  1.00  0.00     0.163 HD
BRANCH   3   6
ATOM      6  C   UNL A   1      32.954  21.853  24.401  1.00  0.00     0.098 C 
BRANCH   6   7
ATOM      7  C   UNL A   1      31.450  22.014  24.652  1.00  0.00     0.131 C 
BRANCH   7   8
ATOM      8  N   UNL A   1      31.148  22.303  26.046  1.00  0.00    -0.337 N 
ATOM      9  N   UNL A   1      29.958  24.341  26.008  1.00  0.00    -0.333 N 
ATOM     10  C   UNL A   1      30.340  23.211  26.614  1.00  0.00     0.315 C 
ATOM     11  H   UNL A   1      29.130  24.727  26.375  1.00  0.00     0.165 HD
ATOM     12  O   UNL A   1      29.924  22.984  27.751  1.00  0.00    -0.249 OA
ATOM     13  H   UNL A   1      31.623  21.728  26.688  1.00  0.00     0.165 HD
BRANCH   9  14
ATOM     14  C   UNL A   1      30.523  25.108  24.919  1.00  0.00     0.164 C 
BRANCH  14  15
ATOM     15  C   UNL A   1      31.718  25.885  25.391  1.00  0.00     0.024 A 
ATOM     16  C   UNL A   1      33.790  28.679  27.225  1.00  0.00     0.056 C 
ATOM     17  C   UNL A   1      33.242  27.534  26.443  1.00  0.00     0.002 A 
ATOM     18  C   UNL A   1      33.929  26.516  25.818  1.00  0.00     0.015 A 
ATOM     19  S   UNL A   1      31.552  27.369  26.238  1.00  0.00    -0.144 S 
ATOM     20  C   UNL A   1      33.053  25.568  25.212  1.00  0.00     0.017 A 
ENDBRANCH  14  15
ENDBRANCH   9  14
ENDBRANCH   7   8
ENDBRANCH   6   7
BRANCH   6  21
ATOM     21  C   UNL A   1      33.504  20.425  24.652  1.00  0.00     0.018 C 
BRANCH  21  22
ATOM     22  C   UNL A   1      32.523  19.238  24.560  1.00  0.00    -0.017 C 
ATOM     23  C   UNL A   1      32.492  18.624  23.155  1.00  0.00     0.007 C 
ATOM     24  C   UNL A   1      32.897  18.135  25.555  1.00  0.00     0.007 C 
ENDBRANCH  21  22
ENDBRANCH   6  21
ENDBRANCH   3   6
ENDBRANCH   1   2
BRANCH   1  25
ATOM     25  C   UNL A   1      36.631  22.125  24.110  1.00  0.00     0.042 C 
BRANCH  25  26
ATOM     26  C   UNL A   1      36.932  21.866  25.580  1.00  0.00     0.118 C 
BRANCH  26  27
ATOM     27  N   UNL A   1      38.029  20.922  25.782  1.00  0.00    -0.352 N 
ATOM     28  C   UNL A   1      39.331  21.125  26.176  1.00  0.00     0.251 C 
ATOM     29  H   UNL A   1      37.796  19.982  25.607  1.00  0.00     0.163 HD
ATOM     30  O   UNL A   1      40.144  20.213  26.101  1.00  0.00    -0.269 OA
BRANCH  28  31
ATOM     31  C   UNL A   1      39.758  22.456  26.656  1.00  0.00     0.039 A 
ATOM     32  C   UNL A   1      40.763  22.548  27.622  1.00  0.00     0.014 A 
ATOM     33  C   UNL A   1      39.182  23.613  26.138  1.00  0.00     0.014 A 
ATOM     34  C   UNL A   1      41.259  23.803  27.984  1.00  0.00     0.010 A 
ATOM     35  C   UNL A   1      39.763  24.846  26.396  1.00  0.00     0.010 A 
ATOM     36  C   UNL A   1      40.805  24.959  27.327  1.00  0.00    -0.014 A 
BRANCH  36  37
ATOM     37  C   UNL A   1      41.386  26.300  27.591  1.00  0.00     0.031 A 
ATOM     38  C   UNL A   1      42.779  26.618  27.112  1.00  0.00     0.074 A 
ATOM     39  C   UNL A   1      40.713  27.185  28.353  1.00  0.00     0.049 A 
ATOM     40  N   UNL A   1      43.528  27.660  27.372  1.00  0.00    -0.248 NA
ATOM     41  C   UNL A   1      43.438  25.606  26.270  1.00  0.00     0.031 C 
ATOM     42  C   UNL A   1      39.387  26.973  28.936  1.00  0.00     0.029 A 
ATOM     43  N   UNL A   1      41.061  28.443  28.781  1.00  0.00    -0.354 N 
ATOM     44  C   UNL A   1      44.753  27.401  26.770  1.00  0.00     0.074 A 
ATOM     45  C   UNL A   1      44.668  26.087  26.175  1.00  0.00     0.031 C 
ATOM     46  C   UNL A   1      39.019  28.072  29.612  1.00  0.00     0.029 A 
ATOM     47  C   UNL A   1      40.099  29.051  29.551  1.00  0.00     0.049 A 
ATOM     48  H   UNL A   1      41.920  28.870  28.556  1.00  0.00     0.167 HD
ATOM     49  C   UNL A   1      45.842  28.202  26.695  1.00  0.00     0.037 A 
ATOM     50  C   UNL A   1      40.094  30.260  30.143  1.00  0.00     0.037 A 
ATOM     51  C   UNL A   1      45.893  29.541  27.215  1.00  0.00     0.049 A 
ATOM     52  C   UNL A   1      41.297  31.151  29.993  1.00  0.00     0.074 A 
ATOM     53  C   UNL A   1      46.907  30.474  27.098  1.00  0.00     0.029 A 
ATOM     54  N   UNL A   1      44.874  30.143  27.938  1.00  0.00    -0.354 N 
ATOM     55  N   UNL A   1      42.421  30.925  29.358  1.00  0.00    -0.248 NA
ATOM     56  C   UNL A   1      41.229  32.468  30.643  1.00  0.00     0.031 C 
ATOM     57  C   UNL A   1      46.516  31.631  27.779  1.00  0.00     0.029 A 
ATOM     58  C   UNL A   1      45.242  31.431  28.287  1.00  0.00     0.049 A 
ATOM     59  H   UNL A   1      44.017  29.716  28.171  1.00  0.00     0.167 HD
ATOM     60  C   UNL A   1      43.177  32.079  29.501  1.00  0.00     0.074 A 
ATOM     61  C   UNL A   1      42.381  33.009  30.274  1.00  0.00     0.031 C 
ATOM     62  C   UNL A   1      44.422  32.347  29.036  1.00  0.00     0.037 A 
BRANCH  49  63
ATOM     63  C   UNL A   1      47.063  27.661  26.010  1.00  0.00     0.064 A 
ATOM     64  C   UNL A   1      47.217  27.726  24.616  1.00  0.00     0.173 A 
ATOM     65  C   UNL A   1      48.112  27.111  26.761  1.00  0.00     0.173 A 
ATOM     66  F   UNL A   1      46.236  28.231  23.853  1.00  0.00    -0.203 F 
ATOM     67  C   UNL A   1      48.364  27.236  23.999  1.00  0.00     0.198 A 
ATOM     68  C   UNL A   1      49.271  26.648  26.141  1.00  0.00     0.198 A 
ATOM     69  F   UNL A   1      48.019  27.028  28.097  1.00  0.00    -0.203 F 
ATOM     70  F   UNL A   1      48.466  27.265  22.663  1.00  0.00    -0.200 F 
ATOM     71  C   UNL A   1      49.393  26.706  24.761  1.00  0.00     0.200 A 
ATOM     72  F   UNL A   1      50.270  26.148  26.880  1.00  0.00    -0.200 F 
ATOM     73  F   UNL A   1      50.500  26.243  24.165  1.00  0.00    -0.200 F 
ENDBRANCH  49  63
BRANCH  50  74
ATOM     74  C   UNL A   1      38.900  30.720  30.899  1.00  0.00     0.064 A 
ATOM     75  C   UNL A   1      38.826  30.542  32.289  1.00  0.00     0.173 A 
ATOM     76  C   UNL A   1      37.807  31.319  30.259  1.00  0.00     0.173 A 
ATOM     77  F   UNL A   1      39.838  29.955  32.944  1.00  0.00    -0.203 F 
ATOM     78  C   UNL A   1      37.691  30.921  33.003  1.00  0.00     0.198 A 
ATOM     79  C   UNL A   1      36.684  31.723  30.979  1.00  0.00     0.198 A 
ATOM     80  F   UNL A   1      37.832  31.518  28.932  1.00  0.00    -0.203 F 
ATOM     81  F   UNL A   1      37.625  30.691  34.322  1.00  0.00    -0.200 F 
ATOM     82  C   UNL A   1      36.622  31.514  32.349  1.00  0.00     0.200 A 
ATOM     83  F   UNL A   1      35.658  32.306  30.345  1.00  0.00    -0.200 F 
ATOM     84  F   UNL A   1      35.530  31.874  33.036  1.00  0.00    -0.200 F 
ENDBRANCH  50  74
BRANCH  62  85
ATOM     85  C   UNL A   1      44.979  33.711  29.311  1.00  0.00     0.064 A 
ATOM     86  C   UNL A   1      45.755  33.972  30.448  1.00  0.00     0.173 A 
ATOM     87  C   UNL A   1      44.770  34.756  28.399  1.00  0.00     0.173 A 
ATOM     88  F   UNL A   1      45.968  33.007  31.356  1.00  0.00    -0.203 F 
ATOM     89  C   UNL A   1      46.284  35.240  30.676  1.00  0.00     0.198 A 
ATOM     90  C   UNL A   1      45.323  36.014  28.615  1.00  0.00     0.198 A 
ATOM     91  F   UNL A   1      44.041  34.552  27.291  1.00  0.00    -0.203 F 
ATOM     92  F   UNL A   1      46.986  35.479  31.791  1.00  0.00    -0.200 F 
ATOM     93  C   UNL A   1      46.074  36.256  29.756  1.00  0.00     0.200 A 
ATOM     94  F   UNL A   1      45.132  36.992  27.720  1.00  0.00    -0.200 F 
ATOM     95  F   UNL A   1      46.590  37.474  29.973  1.00  0.00    -0.200 F 
ENDBRANCH  62  85
ENDBRANCH  36  37
ENDBRANCH  28  31
ENDBRANCH  26  27
ENDBRANCH  25  26
ENDBRANCH   1  25
TORSDOF 16
ENDMDL
