MODEL 1
REMARK VINA RESULT:     -12.3      0.000      0.000
REMARK SMILES Cc1ccccc1C[C@H](CCSc1ccccc1)C(=O)NCCCNC(=O)c1ccc(-c2c3nc(c(-c4c(F)c(F)c(F)c(F)c4F)c4ccc([nH]4)c(-c4c(F)c(F)c(F)c(F)c4F)c4nc(c(-c5c(F)c(F)c(F)c(F)c5F)c5ccc2[nH]5)C=C4)C=C3)cc1
REMARK SMILES IDX 22 1 21 2 19 3 20 4 9 6 8 7 7 8 1 9 2 10 3 11 4 12 6 13 5 14
REMARK SMILES IDX 10 15 11 16 12 17 13 18 14 19 18 20 15 21 17 22 16 23 23 24
REMARK SMILES IDX 24 25 25 26 26 27 27 29 28 30 29 31 90 32 30 33 89 34 31 35
REMARK SMILES IDX 32 36 33 37 83 38 34 39 88 40 82 41 84 42 35 43 87 44 81 45
REMARK SMILES IDX 80 46 36 48 68 49 48 50 67 51 49 52 52 53 66 54 85 55 50 56
REMARK SMILES IDX 51 57 65 59 86 60 53 61 37 62 38 63 46 64 39 65 40 66 44 67
REMARK SMILES IDX 47 68 41 69 42 70 45 71 43 72 69 73 70 74 78 75 71 76 72 77
REMARK SMILES IDX 76 78 79 79 73 80 74 81 77 82 75 83 54 84 55 85 63 86 56 87
REMARK SMILES IDX 57 88 61 89 64 90 58 91 59 92 62 93 60 94
REMARK H PARENT 21 5 25 28 84 47 52 58
REMARK Flexibility Score: inf
ROOT
ATOM      1  C   UNL A   1      32.894  29.579  24.872  1.00  0.00     0.117 C 
ENDROOT
BRANCH   1   2
ATOM      2  N   UNL A   1      33.626  29.309  23.645  1.00  0.00    -0.356 N 
ATOM      3  C   UNL A   1      33.769  28.149  22.948  1.00  0.00     0.223 C 
ATOM      4  O   UNL A   1      34.394  28.202  21.885  1.00  0.00    -0.275 OA
ATOM      5  H   UNL A   1      34.091  30.087  23.258  1.00  0.00     0.163 HD
BRANCH   3   6
ATOM      6  C   UNL A   1      33.239  26.825  23.482  1.00  0.00     0.083 C 
BRANCH   6   7
ATOM      7  C   UNL A   1      34.087  25.574  23.144  1.00  0.00     0.049 C 
BRANCH   7   8
ATOM      8  C   UNL A   1      34.417  24.610  24.277  1.00  0.00    -0.044 A 
ATOM      9  C   UNL A   1      36.007  23.165  22.844  1.00  0.00     0.044 C 
ATOM     10  C   UNL A   1      35.281  23.503  24.118  1.00  0.00    -0.048 A 
ATOM     11  C   UNL A   1      35.587  22.697  25.234  1.00  0.00     0.004 A 
ATOM     12  C   UNL A   1      35.067  22.970  26.495  1.00  0.00     0.000 A 
ATOM     13  C   UNL A   1      33.935  24.879  25.574  1.00  0.00     0.004 A 
ATOM     14  C   UNL A   1      34.245  24.069  26.667  1.00  0.00     0.000 A 
ENDBRANCH   7   8
ENDBRANCH   6   7
BRANCH   6  15
ATOM     15  C   UNL A   1      31.741  26.744  23.087  1.00  0.00     0.025 C 
BRANCH  15  16
ATOM     16  C   UNL A   1      31.155  25.372  22.752  1.00  0.00     0.076 C 
BRANCH  16  17
ATOM     17  S   UNL A   1      30.385  24.524  24.173  1.00  0.00    -0.126 SA
BRANCH  17  18
ATOM     18  C   UNL A   1      31.244  22.968  24.168  1.00  0.00     0.007 A 
ATOM     19  C   UNL A   1      31.833  22.501  22.990  1.00  0.00     0.015 A 
ATOM     20  C   UNL A   1      31.420  22.244  25.351  1.00  0.00     0.015 A 
ATOM     21  C   UNL A   1      32.527  21.291  22.973  1.00  0.00     0.001 A 
ATOM     22  C   UNL A   1      32.154  21.054  25.345  1.00  0.00     0.001 A 
ATOM     23  C   UNL A   1      32.696  20.572  24.153  1.00  0.00     0.000 A 
ENDBRANCH  17  18
ENDBRANCH  16  17
ENDBRANCH  15  16
ENDBRANCH   6  15
ENDBRANCH   3   6
ENDBRANCH   1   2
BRANCH   1  24
ATOM     24  C   UNL A   1      33.729  29.320  26.111  1.00  0.00     0.042 C 
BRANCH  24  25
ATOM     25  C   UNL A   1      33.137  30.001  27.323  1.00  0.00     0.118 C 
BRANCH  25  26
ATOM     26  N   UNL A   1      33.800  31.231  27.719  1.00  0.00    -0.352 N 
ATOM     27  C   UNL A   1      35.009  31.426  28.367  1.00  0.00     0.251 C 
ATOM     28  H   UNL A   1      33.314  32.056  27.491  1.00  0.00     0.163 HD
ATOM     29  O   UNL A   1      35.301  32.549  28.742  1.00  0.00    -0.269 OA
BRANCH  27  30
ATOM     30  C   UNL A   1      36.014  30.328  28.461  1.00  0.00     0.039 A 
ATOM     31  C   UNL A   1      36.203  29.702  29.703  1.00  0.00     0.014 A 
ATOM     32  C   UNL A   1      36.914  30.076  27.438  1.00  0.00     0.014 A 
ATOM     33  C   UNL A   1      37.406  29.049  29.973  1.00  0.00     0.010 A 
ATOM     34  C   UNL A   1      38.168  29.631  27.755  1.00  0.00     0.010 A 
ATOM     35  C   UNL A   1      38.421  29.135  29.031  1.00  0.00    -0.014 A 
BRANCH  35  36
ATOM     36  C   UNL A   1      39.793  28.707  29.214  1.00  0.00     0.031 A 
ATOM     37  C   UNL A   1      40.163  27.341  28.795  1.00  0.00     0.074 A 
ATOM     38  C   UNL A   1      40.727  29.638  29.503  1.00  0.00     0.049 A 
ATOM     39  N   UNL A   1      41.262  26.763  29.124  1.00  0.00    -0.248 NA
ATOM     40  C   UNL A   1      39.309  26.500  27.958  1.00  0.00     0.031 C 
ATOM     41  C   UNL A   1      42.174  29.527  29.347  1.00  0.00     0.029 A 
ATOM     42  N   UNL A   1      40.546  30.857  30.180  1.00  0.00    -0.354 N 
ATOM     43  C   UNL A   1      41.394  25.635  28.350  1.00  0.00     0.074 A 
ATOM     44  C   UNL A   1      40.132  25.490  27.667  1.00  0.00     0.031 C 
ATOM     45  C   UNL A   1      42.764  30.415  30.162  1.00  0.00     0.029 A 
ATOM     46  C   UNL A   1      41.713  31.009  30.968  1.00  0.00     0.049 A 
ATOM     47  H   UNL A   1      39.777  31.470  30.120  1.00  0.00     0.167 HD
ATOM     48  C   UNL A   1      42.611  25.027  28.292  1.00  0.00     0.037 A 
ATOM     49  C   UNL A   1      41.647  30.945  32.330  1.00  0.00     0.037 A 
ATOM     50  C   UNL A   1      43.561  25.710  29.164  1.00  0.00     0.049 A 
ATOM     51  C   UNL A   1      42.467  29.822  32.922  1.00  0.00     0.074 A 
ATOM     52  C   UNL A   1      44.530  26.672  28.932  1.00  0.00     0.029 A 
ATOM     53  N   UNL A   1      43.338  25.700  30.536  1.00  0.00    -0.354 N 
ATOM     54  N   UNL A   1      42.843  28.762  32.259  1.00  0.00    -0.248 NA
ATOM     55  C   UNL A   1      42.940  29.809  34.302  1.00  0.00     0.031 C 
ATOM     56  C   UNL A   1      44.875  27.259  30.175  1.00  0.00     0.029 A 
ATOM     57  C   UNL A   1      44.129  26.641  31.163  1.00  0.00     0.049 A 
ATOM     58  H   UNL A   1      42.702  25.106  30.995  1.00  0.00     0.167 HD
ATOM     59  C   UNL A   1      43.595  27.948  33.071  1.00  0.00     0.074 A 
ATOM     60  C   UNL A   1      43.634  28.656  34.336  1.00  0.00     0.031 C 
ATOM     61  C   UNL A   1      44.114  26.765  32.613  1.00  0.00     0.037 A 
BRANCH  48  62
ATOM     62  C   UNL A   1      43.005  23.986  27.275  1.00  0.00     0.064 A 
ATOM     63  C   UNL A   1      42.602  22.640  27.431  1.00  0.00     0.173 A 
ATOM     64  C   UNL A   1      43.792  24.239  26.138  1.00  0.00     0.173 A 
ATOM     65  F   UNL A   1      41.787  22.262  28.422  1.00  0.00    -0.203 F 
ATOM     66  C   UNL A   1      43.030  21.625  26.573  1.00  0.00     0.198 A 
ATOM     67  C   UNL A   1      44.264  23.215  25.310  1.00  0.00     0.198 A 
ATOM     68  F   UNL A   1      44.085  25.489  25.759  1.00  0.00    -0.203 F 
ATOM     69  F   UNL A   1      42.612  20.367  26.774  1.00  0.00    -0.200 F 
ATOM     70  C   UNL A   1      43.887  21.906  25.530  1.00  0.00     0.200 A 
ATOM     71  F   UNL A   1      45.084  23.510  24.290  1.00  0.00    -0.200 F 
ATOM     72  F   UNL A   1      44.326  20.928  24.729  1.00  0.00    -0.200 F 
ENDBRANCH  48  62
BRANCH  49  73
ATOM     73  C   UNL A   1      40.354  31.468  32.853  1.00  0.00     0.064 A 
ATOM     74  C   UNL A   1      40.139  32.860  32.778  1.00  0.00     0.173 A 
ATOM     75  C   UNL A   1      39.225  30.648  32.967  1.00  0.00     0.173 A 
ATOM     76  F   UNL A   1      41.189  33.692  32.673  1.00  0.00    -0.203 F 
ATOM     77  C   UNL A   1      38.857  33.392  32.658  1.00  0.00     0.198 A 
ATOM     78  C   UNL A   1      37.938  31.190  32.874  1.00  0.00     0.198 A 
ATOM     79  F   UNL A   1      39.358  29.316  33.028  1.00  0.00    -0.203 F 
ATOM     80  F   UNL A   1      38.696  34.706  32.442  1.00  0.00    -0.200 F 
ATOM     81  C   UNL A   1      37.758  32.552  32.672  1.00  0.00     0.200 A 
ATOM     82  F   UNL A   1      36.872  30.378  32.875  1.00  0.00    -0.200 F 
ATOM     83  F   UNL A   1      36.532  33.045  32.448  1.00  0.00    -0.200 F 
ENDBRANCH  49  73
BRANCH  61  84
ATOM     84  C   UNL A   1      44.725  25.627  33.417  1.00  0.00     0.064 A 
ATOM     85  C   UNL A   1      43.995  24.650  34.110  1.00  0.00     0.173 A 
ATOM     86  C   UNL A   1      46.131  25.397  33.377  1.00  0.00     0.173 A 
ATOM     87  F   UNL A   1      42.658  24.668  34.152  1.00  0.00    -0.203 F 
ATOM     88  C   UNL A   1      44.613  23.563  34.739  1.00  0.00     0.198 A 
ATOM     89  C   UNL A   1      46.734  24.275  33.941  1.00  0.00     0.198 A 
ATOM     90  F   UNL A   1      46.974  26.238  32.760  1.00  0.00    -0.203 F 
ATOM     91  F   UNL A   1      43.867  22.683  35.421  1.00  0.00    -0.200 F 
ATOM     92  C   UNL A   1      45.977  23.363  34.637  1.00  0.00     0.200 A 
ATOM     93  F   UNL A   1      48.050  24.076  33.781  1.00  0.00    -0.200 F 
ATOM     94  F   UNL A   1      46.553  22.288  35.189  1.00  0.00    -0.200 F 
ENDBRANCH  61  84
ENDBRANCH  35  36
ENDBRANCH  27  30
ENDBRANCH  25  26
ENDBRANCH  24  25
ENDBRANCH   1  24
TORSDOF 16
ENDMDL
MODEL 2
REMARK VINA RESULT:     -12.1      3.300      9.187
REMARK SMILES Cc1ccccc1C[C@H](CCSc1ccccc1)C(=O)NCCCNC(=O)c1ccc(-c2c3nc(c(-c4c(F)c(F)c(F)c(F)c4F)c4ccc([nH]4)c(-c4c(F)c(F)c(F)c(F)c4F)c4nc(c(-c5c(F)c(F)c(F)c(F)c5F)c5ccc2[nH]5)C=C4)C=C3)cc1
REMARK SMILES IDX 22 1 21 2 19 3 20 4 9 6 8 7 7 8 1 9 2 10 3 11 4 12 6 13 5 14
REMARK SMILES IDX 10 15 11 16 12 17 13 18 14 19 18 20 15 21 17 22 16 23 23 24
REMARK SMILES IDX 24 25 25 26 26 27 27 29 28 30 29 31 90 32 30 33 89 34 31 35
REMARK SMILES IDX 32 36 33 37 83 38 34 39 88 40 82 41 84 42 35 43 87 44 81 45
REMARK SMILES IDX 80 46 36 48 68 49 48 50 67 51 49 52 52 53 66 54 85 55 50 56
REMARK SMILES IDX 51 57 65 59 86 60 53 61 37 62 38 63 46 64 39 65 40 66 44 67
REMARK SMILES IDX 47 68 41 69 42 70 45 71 43 72 69 73 70 74 78 75 71 76 72 77
REMARK SMILES IDX 76 78 79 79 73 80 74 81 77 82 75 83 54 84 55 85 63 86 56 87
REMARK SMILES IDX 57 88 61 89 64 90 58 91 59 92 62 93 60 94
REMARK H PARENT 21 5 25 28 84 47 52 58
REMARK Flexibility Score: inf
ROOT
ATOM      1  C   UNL A   1      36.803  22.611  23.889  1.00  0.00     0.117 C 
ENDROOT
BRANCH   1   2
ATOM      2  N   UNL A   1      36.200  21.377  24.367  1.00  0.00    -0.356 N 
ATOM      3  C   UNL A   1      34.906  21.101  24.688  1.00  0.00     0.223 C 
ATOM      4  O   UNL A   1      34.638  19.939  25.008  1.00  0.00    -0.275 OA
ATOM      5  H   UNL A   1      36.825  20.624  24.478  1.00  0.00     0.163 HD
BRANCH   3   6
ATOM      6  C   UNL A   1      33.839  22.188  24.714  1.00  0.00     0.083 C 
BRANCH   6   7
ATOM      7  C   UNL A   1      33.619  22.883  26.080  1.00  0.00     0.049 C 
BRANCH   7   8
ATOM      8  C   UNL A   1      33.170  24.339  26.074  1.00  0.00    -0.044 A 
ATOM      9  C   UNL A   1      30.740  23.793  26.758  1.00  0.00     0.044 C 
ATOM     10  C   UNL A   1      31.846  24.736  26.367  1.00  0.00    -0.048 A 
ATOM     11  C   UNL A   1      31.526  26.110  26.405  1.00  0.00     0.004 A 
ATOM     12  C   UNL A   1      32.487  27.088  26.171  1.00  0.00     0.000 A 
ATOM     13  C   UNL A   1      34.126  25.356  25.875  1.00  0.00     0.004 A 
ATOM     14  C   UNL A   1      33.793  26.710  25.913  1.00  0.00     0.000 A 
ENDBRANCH   7   8
ENDBRANCH   6   7
BRANCH   6  15
ATOM     15  C   UNL A   1      32.569  21.592  24.053  1.00  0.00     0.025 C 
BRANCH  15  16
ATOM     16  C   UNL A   1      32.030  22.264  22.789  1.00  0.00     0.076 C 
BRANCH  16  17
ATOM     17  S   UNL A   1      33.237  23.345  21.948  1.00  0.00    -0.126 SA
BRANCH  17  18
ATOM     18  C   UNL A   1      32.592  24.959  22.325  1.00  0.00     0.007 A 
ATOM     19  C   UNL A   1      33.394  26.089  22.143  1.00  0.00     0.015 A 
ATOM     20  C   UNL A   1      31.261  25.124  22.715  1.00  0.00     0.015 A 
ATOM     21  C   UNL A   1      32.898  27.364  22.415  1.00  0.00     0.001 A 
ATOM     22  C   UNL A   1      30.749  26.404  22.946  1.00  0.00     0.001 A 
ATOM     23  C   UNL A   1      31.571  27.522  22.807  1.00  0.00     0.000 A 
ENDBRANCH  17  18
ENDBRANCH  16  17
ENDBRANCH  15  16
ENDBRANCH   6  15
ENDBRANCH   3   6
ENDBRANCH   1   2
BRANCH   1  24
ATOM     24  C   UNL A   1      37.589  23.327  24.971  1.00  0.00     0.042 C 
BRANCH  24  25
ATOM     25  C   UNL A   1      38.077  22.359  26.023  1.00  0.00     0.118 C 
BRANCH  25  26
ATOM     26  N   UNL A   1      39.521  22.269  26.150  1.00  0.00    -0.352 N 
ATOM     27  C   UNL A   1      40.466  23.266  26.336  1.00  0.00     0.251 C 
ATOM     28  H   UNL A   1      39.887  21.357  26.094  1.00  0.00     0.163 HD
ATOM     29  O   UNL A   1      41.649  22.977  26.259  1.00  0.00    -0.269 OA
BRANCH  27  30
ATOM     30  C   UNL A   1      40.063  24.629  26.788  1.00  0.00     0.039 A 
ATOM     31  C   UNL A   1      40.600  25.739  26.116  1.00  0.00     0.014 A 
ATOM     32  C   UNL A   1      39.378  24.829  27.975  1.00  0.00     0.014 A 
ATOM     33  C   UNL A   1      40.660  26.974  26.761  1.00  0.00     0.010 A 
ATOM     34  C   UNL A   1      39.620  25.967  28.695  1.00  0.00     0.010 A 
ATOM     35  C   UNL A   1      40.280  27.035  28.094  1.00  0.00    -0.014 A 
BRANCH  35  36
ATOM     36  C   UNL A   1      40.465  28.163  28.983  1.00  0.00     0.031 A 
ATOM     37  C   UNL A   1      39.441  29.227  28.987  1.00  0.00     0.074 A 
ATOM     38  C   UNL A   1      41.402  28.076  29.951  1.00  0.00     0.049 A 
ATOM     39  N   UNL A   1      39.606  30.378  29.534  1.00  0.00    -0.248 NA
ATOM     40  C   UNL A   1      38.128  29.078  28.364  1.00  0.00     0.031 C 
ATOM     41  C   UNL A   1      41.504  28.877  31.167  1.00  0.00     0.029 A 
ATOM     42  N   UNL A   1      42.589  27.324  29.934  1.00  0.00    -0.354 N 
ATOM     43  C   UNL A   1      38.381  30.999  29.588  1.00  0.00     0.074 A 
ATOM     44  C   UNL A   1      37.496  30.168  28.809  1.00  0.00     0.031 C 
ATOM     45  C   UNL A   1      42.773  28.841  31.602  1.00  0.00     0.029 A 
ATOM     46  C   UNL A   1      43.543  28.139  30.591  1.00  0.00     0.049 A 
ATOM     47  H   UNL A   1      42.727  26.428  29.549  1.00  0.00     0.167 HD
ATOM     48  C   UNL A   1      38.240  32.087  30.395  1.00  0.00     0.037 A 
ATOM     49  C   UNL A   1      44.593  28.675  29.903  1.00  0.00     0.037 A 
ATOM     50  C   UNL A   1      39.513  32.419  31.025  1.00  0.00     0.049 A 
ATOM     51  C   UNL A   1      44.612  30.186  29.908  1.00  0.00     0.074 A 
ATOM     52  C   UNL A   1      40.054  32.128  32.267  1.00  0.00     0.029 A 
ATOM     53  N   UNL A   1      40.570  32.833  30.223  1.00  0.00    -0.354 N 
ATOM     54  N   UNL A   1      43.563  30.930  30.136  1.00  0.00    -0.248 NA
ATOM     55  C   UNL A   1      45.813  30.980  29.672  1.00  0.00     0.031 C 
ATOM     56  C   UNL A   1      41.452  32.349  32.200  1.00  0.00     0.029 A 
ATOM     57  C   UNL A   1      41.757  32.793  30.925  1.00  0.00     0.049 A 
ATOM     58  H   UNL A   1      40.483  33.115  29.284  1.00  0.00     0.167 HD
ATOM     59  C   UNL A   1      43.916  32.257  30.098  1.00  0.00     0.074 A 
ATOM     60  C   UNL A   1      45.338  32.231  29.814  1.00  0.00     0.031 C 
ATOM     61  C   UNL A   1      42.993  33.248  30.307  1.00  0.00     0.037 A 
BRANCH  48  62
ATOM     62  C   UNL A   1      36.920  32.690  30.802  1.00  0.00     0.064 A 
ATOM     63  C   UNL A   1      36.230  33.566  29.934  1.00  0.00     0.173 A 
ATOM     64  C   UNL A   1      36.288  32.465  32.038  1.00  0.00     0.173 A 
ATOM     65  F   UNL A   1      36.669  33.814  28.694  1.00  0.00    -0.203 F 
ATOM     66  C   UNL A   1      35.060  34.228  30.309  1.00  0.00     0.198 A 
ATOM     67  C   UNL A   1      35.145  33.169  32.435  1.00  0.00     0.198 A 
ATOM     68  F   UNL A   1      36.721  31.518  32.880  1.00  0.00    -0.203 F 
ATOM     69  F   UNL A   1      34.452  35.047  29.439  1.00  0.00    -0.200 F 
ATOM     70  C   UNL A   1      34.534  34.055  31.572  1.00  0.00     0.200 A 
ATOM     71  F   UNL A   1      34.638  32.975  33.661  1.00  0.00    -0.200 F 
ATOM     72  F   UNL A   1      33.432  34.717  31.946  1.00  0.00    -0.200 F 
ENDBRANCH  48  62
BRANCH  49  73
ATOM     73  C   UNL A   1      45.047  27.789  28.795  1.00  0.00     0.064 A 
ATOM     74  C   UNL A   1      45.746  26.616  29.148  1.00  0.00     0.173 A 
ATOM     75  C   UNL A   1      44.436  27.819  27.535  1.00  0.00     0.173 A 
ATOM     76  F   UNL A   1      46.356  26.536  30.342  1.00  0.00    -0.203 F 
ATOM     77  C   UNL A   1      45.699  25.474  28.350  1.00  0.00     0.198 A 
ATOM     78  C   UNL A   1      44.415  26.678  26.726  1.00  0.00     0.198 A 
ATOM     79  F   UNL A   1      43.744  28.898  27.144  1.00  0.00    -0.203 F 
ATOM     80  F   UNL A   1      46.253  24.332  28.785  1.00  0.00    -0.200 F 
ATOM     81  C   UNL A   1      45.004  25.496  27.155  1.00  0.00     0.200 A 
ATOM     82  F   UNL A   1      43.732  26.692  25.572  1.00  0.00    -0.200 F 
ATOM     83  F   UNL A   1      44.863  24.372  26.438  1.00  0.00    -0.200 F 
ENDBRANCH  49  73
BRANCH  61  84
ATOM     84  C   UNL A   1      43.132  34.740  30.041  1.00  0.00     0.064 A 
ATOM     85  C   UNL A   1      43.374  35.712  31.023  1.00  0.00     0.173 A 
ATOM     86  C   UNL A   1      43.177  35.227  28.703  1.00  0.00     0.173 A 
ATOM     87  F   UNL A   1      43.466  35.396  32.319  1.00  0.00    -0.203 F 
ATOM     88  C   UNL A   1      43.603  37.055  30.701  1.00  0.00     0.198 A 
ATOM     89  C   UNL A   1      43.477  36.549  28.384  1.00  0.00     0.198 A 
ATOM     90  F   UNL A   1      42.961  34.429  27.646  1.00  0.00    -0.203 F 
ATOM     91  F   UNL A   1      43.788  37.947  31.685  1.00  0.00    -0.200 F 
ATOM     92  C   UNL A   1      43.676  37.470  29.386  1.00  0.00     0.200 A 
ATOM     93  F   UNL A   1      43.596  36.913  27.099  1.00  0.00    -0.200 F 
ATOM     94  F   UNL A   1      43.957  38.744  29.085  1.00  0.00    -0.200 F 
ENDBRANCH  61  84
ENDBRANCH  35  36
ENDBRANCH  27  30
ENDBRANCH  25  26
ENDBRANCH  24  25
ENDBRANCH   1  24
TORSDOF 16
ENDMDL
MODEL 3
REMARK VINA RESULT:     -12.0      3.484      9.354
REMARK SMILES Cc1ccccc1C[C@H](CCSc1ccccc1)C(=O)NCCCNC(=O)c1ccc(-c2c3nc(c(-c4c(F)c(F)c(F)c(F)c4F)c4ccc([nH]4)c(-c4c(F)c(F)c(F)c(F)c4F)c4nc(c(-c5c(F)c(F)c(F)c(F)c5F)c5ccc2[nH]5)C=C4)C=C3)cc1
REMARK SMILES IDX 22 1 21 2 19 3 20 4 9 6 8 7 7 8 1 9 2 10 3 11 4 12 6 13 5 14
REMARK SMILES IDX 10 15 11 16 12 17 13 18 14 19 18 20 15 21 17 22 16 23 23 24
REMARK SMILES IDX 24 25 25 26 26 27 27 29 28 30 29 31 90 32 30 33 89 34 31 35
REMARK SMILES IDX 32 36 33 37 83 38 34 39 88 40 82 41 84 42 35 43 87 44 81 45
REMARK SMILES IDX 80 46 36 48 68 49 48 50 67 51 49 52 52 53 66 54 85 55 50 56
REMARK SMILES IDX 51 57 65 59 86 60 53 61 37 62 38 63 46 64 39 65 40 66 44 67
REMARK SMILES IDX 47 68 41 69 42 70 45 71 43 72 69 73 70 74 78 75 71 76 72 77
REMARK SMILES IDX 76 78 79 79 73 80 74 81 77 82 75 83 54 84 55 85 63 86 56 87
REMARK SMILES IDX 57 88 61 89 64 90 58 91 59 92 62 93 60 94
REMARK H PARENT 21 5 25 28 84 47 52 58
REMARK Flexibility Score: inf
ROOT
ATOM      1  C   UNL A   1      36.737  22.763  23.792  1.00  0.00     0.117 C 
ENDROOT
BRANCH   1   2
ATOM      2  N   UNL A   1      35.991  21.643  24.343  1.00  0.00    -0.356 N 
ATOM      3  C   UNL A   1      34.680  21.554  24.699  1.00  0.00     0.223 C 
ATOM      4  O   UNL A   1      34.271  20.455  25.083  1.00  0.00    -0.275 OA
ATOM      5  H   UNL A   1      36.515  20.821  24.481  1.00  0.00     0.163 HD
BRANCH   3   6
ATOM      6  C   UNL A   1      33.764  22.772  24.687  1.00  0.00     0.083 C 
BRANCH   6   7
ATOM      7  C   UNL A   1      33.554  23.470  26.053  1.00  0.00     0.049 C 
BRANCH   7   8
ATOM      8  C   UNL A   1      33.072  24.915  26.048  1.00  0.00    -0.044 A 
ATOM      9  C   UNL A   1      30.607  24.298  26.507  1.00  0.00     0.044 C 
ATOM     10  C   UNL A   1      31.719  25.275  26.237  1.00  0.00    -0.048 A 
ATOM     11  C   UNL A   1      31.365  26.640  26.284  1.00  0.00     0.004 A 
ATOM     12  C   UNL A   1      32.318  27.645  26.159  1.00  0.00     0.000 A 
ATOM     13  C   UNL A   1      34.017  25.958  25.958  1.00  0.00     0.004 A 
ATOM     14  C   UNL A   1      33.650  27.303  26.004  1.00  0.00     0.000 A 
ENDBRANCH   7   8
ENDBRANCH   6   7
BRANCH   6  15
ATOM     15  C   UNL A   1      32.470  22.358  23.940  1.00  0.00     0.025 C 
BRANCH  15  16
ATOM     16  C   UNL A   1      31.857  23.350  22.951  1.00  0.00     0.076 C 
BRANCH  16  17
ATOM     17  S   UNL A   1      33.088  24.309  22.002  1.00  0.00    -0.126 SA
BRANCH  17  18
ATOM     18  C   UNL A   1      32.581  25.978  22.347  1.00  0.00     0.007 A 
ATOM     19  C   UNL A   1      33.518  27.014  22.302  1.00  0.00     0.015 A 
ATOM     20  C   UNL A   1      31.237  26.285  22.573  1.00  0.00     0.015 A 
ATOM     21  C   UNL A   1      33.134  28.331  22.552  1.00  0.00     0.001 A 
ATOM     22  C   UNL A   1      30.843  27.611  22.779  1.00  0.00     0.001 A 
ATOM     23  C   UNL A   1      31.794  28.631  22.780  1.00  0.00     0.000 A 
ENDBRANCH  17  18
ENDBRANCH  16  17
ENDBRANCH  15  16
ENDBRANCH   6  15
ENDBRANCH   3   6
ENDBRANCH   1   2
BRANCH   1  24
ATOM     24  C   UNL A   1      37.497  23.530  24.857  1.00  0.00     0.042 C 
BRANCH  24  25
ATOM     25  C   UNL A   1      37.702  22.689  26.095  1.00  0.00     0.118 C 
BRANCH  25  26
ATOM     26  N   UNL A   1      39.090  22.440  26.444  1.00  0.00    -0.352 N 
ATOM     27  C   UNL A   1      40.114  23.329  26.729  1.00  0.00     0.251 C 
ATOM     28  H   UNL A   1      39.343  21.490  26.483  1.00  0.00     0.163 HD
ATOM     29  O   UNL A   1      41.250  22.901  26.845  1.00  0.00    -0.269 OA
BRANCH  27  30
ATOM     30  C   UNL A   1      39.822  24.755  27.056  1.00  0.00     0.039 A 
ATOM     31  C   UNL A   1      40.419  25.754  26.271  1.00  0.00     0.014 A 
ATOM     32  C   UNL A   1      39.184  25.116  28.231  1.00  0.00     0.014 A 
ATOM     33  C   UNL A   1      40.584  27.037  26.793  1.00  0.00     0.010 A 
ATOM     34  C   UNL A   1      39.525  26.296  28.834  1.00  0.00     0.010 A 
ATOM     35  C   UNL A   1      40.244  27.251  28.121  1.00  0.00    -0.014 A 
BRANCH  35  36
ATOM     36  C   UNL A   1      40.533  28.441  28.894  1.00  0.00     0.031 A 
ATOM     37  C   UNL A   1      39.490  29.481  28.995  1.00  0.00     0.074 A 
ATOM     38  C   UNL A   1      41.614  28.441  29.702  1.00  0.00     0.049 A 
ATOM     39  N   UNL A   1      39.703  30.670  29.433  1.00  0.00    -0.248 NA
ATOM     40  C   UNL A   1      38.099  29.263  28.602  1.00  0.00     0.031 C 
ATOM     41  C   UNL A   1      41.884  29.325  30.831  1.00  0.00     0.029 A 
ATOM     42  N   UNL A   1      42.807  27.713  29.542  1.00  0.00    -0.354 N 
ATOM     43  C   UNL A   1      38.483  31.268  29.643  1.00  0.00     0.074 A 
ATOM     44  C   UNL A   1      37.513  30.367  29.071  1.00  0.00     0.031 C 
ATOM     45  C   UNL A   1      43.207  29.345  31.057  1.00  0.00     0.029 A 
ATOM     46  C   UNL A   1      43.827  28.591  29.983  1.00  0.00     0.049 A 
ATOM     47  H   UNL A   1      42.910  26.796  29.199  1.00  0.00     0.167 HD
ATOM     48  C   UNL A   1      38.438  32.405  30.390  1.00  0.00     0.037 A 
ATOM     49  C   UNL A   1      44.737  29.101  29.101  1.00  0.00     0.037 A 
ATOM     50  C   UNL A   1      39.785  32.806  30.784  1.00  0.00     0.049 A 
ATOM     51  C   UNL A   1      44.708  30.609  29.006  1.00  0.00     0.074 A 
ATOM     52  C   UNL A   1      40.526  32.612  31.939  1.00  0.00     0.029 A 
ATOM     53  N   UNL A   1      40.687  33.186  29.797  1.00  0.00    -0.354 N 
ATOM     54  N   UNL A   1      43.686  31.344  29.351  1.00  0.00    -0.248 NA
ATOM     55  C   UNL A   1      45.830  31.409  28.530  1.00  0.00     0.031 C 
ATOM     56  C   UNL A   1      41.888  32.858  31.634  1.00  0.00     0.029 A 
ATOM     57  C   UNL A   1      41.971  33.219  30.300  1.00  0.00     0.049 A 
ATOM     58  H   UNL A   1      40.442  33.401  28.868  1.00  0.00     0.167 HD
ATOM     59  C   UNL A   1      43.986  32.673  29.172  1.00  0.00     0.074 A 
ATOM     60  C   UNL A   1      45.345  32.657  28.665  1.00  0.00     0.031 C 
ATOM     61  C   UNL A   1      43.078  33.656  29.463  1.00  0.00     0.037 A 
BRANCH  48  62
ATOM     62  C   UNL A   1      37.182  33.007  30.965  1.00  0.00     0.064 A 
ATOM     63  C   UNL A   1      36.809  32.751  32.304  1.00  0.00     0.173 A 
ATOM     64  C   UNL A   1      36.290  33.826  30.250  1.00  0.00     0.173 A 
ATOM     65  F   UNL A   1      37.596  32.052  33.130  1.00  0.00    -0.203 F 
ATOM     66  C   UNL A   1      35.603  33.199  32.846  1.00  0.00     0.198 A 
ATOM     67  C   UNL A   1      35.058  34.231  30.776  1.00  0.00     0.198 A 
ATOM     68  F   UNL A   1      36.604  34.308  29.041  1.00  0.00    -0.203 F 
ATOM     69  F   UNL A   1      35.307  32.923  34.125  1.00  0.00    -0.200 F 
ATOM     70  C   UNL A   1      34.712  33.913  32.073  1.00  0.00     0.200 A 
ATOM     71  F   UNL A   1      34.211  34.938  30.014  1.00  0.00    -0.200 F 
ATOM     72  F   UNL A   1      33.539  34.312  32.581  1.00  0.00    -0.200 F 
ENDBRANCH  48  62
BRANCH  49  73
ATOM     73  C   UNL A   1      45.036  28.150  27.994  1.00  0.00     0.064 A 
ATOM     74  C   UNL A   1      45.747  26.976  28.321  1.00  0.00     0.173 A 
ATOM     75  C   UNL A   1      44.281  28.137  26.815  1.00  0.00     0.173 A 
ATOM     76  F   UNL A   1      46.492  26.937  29.438  1.00  0.00    -0.203 F 
ATOM     77  C   UNL A   1      45.580  25.799  27.594  1.00  0.00     0.198 A 
ATOM     78  C   UNL A   1      44.138  26.960  26.073  1.00  0.00     0.198 A 
ATOM     79  F   UNL A   1      43.570  29.215  26.454  1.00  0.00    -0.203 F 
ATOM     80  F   UNL A   1      46.156  24.665  28.018  1.00  0.00    -0.200 F 
ATOM     81  C   UNL A   1      44.748  25.784  26.490  1.00  0.00     0.200 A 
ATOM     82  F   UNL A   1      43.323  26.938  25.009  1.00  0.00    -0.200 F 
ATOM     83  F   UNL A   1      44.498  24.631  25.852  1.00  0.00    -0.200 F 
ENDBRANCH  49  73
BRANCH  61  84
ATOM     84  C   UNL A   1      43.125  35.129  29.082  1.00  0.00     0.064 A 
ATOM     85  C   UNL A   1      42.643  35.664  27.878  1.00  0.00     0.173 A 
ATOM     86  C   UNL A   1      43.540  36.102  30.037  1.00  0.00     0.173 A 
ATOM     87  F   UNL A   1      42.123  34.888  26.921  1.00  0.00    -0.203 F 
ATOM     88  C   UNL A   1      42.613  37.042  27.634  1.00  0.00     0.198 A 
ATOM     89  C   UNL A   1      43.440  37.474  29.818  1.00  0.00     0.198 A 
ATOM     90  F   UNL A   1      44.031  35.759  31.237  1.00  0.00    -0.203 F 
ATOM     91  F   UNL A   1      42.179  37.492  26.448  1.00  0.00    -0.200 F 
ATOM     92  C   UNL A   1      42.989  37.946  28.608  1.00  0.00     0.200 A 
ATOM     93  F   UNL A   1      43.760  38.329  30.799  1.00  0.00    -0.200 F 
ATOM     94  F   UNL A   1      42.899  39.264  28.389  1.00  0.00    -0.200 F 
ENDBRANCH  61  84
ENDBRANCH  35  36
ENDBRANCH  27  30
ENDBRANCH  25  26
ENDBRANCH  24  25
ENDBRANCH   1  24
TORSDOF 16
ENDMDL
