MODEL 1
REMARK VINA RESULT:     -13.3      0.000      0.000
REMARK SMILES O=C(NCCCNC(=O)[C@@H]1CC=CC[C@@H]1C(=O)Nc1ccc(O)cc1)c1ccc(-c2c3nc(c(-c4c(F)c(F)c(F)c(F)c4F)c4ccc([nH]4)c(-c4c(F)c(F)c(F)c(F)c4F)c4nc(c(-c5c(F)c(F)c(F)c(F)c5F)c5ccc2[nH]5)C=C4)C=C3)cc1
REMARK SMILES IDX 5 1 4 2 3 3 1 4 2 5 26 7 27 8 88 9 28 10 87 11 29 12 30 13
REMARK SMILES IDX 31 14 81 15 32 16 86 17 80 18 82 19 33 20 85 21 79 22 78 23
REMARK SMILES IDX 34 25 66 26 46 27 65 28 47 29 50 30 64 31 83 32 48 33 49 34
REMARK SMILES IDX 63 36 84 37 51 38 35 39 36 40 44 41 37 42 38 43 42 44 45 45
REMARK SMILES IDX 39 46 40 47 43 48 41 49 67 50 68 51 76 52 69 53 70 54 74 55
REMARK SMILES IDX 77 56 71 57 72 58 75 59 73 60 52 61 53 62 61 63 54 64 55 65
REMARK SMILES IDX 59 66 62 67 56 68 57 69 60 70 58 71 6 72 7 73 8 74 9 76
REMARK SMILES IDX 10 77 11 78 15 79 12 80 14 81 13 82 16 83 17 84 18 85 19 87
REMARK SMILES IDX 20 88 25 89 21 90 24 91 22 92 23 93
REMARK H PARENT 3 6 82 24 50 35 7 75 18 86 23 94
REMARK Flexibility Score: inf
ROOT
ATOM      1  C   UNL A   1      31.807  28.906  27.194  1.00  0.00     0.042 C 
ENDROOT
BRANCH   1   2
ATOM      2  C   UNL A   1      32.625  30.011  26.535  1.00  0.00     0.118 C 
BRANCH   2   3
ATOM      3  N   UNL A   1      32.428  31.363  27.055  1.00  0.00    -0.352 N 
ATOM      4  O   UNL A   1      33.013  33.342  27.987  1.00  0.00    -0.269 OA
ATOM      5  C   UNL A   1      33.354  32.222  27.618  1.00  0.00     0.251 C 
ATOM      6  H   UNL A   1      31.508  31.711  26.994  1.00  0.00     0.163 HD
BRANCH   5   7
ATOM      7  C   UNL A   1      34.737  31.746  27.847  1.00  0.00     0.039 A 
ATOM      8  C   UNL A   1      34.986  30.392  28.048  1.00  0.00     0.014 A 
ATOM      9  C   UNL A   1      35.770  32.674  28.001  1.00  0.00     0.014 A 
ATOM     10  C   UNL A   1      36.150  30.009  28.694  1.00  0.00     0.010 A 
ATOM     11  C   UNL A   1      37.003  32.259  28.518  1.00  0.00     0.010 A 
ATOM     12  C   UNL A   1      37.169  30.939  28.962  1.00  0.00    -0.014 A 
BRANCH  12  13
ATOM     13  C   UNL A   1      38.346  30.495  29.760  1.00  0.00     0.031 A 
ATOM     14  C   UNL A   1      38.453  30.812  31.233  1.00  0.00     0.074 A 
ATOM     15  C   UNL A   1      39.260  29.692  29.181  1.00  0.00     0.049 A 
ATOM     16  N   UNL A   1      39.376  30.447  32.090  1.00  0.00    -0.248 NA
ATOM     17  C   UNL A   1      37.402  31.656  31.822  1.00  0.00     0.031 C 
ATOM     18  C   UNL A   1      39.264  29.305  27.769  1.00  0.00     0.029 A 
ATOM     19  N   UNL A   1      40.322  29.005  29.713  1.00  0.00    -0.354 N 
ATOM     20  C   UNL A   1      39.048  31.062  33.293  1.00  0.00     0.074 A 
ATOM     21  C   UNL A   1      37.842  31.825  33.060  1.00  0.00     0.031 C 
ATOM     22  C   UNL A   1      40.204  28.372  27.569  1.00  0.00     0.029 A 
ATOM     23  C   UNL A   1      40.930  28.159  28.816  1.00  0.00     0.049 A 
ATOM     24  H   UNL A   1      40.620  29.108  30.646  1.00  0.00     0.167 HD
ATOM     25  C   UNL A   1      39.695  30.996  34.482  1.00  0.00     0.037 A 
ATOM     26  C   UNL A   1      41.960  27.309  28.974  1.00  0.00     0.037 A 
ATOM     27  C   UNL A   1      40.855  30.179  34.729  1.00  0.00     0.049 A 
ATOM     28  C   UNL A   1      42.627  27.216  30.313  1.00  0.00     0.074 A 
ATOM     29  C   UNL A   1      41.567  30.022  35.907  1.00  0.00     0.029 A 
ATOM     30  N   UNL A   1      41.463  29.366  33.785  1.00  0.00    -0.354 N 
ATOM     31  N   UNL A   1      42.320  27.827  31.432  1.00  0.00    -0.248 NA
ATOM     32  C   UNL A   1      43.795  26.332  30.409  1.00  0.00     0.031 C 
ATOM     33  C   UNL A   1      42.623  29.136  35.666  1.00  0.00     0.029 A 
ATOM     34  C   UNL A   1      42.546  28.711  34.350  1.00  0.00     0.049 A 
ATOM     35  H   UNL A   1      41.169  29.268  32.850  1.00  0.00     0.167 HD
ATOM     36  C   UNL A   1      43.255  27.404  32.364  1.00  0.00     0.074 A 
ATOM     37  C   UNL A   1      44.121  26.459  31.688  1.00  0.00     0.031 C 
ATOM     38  C   UNL A   1      43.393  27.775  33.660  1.00  0.00     0.037 A 
BRANCH  25  39
ATOM     39  C   UNL A   1      39.185  31.849  35.607  1.00  0.00     0.064 A 
ATOM     40  C   UNL A   1      38.318  31.348  36.590  1.00  0.00     0.173 A 
ATOM     41  C   UNL A   1      39.612  33.181  35.728  1.00  0.00     0.173 A 
ATOM     42  F   UNL A   1      37.869  30.086  36.513  1.00  0.00    -0.203 F 
ATOM     43  C   UNL A   1      37.886  32.153  37.641  1.00  0.00     0.198 A 
ATOM     44  C   UNL A   1      39.197  33.976  36.793  1.00  0.00     0.198 A 
ATOM     45  F   UNL A   1      40.444  33.709  34.817  1.00  0.00    -0.203 F 
ATOM     46  F   UNL A   1      37.029  31.665  38.550  1.00  0.00    -0.200 F 
ATOM     47  C   UNL A   1      38.331  33.464  37.747  1.00  0.00     0.200 A 
ATOM     48  F   UNL A   1      39.637  35.237  36.898  1.00  0.00    -0.200 F 
ATOM     49  F   UNL A   1      37.920  34.234  38.764  1.00  0.00    -0.200 F 
ENDBRANCH  25  39
BRANCH  26  50
ATOM     50  C   UNL A   1      42.414  26.483  27.826  1.00  0.00     0.064 A 
ATOM     51  C   UNL A   1      41.826  25.240  27.555  1.00  0.00     0.173 A 
ATOM     52  C   UNL A   1      43.416  26.937  26.955  1.00  0.00     0.173 A 
ATOM     53  F   UNL A   1      40.878  24.755  28.370  1.00  0.00    -0.203 F 
ATOM     54  C   UNL A   1      42.227  24.480  26.458  1.00  0.00     0.198 A 
ATOM     55  C   UNL A   1      43.792  26.190  25.841  1.00  0.00     0.198 A 
ATOM     56  F   UNL A   1      44.005  28.123  27.169  1.00  0.00    -0.203 F 
ATOM     57  F   UNL A   1      41.670  23.281  26.237  1.00  0.00    -0.200 F 
ATOM     58  C   UNL A   1      43.202  24.960  25.596  1.00  0.00     0.200 A 
ATOM     59  F   UNL A   1      44.720  26.669  25.001  1.00  0.00    -0.200 F 
ATOM     60  F   UNL A   1      43.572  24.239  24.530  1.00  0.00    -0.200 F 
ENDBRANCH  26  50
BRANCH  38  61
ATOM     61  C   UNL A   1      44.514  27.142  34.427  1.00  0.00     0.064 A 
ATOM     62  C   UNL A   1      44.339  25.927  35.105  1.00  0.00     0.173 A 
ATOM     63  C   UNL A   1      45.774  27.753  34.477  1.00  0.00     0.173 A 
ATOM     64  F   UNL A   1      43.145  25.316  35.099  1.00  0.00    -0.203 F 
ATOM     65  C   UNL A   1      45.382  25.360  35.831  1.00  0.00     0.198 A 
ATOM     66  C   UNL A   1      46.822  27.171  35.184  1.00  0.00     0.198 A 
ATOM     67  F   UNL A   1      45.989  28.914  33.840  1.00  0.00    -0.203 F 
ATOM     68  F   UNL A   1      45.181  24.223  36.512  1.00  0.00    -0.200 F 
ATOM     69  C   UNL A   1      46.622  25.979  35.867  1.00  0.00     0.200 A 
ATOM     70  F   UNL A   1      48.022  27.766  35.212  1.00  0.00    -0.200 F 
ATOM     71  F   UNL A   1      47.625  25.434  36.570  1.00  0.00    -0.200 F 
ENDBRANCH  38  61
ENDBRANCH  12  13
ENDBRANCH   5   7
ENDBRANCH   2   3
ENDBRANCH   1   2
BRANCH   1  72
ATOM     72  C   UNL A   1      32.376  27.534  26.899  1.00  0.00     0.117 C 
BRANCH  72  73
ATOM     73  N   UNL A   1      33.521  27.522  26.016  1.00  0.00    -0.356 N 
ATOM     74  C   UNL A   1      33.757  26.605  25.027  1.00  0.00     0.224 C 
ATOM     75  H   UNL A   1      34.190  28.234  26.137  1.00  0.00     0.163 HD
ATOM     76  O   UNL A   1      33.993  27.046  23.899  1.00  0.00    -0.275 OA
BRANCH  74  77
ATOM     77  C   UNL A   1      34.025  25.143  25.376  1.00  0.00     0.095 C 
ATOM     78  C   UNL A   1      34.634  24.318  24.225  1.00  0.00     0.041 C 
ATOM     79  C   UNL A   1      33.068  24.292  26.218  1.00  0.00     0.095 C 
ATOM     80  C   UNL A   1      35.140  22.982  24.695  1.00  0.00    -0.030 C 
ATOM     81  C   UNL A   1      33.983  23.213  26.899  1.00  0.00     0.041 C 
ATOM     82  C   UNL A   1      34.872  22.494  25.915  1.00  0.00    -0.030 C 
BRANCH  79  83
ATOM     83  C   UNL A   1      31.834  23.556  25.613  1.00  0.00     0.228 C 
ATOM     84  O   UNL A   1      31.544  22.416  26.009  1.00  0.00    -0.274 OA
ATOM     85  N   UNL A   1      30.832  24.158  24.908  1.00  0.00    -0.326 N 
ATOM     86  H   UNL A   1      29.957  23.735  25.065  1.00  0.00     0.169 HD
BRANCH  85  87
ATOM     87  C   UNL A   1      30.754  25.228  24.016  1.00  0.00     0.041 A 
ATOM     88  C   UNL A   1      31.314  25.198  22.747  1.00  0.00     0.030 A 
ATOM     89  C   UNL A   1      30.009  26.349  24.402  1.00  0.00     0.030 A 
ATOM     90  C   UNL A   1      31.277  26.327  21.924  1.00  0.00     0.048 A 
ATOM     91  C   UNL A   1      29.991  27.491  23.596  1.00  0.00     0.048 A 
ATOM     92  C   UNL A   1      30.652  27.480  22.375  1.00  0.00     0.115 A 
BRANCH  92  93
ATOM     93  O   UNL A   1      30.661  28.624  21.637  1.00  0.00    -0.508 OA
ATOM     94  H   UNL A   1      30.799  28.583  20.711  1.00  0.00     0.293 HD
ENDBRANCH  92  93
ENDBRANCH  85  87
ENDBRANCH  79  83
ENDBRANCH  74  77
ENDBRANCH  72  73
ENDBRANCH   1  72
TORSDOF 13
ENDMDL
MODEL 2
REMARK VINA RESULT:     -13.2      0.275      1.272
REMARK SMILES O=C(NCCCNC(=O)[C@@H]1CC=CC[C@@H]1C(=O)Nc1ccc(O)cc1)c1ccc(-c2c3nc(c(-c4c(F)c(F)c(F)c(F)c4F)c4ccc([nH]4)c(-c4c(F)c(F)c(F)c(F)c4F)c4nc(c(-c5c(F)c(F)c(F)c(F)c5F)c5ccc2[nH]5)C=C4)C=C3)cc1
REMARK SMILES IDX 5 1 4 2 3 3 1 4 2 5 26 7 27 8 88 9 28 10 87 11 29 12 30 13
REMARK SMILES IDX 31 14 81 15 32 16 86 17 80 18 82 19 33 20 85 21 79 22 78 23
REMARK SMILES IDX 34 25 66 26 46 27 65 28 47 29 50 30 64 31 83 32 48 33 49 34
REMARK SMILES IDX 63 36 84 37 51 38 35 39 36 40 44 41 37 42 38 43 42 44 45 45
REMARK SMILES IDX 39 46 40 47 43 48 41 49 67 50 68 51 76 52 69 53 70 54 74 55
REMARK SMILES IDX 77 56 71 57 72 58 75 59 73 60 52 61 53 62 61 63 54 64 55 65
REMARK SMILES IDX 59 66 62 67 56 68 57 69 60 70 58 71 6 72 7 73 8 74 9 76
REMARK SMILES IDX 10 77 11 78 15 79 12 80 14 81 13 82 16 83 17 84 18 85 19 87
REMARK SMILES IDX 20 88 25 89 21 90 24 91 22 92 23 93
REMARK H PARENT 3 6 82 24 50 35 7 75 18 86 23 94
REMARK Flexibility Score: inf
ROOT
ATOM      1  C   UNL A   1      31.753  28.958  27.138  1.00  0.00     0.042 C 
ENDROOT
BRANCH   1   2
ATOM      2  C   UNL A   1      32.622  30.045  26.513  1.00  0.00     0.118 C 
BRANCH   2   3
ATOM      3  N   UNL A   1      32.439  31.400  27.031  1.00  0.00    -0.352 N 
ATOM      4  O   UNL A   1      33.050  33.378  27.946  1.00  0.00    -0.269 OA
ATOM      5  C   UNL A   1      33.379  32.255  27.575  1.00  0.00     0.251 C 
ATOM      6  H   UNL A   1      31.521  31.751  26.986  1.00  0.00     0.163 HD
BRANCH   5   7
ATOM      7  C   UNL A   1      34.764  31.774  27.782  1.00  0.00     0.039 A 
ATOM      8  C   UNL A   1      35.009  30.421  27.991  1.00  0.00     0.014 A 
ATOM      9  C   UNL A   1      35.805  32.698  27.906  1.00  0.00     0.014 A 
ATOM     10  C   UNL A   1      36.183  30.037  28.619  1.00  0.00     0.010 A 
ATOM     11  C   UNL A   1      37.046  32.280  28.403  1.00  0.00     0.010 A 
ATOM     12  C   UNL A   1      37.213  30.964  28.857  1.00  0.00    -0.014 A 
BRANCH  12  13
ATOM     13  C   UNL A   1      38.403  30.520  29.636  1.00  0.00     0.031 A 
ATOM     14  C   UNL A   1      38.543  30.857  31.102  1.00  0.00     0.074 A 
ATOM     15  C   UNL A   1      39.298  29.702  29.050  1.00  0.00     0.049 A 
ATOM     16  N   UNL A   1      39.481  30.496  31.945  1.00  0.00    -0.248 NA
ATOM     17  C   UNL A   1      37.511  31.717  31.701  1.00  0.00     0.031 C 
ATOM     18  C   UNL A   1      39.269  29.296  27.643  1.00  0.00     0.029 A 
ATOM     19  N   UNL A   1      40.365  29.013  29.568  1.00  0.00    -0.354 N 
ATOM     20  C   UNL A   1      39.184  31.130  33.146  1.00  0.00     0.074 A 
ATOM     21  C   UNL A   1      37.979  31.899  32.928  1.00  0.00     0.031 C 
ATOM     22  C   UNL A   1      40.197  28.353  27.436  1.00  0.00     0.029 A 
ATOM     23  C   UNL A   1      40.947  28.151  28.670  1.00  0.00     0.049 A 
ATOM     24  H   UNL A   1      40.684  29.126  30.493  1.00  0.00     0.167 HD
ATOM     25  C   UNL A   1      39.855  31.074  34.322  1.00  0.00     0.037 A 
ATOM     26  C   UNL A   1      41.974  27.294  28.819  1.00  0.00     0.037 A 
ATOM     27  C   UNL A   1      41.013  30.251  34.556  1.00  0.00     0.049 A 
ATOM     28  C   UNL A   1      42.668  27.214  30.145  1.00  0.00     0.074 A 
ATOM     29  C   UNL A   1      41.748  30.104  35.720  1.00  0.00     0.029 A 
ATOM     30  N   UNL A   1      41.595  29.420  33.610  1.00  0.00    -0.354 N 
ATOM     31  N   UNL A   1      42.389  27.843  31.261  1.00  0.00    -0.248 NA
ATOM     32  C   UNL A   1      43.831  26.322  30.228  1.00  0.00     0.031 C 
ATOM     33  C   UNL A   1      42.792  29.206  35.469  1.00  0.00     0.029 A 
ATOM     34  C   UNL A   1      42.684  28.764  34.161  1.00  0.00     0.049 A 
ATOM     35  H   UNL A   1      41.280  29.312  32.683  1.00  0.00     0.167 HD
ATOM     36  C   UNL A   1      43.340  27.424  32.178  1.00  0.00     0.074 A 
ATOM     37  C   UNL A   1      44.184  26.463  31.498  1.00  0.00     0.031 C 
ATOM     38  C   UNL A   1      43.509  27.811  33.466  1.00  0.00     0.037 A 
BRANCH  25  39
ATOM     39  C   UNL A   1      39.375  31.947  35.445  1.00  0.00     0.064 A 
ATOM     40  C   UNL A   1      38.494  31.477  36.431  1.00  0.00     0.173 A 
ATOM     41  C   UNL A   1      39.847  33.264  35.563  1.00  0.00     0.173 A 
ATOM     42  F   UNL A   1      38.002  30.231  36.357  1.00  0.00    -0.203 F 
ATOM     43  C   UNL A   1      38.090  32.299  37.480  1.00  0.00     0.198 A 
ATOM     44  C   UNL A   1      39.461  34.075  36.626  1.00  0.00     0.198 A 
ATOM     45  F   UNL A   1      40.696  33.761  34.650  1.00  0.00    -0.203 F 
ATOM     46  F   UNL A   1      37.219  31.842  38.391  1.00  0.00    -0.200 F 
ATOM     47  C   UNL A   1      38.579  33.594  37.582  1.00  0.00     0.200 A 
ATOM     48  F   UNL A   1      39.944  35.320  36.728  1.00  0.00    -0.200 F 
ATOM     49  F   UNL A   1      38.196  34.380  38.598  1.00  0.00    -0.200 F 
ENDBRANCH  25  39
BRANCH  26  50
ATOM     50  C   UNL A   1      42.396  26.449  27.672  1.00  0.00     0.064 A 
ATOM     51  C   UNL A   1      43.385  26.885  26.781  1.00  0.00     0.173 A 
ATOM     52  C   UNL A   1      41.848  25.173  27.469  1.00  0.00     0.173 A 
ATOM     53  F   UNL A   1      43.925  28.104  26.923  1.00  0.00    -0.203 F 
ATOM     54  C   UNL A   1      43.806  26.078  25.725  1.00  0.00     0.198 A 
ATOM     55  C   UNL A   1      42.293  24.356  26.432  1.00  0.00     0.198 A 
ATOM     56  F   UNL A   1      40.902  24.709  28.299  1.00  0.00    -0.203 F 
ATOM     57  F   UNL A   1      44.733  26.529  24.869  1.00  0.00    -0.200 F 
ATOM     58  C   UNL A   1      43.268  24.811  25.559  1.00  0.00     0.200 A 
ATOM     59  F   UNL A   1      41.784  23.125  26.289  1.00  0.00    -0.200 F 
ATOM     60  F   UNL A   1      43.689  24.028  24.556  1.00  0.00    -0.200 F 
ENDBRANCH  26  50
BRANCH  38  61
ATOM     61  C   UNL A   1      44.640  27.179  34.219  1.00  0.00     0.064 A 
ATOM     62  C   UNL A   1      44.473  25.969  34.906  1.00  0.00     0.173 A 
ATOM     63  C   UNL A   1      45.903  27.787  34.244  1.00  0.00     0.173 A 
ATOM     64  F   UNL A   1      43.278  25.362  34.924  1.00  0.00    -0.203 F 
ATOM     65  C   UNL A   1      45.527  25.403  35.618  1.00  0.00     0.198 A 
ATOM     66  C   UNL A   1      46.961  27.206  34.937  1.00  0.00     0.198 A 
ATOM     67  F   UNL A   1      46.111  28.944  33.597  1.00  0.00    -0.203 F 
ATOM     68  F   UNL A   1      45.334  24.271  36.309  1.00  0.00    -0.200 F 
ATOM     69  C   UNL A   1      46.769  26.019  35.629  1.00  0.00     0.200 A 
ATOM     70  F   UNL A   1      48.162  27.798  34.942  1.00  0.00    -0.200 F 
ATOM     71  F   UNL A   1      47.781  25.475  36.319  1.00  0.00    -0.200 F 
ENDBRANCH  38  61
ENDBRANCH  12  13
ENDBRANCH   5   7
ENDBRANCH   2   3
ENDBRANCH   1   2
BRANCH   1  72
ATOM     72  C   UNL A   1      32.493  27.641  27.246  1.00  0.00     0.117 C 
BRANCH  72  73
ATOM     73  N   UNL A   1      33.613  27.491  26.343  1.00  0.00    -0.356 N 
ATOM     74  C   UNL A   1      33.722  26.547  25.357  1.00  0.00     0.224 C 
ATOM     75  H   UNL A   1      34.362  28.122  26.447  1.00  0.00     0.163 HD
ATOM     76  O   UNL A   1      33.987  26.951  24.222  1.00  0.00    -0.275 OA
BRANCH  74  77
ATOM     77  C   UNL A   1      33.826  25.066  25.714  1.00  0.00     0.095 C 
ATOM     78  C   UNL A   1      34.607  24.220  24.687  1.00  0.00     0.041 C 
ATOM     79  C   UNL A   1      32.668  24.266  26.320  1.00  0.00     0.095 C 
ATOM     80  C   UNL A   1      34.925  22.848  25.213  1.00  0.00    -0.030 C 
ATOM     81  C   UNL A   1      33.360  23.121  27.143  1.00  0.00     0.041 C 
ATOM     82  C   UNL A   1      34.385  22.361  26.340  1.00  0.00    -0.030 C 
BRANCH  79  83
ATOM     83  C   UNL A   1      31.542  23.619  25.458  1.00  0.00     0.228 C 
ATOM     84  O   UNL A   1      31.238  22.429  25.638  1.00  0.00    -0.274 OA
ATOM     85  N   UNL A   1      30.619  24.313  24.730  1.00  0.00    -0.326 N 
ATOM     86  H   UNL A   1      29.744  23.863  24.708  1.00  0.00     0.169 HD
BRANCH  85  87
ATOM     87  C   UNL A   1      30.622  25.506  24.007  1.00  0.00     0.041 A 
ATOM     88  C   UNL A   1      30.067  26.683  24.487  1.00  0.00     0.030 A 
ATOM     89  C   UNL A   1      31.286  25.524  22.774  1.00  0.00     0.030 A 
ATOM     90  C   UNL A   1      30.024  27.830  23.690  1.00  0.00     0.048 A 
ATOM     91  C   UNL A   1      31.224  26.658  21.960  1.00  0.00     0.048 A 
ATOM     92  C   UNL A   1      30.567  27.793  22.413  1.00  0.00     0.115 A 
BRANCH  92  93
ATOM     93  O   UNL A   1      30.477  28.864  21.577  1.00  0.00    -0.508 OA
ATOM     94  H   UNL A   1      30.278  29.712  21.921  1.00  0.00     0.293 HD
ENDBRANCH  92  93
ENDBRANCH  85  87
ENDBRANCH  79  83
ENDBRANCH  74  77
ENDBRANCH  72  73
ENDBRANCH   1  72
TORSDOF 13
ENDMDL
MODEL 3
REMARK VINA RESULT:     -13.0      0.565      7.307
REMARK SMILES O=C(NCCCNC(=O)[C@@H]1CC=CC[C@@H]1C(=O)Nc1ccc(O)cc1)c1ccc(-c2c3nc(c(-c4c(F)c(F)c(F)c(F)c4F)c4ccc([nH]4)c(-c4c(F)c(F)c(F)c(F)c4F)c4nc(c(-c5c(F)c(F)c(F)c(F)c5F)c5ccc2[nH]5)C=C4)C=C3)cc1
REMARK SMILES IDX 5 1 4 2 3 3 1 4 2 5 26 7 27 8 88 9 28 10 87 11 29 12 30 13
REMARK SMILES IDX 31 14 81 15 32 16 86 17 80 18 82 19 33 20 85 21 79 22 78 23
REMARK SMILES IDX 34 25 66 26 46 27 65 28 47 29 50 30 64 31 83 32 48 33 49 34
REMARK SMILES IDX 63 36 84 37 51 38 35 39 36 40 44 41 37 42 38 43 42 44 45 45
REMARK SMILES IDX 39 46 40 47 43 48 41 49 67 50 68 51 76 52 69 53 70 54 74 55
REMARK SMILES IDX 77 56 71 57 72 58 75 59 73 60 52 61 53 62 61 63 54 64 55 65
REMARK SMILES IDX 59 66 62 67 56 68 57 69 60 70 58 71 6 72 7 73 8 74 9 76
REMARK SMILES IDX 10 77 11 78 15 79 12 80 14 81 13 82 16 83 17 84 18 85 19 87
REMARK SMILES IDX 20 88 25 89 21 90 24 91 22 92 23 93
REMARK H PARENT 3 6 82 24 50 35 7 75 18 86 23 94
REMARK Flexibility Score: inf
ROOT
ATOM      1  C   UNL A   1      31.534  28.921  27.014  1.00  0.00     0.042 C 
ENDROOT
BRANCH   1   2
ATOM      2  C   UNL A   1      32.489  29.934  26.391  1.00  0.00     0.118 C 
BRANCH   2   3
ATOM      3  N   UNL A   1      32.371  31.313  26.862  1.00  0.00    -0.352 N 
ATOM      4  O   UNL A   1      33.062  33.271  27.763  1.00  0.00    -0.269 OA
ATOM      5  C   UNL A   1      33.333  32.118  27.442  1.00  0.00     0.251 C 
ATOM      6  H   UNL A   1      31.484  31.725  26.749  1.00  0.00     0.163 HD
BRANCH   5   7
ATOM      7  C   UNL A   1      34.665  31.549  27.748  1.00  0.00     0.039 A 
ATOM      8  C   UNL A   1      34.812  30.181  27.950  1.00  0.00     0.014 A 
ATOM      9  C   UNL A   1      35.747  32.406  27.972  1.00  0.00     0.014 A 
ATOM     10  C   UNL A   1      35.906  29.716  28.661  1.00  0.00     0.010 A 
ATOM     11  C   UNL A   1      36.917  31.906  28.557  1.00  0.00     0.010 A 
ATOM     12  C   UNL A   1      36.967  30.575  28.998  1.00  0.00    -0.014 A 
BRANCH  12  13
ATOM     13  C   UNL A   1      38.062  30.048  29.859  1.00  0.00     0.031 A 
ATOM     14  C   UNL A   1      39.161  29.187  29.282  1.00  0.00     0.074 A 
ATOM     15  C   UNL A   1      38.136  30.454  31.142  1.00  0.00     0.049 A 
ATOM     16  N   UNL A   1      40.224  28.699  29.876  1.00  0.00    -0.248 NA
ATOM     17  C   UNL A   1      39.054  28.812  27.864  1.00  0.00     0.031 C 
ATOM     18  C   UNL A   1      37.141  31.293  31.815  1.00  0.00     0.029 A 
ATOM     19  N   UNL A   1      39.111  30.276  32.090  1.00  0.00    -0.354 N 
ATOM     20  C   UNL A   1      40.871  27.918  28.925  1.00  0.00     0.074 A 
ATOM     21  C   UNL A   1      40.086  27.994  27.714  1.00  0.00     0.031 C 
ATOM     22  C   UNL A   1      37.605  31.645  33.021  1.00  0.00     0.029 A 
ATOM     23  C   UNL A   1      38.886  30.986  33.245  1.00  0.00     0.049 A 
ATOM     24  H   UNL A   1      39.895  29.695  31.956  1.00  0.00     0.167 HD
ATOM     25  C   UNL A   1      42.016  27.204  29.052  1.00  0.00     0.037 A 
ATOM     26  C   UNL A   1      39.624  31.092  34.365  1.00  0.00     0.037 A 
ATOM     27  C   UNL A   1      42.833  27.187  30.238  1.00  0.00     0.049 A 
ATOM     28  C   UNL A   1      40.913  30.332  34.461  1.00  0.00     0.074 A 
ATOM     29  C   UNL A   1      44.026  26.517  30.457  1.00  0.00     0.029 A 
ATOM     30  N   UNL A   1      42.552  27.889  31.400  1.00  0.00    -0.354 N 
ATOM     31  N   UNL A   1      41.494  29.576  33.562  1.00  0.00    -0.248 NA
ATOM     32  C   UNL A   1      41.638  30.422  35.735  1.00  0.00     0.031 C 
ATOM     33  C   UNL A   1      44.450  26.792  31.762  1.00  0.00     0.029 A 
ATOM     34  C   UNL A   1      43.543  27.663  32.342  1.00  0.00     0.049 A 
ATOM     35  H   UNL A   1      41.764  28.465  31.536  1.00  0.00     0.167 HD
ATOM     36  C   UNL A   1      42.651  29.100  34.158  1.00  0.00     0.074 A 
ATOM     37  C   UNL A   1      42.707  29.678  35.485  1.00  0.00     0.031 C 
ATOM     38  C   UNL A   1      43.579  28.249  33.656  1.00  0.00     0.037 A 
BRANCH  25  39
ATOM     39  C   UNL A   1      42.445  26.354  27.892  1.00  0.00     0.064 A 
ATOM     40  C   UNL A   1      41.988  25.038  27.721  1.00  0.00     0.173 A 
ATOM     41  C   UNL A   1      43.293  26.886  26.906  1.00  0.00     0.173 A 
ATOM     42  F   UNL A   1      41.188  24.478  28.641  1.00  0.00    -0.203 F 
ATOM     43  C   UNL A   1      42.378  24.283  26.617  1.00  0.00     0.198 A 
ATOM     44  C   UNL A   1      43.660  26.137  25.792  1.00  0.00     0.198 A 
ATOM     45  F   UNL A   1      43.755  28.140  27.019  1.00  0.00    -0.203 F 
ATOM     46  F   UNL A   1      41.958  23.016  26.493  1.00  0.00    -0.200 F 
ATOM     47  C   UNL A   1      43.207  24.834  25.650  1.00  0.00     0.200 A 
ATOM     48  F   UNL A   1      44.452  26.675  24.855  1.00  0.00    -0.200 F 
ATOM     49  F   UNL A   1      43.572  24.108  24.585  1.00  0.00    -0.200 F 
ENDBRANCH  25  39
BRANCH  26  50
ATOM     50  C   UNL A   1      39.152  31.958  35.476  1.00  0.00     0.064 A 
ATOM     51  C   UNL A   1      38.362  31.436  36.510  1.00  0.00     0.173 A 
ATOM     52  C   UNL A   1      39.512  33.312  35.547  1.00  0.00     0.173 A 
ATOM     53  F   UNL A   1      37.977  30.153  36.476  1.00  0.00    -0.203 F 
ATOM     54  C   UNL A   1      37.948  32.239  37.571  1.00  0.00     0.198 A 
ATOM     55  C   UNL A   1      39.123  34.104  36.624  1.00  0.00     0.198 A 
ATOM     56  F   UNL A   1      40.271  33.856  34.584  1.00  0.00    -0.203 F 
ATOM     57  F   UNL A   1      37.169  31.725  38.533  1.00  0.00    -0.200 F 
ATOM     58  C   UNL A   1      38.337  33.569  37.633  1.00  0.00     0.200 A 
ATOM     59  F   UNL A   1      39.520  35.382  36.689  1.00  0.00    -0.200 F 
ATOM     60  F   UNL A   1      37.955  34.335  38.664  1.00  0.00    -0.200 F 
ENDBRANCH  26  50
BRANCH  38  61
ATOM     61  C   UNL A   1      44.735  27.910  34.546  1.00  0.00     0.064 A 
ATOM     62  C   UNL A   1      44.699  26.797  35.398  1.00  0.00     0.173 A 
ATOM     63  C   UNL A   1      45.893  28.701  34.539  1.00  0.00     0.173 A 
ATOM     64  F   UNL A   1      43.605  26.022  35.451  1.00  0.00    -0.203 F 
ATOM     65  C   UNL A   1      45.771  26.504  36.235  1.00  0.00     0.198 A 
ATOM     66  C   UNL A   1      46.973  28.391  35.360  1.00  0.00     0.198 A 
ATOM     67  F   UNL A   1      45.975  29.773  33.738  1.00  0.00    -0.203 F 
ATOM     68  F   UNL A   1      45.697  25.464  37.077  1.00  0.00    -0.200 F 
ATOM     69  C   UNL A   1      46.908  27.298  36.212  1.00  0.00     0.200 A 
ATOM     70  F   UNL A   1      48.074  29.154  35.333  1.00  0.00    -0.200 F 
ATOM     71  F   UNL A   1      47.939  27.017  37.022  1.00  0.00    -0.200 F 
ENDBRANCH  38  61
ENDBRANCH  12  13
ENDBRANCH   5   7
ENDBRANCH   2   3
ENDBRANCH   1   2
BRANCH   1  72
ATOM     72  C   UNL A   1      32.209  27.587  27.254  1.00  0.00     0.117 C 
BRANCH  72  73
ATOM     73  N   UNL A   1      33.417  27.364  26.491  1.00  0.00    -0.356 N 
ATOM     74  C   UNL A   1      33.600  26.382  25.554  1.00  0.00     0.224 C 
ATOM     75  H   UNL A   1      34.174  27.971  26.660  1.00  0.00     0.163 HD
ATOM     76  O   UNL A   1      34.008  26.735  24.445  1.00  0.00    -0.275 OA
BRANCH  74  77
ATOM     77  C   UNL A   1      33.604  24.912  25.967  1.00  0.00     0.095 C 
ATOM     78  C   UNL A   1      34.476  24.005  25.074  1.00  0.00     0.041 C 
ATOM     79  C   UNL A   1      32.350  24.172  26.446  1.00  0.00     0.095 C 
ATOM     80  C   UNL A   1      34.674  22.643  25.679  1.00  0.00    -0.030 C 
ATOM     81  C   UNL A   1      32.889  23.035  27.385  1.00  0.00     0.041 C 
ATOM     82  C   UNL A   1      33.979  22.214  26.743  1.00  0.00    -0.030 C 
BRANCH  79  83
ATOM     83  C   UNL A   1      31.318  23.532  25.467  1.00  0.00     0.228 C 
ATOM     84  O   UNL A   1      31.011  22.336  25.594  1.00  0.00    -0.274 OA
ATOM     85  N   UNL A   1      30.461  24.231  24.667  1.00  0.00    -0.326 N 
ATOM     86  H   UNL A   1      29.597  23.774  24.553  1.00  0.00     0.169 HD
BRANCH  85  87
ATOM     87  C   UNL A   1      30.520  25.439  23.971  1.00  0.00     0.041 A 
ATOM     88  C   UNL A   1      29.917  26.604  24.424  1.00  0.00     0.030 A 
ATOM     89  C   UNL A   1      31.289  25.485  22.802  1.00  0.00     0.030 A 
ATOM     90  C   UNL A   1      29.937  27.766  23.648  1.00  0.00     0.048 A 
ATOM     91  C   UNL A   1      31.291  26.635  22.008  1.00  0.00     0.048 A 
ATOM     92  C   UNL A   1      30.589  27.757  22.424  1.00  0.00     0.115 A 
BRANCH  92  93
ATOM     93  O   UNL A   1      30.566  28.845  21.604  1.00  0.00    -0.508 OA
ATOM     94  H   UNL A   1      30.172  28.784  20.756  1.00  0.00     0.293 HD
ENDBRANCH  92  93
ENDBRANCH  85  87
ENDBRANCH  79  83
ENDBRANCH  74  77
ENDBRANCH  72  73
ENDBRANCH   1  72
TORSDOF 13
ENDMDL
