MODEL 1
REMARK VINA RESULT:     -11.7      0.000      0.000
REMARK SMILES [NH3+][C@@H](CCS[C@@H]1CCO[C@@]2(CCOC2)C1)C(=O)NCCCNC(=O)c1ccc(-c2c3nc(c(-c4c(F)c(F)c(F)c(F)c4F)c4ccc([nH]4)c(-c4c(F)c(F)c(F)c(F)c4F)c4nc(c(-c5c(F)c(F)c(F)c(F)c5F)c5ccc2[nH]5)C=C4)C=C3)cc1
REMARK SMILES IDX 19 1 18 2 16 3 17 4 2 6 1 7 3 11 4 12 5 13 6 14 7 15 15 16
REMARK SMILES IDX 8 17 10 18 9 19 11 20 14 21 12 22 13 23 20 24 21 25 22 26
REMARK SMILES IDX 23 27 24 29 25 30 26 31 87 32 27 33 86 34 28 35 29 36 30 37
REMARK SMILES IDX 80 38 31 39 85 40 79 41 81 42 32 43 84 44 78 45 77 46 33 48
REMARK SMILES IDX 65 49 45 50 64 51 46 52 49 53 63 54 82 55 47 56 48 57 62 59
REMARK SMILES IDX 83 60 50 61 34 62 35 63 43 64 36 65 37 66 41 67 44 68 38 69
REMARK SMILES IDX 39 70 42 71 40 72 66 73 67 74 75 75 68 76 69 77 73 78 76 79
REMARK SMILES IDX 70 80 71 81 74 82 72 83 51 84 52 85 60 86 53 87 54 88 58 89
REMARK SMILES IDX 61 90 55 91 56 92 59 93 57 94
REMARK H PARENT 18 5 1 8 1 9 1 10 22 28 81 47 49 58
REMARK Flexibility Score: inf
ROOT
ATOM      1  C   UNL A   1      32.058  27.765  23.683  1.00  0.00     0.118 C 
ENDROOT
BRANCH   1   2
ATOM      2  N   UNL A   1      32.476  26.592  22.925  1.00  0.00    -0.351 N 
ATOM      3  C   UNL A   1      33.467  25.660  23.051  1.00  0.00     0.278 C 
ATOM      4  O   UNL A   1      33.805  24.956  22.095  1.00  0.00    -0.268 OA
ATOM      5  H   UNL A   1      31.908  26.434  22.136  1.00  0.00     0.163 HD
BRANCH   3   6
ATOM      6  C   UNL A   1      33.892  25.189  24.401  1.00  0.00     0.271 C 
BRANCH   6   7
ATOM      7  N   UNL A   1      32.773  24.538  25.098  1.00  0.00    -0.347 N 
ATOM      8  H   UNL A   1      32.568  23.645  24.651  1.00  0.00     0.345 HD
ATOM      9  H   UNL A   1      31.948  25.139  25.052  1.00  0.00     0.345 HD
ATOM     10  H   UNL A   1      33.025  24.380  26.074  1.00  0.00     0.345 HD
ENDBRANCH   6   7
BRANCH   6  11
ATOM     11  C   UNL A   1      35.189  24.384  24.227  1.00  0.00     0.086 C 
BRANCH  11  12
ATOM     12  C   UNL A   1      35.848  23.701  25.479  1.00  0.00     0.076 C 
BRANCH  12  13
ATOM     13  S   UNL A   1      35.264  22.073  26.159  1.00  0.00    -0.158 SA
BRANCH  13  14
ATOM     14  C   UNL A   1      34.679  20.654  24.928  1.00  0.00     0.052 C 
ATOM     15  C   UNL A   1      33.424  21.221  24.235  1.00  0.00     0.043 C 
ATOM     16  C   UNL A   1      34.771  19.083  24.769  1.00  0.00     0.052 C 
ATOM     17  C   UNL A   1      32.263  20.252  24.130  1.00  0.00     0.162 C 
ATOM     18  C   UNL A   1      33.490  18.242  24.455  1.00  0.00     0.095 C 
ATOM     19  O   UNL A   1      32.675  19.013  23.569  1.00  0.00    -0.372 OA
ATOM     20  C   UNL A   1      33.842  16.941  23.711  1.00  0.00     0.066 C 
ATOM     21  C   UNL A   1      32.673  17.631  25.616  1.00  0.00     0.195 C 
ATOM     22  C   UNL A   1      33.819  15.826  24.734  1.00  0.00     0.163 C 
ATOM     23  O   UNL A   1      33.050  16.265  25.836  1.00  0.00    -0.378 OA
ENDBRANCH  13  14
ENDBRANCH  12  13
ENDBRANCH  11  12
ENDBRANCH   6  11
ENDBRANCH   3   6
ENDBRANCH   1   2
BRANCH   1  24
ATOM     24  C   UNL A   1      33.213  28.785  23.829  1.00  0.00     0.042 C 
BRANCH  24  25
ATOM     25  C   UNL A   1      33.653  29.186  25.251  1.00  0.00     0.118 C 
BRANCH  25  26
ATOM     26  N   UNL A   1      32.835  30.143  25.959  1.00  0.00    -0.352 N 
ATOM     27  C   UNL A   1      33.217  31.058  26.927  1.00  0.00     0.251 C 
ATOM     28  H   UNL A   1      31.879  30.147  25.723  1.00  0.00     0.163 HD
ATOM     29  O   UNL A   1      32.445  31.937  27.265  1.00  0.00    -0.269 OA
BRANCH  27  30
ATOM     30  C   UNL A   1      34.524  30.939  27.635  1.00  0.00     0.039 A 
ATOM     31  C   UNL A   1      34.765  29.738  28.307  1.00  0.00     0.014 A 
ATOM     32  C   UNL A   1      35.470  31.967  27.715  1.00  0.00     0.014 A 
ATOM     33  C   UNL A   1      35.962  29.544  29.007  1.00  0.00     0.010 A 
ATOM     34  C   UNL A   1      36.693  31.754  28.384  1.00  0.00     0.010 A 
ATOM     35  C   UNL A   1      36.957  30.537  29.036  1.00  0.00    -0.014 A 
BRANCH  35  36
ATOM     36  C   UNL A   1      38.249  30.238  29.732  1.00  0.00     0.031 A 
ATOM     37  C   UNL A   1      38.534  30.724  31.129  1.00  0.00     0.074 A 
ATOM     38  C   UNL A   1      39.163  29.453  29.123  1.00  0.00     0.049 A 
ATOM     39  N   UNL A   1      39.506  30.378  31.943  1.00  0.00    -0.248 NA
ATOM     40  C   UNL A   1      37.627  31.738  31.681  1.00  0.00     0.031 C 
ATOM     41  C   UNL A   1      39.065  28.958  27.750  1.00  0.00     0.029 A 
ATOM     42  N   UNL A   1      40.340  28.911  29.587  1.00  0.00    -0.354 N 
ATOM     43  C   UNL A   1      39.317  31.116  33.104  1.00  0.00     0.074 A 
ATOM     44  C   UNL A   1      38.175  31.976  32.866  1.00  0.00     0.031 C 
ATOM     45  C   UNL A   1      40.103  28.145  27.500  1.00  0.00     0.029 A 
ATOM     46  C   UNL A   1      40.952  28.068  28.687  1.00  0.00     0.049 A 
ATOM     47  H   UNL A   1      40.709  29.107  30.478  1.00  0.00     0.167 HD
ATOM     48  C   UNL A   1      40.008  31.067  34.271  1.00  0.00     0.037 A 
ATOM     49  C   UNL A   1      42.051  27.298  28.808  1.00  0.00     0.037 A 
ATOM     50  C   UNL A   1      41.147  30.216  34.520  1.00  0.00     0.049 A 
ATOM     51  C   UNL A   1      42.793  27.248  30.118  1.00  0.00     0.074 A 
ATOM     52  C   UNL A   1      41.870  30.063  35.692  1.00  0.00     0.029 A 
ATOM     53  N   UNL A   1      41.739  29.387  33.581  1.00  0.00    -0.354 N 
ATOM     54  N   UNL A   1      42.531  27.863  31.244  1.00  0.00    -0.248 NA
ATOM     55  C   UNL A   1      43.975  26.374  30.175  1.00  0.00     0.031 C 
ATOM     56  C   UNL A   1      42.928  29.180  35.448  1.00  0.00     0.029 A 
ATOM     57  C   UNL A   1      42.832  28.739  34.139  1.00  0.00     0.049 A 
ATOM     58  H   UNL A   1      41.430  29.274  32.653  1.00  0.00     0.167 HD
ATOM     59  C   UNL A   1      43.494  27.432  32.147  1.00  0.00     0.074 A 
ATOM     60  C   UNL A   1      44.332  26.482  31.447  1.00  0.00     0.031 C 
ATOM     61  C   UNL A   1      43.667  27.794  33.443  1.00  0.00     0.037 A 
BRANCH  48  62
ATOM     62  C   UNL A   1      39.544  31.957  35.391  1.00  0.00     0.064 A 
ATOM     63  C   UNL A   1      40.003  33.277  35.516  1.00  0.00     0.173 A 
ATOM     64  C   UNL A   1      38.587  31.508  36.315  1.00  0.00     0.173 A 
ATOM     65  F   UNL A   1      40.919  33.756  34.660  1.00  0.00    -0.203 F 
ATOM     66  C   UNL A   1      39.548  34.103  36.541  1.00  0.00     0.198 A 
ATOM     67  C   UNL A   1      38.111  32.347  37.320  1.00  0.00     0.198 A 
ATOM     68  F   UNL A   1      38.101  30.260  36.234  1.00  0.00    -0.203 F 
ATOM     69  F   UNL A   1      40.037  35.345  36.665  1.00  0.00    -0.200 F 
ATOM     70  C   UNL A   1      38.598  33.640  37.437  1.00  0.00     0.200 A 
ATOM     71  F   UNL A   1      37.179  31.904  38.175  1.00  0.00    -0.200 F 
ATOM     72  F   UNL A   1      38.154  34.439  38.417  1.00  0.00    -0.200 F 
ENDBRANCH  48  62
BRANCH  49  73
ATOM     73  C   UNL A   1      42.499  26.460  27.663  1.00  0.00     0.064 A 
ATOM     74  C   UNL A   1      43.483  26.914  26.772  1.00  0.00     0.173 A 
ATOM     75  C   UNL A   1      41.934  25.199  27.421  1.00  0.00     0.173 A 
ATOM     76  F   UNL A   1      44.035  28.123  26.945  1.00  0.00    -0.203 F 
ATOM     77  C   UNL A   1      43.866  26.150  25.672  1.00  0.00     0.198 A 
ATOM     78  C   UNL A   1      42.341  24.424  26.338  1.00  0.00     0.198 A 
ATOM     79  F   UNL A   1      40.990  24.718  28.243  1.00  0.00    -0.203 F 
ATOM     80  F   UNL A   1      44.770  26.633  24.806  1.00  0.00    -0.200 F 
ATOM     81  C   UNL A   1      43.300  24.903  25.458  1.00  0.00     0.200 A 
ATOM     82  F   UNL A   1      41.799  23.213  26.141  1.00  0.00    -0.200 F 
ATOM     83  F   UNL A   1      43.668  24.170  24.400  1.00  0.00    -0.200 F 
ENDBRANCH  49  73
BRANCH  61  84
ATOM     84  C   UNL A   1      44.791  27.138  34.199  1.00  0.00     0.064 A 
ATOM     85  C   UNL A   1      44.608  25.938  34.905  1.00  0.00     0.173 A 
ATOM     86  C   UNL A   1      46.071  27.713  34.211  1.00  0.00     0.173 A 
ATOM     87  F   UNL A   1      43.402  25.351  34.937  1.00  0.00    -0.203 F 
ATOM     88  C   UNL A   1      45.652  25.362  35.625  1.00  0.00     0.198 A 
ATOM     89  C   UNL A   1      47.122  27.117  34.905  1.00  0.00     0.198 A 
ATOM     90  F   UNL A   1      46.307  28.856  33.548  1.00  0.00    -0.203 F 
ATOM     91  F   UNL A   1      45.436  24.250  36.342  1.00  0.00    -0.200 F 
ATOM     92  C   UNL A   1      46.909  25.949  35.621  1.00  0.00     0.200 A 
ATOM     93  F   UNL A   1      48.339  27.678  34.889  1.00  0.00    -0.200 F 
ATOM     94  F   UNL A   1      47.911  25.395  36.317  1.00  0.00    -0.200 F 
ENDBRANCH  61  84
ENDBRANCH  35  36
ENDBRANCH  27  30
ENDBRANCH  25  26
ENDBRANCH  24  25
ENDBRANCH   1  24
TORSDOF 15
ENDMDL
MODEL 2
REMARK VINA RESULT:     -11.7      3.548      5.492
REMARK SMILES [NH3+][C@@H](CCS[C@@H]1CCO[C@@]2(CCOC2)C1)C(=O)NCCCNC(=O)c1ccc(-c2c3nc(c(-c4c(F)c(F)c(F)c(F)c4F)c4ccc([nH]4)c(-c4c(F)c(F)c(F)c(F)c4F)c4nc(c(-c5c(F)c(F)c(F)c(F)c5F)c5ccc2[nH]5)C=C4)C=C3)cc1
REMARK SMILES IDX 19 1 18 2 16 3 17 4 2 6 1 7 3 11 4 12 5 13 6 14 7 15 15 16
REMARK SMILES IDX 8 17 10 18 9 19 11 20 14 21 12 22 13 23 20 24 21 25 22 26
REMARK SMILES IDX 23 27 24 29 25 30 26 31 87 32 27 33 86 34 28 35 29 36 30 37
REMARK SMILES IDX 80 38 31 39 85 40 79 41 81 42 32 43 84 44 78 45 77 46 33 48
REMARK SMILES IDX 65 49 45 50 64 51 46 52 49 53 63 54 82 55 47 56 48 57 62 59
REMARK SMILES IDX 83 60 50 61 34 62 35 63 43 64 36 65 37 66 41 67 44 68 38 69
REMARK SMILES IDX 39 70 42 71 40 72 66 73 67 74 75 75 68 76 69 77 73 78 76 79
REMARK SMILES IDX 70 80 71 81 74 82 72 83 51 84 52 85 60 86 53 87 54 88 58 89
REMARK SMILES IDX 61 90 55 91 56 92 59 93 57 94
REMARK H PARENT 18 5 1 8 1 9 1 10 22 28 81 47 49 58
REMARK Flexibility Score: inf
ROOT
ATOM      1  C   UNL A   1      31.460  30.803  26.134  1.00  0.00     0.118 C 
ENDROOT
BRANCH   1   2
ATOM      2  N   UNL A   1      32.786  30.237  26.348  1.00  0.00    -0.351 N 
ATOM      3  C   UNL A   1      33.430  29.100  25.947  1.00  0.00     0.278 C 
ATOM      4  O   UNL A   1      34.440  28.699  26.532  1.00  0.00    -0.268 OA
ATOM      5  H   UNL A   1      33.352  30.809  26.916  1.00  0.00     0.163 HD
BRANCH   3   6
ATOM      6  C   UNL A   1      33.188  28.536  24.587  1.00  0.00     0.271 C 
BRANCH   6   7
ATOM      7  N   UNL A   1      34.255  28.942  23.661  1.00  0.00    -0.347 N 
ATOM      8  H   UNL A   1      35.132  29.035  24.173  1.00  0.00     0.345 HD
ATOM      9  H   UNL A   1      34.014  29.837  23.235  1.00  0.00     0.345 HD
ATOM     10  H   UNL A   1      34.361  28.236  22.932  1.00  0.00     0.345 HD
ENDBRANCH   6   7
BRANCH   6  11
ATOM     11  C   UNL A   1      32.916  27.033  24.747  1.00  0.00     0.086 C 
BRANCH  11  12
ATOM     12  C   UNL A   1      32.322  26.222  23.540  1.00  0.00     0.076 C 
BRANCH  12  13
ATOM     13  S   UNL A   1      30.825  26.783  22.592  1.00  0.00    -0.158 SA
BRANCH  13  14
ATOM     14  C   UNL A   1      29.742  28.278  23.273  1.00  0.00     0.052 C 
ATOM     15  C   UNL A   1      28.343  27.679  23.516  1.00  0.00     0.043 C 
ATOM     16  C   UNL A   1      29.695  29.858  23.211  1.00  0.00     0.052 C 
ATOM     17  C   UNL A   1      27.191  28.531  23.020  1.00  0.00     0.162 C 
ATOM     18  C   UNL A   1      28.357  30.599  22.880  1.00  0.00     0.095 C 
ATOM     19  O   UNL A   1      27.295  29.866  23.498  1.00  0.00    -0.372 OA
ATOM     20  C   UNL A   1      28.332  32.012  23.492  1.00  0.00     0.066 C 
ATOM     21  C   UNL A   1      28.032  30.974  21.416  1.00  0.00     0.195 C 
ATOM     22  C   UNL A   1      28.661  32.981  22.378  1.00  0.00     0.163 C 
ATOM     23  O   UNL A   1      28.404  32.333  21.148  1.00  0.00    -0.378 OA
ENDBRANCH  13  14
ENDBRANCH  12  13
ENDBRANCH  11  12
ENDBRANCH   6  11
ENDBRANCH   3   6
ENDBRANCH   1   2
BRANCH   1  24
ATOM     24  C   UNL A   1      31.403  32.289  26.563  1.00  0.00     0.042 C 
BRANCH  24  25
ATOM     25  C   UNL A   1      32.667  32.914  27.186  1.00  0.00     0.118 C 
BRANCH  25  26
ATOM     26  N   UNL A   1      32.515  34.163  27.896  1.00  0.00    -0.352 N 
ATOM     27  C   UNL A   1      33.401  34.777  28.766  1.00  0.00     0.251 C 
ATOM     28  H   UNL A   1      31.669  34.643  27.741  1.00  0.00     0.163 HD
ATOM     29  O   UNL A   1      33.210  35.930  29.109  1.00  0.00    -0.269 OA
BRANCH  27  30
ATOM     30  C   UNL A   1      34.541  34.028  29.369  1.00  0.00     0.039 A 
ATOM     31  C   UNL A   1      35.825  34.441  29.004  1.00  0.00     0.014 A 
ATOM     32  C   UNL A   1      34.395  32.916  30.206  1.00  0.00     0.014 A 
ATOM     33  C   UNL A   1      36.953  33.788  29.514  1.00  0.00     0.010 A 
ATOM     34  C   UNL A   1      35.533  32.287  30.752  1.00  0.00     0.010 A 
ATOM     35  C   UNL A   1      36.828  32.718  30.416  1.00  0.00    -0.014 A 
BRANCH  35  36
ATOM     36  C   UNL A   1      38.072  32.114  30.990  1.00  0.00     0.031 A 
ATOM     37  C   UNL A   1      38.558  32.450  32.376  1.00  0.00     0.074 A 
ATOM     38  C   UNL A   1      38.748  31.186  30.278  1.00  0.00     0.049 A 
ATOM     39  N   UNL A   1      39.489  31.862  33.092  1.00  0.00    -0.248 NA
ATOM     40  C   UNL A   1      37.935  33.602  33.039  1.00  0.00     0.031 C 
ATOM     41  C   UNL A   1      38.444  30.799  28.901  1.00  0.00     0.029 A 
ATOM     42  N   UNL A   1      39.810  30.381  30.622  1.00  0.00    -0.354 N 
ATOM     43  C   UNL A   1      39.549  32.559  34.292  1.00  0.00     0.074 A 
ATOM     44  C   UNL A   1      38.606  33.654  34.182  1.00  0.00     0.031 C 
ATOM     45  C   UNL A   1      39.260  29.798  28.535  1.00  0.00     0.029 A 
ATOM     46  C   UNL A   1      40.157  29.479  29.644  1.00  0.00     0.049 A 
ATOM     47  H   UNL A   1      40.277  30.446  31.486  1.00  0.00     0.167 HD
ATOM     48  C   UNL A   1      40.297  32.300  35.394  1.00  0.00     0.037 A 
ATOM     49  C   UNL A   1      41.070  28.487  29.643  1.00  0.00     0.037 A 
ATOM     50  C   UNL A   1      41.240  31.214  35.516  1.00  0.00     0.049 A 
ATOM     51  C   UNL A   1      41.877  28.209  30.883  1.00  0.00     0.074 A 
ATOM     52  C   UNL A   1      41.997  30.847  36.617  1.00  0.00     0.029 A 
ATOM     53  N   UNL A   1      41.569  30.331  34.500  1.00  0.00    -0.354 N 
ATOM     54  N   UNL A   1      41.838  28.803  32.050  1.00  0.00    -0.248 NA
ATOM     55  C   UNL A   1      42.843  27.101  30.810  1.00  0.00     0.031 C 
ATOM     56  C   UNL A   1      42.818  29.773  36.252  1.00  0.00     0.029 A 
ATOM     57  C   UNL A   1      42.533  29.435  34.941  1.00  0.00     0.049 A 
ATOM     58  H   UNL A   1      41.175  30.337  33.598  1.00  0.00     0.167 HD
ATOM     59  C   UNL A   1      42.749  28.128  32.853  1.00  0.00     0.074 A 
ATOM     60  C   UNL A   1      43.307  27.062  32.050  1.00  0.00     0.031 C 
ATOM     61  C   UNL A   1      43.090  28.373  34.143  1.00  0.00     0.037 A 
BRANCH  48  62
ATOM     62  C   UNL A   1      40.120  33.206  36.582  1.00  0.00     0.064 A 
ATOM     63  C   UNL A   1      39.114  32.979  37.533  1.00  0.00     0.173 A 
ATOM     64  C   UNL A   1      41.001  34.276  36.806  1.00  0.00     0.173 A 
ATOM     65  F   UNL A   1      38.244  31.971  37.366  1.00  0.00    -0.203 F 
ATOM     66  C   UNL A   1      38.974  33.807  38.644  1.00  0.00     0.198 A 
ATOM     67  C   UNL A   1      40.877  35.083  37.935  1.00  0.00     0.198 A 
ATOM     68  F   UNL A   1      41.992  34.530  35.938  1.00  0.00    -0.203 F 
ATOM     69  F   UNL A   1      37.975  33.595  39.513  1.00  0.00    -0.200 F 
ATOM     70  C   UNL A   1      39.859  34.853  38.848  1.00  0.00     0.200 A 
ATOM     71  F   UNL A   1      41.746  36.084  38.140  1.00  0.00    -0.200 F 
ATOM     72  F   UNL A   1      39.729  35.643  39.922  1.00  0.00    -0.200 F 
ENDBRANCH  48  62
BRANCH  49  73
ATOM     73  C   UNL A   1      41.240  27.636  28.433  1.00  0.00     0.064 A 
ATOM     74  C   UNL A   1      42.215  27.932  27.470  1.00  0.00     0.173 A 
ATOM     75  C   UNL A   1      40.415  26.525  28.205  1.00  0.00     0.173 A 
ATOM     76  F   UNL A   1      43.011  28.999  27.630  1.00  0.00    -0.203 F 
ATOM     77  C   UNL A   1      42.341  27.165  26.313  1.00  0.00     0.198 A 
ATOM     78  C   UNL A   1      40.563  25.741  27.063  1.00  0.00     0.198 A 
ATOM     79  F   UNL A   1      39.467  26.198  29.096  1.00  0.00    -0.203 F 
ATOM     80  F   UNL A   1      43.245  27.504  25.383  1.00  0.00    -0.200 F 
ATOM     81  C   UNL A   1      41.520  26.067  26.113  1.00  0.00     0.200 A 
ATOM     82  F   UNL A   1      39.774  24.672  26.879  1.00  0.00    -0.200 F 
ATOM     83  F   UNL A   1      41.642  25.329  25.002  1.00  0.00    -0.200 F 
ENDBRANCH  49  73
BRANCH  61  84
ATOM     84  C   UNL A   1      44.098  27.454  34.777  1.00  0.00     0.064 A 
ATOM     85  C   UNL A   1      45.471  27.749  34.783  1.00  0.00     0.173 A 
ATOM     86  C   UNL A   1      43.685  26.263  35.397  1.00  0.00     0.173 A 
ATOM     87  F   UNL A   1      45.922  28.868  34.194  1.00  0.00    -0.203 F 
ATOM     88  C   UNL A   1      46.392  26.871  35.346  1.00  0.00     0.198 A 
ATOM     89  C   UNL A   1      44.606  25.403  35.989  1.00  0.00     0.198 A 
ATOM     90  F   UNL A   1      42.385  25.933  35.429  1.00  0.00    -0.203 F 
ATOM     91  F   UNL A   1      47.703  27.146  35.283  1.00  0.00    -0.200 F 
ATOM     92  C   UNL A   1      45.960  25.701  35.953  1.00  0.00     0.200 A 
ATOM     93  F   UNL A   1      44.185  24.280  36.587  1.00  0.00    -0.200 F 
ATOM     94  F   UNL A   1      46.849  24.856  36.493  1.00  0.00    -0.200 F 
ENDBRANCH  61  84
ENDBRANCH  35  36
ENDBRANCH  27  30
ENDBRANCH  25  26
ENDBRANCH  24  25
ENDBRANCH   1  24
TORSDOF 15
ENDMDL
MODEL 3
REMARK VINA RESULT:     -11.7      2.143      3.158
REMARK SMILES [NH3+][C@@H](CCS[C@@H]1CCO[C@@]2(CCOC2)C1)C(=O)NCCCNC(=O)c1ccc(-c2c3nc(c(-c4c(F)c(F)c(F)c(F)c4F)c4ccc([nH]4)c(-c4c(F)c(F)c(F)c(F)c4F)c4nc(c(-c5c(F)c(F)c(F)c(F)c5F)c5ccc2[nH]5)C=C4)C=C3)cc1
REMARK SMILES IDX 19 1 18 2 16 3 17 4 2 6 1 7 3 11 4 12 5 13 6 14 7 15 15 16
REMARK SMILES IDX 8 17 10 18 9 19 11 20 14 21 12 22 13 23 20 24 21 25 22 26
REMARK SMILES IDX 23 27 24 29 25 30 26 31 87 32 27 33 86 34 28 35 29 36 30 37
REMARK SMILES IDX 80 38 31 39 85 40 79 41 81 42 32 43 84 44 78 45 77 46 33 48
REMARK SMILES IDX 65 49 45 50 64 51 46 52 49 53 63 54 82 55 47 56 48 57 62 59
REMARK SMILES IDX 83 60 50 61 34 62 35 63 43 64 36 65 37 66 41 67 44 68 38 69
REMARK SMILES IDX 39 70 42 71 40 72 66 73 67 74 75 75 68 76 69 77 73 78 76 79
REMARK SMILES IDX 70 80 71 81 74 82 72 83 51 84 52 85 60 86 53 87 54 88 58 89
REMARK SMILES IDX 61 90 55 91 56 92 59 93 57 94
REMARK H PARENT 18 5 1 8 1 9 1 10 22 28 81 47 49 58
REMARK Flexibility Score: inf
ROOT
ATOM      1  C   UNL A   1      32.181  29.462  25.836  1.00  0.00     0.118 C 
ENDROOT
BRANCH   1   2
ATOM      2  N   UNL A   1      32.850  29.438  24.541  1.00  0.00    -0.351 N 
ATOM      3  C   UNL A   1      32.540  28.957  23.300  1.00  0.00     0.278 C 
ATOM      4  O   UNL A   1      33.415  28.776  22.449  1.00  0.00    -0.268 OA
ATOM      5  H   UNL A   1      33.734  29.870  24.567  1.00  0.00     0.163 HD
BRANCH   3   6
ATOM      6  C   UNL A   1      31.135  29.011  22.799  1.00  0.00     0.271 C 
BRANCH   6   7
ATOM      7  N   UNL A   1      31.029  29.928  21.655  1.00  0.00    -0.347 N 
ATOM      8  H   UNL A   1      31.332  29.450  20.807  1.00  0.00     0.345 HD
ATOM      9  H   UNL A   1      31.621  30.744  21.815  1.00  0.00     0.345 HD
ATOM     10  H   UNL A   1      30.059  30.228  21.548  1.00  0.00     0.345 HD
ENDBRANCH   6   7
BRANCH   6  11
ATOM     11  C   UNL A   1      30.654  27.566  22.603  1.00  0.00     0.086 C 
BRANCH  11  12
ATOM     12  C   UNL A   1      30.233  26.715  23.854  1.00  0.00     0.076 C 
BRANCH  12  13
ATOM     13  S   UNL A   1      31.454  25.748  24.868  1.00  0.00    -0.158 SA
BRANCH  13  14
ATOM     14  C   UNL A   1      33.123  25.112  24.041  1.00  0.00     0.052 C 
ATOM     15  C   UNL A   1      32.719  24.667  22.621  1.00  0.00     0.043 C 
ATOM     16  C   UNL A   1      34.524  24.511  24.463  1.00  0.00     0.052 C 
ATOM     17  C   UNL A   1      33.305  23.339  22.181  1.00  0.00     0.162 C 
ATOM     18  C   UNL A   1      35.083  23.232  23.755  1.00  0.00     0.095 C 
ATOM     19  O   UNL A   1      34.712  23.306  22.376  1.00  0.00    -0.372 OA
ATOM     20  C   UNL A   1      36.622  23.196  23.797  1.00  0.00     0.066 C 
ATOM     21  C   UNL A   1      34.802  21.838  24.361  1.00  0.00     0.195 C 
ATOM     22  C   UNL A   1      37.012  22.246  24.908  1.00  0.00     0.163 C 
ATOM     23  O   UNL A   1      35.905  21.407  25.170  1.00  0.00    -0.378 OA
ENDBRANCH  13  14
ENDBRANCH  12  13
ENDBRANCH  11  12
ENDBRANCH   6  11
ENDBRANCH   3   6
ENDBRANCH   1   2
BRANCH   1  24
ATOM     24  C   UNL A   1      31.777  30.901  26.237  1.00  0.00     0.042 C 
BRANCH  24  25
ATOM     25  C   UNL A   1      32.850  31.806  26.874  1.00  0.00     0.118 C 
BRANCH  25  26
ATOM     26  N   UNL A   1      32.403  33.008  27.540  1.00  0.00    -0.352 N 
ATOM     27  C   UNL A   1      33.125  33.866  28.353  1.00  0.00     0.251 C 
ATOM     28  H   UNL A   1      31.459  33.250  27.396  1.00  0.00     0.163 HD
ATOM     29  O   UNL A   1      32.655  34.948  28.657  1.00  0.00    -0.269 OA
BRANCH  27  30
ATOM     30  C   UNL A   1      34.433  33.459  28.942  1.00  0.00     0.039 A 
ATOM     31  C   UNL A   1      34.403  32.421  29.877  1.00  0.00     0.014 A 
ATOM     32  C   UNL A   1      35.649  34.093  28.665  1.00  0.00     0.014 A 
ATOM     33  C   UNL A   1      35.583  31.983  30.489  1.00  0.00     0.010 A 
ATOM     34  C   UNL A   1      36.842  33.621  29.251  1.00  0.00     0.010 A 
ATOM     35  C   UNL A   1      36.825  32.555  30.167  1.00  0.00    -0.014 A 
BRANCH  35  36
ATOM     36  C   UNL A   1      38.061  31.987  30.793  1.00  0.00     0.031 A 
ATOM     37  C   UNL A   1      38.484  32.345  32.194  1.00  0.00     0.074 A 
ATOM     38  C   UNL A   1      38.788  31.073  30.115  1.00  0.00     0.049 A 
ATOM     39  N   UNL A   1      39.401  31.786  32.951  1.00  0.00    -0.248 NA
ATOM     40  C   UNL A   1      37.806  33.485  32.825  1.00  0.00     0.031 C 
ATOM     41  C   UNL A   1      38.548  30.670  28.730  1.00  0.00     0.029 A 
ATOM     42  N   UNL A   1      39.856  30.298  30.505  1.00  0.00    -0.354 N 
ATOM     43  C   UNL A   1      39.397  32.492  34.147  1.00  0.00     0.074 A 
ATOM     44  C   UNL A   1      38.431  33.561  33.993  1.00  0.00     0.031 C 
ATOM     45  C   UNL A   1      39.403  29.688  28.403  1.00  0.00     0.029 A 
ATOM     46  C   UNL A   1      40.264  29.399  29.548  1.00  0.00     0.049 A 
ATOM     47  H   UNL A   1      40.287  30.380  31.386  1.00  0.00     0.167 HD
ATOM     48  C   UNL A   1      40.108  32.259  35.279  1.00  0.00     0.037 A 
ATOM     49  C   UNL A   1      41.201  28.431  29.590  1.00  0.00     0.037 A 
ATOM     50  C   UNL A   1      41.073  31.199  35.445  1.00  0.00     0.049 A 
ATOM     51  C   UNL A   1      41.967  28.182  30.863  1.00  0.00     0.074 A 
ATOM     52  C   UNL A   1      41.795  30.858  36.578  1.00  0.00     0.029 A 
ATOM     53  N   UNL A   1      41.463  30.318  34.449  1.00  0.00    -0.354 N 
ATOM     54  N   UNL A   1      41.866  28.782  32.022  1.00  0.00    -0.248 NA
ATOM     55  C   UNL A   1      42.963  27.099  30.835  1.00  0.00     0.031 C 
ATOM     56  C   UNL A   1      42.657  29.804  36.253  1.00  0.00     0.029 A 
ATOM     57  C   UNL A   1      42.432  29.450  34.934  1.00  0.00     0.049 A 
ATOM     58  H   UNL A   1      41.104  30.308  33.532  1.00  0.00     0.167 HD
ATOM     59  C   UNL A   1      42.762  28.136  32.865  1.00  0.00     0.074 A 
ATOM     60  C   UNL A   1      43.379  27.079  32.092  1.00  0.00     0.031 C 
ATOM     61  C   UNL A   1      43.047  28.398  34.165  1.00  0.00     0.037 A 
BRANCH  48  62
ATOM     62  C   UNL A   1      39.861  33.168  36.453  1.00  0.00     0.064 A 
ATOM     63  C   UNL A   1      40.583  34.359  36.620  1.00  0.00     0.173 A 
ATOM     64  C   UNL A   1      38.856  32.876  37.388  1.00  0.00     0.173 A 
ATOM     65  F   UNL A   1      41.556  34.685  35.756  1.00  0.00    -0.203 F 
ATOM     66  C   UNL A   1      40.330  35.208  37.695  1.00  0.00     0.198 A 
ATOM     67  C   UNL A   1      38.585  33.742  38.444  1.00  0.00     0.198 A 
ATOM     68  F   UNL A   1      38.124  31.757  37.268  1.00  0.00    -0.203 F 
ATOM     69  F   UNL A   1      41.064  36.318  37.856  1.00  0.00    -0.200 F 
ATOM     70  C   UNL A   1      39.327  34.903  38.601  1.00  0.00     0.200 A 
ATOM     71  F   UNL A   1      37.602  33.455  39.310  1.00  0.00    -0.200 F 
ATOM     72  F   UNL A   1      39.079  35.725  39.630  1.00  0.00    -0.200 F 
ENDBRANCH  48  62
BRANCH  49  73
ATOM     73  C   UNL A   1      41.440  27.577  28.394  1.00  0.00     0.064 A 
ATOM     74  C   UNL A   1      42.403  27.925  27.435  1.00  0.00     0.173 A 
ATOM     75  C   UNL A   1      40.693  26.411  28.174  1.00  0.00     0.173 A 
ATOM     76  F   UNL A   1      43.124  29.045  27.588  1.00  0.00    -0.203 F 
ATOM     77  C   UNL A   1      42.592  27.153  26.291  1.00  0.00     0.198 A 
ATOM     78  C   UNL A   1      40.906  25.623  27.045  1.00  0.00     0.198 A 
ATOM     79  F   UNL A   1      39.761  26.033  29.061  1.00  0.00    -0.203 F 
ATOM     80  F   UNL A   1      43.481  27.539  25.365  1.00  0.00    -0.200 F 
ATOM     81  C   UNL A   1      41.848  25.999  26.099  1.00  0.00     0.200 A 
ATOM     82  F   UNL A   1      40.192  24.501  26.869  1.00  0.00    -0.200 F 
ATOM     83  F   UNL A   1      42.030  25.257  24.999  1.00  0.00    -0.200 F 
ENDBRANCH  49  73
BRANCH  61  84
ATOM     84  C   UNL A   1      44.052  27.509  34.845  1.00  0.00     0.064 A 
ATOM     85  C   UNL A   1      45.412  27.850  34.920  1.00  0.00     0.173 A 
ATOM     86  C   UNL A   1      43.649  26.302  35.438  1.00  0.00     0.173 A 
ATOM     87  F   UNL A   1      45.854  28.987  34.360  1.00  0.00    -0.203 F 
ATOM     88  C   UNL A   1      46.334  27.000  35.525  1.00  0.00     0.198 A 
ATOM     89  C   UNL A   1      44.569  25.469  36.072  1.00  0.00     0.198 A 
ATOM     90  F   UNL A   1      42.362  25.927  35.404  1.00  0.00    -0.203 F 
ATOM     91  F   UNL A   1      47.637  27.318  35.529  1.00  0.00    -0.200 F 
ATOM     92  C   UNL A   1      45.912  25.812  36.105  1.00  0.00     0.200 A 
ATOM     93  F   UNL A   1      44.157  24.329  36.643  1.00  0.00    -0.200 F 
ATOM     94  F   UNL A   1      46.801  24.994  36.685  1.00  0.00    -0.200 F 
ENDBRANCH  61  84
ENDBRANCH  35  36
ENDBRANCH  27  30
ENDBRANCH  25  26
ENDBRANCH  24  25
ENDBRANCH   1  24
TORSDOF 15
ENDMDL
