MODEL 1
REMARK VINA RESULT:     -12.9      0.000      0.000
REMARK SMILES C[NH2+][C@@]1(C(=O)NCCCNC(=O)c2ccc(-c3c4nc(c(-c5c(F)c(F)c(F)c(F)c5F)c5ccc([nH]5)c(-c5c(F)c(F)c(F)c(F)c5F)c5nc(c(-c6c(F)c(F)c(F)c(F)c6F)c6ccc3[nH]6)C=C5)C=C4)cc2)CC[C@H]([NH+]2CC[NH+](C)CC2)C1
REMARK SMILES IDX 8 1 7 2 6 3 4 4 5 5 3 7 76 8 86 9 77 10 78 11 2 12 1 13
REMARK SMILES IDX 79 16 80 17 85 18 81 20 84 21 82 22 83 23 9 25 10 26 11 27
REMARK SMILES IDX 12 29 13 30 14 31 75 32 15 33 74 34 16 35 17 36 18 37 68 38
REMARK SMILES IDX 19 39 73 40 67 41 69 42 20 43 72 44 66 45 65 46 21 48 53 49
REMARK SMILES IDX 33 50 52 51 34 52 37 53 51 54 70 55 35 56 36 57 50 59 71 60
REMARK SMILES IDX 38 61 22 62 23 63 31 64 24 65 25 66 29 67 32 68 26 69 27 70
REMARK SMILES IDX 30 71 28 72 54 73 55 74 63 75 56 76 57 77 61 78 64 79 58 80
REMARK SMILES IDX 59 81 62 82 60 83 39 84 40 85 48 86 41 87 42 88 46 89 49 90
REMARK SMILES IDX 43 91 44 92 47 93 45 94
REMARK H PARENT 6 6 2 14 2 15 79 19 82 24 10 28 69 47 37 58
REMARK Flexibility Score: inf
ROOT
ATOM      1  C   UNL A   1      33.279  28.985  23.995  1.00  0.00     0.042 C 
ENDROOT
BRANCH   1   2
ATOM      2  C   UNL A   1      32.732  27.359  22.741  1.00  0.00     0.118 C 
BRANCH   2   3
ATOM      3  N   UNL A   1      33.355  25.938  22.465  1.00  0.00    -0.351 N 
ATOM      4  C   UNL A   1      33.197  24.654  22.870  1.00  0.00     0.281 C 
ATOM      5  O   UNL A   1      33.849  23.851  22.187  1.00  0.00    -0.268 OA
ATOM      6  H   UNL A   1      34.075  26.001  21.797  1.00  0.00     0.163 HD
BRANCH   4   7
ATOM      7  C   UNL A   1      32.267  24.177  24.027  1.00  0.00     0.181 C 
ATOM      8  C   UNL A   1      32.584  25.019  25.279  1.00  0.00     0.085 C 
ATOM      9  C   UNL A   1      32.438  22.721  24.496  1.00  0.00     0.144 C 
ATOM     10  C   UNL A   1      33.133  24.035  26.309  1.00  0.00     0.072 C 
ATOM     11  C   UNL A   1      33.553  22.763  25.540  1.00  0.00     0.191 C 
BRANCH   7  12
ATOM     12  N   UNL A   1      30.836  24.433  23.672  1.00  0.00    -0.336 N 
ATOM     13  C   UNL A   1      30.169  25.462  24.467  1.00  0.00     0.331 C 
ATOM     14  H   UNL A   1      30.801  24.719  22.693  1.00  0.00     0.346 HD
ATOM     15  H   UNL A   1      30.338  23.564  23.863  1.00  0.00     0.346 HD
ENDBRANCH   7  12
BRANCH  11  16
ATOM     16  N   UNL A   1      34.913  22.699  25.000  1.00  0.00    -0.323 N 
ATOM     17  C   UNL A   1      35.564  21.013  24.624  1.00  0.00     0.324 C 
ATOM     18  C   UNL A   1      36.113  24.078  25.360  1.00  0.00     0.324 C 
ATOM     19  H   UNL A   1      34.734  23.043  24.057  1.00  0.00     0.348 HD
ATOM     20  C   UNL A   1      37.429  20.576  25.052  1.00  0.00     0.324 C 
ATOM     21  C   UNL A   1      37.993  23.634  25.781  1.00  0.00     0.324 C 
ATOM     22  N   UNL A   1      38.624  21.927  25.444  1.00  0.00    -0.328 N 
ATOM     23  C   UNL A   1      39.642  21.497  26.402  1.00  0.00     0.333 C 
ATOM     24  H   UNL A   1      39.050  22.079  24.531  1.00  0.00     0.348 HD
ENDBRANCH  11  16
ENDBRANCH   4   7
ENDBRANCH   2   3
ENDBRANCH   1   2
BRANCH   1  25
ATOM     25  C   UNL A   1      33.653  29.282  25.602  1.00  0.00     0.118 C 
BRANCH  25  26
ATOM     26  N   UNL A   1      33.223  30.574  26.124  1.00  0.00    -0.352 N 
ATOM     27  C   UNL A   1      33.646  31.340  27.162  1.00  0.00     0.251 C 
ATOM     28  H   UNL A   1      32.475  30.971  25.621  1.00  0.00     0.163 HD
ATOM     29  O   UNL A   1      33.022  32.328  27.533  1.00  0.00    -0.269 OA
BRANCH  27  30
ATOM     30  C   UNL A   1      34.847  30.917  27.883  1.00  0.00     0.039 A 
ATOM     31  C   UNL A   1      35.903  31.823  27.996  1.00  0.00     0.014 A 
ATOM     32  C   UNL A   1      34.898  29.654  28.476  1.00  0.00     0.014 A 
ATOM     33  C   UNL A   1      37.020  31.467  28.738  1.00  0.00     0.010 A 
ATOM     34  C   UNL A   1      35.979  29.328  29.273  1.00  0.00     0.010 A 
ATOM     35  C   UNL A   1      37.054  30.223  29.386  1.00  0.00    -0.014 A 
BRANCH  35  36
ATOM     36  C   UNL A   1      38.256  29.794  30.120  1.00  0.00     0.031 A 
ATOM     37  C   UNL A   1      38.454  30.290  31.518  1.00  0.00     0.074 A 
ATOM     38  C   UNL A   1      39.166  29.022  29.501  1.00  0.00     0.049 A 
ATOM     39  N   UNL A   1      39.469  30.119  32.322  1.00  0.00    -0.248 NA
ATOM     40  C   UNL A   1      37.380  31.130  32.077  1.00  0.00     0.031 C 
ATOM     41  C   UNL A   1      39.068  28.537  28.123  1.00  0.00     0.029 A 
ATOM     42  N   UNL A   1      40.353  28.515  29.953  1.00  0.00    -0.354 N 
ATOM     43  C   UNL A   1      39.171  30.856  33.459  1.00  0.00     0.074 A 
ATOM     44  C   UNL A   1      37.909  31.519  33.226  1.00  0.00     0.031 C 
ATOM     45  C   UNL A   1      40.143  27.782  27.848  1.00  0.00     0.029 A 
ATOM     46  C   UNL A   1      41.011  27.752  29.020  1.00  0.00     0.049 A 
ATOM     47  H   UNL A   1      40.702  28.681  30.858  1.00  0.00     0.167 HD
ATOM     48  C   UNL A   1      39.882  30.944  34.606  1.00  0.00     0.037 A 
ATOM     49  C   UNL A   1      42.184  27.102  29.120  1.00  0.00     0.037 A 
ATOM     50  C   UNL A   1      41.108  30.230  34.830  1.00  0.00     0.049 A 
ATOM     51  C   UNL A   1      42.924  27.167  30.428  1.00  0.00     0.074 A 
ATOM     52  C   UNL A   1      41.890  30.184  35.968  1.00  0.00     0.029 A 
ATOM     53  N   UNL A   1      41.722  29.418  33.884  1.00  0.00    -0.354 N 
ATOM     54  N   UNL A   1      42.612  27.820  31.522  1.00  0.00    -0.248 NA
ATOM     55  C   UNL A   1      44.169  26.396  30.521  1.00  0.00     0.031 C 
ATOM     56  C   UNL A   1      42.993  29.363  35.701  1.00  0.00     0.029 A 
ATOM     57  C   UNL A   1      42.876  28.868  34.411  1.00  0.00     0.049 A 
ATOM     58  H   UNL A   1      41.384  29.258  32.972  1.00  0.00     0.167 HD
ATOM     59  C   UNL A   1      43.606  27.523  32.443  1.00  0.00     0.074 A 
ATOM     60  C   UNL A   1      44.523  26.615  31.781  1.00  0.00     0.031 C 
ATOM     61  C   UNL A   1      43.754  27.959  33.718  1.00  0.00     0.037 A 
BRANCH  48  62
ATOM     62  C   UNL A   1      39.343  31.836  35.686  1.00  0.00     0.064 A 
ATOM     63  C   UNL A   1      39.755  33.171  35.814  1.00  0.00     0.173 A 
ATOM     64  C   UNL A   1      38.410  31.348  36.613  1.00  0.00     0.173 A 
ATOM     65  F   UNL A   1      40.661  33.683  34.967  1.00  0.00    -0.203 F 
ATOM     66  C   UNL A   1      39.282  33.973  36.851  1.00  0.00     0.198 A 
ATOM     67  C   UNL A   1      37.916  32.162  37.629  1.00  0.00     0.198 A 
ATOM     68  F   UNL A   1      37.983  30.078  36.539  1.00  0.00    -0.203 F 
ATOM     69  F   UNL A   1      39.739  35.225  36.988  1.00  0.00    -0.200 F 
ATOM     70  C   UNL A   1      38.359  33.469  37.754  1.00  0.00     0.200 A 
ATOM     71  F   UNL A   1      37.017  31.676  38.497  1.00  0.00    -0.200 F 
ATOM     72  F   UNL A   1      37.906  34.241  38.751  1.00  0.00    -0.200 F 
ENDBRANCH  48  62
BRANCH  49  73
ATOM     73  C   UNL A   1      42.687  26.299  27.977  1.00  0.00     0.064 A 
ATOM     74  C   UNL A   1      43.517  26.877  27.006  1.00  0.00     0.173 A 
ATOM     75  C   UNL A   1      42.375  24.939  27.843  1.00  0.00     0.173 A 
ATOM     76  F   UNL A   1      43.834  28.177  27.085  1.00  0.00    -0.203 F 
ATOM     77  C   UNL A   1      43.999  26.130  25.933  1.00  0.00     0.198 A 
ATOM     78  C   UNL A   1      42.878  24.186  26.783  1.00  0.00     0.198 A 
ATOM     79  F   UNL A   1      41.594  24.335  28.751  1.00  0.00    -0.203 F 
ATOM     80  F   UNL A   1      44.762  26.716  25.000  1.00  0.00    -0.200 F 
ATOM     81  C   UNL A   1      43.685  24.784  25.825  1.00  0.00     0.200 A 
ATOM     82  F   UNL A   1      42.585  22.882  26.690  1.00  0.00    -0.200 F 
ATOM     83  F   UNL A   1      44.155  24.064  24.797  1.00  0.00    -0.200 F 
ENDBRANCH  49  73
BRANCH  61  84
ATOM     84  C   UNL A   1      44.930  27.432  34.482  1.00  0.00     0.064 A 
ATOM     85  C   UNL A   1      44.839  26.259  35.244  1.00  0.00     0.173 A 
ATOM     86  C   UNL A   1      46.169  28.083  34.407  1.00  0.00     0.173 A 
ATOM     87  F   UNL A   1      43.669  25.614  35.355  1.00  0.00    -0.203 F 
ATOM     88  C   UNL A   1      45.949  25.766  35.923  1.00  0.00     0.198 A 
ATOM     89  C   UNL A   1      47.283  27.570  35.065  1.00  0.00     0.198 A 
ATOM     90  F   UNL A   1      46.303  29.204  33.683  1.00  0.00    -0.203 F 
ATOM     91  F   UNL A   1      45.833  24.666  36.679  1.00  0.00    -0.200 F 
ATOM     92  C   UNL A   1      47.170  26.416  35.827  1.00  0.00     0.200 A 
ATOM     93  F   UNL A   1      48.465  28.193  34.962  1.00  0.00    -0.200 F 
ATOM     94  F   UNL A   1      48.239  25.935  36.474  1.00  0.00    -0.200 F 
ENDBRANCH  61  84
ENDBRANCH  35  36
ENDBRANCH  27  30
ENDBRANCH  25  26
ENDBRANCH   1  25
TORSDOF 12
ENDMDL
MODEL 2
REMARK VINA RESULT:     -12.8      0.386      1.666
REMARK SMILES C[NH2+][C@@]1(C(=O)NCCCNC(=O)c2ccc(-c3c4nc(c(-c5c(F)c(F)c(F)c(F)c5F)c5ccc([nH]5)c(-c5c(F)c(F)c(F)c(F)c5F)c5nc(c(-c6c(F)c(F)c(F)c(F)c6F)c6ccc3[nH]6)C=C5)C=C4)cc2)CC[C@H]([NH+]2CC[NH+](C)CC2)C1
REMARK SMILES IDX 8 1 7 2 6 3 4 4 5 5 3 7 76 8 86 9 77 10 78 11 2 12 1 13
REMARK SMILES IDX 79 16 80 17 85 18 81 20 84 21 82 22 83 23 9 25 10 26 11 27
REMARK SMILES IDX 12 29 13 30 14 31 75 32 15 33 74 34 16 35 17 36 18 37 68 38
REMARK SMILES IDX 19 39 73 40 67 41 69 42 20 43 72 44 66 45 65 46 21 48 53 49
REMARK SMILES IDX 33 50 52 51 34 52 37 53 51 54 70 55 35 56 36 57 50 59 71 60
REMARK SMILES IDX 38 61 22 62 23 63 31 64 24 65 25 66 29 67 32 68 26 69 27 70
REMARK SMILES IDX 30 71 28 72 54 73 55 74 63 75 56 76 57 77 61 78 64 79 58 80
REMARK SMILES IDX 59 81 62 82 60 83 39 84 40 85 48 86 41 87 42 88 46 89 49 90
REMARK SMILES IDX 43 91 44 92 47 93 45 94
REMARK H PARENT 6 6 2 14 2 15 79 19 82 24 10 28 69 47 37 58
REMARK Flexibility Score: inf
ROOT
ATOM      1  C   UNL A   1      33.275  29.028  24.062  1.00  0.00     0.042 C 
ENDROOT
BRANCH   1   2
ATOM      2  C   UNL A   1      32.450  27.522  22.812  1.00  0.00     0.118 C 
BRANCH   2   3
ATOM      3  N   UNL A   1      32.869  26.042  22.466  1.00  0.00    -0.351 N 
ATOM      4  C   UNL A   1      32.596  24.778  22.874  1.00  0.00     0.281 C 
ATOM      5  O   UNL A   1      33.080  23.917  22.125  1.00  0.00    -0.268 OA
ATOM      6  H   UNL A   1      33.525  26.032  21.732  1.00  0.00     0.163 HD
BRANCH   4   7
ATOM      7  C   UNL A   1      31.729  24.392  24.110  1.00  0.00     0.181 C 
ATOM      8  C   UNL A   1      32.193  25.243  25.310  1.00  0.00     0.085 C 
ATOM      9  C   UNL A   1      31.843  22.941  24.609  1.00  0.00     0.144 C 
ATOM     10  C   UNL A   1      32.755  24.252  26.325  1.00  0.00     0.072 C 
ATOM     11  C   UNL A   1      33.034  22.936  25.565  1.00  0.00     0.191 C 
BRANCH   7  12
ATOM     12  N   UNL A   1      30.294  24.733  23.855  1.00  0.00    -0.336 N 
ATOM     13  C   UNL A   1      29.775  25.867  24.618  1.00  0.00     0.331 C 
ATOM     14  H   UNL A   1      30.193  24.949  22.863  1.00  0.00     0.346 HD
ATOM     15  H   UNL A   1      29.754  23.922  24.155  1.00  0.00     0.346 HD
ENDBRANCH   7  12
BRANCH  11  16
ATOM     16  N   UNL A   1      34.343  22.769  24.928  1.00  0.00    -0.323 N 
ATOM     17  C   UNL A   1      34.939  21.033  24.730  1.00  0.00     0.324 C 
ATOM     18  C   UNL A   1      35.585  24.156  24.998  1.00  0.00     0.324 C 
ATOM     19  H   UNL A   1      34.087  22.988  23.965  1.00  0.00     0.348 HD
ATOM     20  C   UNL A   1      36.828  20.614  25.057  1.00  0.00     0.324 C 
ATOM     21  C   UNL A   1      37.488  23.728  25.317  1.00  0.00     0.324 C 
ATOM     22  N   UNL A   1      38.068  21.977  25.162  1.00  0.00    -0.328 N 
ATOM     23  C   UNL A   1      39.159  21.656  26.081  1.00  0.00     0.333 C 
ATOM     24  H   UNL A   1      38.417  21.996  24.205  1.00  0.00     0.348 HD
ENDBRANCH  11  16
ENDBRANCH   4   7
ENDBRANCH   2   3
ENDBRANCH   1   2
BRANCH   1  25
ATOM     25  C   UNL A   1      33.566  29.313  25.688  1.00  0.00     0.118 C 
BRANCH  25  26
ATOM     26  N   UNL A   1      33.201  30.638  26.174  1.00  0.00    -0.352 N 
ATOM     27  C   UNL A   1      33.692  31.430  27.162  1.00  0.00     0.251 C 
ATOM     28  H   UNL A   1      32.444  31.040  25.688  1.00  0.00     0.163 HD
ATOM     29  O   UNL A   1      33.116  32.452  27.518  1.00  0.00    -0.269 OA
BRANCH  27  30
ATOM     30  C   UNL A   1      34.909  30.996  27.848  1.00  0.00     0.039 A 
ATOM     31  C   UNL A   1      35.971  31.897  27.942  1.00  0.00     0.014 A 
ATOM     32  C   UNL A   1      34.971  29.727  28.427  1.00  0.00     0.014 A 
ATOM     33  C   UNL A   1      37.106  31.531  28.652  1.00  0.00     0.010 A 
ATOM     34  C   UNL A   1      36.072  29.389  29.193  1.00  0.00     0.010 A 
ATOM     35  C   UNL A   1      37.152  30.281  29.287  1.00  0.00    -0.014 A 
BRANCH  35  36
ATOM     36  C   UNL A   1      38.371  29.841  29.986  1.00  0.00     0.031 A 
ATOM     37  C   UNL A   1      38.619  30.343  31.374  1.00  0.00     0.074 A 
ATOM     38  C   UNL A   1      39.251  29.053  29.345  1.00  0.00     0.049 A 
ATOM     39  N   UNL A   1      39.657  30.163  32.147  1.00  0.00    -0.248 NA
ATOM     40  C   UNL A   1      37.574  31.201  31.961  1.00  0.00     0.031 C 
ATOM     41  C   UNL A   1      39.104  28.561  27.973  1.00  0.00     0.029 A 
ATOM     42  N   UNL A   1      40.445  28.533  29.762  1.00  0.00    -0.354 N 
ATOM     43  C   UNL A   1      39.404  30.911  33.288  1.00  0.00     0.074 A 
ATOM     44  C   UNL A   1      38.144  31.589  33.090  1.00  0.00     0.031 C 
ATOM     45  C   UNL A   1      40.160  27.789  27.670  1.00  0.00     0.029 A 
ATOM     46  C   UNL A   1      41.064  27.756  28.814  1.00  0.00     0.049 A 
ATOM     47  H   UNL A   1      40.825  28.700  30.655  1.00  0.00     0.167 HD
ATOM     48  C   UNL A   1      40.151  30.998  34.412  1.00  0.00     0.037 A 
ATOM     49  C   UNL A   1      42.230  27.091  28.882  1.00  0.00     0.037 A 
ATOM     50  C   UNL A   1      41.374  30.269  34.602  1.00  0.00     0.049 A 
ATOM     51  C   UNL A   1      43.012  27.155  30.166  1.00  0.00     0.074 A 
ATOM     52  C   UNL A   1      42.191  30.220  35.715  1.00  0.00     0.029 A 
ATOM     53  N   UNL A   1      41.948  29.443  33.642  1.00  0.00    -0.354 N 
ATOM     54  N   UNL A   1      42.743  27.819  31.265  1.00  0.00    -0.248 NA
ATOM     55  C   UNL A   1      44.250  26.369  30.225  1.00  0.00     0.031 C 
ATOM     56  C   UNL A   1      43.274  29.383  35.419  1.00  0.00     0.029 A 
ATOM     57  C   UNL A   1      43.111  28.882  34.136  1.00  0.00     0.049 A 
ATOM     58  H   UNL A   1      41.579  29.282  32.743  1.00  0.00     0.167 HD
ATOM     59  C   UNL A   1      43.762  27.515  32.156  1.00  0.00     0.074 A 
ATOM     60  C   UNL A   1      44.646  26.591  31.471  1.00  0.00     0.031 C 
ATOM     61  C   UNL A   1      43.955  27.957  33.423  1.00  0.00     0.037 A 
BRANCH  48  62
ATOM     62  C   UNL A   1      39.658  31.903  35.502  1.00  0.00     0.064 A 
ATOM     63  C   UNL A   1      38.720  31.470  36.452  1.00  0.00     0.173 A 
ATOM     64  C   UNL A   1      40.119  33.225  35.593  1.00  0.00     0.173 A 
ATOM     65  F   UNL A   1      38.231  30.222  36.399  1.00  0.00    -0.203 F 
ATOM     66  C   UNL A   1      38.236  32.337  37.429  1.00  0.00     0.198 A 
ATOM     67  C   UNL A   1      39.656  34.079  36.591  1.00  0.00     0.198 A 
ATOM     68  F   UNL A   1      41.014  33.692  34.710  1.00  0.00    -0.203 F 
ATOM     69  F   UNL A   1      37.294  31.918  38.286  1.00  0.00    -0.200 F 
ATOM     70  C   UNL A   1      38.708  33.638  37.501  1.00  0.00     0.200 A 
ATOM     71  F   UNL A   1      40.119  35.334  36.664  1.00  0.00    -0.200 F 
ATOM     72  F   UNL A   1      38.240  34.471  38.441  1.00  0.00    -0.200 F 
ENDBRANCH  48  62
BRANCH  49  73
ATOM     73  C   UNL A   1      42.687  26.275  27.730  1.00  0.00     0.064 A 
ATOM     74  C   UNL A   1      43.587  26.800  26.791  1.00  0.00     0.173 A 
ATOM     75  C   UNL A   1      42.260  24.951  27.553  1.00  0.00     0.173 A 
ATOM     76  F   UNL A   1      44.015  28.066  26.910  1.00  0.00    -0.203 F 
ATOM     77  C   UNL A   1      44.026  26.040  25.709  1.00  0.00     0.198 A 
ATOM     78  C   UNL A   1      42.720  24.183  26.485  1.00  0.00     0.198 A 
ATOM     79  F   UNL A   1      41.410  24.397  28.430  1.00  0.00    -0.203 F 
ATOM     80  F   UNL A   1      44.858  26.579  24.808  1.00  0.00    -0.200 F 
ATOM     81  C   UNL A   1      43.597  24.730  25.560  1.00  0.00     0.200 A 
ATOM     82  F   UNL A   1      42.316  22.912  26.352  1.00  0.00    -0.200 F 
ATOM     83  F   UNL A   1      44.026  23.996  24.524  1.00  0.00    -0.200 F 
ENDBRANCH  49  73
BRANCH  61  84
ATOM     84  C   UNL A   1      45.147  27.420  34.153  1.00  0.00     0.064 A 
ATOM     85  C   UNL A   1      46.382  28.082  34.121  1.00  0.00     0.173 A 
ATOM     86  C   UNL A   1      45.035  26.258  34.930  1.00  0.00     0.173 A 
ATOM     87  F   UNL A   1      46.536  29.188  33.378  1.00  0.00    -0.203 F 
ATOM     88  C   UNL A   1      47.472  27.587  34.829  1.00  0.00     0.198 A 
ATOM     89  C   UNL A   1      46.121  25.782  35.659  1.00  0.00     0.198 A 
ATOM     90  F   UNL A   1      43.871  25.597  34.995  1.00  0.00    -0.203 F 
ATOM     91  F   UNL A   1      48.655  28.211  34.754  1.00  0.00    -0.200 F 
ATOM     92  C   UNL A   1      47.339  26.443  35.602  1.00  0.00     0.200 A 
ATOM     93  F   UNL A   1      45.988  24.684  36.415  1.00  0.00    -0.200 F 
ATOM     94  F   UNL A   1      48.388  25.972  36.290  1.00  0.00    -0.200 F 
ENDBRANCH  61  84
ENDBRANCH  35  36
ENDBRANCH  27  30
ENDBRANCH  25  26
ENDBRANCH   1  25
TORSDOF 12
ENDMDL
MODEL 3
REMARK VINA RESULT:     -12.7      2.131      8.235
REMARK SMILES C[NH2+][C@@]1(C(=O)NCCCNC(=O)c2ccc(-c3c4nc(c(-c5c(F)c(F)c(F)c(F)c5F)c5ccc([nH]5)c(-c5c(F)c(F)c(F)c(F)c5F)c5nc(c(-c6c(F)c(F)c(F)c(F)c6F)c6ccc3[nH]6)C=C5)C=C4)cc2)CC[C@H]([NH+]2CC[NH+](C)CC2)C1
REMARK SMILES IDX 8 1 7 2 6 3 4 4 5 5 3 7 76 8 86 9 77 10 78 11 2 12 1 13
REMARK SMILES IDX 79 16 80 17 85 18 81 20 84 21 82 22 83 23 9 25 10 26 11 27
REMARK SMILES IDX 12 29 13 30 14 31 75 32 15 33 74 34 16 35 17 36 18 37 68 38
REMARK SMILES IDX 19 39 73 40 67 41 69 42 20 43 72 44 66 45 65 46 21 48 53 49
REMARK SMILES IDX 33 50 52 51 34 52 37 53 51 54 70 55 35 56 36 57 50 59 71 60
REMARK SMILES IDX 38 61 22 62 23 63 31 64 24 65 25 66 29 67 32 68 26 69 27 70
REMARK SMILES IDX 30 71 28 72 54 73 55 74 63 75 56 76 57 77 61 78 64 79 58 80
REMARK SMILES IDX 59 81 62 82 60 83 39 84 40 85 48 86 41 87 42 88 46 89 49 90
REMARK SMILES IDX 43 91 44 92 47 93 45 94
REMARK H PARENT 6 6 2 14 2 15 79 19 82 24 10 28 69 47 37 58
REMARK Flexibility Score: inf
ROOT
ATOM      1  C   UNL A   1      33.733  32.086  27.541  1.00  0.00     0.042 C 
ENDROOT
BRANCH   1   2
ATOM      2  C   UNL A   1      34.398  30.119  27.091  1.00  0.00     0.118 C 
BRANCH   2   3
ATOM      3  N   UNL A   1      34.442  29.259  25.770  1.00  0.00    -0.351 N 
ATOM      4  C   UNL A   1      33.584  28.684  24.893  1.00  0.00     0.281 C 
ATOM      5  O   UNL A   1      34.152  28.249  23.880  1.00  0.00    -0.268 OA
ATOM      6  H   UNL A   1      35.374  29.088  25.501  1.00  0.00     0.163 HD
BRANCH   4   7
ATOM      7  C   UNL A   1      32.036  28.600  25.063  1.00  0.00     0.181 C 
ATOM      8  C   UNL A   1      31.734  28.017  26.458  1.00  0.00     0.085 C 
ATOM      9  C   UNL A   1      31.284  27.672  24.093  1.00  0.00     0.144 C 
ATOM     10  C   UNL A   1      31.035  26.684  26.204  1.00  0.00     0.072 C 
ATOM     11  C   UNL A   1      31.332  26.289  24.741  1.00  0.00     0.191 C 
BRANCH   7  12
ATOM     12  N   UNL A   1      31.442  29.973  25.019  1.00  0.00    -0.336 N 
ATOM     13  C   UNL A   1      30.312  30.138  24.107  1.00  0.00     0.331 C 
ATOM     14  H   UNL A   1      31.125  30.209  25.959  1.00  0.00     0.346 HD
ATOM     15  H   UNL A   1      32.177  30.588  24.668  1.00  0.00     0.346 HD
ENDBRANCH   7  12
BRANCH  11  16
ATOM     16  N   UNL A   1      32.544  25.515  24.466  1.00  0.00    -0.323 N 
ATOM     17  C   UNL A   1      32.476  24.380  23.011  1.00  0.00     0.324 C 
ATOM     18  C   UNL A   1      33.739  25.151  25.848  1.00  0.00     0.324 C 
ATOM     19  H   UNL A   1      33.135  26.258  24.092  1.00  0.00     0.348 HD
ATOM     20  C   UNL A   1      33.290  22.599  23.132  1.00  0.00     0.324 C 
ATOM     21  C   UNL A   1      34.565  23.359  25.960  1.00  0.00     0.324 C 
ATOM     22  N   UNL A   1      34.450  22.210  24.514  1.00  0.00    -0.328 N 
ATOM     23  C   UNL A   1      34.381  20.803  24.908  1.00  0.00     0.333 C 
ATOM     24  H   UNL A   1      35.349  22.401  24.072  1.00  0.00     0.348 HD
ENDBRANCH  11  16
ENDBRANCH   4   7
ENDBRANCH   2   3
ENDBRANCH   1   2
BRANCH   1  25
ATOM     25  C   UNL A   1      32.301  32.952  27.644  1.00  0.00     0.118 C 
BRANCH  25  26
ATOM     26  N   UNL A   1      32.444  34.391  27.829  1.00  0.00    -0.352 N 
ATOM     27  C   UNL A   1      33.281  35.149  28.583  1.00  0.00     0.251 C 
ATOM     28  H   UNL A   1      31.803  34.920  27.300  1.00  0.00     0.163 HD
ATOM     29  O   UNL A   1      33.112  36.356  28.721  1.00  0.00    -0.269 OA
BRANCH  27  30
ATOM     30  C   UNL A   1      34.368  34.473  29.292  1.00  0.00     0.039 A 
ATOM     31  C   UNL A   1      35.654  34.551  28.756  1.00  0.00     0.014 A 
ATOM     32  C   UNL A   1      34.114  33.814  30.496  1.00  0.00     0.014 A 
ATOM     33  C   UNL A   1      36.710  33.979  29.451  1.00  0.00     0.010 A 
ATOM     34  C   UNL A   1      35.175  33.306  31.222  1.00  0.00     0.010 A 
ATOM     35  C   UNL A   1      36.472  33.366  30.690  1.00  0.00    -0.014 A 
BRANCH  35  36
ATOM     36  C   UNL A   1      37.563  32.691  31.412  1.00  0.00     0.031 A 
ATOM     37  C   UNL A   1      38.256  31.541  30.748  1.00  0.00     0.074 A 
ATOM     38  C   UNL A   1      37.869  33.083  32.661  1.00  0.00     0.049 A 
ATOM     39  N   UNL A   1      39.178  30.746  31.220  1.00  0.00    -0.248 NA
ATOM     40  C   UNL A   1      37.823  31.215  29.378  1.00  0.00     0.031 C 
ATOM     41  C   UNL A   1      37.207  34.163  33.395  1.00  0.00     0.029 A 
ATOM     42  N   UNL A   1      38.812  32.612  33.533  1.00  0.00    -0.354 N 
ATOM     43  C   UNL A   1      39.406  29.809  30.221  1.00  0.00     0.074 A 
ATOM     44  C   UNL A   1      38.493  30.100  29.140  1.00  0.00     0.031 C 
ATOM     45  C   UNL A   1      37.782  34.287  34.602  1.00  0.00     0.029 A 
ATOM     46  C   UNL A   1      38.831  33.282  34.731  1.00  0.00     0.049 A 
ATOM     47  H   UNL A   1      39.418  31.865  33.322  1.00  0.00     0.167 HD
ATOM     48  C   UNL A   1      40.320  28.813  30.205  1.00  0.00     0.037 A 
ATOM     49  C   UNL A   1      39.621  33.095  35.803  1.00  0.00     0.037 A 
ATOM     50  C   UNL A   1      41.253  28.582  31.273  1.00  0.00     0.049 A 
ATOM     51  C   UNL A   1      40.670  32.019  35.735  1.00  0.00     0.074 A 
ATOM     52  C   UNL A   1      42.268  27.649  31.352  1.00  0.00     0.029 A 
ATOM     53  N   UNL A   1      41.284  29.316  32.453  1.00  0.00    -0.354 N 
ATOM     54  N   UNL A   1      40.921  31.170  34.766  1.00  0.00    -0.248 NA
ATOM     55  C   UNL A   1      41.554  31.884  36.898  1.00  0.00     0.031 C 
ATOM     56  C   UNL A   1      42.899  27.801  32.593  1.00  0.00     0.029 A 
ATOM     57  C   UNL A   1      42.300  28.854  33.269  1.00  0.00     0.049 A 
ATOM     58  H   UNL A   1      40.673  30.056  32.675  1.00  0.00     0.167 HD
ATOM     59  C   UNL A   1      42.005  30.415  35.190  1.00  0.00     0.074 A 
ATOM     60  C   UNL A   1      42.373  30.919  36.499  1.00  0.00     0.031 C 
ATOM     61  C   UNL A   1      42.639  29.395  34.561  1.00  0.00     0.037 A 
BRANCH  48  62
ATOM     62  C   UNL A   1      40.346  27.919  29.000  1.00  0.00     0.064 A 
ATOM     63  C   UNL A   1      39.625  26.715  28.959  1.00  0.00     0.173 A 
ATOM     64  C   UNL A   1      41.110  28.262  27.875  1.00  0.00     0.173 A 
ATOM     65  F   UNL A   1      38.894  26.329  30.016  1.00  0.00    -0.203 F 
ATOM     66  C   UNL A   1      39.697  25.872  27.853  1.00  0.00     0.198 A 
ATOM     67  C   UNL A   1      41.155  27.431  26.758  1.00  0.00     0.198 A 
ATOM     68  F   UNL A   1      41.820  29.400  27.861  1.00  0.00    -0.203 F 
ATOM     69  F   UNL A   1      39.049  24.699  27.864  1.00  0.00    -0.200 F 
ATOM     70  C   UNL A   1      40.457  26.233  26.752  1.00  0.00     0.200 A 
ATOM     71  F   UNL A   1      41.883  27.785  25.690  1.00  0.00    -0.200 F 
ATOM     72  F   UNL A   1      40.527  25.421  25.688  1.00  0.00    -0.200 F 
ENDBRANCH  48  62
BRANCH  49  73
ATOM     73  C   UNL A   1      39.482  33.976  36.989  1.00  0.00     0.064 A 
ATOM     74  C   UNL A   1      38.730  33.570  38.100  1.00  0.00     0.173 A 
ATOM     75  C   UNL A   1      40.116  35.226  37.052  1.00  0.00     0.173 A 
ATOM     76  F   UNL A   1      38.096  32.388  38.082  1.00  0.00    -0.203 F 
ATOM     77  C   UNL A   1      38.599  34.388  39.220  1.00  0.00     0.198 A 
ATOM     78  C   UNL A   1      40.005  36.032  38.184  1.00  0.00     0.198 A 
ATOM     79  F   UNL A   1      40.858  35.656  36.021  1.00  0.00    -0.203 F 
ATOM     80  F   UNL A   1      37.844  33.989  40.254  1.00  0.00    -0.200 F 
ATOM     81  C   UNL A   1      39.242  35.615  39.265  1.00  0.00     0.200 A 
ATOM     82  F   UNL A   1      40.640  37.211  38.229  1.00  0.00    -0.200 F 
ATOM     83  F   UNL A   1      39.122  36.398  40.345  1.00  0.00    -0.200 F 
ENDBRANCH  49  73
BRANCH  61  84
ATOM     84  C   UNL A   1      43.811  28.787  35.269  1.00  0.00     0.064 A 
ATOM     85  C   UNL A   1      45.111  29.275  35.081  1.00  0.00     0.173 A 
ATOM     86  C   UNL A   1      43.619  27.740  36.181  1.00  0.00     0.173 A 
ATOM     87  F   UNL A   1      45.341  30.266  34.206  1.00  0.00    -0.203 F 
ATOM     88  C   UNL A   1      46.185  28.720  35.769  1.00  0.00     0.198 A 
ATOM     89  C   UNL A   1      44.692  27.207  36.888  1.00  0.00     0.198 A 
ATOM     90  F   UNL A   1      42.391  27.247  36.398  1.00  0.00    -0.203 F 
ATOM     91  F   UNL A   1      47.426  29.173  35.545  1.00  0.00    -0.200 F 
ATOM     92  C   UNL A   1      45.974  27.693  36.677  1.00  0.00     0.200 A 
ATOM     93  F   UNL A   1      44.486  26.222  37.774  1.00  0.00    -0.200 F 
ATOM     94  F   UNL A   1      47.009  27.165  37.345  1.00  0.00    -0.200 F 
ENDBRANCH  61  84
ENDBRANCH  35  36
ENDBRANCH  27  30
ENDBRANCH  25  26
ENDBRANCH   1  25
TORSDOF 12
ENDMDL
