MODEL 1
REMARK VINA RESULT:     -12.3      0.000      0.000
REMARK SMILES CC1=C(C)C(=O)N(C[C@H](CC(C)C)C(=O)NCCCNC(=O)c2ccc(-c3c4nc(c(-c5c(F)c(F)c(F)c(F)c5F)c5ccc([nH]5)c(-c5c(F)c(F)c(F)c(F)c5F)c5nc(c(-c6c(F)c(F)c(F)c(F)c6F)c6ccc3[nH]6)C=C5)C=C4)cc2)C1=O
REMARK SMILES IDX 18 1 17 2 16 3 14 4 15 5 9 7 8 8 7 9 1 10 2 11 3 12 86 13
REMARK SMILES IDX 4 14 5 15 87 16 6 17 10 18 11 19 12 20 13 21 19 22 20 23
REMARK SMILES IDX 21 24 22 26 23 27 24 28 85 29 25 30 84 31 26 32 27 33 28 34
REMARK SMILES IDX 78 35 29 36 83 37 77 38 79 39 30 40 82 41 76 42 75 43 31 45
REMARK SMILES IDX 63 46 43 47 62 48 44 49 47 50 61 51 80 52 45 53 46 54 60 56
REMARK SMILES IDX 81 57 48 58 32 59 33 60 41 61 34 62 35 63 39 64 42 65 36 66
REMARK SMILES IDX 37 67 40 68 38 69 64 70 65 71 73 72 66 73 67 74 71 75 74 76
REMARK SMILES IDX 68 77 69 78 72 79 70 80 49 81 50 82 58 83 51 84 52 85 56 86
REMARK SMILES IDX 59 87 53 88 54 89 57 90 55 91
REMARK H PARENT 16 6 20 25 79 44 47 55
REMARK Flexibility Score: inf
ROOT
ATOM      1  C   UNL A   1      31.636  29.297  26.375  1.00  0.00     0.042 C 
ENDROOT
BRANCH   1   2
ATOM      2  C   UNL A   1      32.015  28.060  27.157  1.00  0.00     0.117 C 
BRANCH   2   3
ATOM      3  N   UNL A   1      31.210  26.887  26.993  1.00  0.00    -0.356 N 
ATOM      4  C   UNL A   1      31.523  25.840  26.172  1.00  0.00     0.224 C 
ATOM      5  O   UNL A   1      31.095  24.726  26.477  1.00  0.00    -0.275 OA
ATOM      6  H   UNL A   1      30.372  26.832  27.507  1.00  0.00     0.163 HD
BRANCH   4   7
ATOM      7  C   UNL A   1      32.351  26.052  24.891  1.00  0.00     0.099 C 
BRANCH   7   8
ATOM      8  C   UNL A   1      31.556  26.043  23.560  1.00  0.00     0.142 C 
BRANCH   8   9
ATOM      9  N   UNL A   1      30.646  27.145  23.260  1.00  0.00    -0.274 N 
ATOM     10  C   UNL A   1      29.644  30.262  21.642  1.00  0.00     0.051 C 
ATOM     11  C   UNL A   1      29.705  29.077  22.526  1.00  0.00     0.023 C 
ATOM     12  C   UNL A   1      28.723  28.369  23.087  1.00  0.00     0.023 C 
ATOM     13  C   UNL A   1      30.963  28.409  22.890  1.00  0.00     0.256 C 
ATOM     14  C   UNL A   1      27.270  28.633  23.121  1.00  0.00     0.051 C 
ATOM     15  C   UNL A   1      29.336  27.147  23.636  1.00  0.00     0.256 C 
ATOM     16  O   UNL A   1      32.047  28.958  22.853  1.00  0.00    -0.269 OA
ATOM     17  O   UNL A   1      28.742  26.336  24.326  1.00  0.00    -0.269 OA
ENDBRANCH   8   9
ENDBRANCH   7   8
BRANCH   7  18
ATOM     18  C   UNL A   1      33.798  25.473  24.991  1.00  0.00     0.018 C 
BRANCH  18  19
ATOM     19  C   UNL A   1      34.138  23.977  24.805  1.00  0.00    -0.017 C 
ATOM     20  C   UNL A   1      35.154  23.699  23.698  1.00  0.00     0.007 C 
ATOM     21  C   UNL A   1      34.711  23.439  26.130  1.00  0.00     0.007 C 
ENDBRANCH  18  19
ENDBRANCH   7  18
ENDBRANCH   4   7
ENDBRANCH   2   3
ENDBRANCH   1   2
BRANCH   1  22
ATOM     22  C   UNL A   1      32.821  30.236  26.248  1.00  0.00     0.118 C 
BRANCH  22  23
ATOM     23  N   UNL A   1      32.697  31.490  26.990  1.00  0.00    -0.352 N 
ATOM     24  C   UNL A   1      33.685  32.216  27.619  1.00  0.00     0.251 C 
ATOM     25  H   UNL A   1      31.789  31.865  27.047  1.00  0.00     0.163 HD
ATOM     26  O   UNL A   1      33.456  33.330  28.078  1.00  0.00    -0.269 OA
BRANCH  24  27
ATOM     27  C   UNL A   1      34.985  31.564  27.866  1.00  0.00     0.039 A 
ATOM     28  C   UNL A   1      36.093  32.395  28.046  1.00  0.00     0.014 A 
ATOM     29  C   UNL A   1      35.071  30.199  28.127  1.00  0.00     0.014 A 
ATOM     30  C   UNL A   1      37.248  31.877  28.621  1.00  0.00     0.010 A 
ATOM     31  C   UNL A   1      36.168  29.715  28.822  1.00  0.00     0.010 A 
ATOM     32  C   UNL A   1      37.261  30.553  29.086  1.00  0.00    -0.014 A 
BRANCH  32  33
ATOM     33  C   UNL A   1      38.411  30.023  29.852  1.00  0.00     0.031 A 
ATOM     34  C   UNL A   1      38.628  30.486  31.263  1.00  0.00     0.074 A 
ATOM     35  C   UNL A   1      39.284  29.189  29.254  1.00  0.00     0.049 A 
ATOM     36  N   UNL A   1      39.608  30.209  32.082  1.00  0.00    -0.248 NA
ATOM     37  C   UNL A   1      37.631  31.418  31.813  1.00  0.00     0.031 C 
ATOM     38  C   UNL A   1      39.199  28.723  27.867  1.00  0.00     0.029 A 
ATOM     39  N   UNL A   1      40.417  28.586  29.734  1.00  0.00    -0.354 N 
ATOM     40  C   UNL A   1      39.350  30.942  33.231  1.00  0.00     0.074 A 
ATOM     41  C   UNL A   1      38.170  31.737  32.978  1.00  0.00     0.031 C 
ATOM     42  C   UNL A   1      40.213  27.877  27.622  1.00  0.00     0.029 A 
ATOM     43  C   UNL A   1      41.044  27.777  28.817  1.00  0.00     0.049 A 
ATOM     44  H   UNL A   1      40.751  28.719  30.651  1.00  0.00     0.167 HD
ATOM     45  C   UNL A   1      40.018  30.923  34.408  1.00  0.00     0.037 A 
ATOM     46  C   UNL A   1      42.167  27.042  28.933  1.00  0.00     0.037 A 
ATOM     47  C   UNL A   1      41.175  30.107  34.653  1.00  0.00     0.049 A 
ATOM     48  C   UNL A   1      42.898  27.049  30.249  1.00  0.00     0.074 A 
ATOM     49  C   UNL A   1      41.902  29.970  35.820  1.00  0.00     0.029 A 
ATOM     50  N   UNL A   1      41.773  29.286  33.706  1.00  0.00    -0.354 N 
ATOM     51  N   UNL A   1      42.606  27.690  31.356  1.00  0.00    -0.248 NA
ATOM     52  C   UNL A   1      44.111  26.226  30.336  1.00  0.00     0.031 C 
ATOM     53  C   UNL A   1      42.973  29.108  35.564  1.00  0.00     0.029 A 
ATOM     54  C   UNL A   1      42.876  28.657  34.257  1.00  0.00     0.049 A 
ATOM     55  H   UNL A   1      41.459  29.169  32.780  1.00  0.00     0.167 HD
ATOM     56  C   UNL A   1      43.576  27.323  32.279  1.00  0.00     0.074 A 
ATOM     57  C   UNL A   1      44.456  26.391  31.605  1.00  0.00     0.031 C 
ATOM     58  C   UNL A   1      43.728  27.723  33.566  1.00  0.00     0.037 A 
BRANCH  45  59
ATOM     59  C   UNL A   1      39.506  31.809  35.506  1.00  0.00     0.064 A 
ATOM     60  C   UNL A   1      39.964  33.127  35.667  1.00  0.00     0.173 A 
ATOM     61  C   UNL A   1      38.541  31.337  36.408  1.00  0.00     0.173 A 
ATOM     62  F   UNL A   1      40.901  33.621  34.844  1.00  0.00    -0.203 F 
ATOM     63  C   UNL A   1      39.501  33.926  36.709  1.00  0.00     0.198 A 
ATOM     64  C   UNL A   1      38.053  32.153  37.427  1.00  0.00     0.198 A 
ATOM     65  F   UNL A   1      38.069  30.086  36.304  1.00  0.00    -0.203 F 
ATOM     66  F   UNL A   1      40.002  35.157  36.879  1.00  0.00    -0.200 F 
ATOM     67  C   UNL A   1      38.540  33.441  37.582  1.00  0.00     0.200 A 
ATOM     68  F   UNL A   1      37.116  31.686  38.264  1.00  0.00    -0.200 F 
ATOM     69  F   UNL A   1      38.093  34.213  38.582  1.00  0.00    -0.200 F 
ENDBRANCH  45  59
BRANCH  46  70
ATOM     70  C   UNL A   1      42.652  26.223  27.790  1.00  0.00     0.064 A 
ATOM     71  C   UNL A   1      43.613  26.723  26.900  1.00  0.00     0.173 A 
ATOM     72  C   UNL A   1      42.157  24.932  27.550  1.00  0.00     0.173 A 
ATOM     73  F   UNL A   1      44.107  27.958  27.073  1.00  0.00    -0.203 F 
ATOM     74  C   UNL A   1      44.039  25.978  25.801  1.00  0.00     0.198 A 
ATOM     75  C   UNL A   1      42.606  24.175  26.470  1.00  0.00     0.198 A 
ATOM     76  F   UNL A   1      41.241  24.400  28.373  1.00  0.00    -0.203 F 
ATOM     77  F   UNL A   1      44.918  26.505  24.937  1.00  0.00    -0.200 F 
ATOM     78  C   UNL A   1      43.539  24.703  25.590  1.00  0.00     0.200 A 
ATOM     79  F   UNL A   1      42.133  22.936  26.278  1.00  0.00    -0.200 F 
ATOM     80  F   UNL A   1      43.948  23.987  24.533  1.00  0.00    -0.200 F 
ENDBRANCH  46  70
BRANCH  58  81
ATOM     81  C   UNL A   1      44.860  27.116  34.342  1.00  0.00     0.064 A 
ATOM     82  C   UNL A   1      46.116  27.734  34.422  1.00  0.00     0.173 A 
ATOM     83  C   UNL A   1      44.667  25.924  35.057  1.00  0.00     0.173 A 
ATOM     84  F   UNL A   1      46.356  28.868  33.747  1.00  0.00    -0.203 F 
ATOM     85  C   UNL A   1      47.147  27.164  35.164  1.00  0.00     0.198 A 
ATOM     86  C   UNL A   1      45.688  25.377  35.828  1.00  0.00     0.198 A 
ATOM     87  F   UNL A   1      43.481  25.299  35.021  1.00  0.00    -0.203 F 
ATOM     88  F   UNL A   1      48.355  27.744  35.183  1.00  0.00    -0.200 F 
ATOM     89  C   UNL A   1      46.929  25.993  35.874  1.00  0.00     0.200 A 
ATOM     90  F   UNL A   1      45.469  24.255  36.527  1.00  0.00    -0.200 F 
ATOM     91  F   UNL A   1      47.918  25.453  36.599  1.00  0.00    -0.200 F 
ENDBRANCH  58  81
ENDBRANCH  32  33
ENDBRANCH  24  27
ENDBRANCH  22  23
ENDBRANCH   1  22
TORSDOF 14
ENDMDL
MODEL 2
REMARK VINA RESULT:     -12.2      0.244      1.628
REMARK SMILES CC1=C(C)C(=O)N(C[C@H](CC(C)C)C(=O)NCCCNC(=O)c2ccc(-c3c4nc(c(-c5c(F)c(F)c(F)c(F)c5F)c5ccc([nH]5)c(-c5c(F)c(F)c(F)c(F)c5F)c5nc(c(-c6c(F)c(F)c(F)c(F)c6F)c6ccc3[nH]6)C=C5)C=C4)cc2)C1=O
REMARK SMILES IDX 18 1 17 2 16 3 14 4 15 5 9 7 8 8 7 9 1 10 2 11 3 12 86 13
REMARK SMILES IDX 4 14 5 15 87 16 6 17 10 18 11 19 12 20 13 21 19 22 20 23
REMARK SMILES IDX 21 24 22 26 23 27 24 28 85 29 25 30 84 31 26 32 27 33 28 34
REMARK SMILES IDX 78 35 29 36 83 37 77 38 79 39 30 40 82 41 76 42 75 43 31 45
REMARK SMILES IDX 63 46 43 47 62 48 44 49 47 50 61 51 80 52 45 53 46 54 60 56
REMARK SMILES IDX 81 57 48 58 32 59 33 60 41 61 34 62 35 63 39 64 42 65 36 66
REMARK SMILES IDX 37 67 40 68 38 69 64 70 65 71 73 72 66 73 67 74 71 75 74 76
REMARK SMILES IDX 68 77 69 78 72 79 70 80 49 81 50 82 58 83 51 84 52 85 56 86
REMARK SMILES IDX 59 87 53 88 54 89 57 90 55 91
REMARK H PARENT 16 6 20 25 79 44 47 55
REMARK Flexibility Score: inf
ROOT
ATOM      1  C   UNL A   1      31.632  29.628  26.647  1.00  0.00     0.042 C 
ENDROOT
BRANCH   1   2
ATOM      2  C   UNL A   1      32.212  28.343  27.198  1.00  0.00     0.117 C 
BRANCH   2   3
ATOM      3  N   UNL A   1      31.394  27.169  27.165  1.00  0.00    -0.356 N 
ATOM      4  C   UNL A   1      31.686  26.040  26.452  1.00  0.00     0.224 C 
ATOM      5  O   UNL A   1      31.253  24.967  26.875  1.00  0.00    -0.275 OA
ATOM      6  H   UNL A   1      30.562  27.175  27.692  1.00  0.00     0.163 HD
BRANCH   4   7
ATOM      7  C   UNL A   1      32.498  26.110  25.146  1.00  0.00     0.099 C 
BRANCH   7   8
ATOM      8  C   UNL A   1      31.681  26.017  23.832  1.00  0.00     0.142 C 
BRANCH   8   9
ATOM      9  N   UNL A   1      30.783  27.110  23.467  1.00  0.00    -0.274 N 
ATOM     10  C   UNL A   1      29.857  30.196  21.747  1.00  0.00     0.051 C 
ATOM     11  C   UNL A   1      29.875  29.026  22.652  1.00  0.00     0.023 C 
ATOM     12  C   UNL A   1      28.868  28.321  23.172  1.00  0.00     0.023 C 
ATOM     13  C   UNL A   1      31.114  28.369  23.094  1.00  0.00     0.256 C 
ATOM     14  C   UNL A   1      27.414  28.579  23.123  1.00  0.00     0.051 C 
ATOM     15  C   UNL A   1      29.456  27.111  23.771  1.00  0.00     0.256 C 
ATOM     16  O   UNL A   1      32.197  28.924  23.106  1.00  0.00    -0.269 OA
ATOM     17  O   UNL A   1      28.828  26.309  24.441  1.00  0.00    -0.269 OA
ENDBRANCH   8   9
ENDBRANCH   7   8
BRANCH   7  18
ATOM     18  C   UNL A   1      33.926  25.490  25.275  1.00  0.00     0.018 C 
BRANCH  18  19
ATOM     19  C   UNL A   1      34.232  23.991  25.051  1.00  0.00    -0.017 C 
ATOM     20  C   UNL A   1      35.160  23.711  23.870  1.00  0.00     0.007 C 
ATOM     21  C   UNL A   1      34.896  23.435  26.326  1.00  0.00     0.007 C 
ENDBRANCH  18  19
ENDBRANCH   7  18
ENDBRANCH   4   7
ENDBRANCH   2   3
ENDBRANCH   1   2
BRANCH   1  22
ATOM     22  C   UNL A   1      32.732  30.631  26.356  1.00  0.00     0.118 C 
BRANCH  22  23
ATOM     23  N   UNL A   1      32.649  31.877  27.117  1.00  0.00    -0.352 N 
ATOM     24  C   UNL A   1      33.660  32.564  27.753  1.00  0.00     0.251 C 
ATOM     25  H   UNL A   1      31.752  32.278  27.184  1.00  0.00     0.163 HD
ATOM     26  O   UNL A   1      33.466  33.677  28.230  1.00  0.00    -0.269 OA
BRANCH  24  27
ATOM     27  C   UNL A   1      34.941  31.870  27.985  1.00  0.00     0.039 A 
ATOM     28  C   UNL A   1      36.071  32.665  28.186  1.00  0.00     0.014 A 
ATOM     29  C   UNL A   1      34.989  30.496  28.211  1.00  0.00     0.014 A 
ATOM     30  C   UNL A   1      37.211  32.100  28.749  1.00  0.00     0.010 A 
ATOM     31  C   UNL A   1      36.071  29.965  28.894  1.00  0.00     0.010 A 
ATOM     32  C   UNL A   1      37.187  30.766  29.180  1.00  0.00    -0.014 A 
BRANCH  32  33
ATOM     33  C   UNL A   1      38.320  30.185  29.933  1.00  0.00     0.031 A 
ATOM     34  C   UNL A   1      38.548  30.605  31.355  1.00  0.00     0.074 A 
ATOM     35  C   UNL A   1      39.171  29.343  29.314  1.00  0.00     0.049 A 
ATOM     36  N   UNL A   1      39.518  30.279  32.168  1.00  0.00    -0.248 NA
ATOM     37  C   UNL A   1      37.575  31.549  31.929  1.00  0.00     0.031 C 
ATOM     38  C   UNL A   1      39.076  28.915  27.915  1.00  0.00     0.029 A 
ATOM     39  N   UNL A   1      40.287  28.696  29.780  1.00  0.00    -0.354 N 
ATOM     40  C   UNL A   1      39.278  30.989  33.336  1.00  0.00     0.074 A 
ATOM     41  C   UNL A   1      38.121  31.822  33.102  1.00  0.00     0.031 C 
ATOM     42  C   UNL A   1      40.067  28.049  27.650  1.00  0.00     0.029 A 
ATOM     43  C   UNL A   1      40.893  27.895  28.842  1.00  0.00     0.049 A 
ATOM     44  H   UNL A   1      40.623  28.797  30.700  1.00  0.00     0.167 HD
ATOM     45  C   UNL A   1      39.944  30.922  34.512  1.00  0.00     0.037 A 
ATOM     46  C   UNL A   1      41.995  27.127  28.941  1.00  0.00     0.037 A 
ATOM     47  C   UNL A   1      41.077  30.068  34.737  1.00  0.00     0.049 A 
ATOM     48  C   UNL A   1      42.724  27.080  30.257  1.00  0.00     0.074 A 
ATOM     49  C   UNL A   1      41.799  29.881  35.901  1.00  0.00     0.029 A 
ATOM     50  N   UNL A   1      41.655  29.256  33.770  1.00  0.00    -0.354 N 
ATOM     51  N   UNL A   1      42.447  27.699  31.380  1.00  0.00    -0.248 NA
ATOM     52  C   UNL A   1      43.914  26.222  30.324  1.00  0.00     0.031 C 
ATOM     53  C   UNL A   1      42.847  28.997  35.624  1.00  0.00     0.029 A 
ATOM     54  C   UNL A   1      42.739  28.583  34.305  1.00  0.00     0.049 A 
ATOM     55  H   UNL A   1      41.339  29.172  32.841  1.00  0.00     0.167 HD
ATOM     56  C   UNL A   1      43.406  27.283  32.294  1.00  0.00     0.074 A 
ATOM     57  C   UNL A   1      44.261  26.344  31.597  1.00  0.00     0.031 C 
ATOM     58  C   UNL A   1      43.567  27.644  33.591  1.00  0.00     0.037 A 
BRANCH  45  59
ATOM     59  C   UNL A   1      39.454  31.792  35.633  1.00  0.00     0.064 A 
ATOM     60  C   UNL A   1      38.475  31.350  36.538  1.00  0.00     0.173 A 
ATOM     61  C   UNL A   1      39.974  33.082  35.811  1.00  0.00     0.173 A 
ATOM     62  F   UNL A   1      37.929  30.132  36.401  1.00  0.00    -0.203 F 
ATOM     63  C   UNL A   1      38.010  32.180  37.555  1.00  0.00     0.198 A 
ATOM     64  C   UNL A   1      39.533  33.896  36.853  1.00  0.00     0.198 A 
ATOM     65  F   UNL A   1      40.910  33.557  34.976  1.00  0.00    -0.203 F 
ATOM     66  F   UNL A   1      37.028  31.759  38.364  1.00  0.00    -0.200 F 
ATOM     67  C   UNL A   1      38.545  33.448  37.716  1.00  0.00     0.200 A 
ATOM     68  F   UNL A   1      40.060  35.118  37.014  1.00  0.00    -0.200 F 
ATOM     69  F   UNL A   1      38.100  34.244  38.698  1.00  0.00    -0.200 F 
ENDBRANCH  45  59
BRANCH  46  70
ATOM     70  C   UNL A   1      42.459  26.325  27.777  1.00  0.00     0.064 A 
ATOM     71  C   UNL A   1      41.932  25.050  27.523  1.00  0.00     0.173 A 
ATOM     72  C   UNL A   1      43.448  26.803  26.903  1.00  0.00     0.173 A 
ATOM     73  F   UNL A   1      40.997  24.538  28.338  1.00  0.00    -0.203 F 
ATOM     74  C   UNL A   1      42.394  24.274  26.461  1.00  0.00     0.198 A 
ATOM     75  C   UNL A   1      43.887  26.039  25.823  1.00  0.00     0.198 A 
ATOM     76  F   UNL A   1      43.983  28.017  27.094  1.00  0.00    -0.203 F 
ATOM     77  F   UNL A   1      41.911  23.038  26.277  1.00  0.00    -0.200 F 
ATOM     78  C   UNL A   1      43.368  24.771  25.609  1.00  0.00     0.200 A 
ATOM     79  F   UNL A   1      44.817  26.530  24.991  1.00  0.00    -0.200 F 
ATOM     80  F   UNL A   1      43.813  24.026  24.588  1.00  0.00    -0.200 F 
ENDBRANCH  46  70
BRANCH  58  81
ATOM     81  C   UNL A   1      44.681  26.987  34.352  1.00  0.00     0.064 A 
ATOM     82  C   UNL A   1      45.952  27.569  34.452  1.00  0.00     0.173 A 
ATOM     83  C   UNL A   1      44.455  25.780  35.033  1.00  0.00     0.173 A 
ATOM     84  F   UNL A   1      46.222  28.715  33.810  1.00  0.00    -0.203 F 
ATOM     85  C   UNL A   1      46.965  26.953  35.181  1.00  0.00     0.198 A 
ATOM     86  C   UNL A   1      45.459  25.186  35.790  1.00  0.00     0.198 A 
ATOM     87  F   UNL A   1      43.252  25.188  34.977  1.00  0.00    -0.203 F 
ATOM     88  F   UNL A   1      48.188  27.500  35.218  1.00  0.00    -0.200 F 
ATOM     89  C   UNL A   1      46.715  25.768  35.857  1.00  0.00     0.200 A 
ATOM     90  F   UNL A   1      45.209  24.051  36.458  1.00  0.00    -0.200 F 
ATOM     91  F   UNL A   1      47.688  25.182  36.568  1.00  0.00    -0.200 F 
ENDBRANCH  58  81
ENDBRANCH  32  33
ENDBRANCH  24  27
ENDBRANCH  22  23
ENDBRANCH   1  22
TORSDOF 14
ENDMDL
MODEL 3
REMARK VINA RESULT:     -12.1      4.564      9.859
REMARK SMILES CC1=C(C)C(=O)N(C[C@H](CC(C)C)C(=O)NCCCNC(=O)c2ccc(-c3c4nc(c(-c5c(F)c(F)c(F)c(F)c5F)c5ccc([nH]5)c(-c5c(F)c(F)c(F)c(F)c5F)c5nc(c(-c6c(F)c(F)c(F)c(F)c6F)c6ccc3[nH]6)C=C5)C=C4)cc2)C1=O
REMARK SMILES IDX 18 1 17 2 16 3 14 4 15 5 9 7 8 8 7 9 1 10 2 11 3 12 86 13
REMARK SMILES IDX 4 14 5 15 87 16 6 17 10 18 11 19 12 20 13 21 19 22 20 23
REMARK SMILES IDX 21 24 22 26 23 27 24 28 85 29 25 30 84 31 26 32 27 33 28 34
REMARK SMILES IDX 78 35 29 36 83 37 77 38 79 39 30 40 82 41 76 42 75 43 31 45
REMARK SMILES IDX 63 46 43 47 62 48 44 49 47 50 61 51 80 52 45 53 46 54 60 56
REMARK SMILES IDX 81 57 48 58 32 59 33 60 41 61 34 62 35 63 39 64 42 65 36 66
REMARK SMILES IDX 37 67 40 68 38 69 64 70 65 71 73 72 66 73 67 74 71 75 74 76
REMARK SMILES IDX 68 77 69 78 72 79 70 80 49 81 50 82 58 83 51 84 52 85 56 86
REMARK SMILES IDX 59 87 53 88 54 89 57 90 55 91
REMARK H PARENT 16 6 20 25 79 44 47 55
REMARK Flexibility Score: inf
ROOT
ATOM      1  C   UNL A   1      36.896  20.482  25.046  1.00  0.00     0.042 C 
ENDROOT
BRANCH   1   2
ATOM      2  C   UNL A   1      35.613  21.068  25.594  1.00  0.00     0.117 C 
BRANCH   2   3
ATOM      3  N   UNL A   1      34.413  20.297  25.466  1.00  0.00    -0.356 N 
ATOM      4  C   UNL A   1      33.329  20.668  24.722  1.00  0.00     0.224 C 
ATOM      5  O   UNL A   1      32.618  19.775  24.260  1.00  0.00    -0.275 OA
ATOM      6  H   UNL A   1      34.366  19.440  25.949  1.00  0.00     0.163 HD
BRANCH   4   7
ATOM      7  C   UNL A   1      32.985  22.153  24.500  1.00  0.00     0.099 C 
BRANCH   7   8
ATOM      8  C   UNL A   1      31.538  22.577  24.860  1.00  0.00     0.142 C 
BRANCH   8   9
ATOM      9  N   UNL A   1      31.231  23.992  25.051  1.00  0.00    -0.274 N 
ATOM     10  C   UNL A   1      31.437  27.223  26.741  1.00  0.00     0.051 C 
ATOM     11  C   UNL A   1      31.038  26.107  25.855  1.00  0.00     0.023 C 
ATOM     12  C   UNL A   1      30.529  26.124  24.621  1.00  0.00     0.023 C 
ATOM     13  C   UNL A   1      31.224  24.692  26.210  1.00  0.00     0.256 C 
ATOM     14  C   UNL A   1      30.067  27.267  23.808  1.00  0.00     0.051 C 
ATOM     15  C   UNL A   1      30.578  24.740  24.119  1.00  0.00     0.256 C 
ATOM     16  O   UNL A   1      31.331  24.299  27.356  1.00  0.00    -0.269 OA
ATOM     17  O   UNL A   1      30.077  24.379  23.068  1.00  0.00    -0.269 OA
ENDBRANCH   8   9
ENDBRANCH   7   8
BRANCH   7  18
ATOM     18  C   UNL A   1      33.757  22.790  23.301  1.00  0.00     0.018 C 
BRANCH  18  19
ATOM     19  C   UNL A   1      34.483  24.153  23.375  1.00  0.00    -0.017 C 
ATOM     20  C   UNL A   1      33.699  25.314  22.764  1.00  0.00     0.007 C 
ATOM     21  C   UNL A   1      34.752  24.481  24.856  1.00  0.00     0.007 C 
ENDBRANCH  18  19
ENDBRANCH   7  18
ENDBRANCH   4   7
ENDBRANCH   2   3
ENDBRANCH   1   2
BRANCH   1  22
ATOM     22  C   UNL A   1      38.093  21.302  25.491  1.00  0.00     0.118 C 
BRANCH  22  23
ATOM     23  N   UNL A   1      39.303  20.528  25.763  1.00  0.00    -0.352 N 
ATOM     24  C   UNL A   1      40.326  20.815  26.640  1.00  0.00     0.251 C 
ATOM     25  H   UNL A   1      39.400  19.692  25.251  1.00  0.00     0.163 HD
ATOM     26  O   UNL A   1      41.209  19.996  26.871  1.00  0.00    -0.269 OA
BRANCH  24  27
ATOM     27  C   UNL A   1      40.422  22.184  27.181  1.00  0.00     0.039 A 
ATOM     28  C   UNL A   1      41.343  22.402  28.209  1.00  0.00     0.014 A 
ATOM     29  C   UNL A   1      39.790  23.255  26.555  1.00  0.00     0.014 A 
ATOM     30  C   UNL A   1      41.732  23.702  28.512  1.00  0.00     0.010 A 
ATOM     31  C   UNL A   1      40.275  24.537  26.763  1.00  0.00     0.010 A 
ATOM     32  C   UNL A   1      41.259  24.770  27.735  1.00  0.00    -0.014 A 
BRANCH  32  33
ATOM     33  C   UNL A   1      41.781  26.142  27.921  1.00  0.00     0.031 A 
ATOM     34  C   UNL A   1      43.137  26.490  27.383  1.00  0.00     0.074 A 
ATOM     35  C   UNL A   1      41.065  27.037  28.629  1.00  0.00     0.049 A 
ATOM     36  N   UNL A   1      43.813  27.602  27.501  1.00  0.00    -0.248 NA
ATOM     37  C   UNL A   1      43.848  25.431  26.647  1.00  0.00     0.031 C 
ATOM     38  C   UNL A   1      39.760  26.784  29.248  1.00  0.00     0.029 A 
ATOM     39  N   UNL A   1      41.333  28.342  28.952  1.00  0.00    -0.354 N 
ATOM     40  C   UNL A   1      45.026  27.369  26.869  1.00  0.00     0.074 A 
ATOM     41  C   UNL A   1      45.029  25.989  26.441  1.00  0.00     0.031 C 
ATOM     42  C   UNL A   1      39.327  27.908  29.840  1.00  0.00     0.029 A 
ATOM     43  C   UNL A   1      40.339  28.947  29.684  1.00  0.00     0.049 A 
ATOM     44  H   UNL A   1      42.161  28.804  28.684  1.00  0.00     0.167 HD
ATOM     45  C   UNL A   1      46.033  28.242  26.634  1.00  0.00     0.037 A 
ATOM     46  C   UNL A   1      40.263  30.198  30.174  1.00  0.00     0.037 A 
ATOM     47  C   UNL A   1      46.004  29.619  27.043  1.00  0.00     0.049 A 
ATOM     48  C   UNL A   1      41.403  31.146  29.908  1.00  0.00     0.074 A 
ATOM     49  C   UNL A   1      46.944  30.606  26.816  1.00  0.00     0.029 A 
ATOM     50  N   UNL A   1      44.973  30.202  27.769  1.00  0.00    -0.354 N 
ATOM     51  N   UNL A   1      42.515  30.938  29.247  1.00  0.00    -0.248 NA
ATOM     52  C   UNL A   1      41.274  32.504  30.451  1.00  0.00     0.031 C 
ATOM     53  C   UNL A   1      46.507  31.774  27.451  1.00  0.00     0.029 A 
ATOM     54  C   UNL A   1      45.265  31.532  28.018  1.00  0.00     0.049 A 
ATOM     55  H   UNL A   1      44.155  29.739  28.061  1.00  0.00     0.167 HD
ATOM     56  C   UNL A   1      43.203  32.144  29.265  1.00  0.00     0.074 A 
ATOM     57  C   UNL A   1      42.373  33.083  29.990  1.00  0.00     0.031 C 
ATOM     58  C   UNL A   1      44.413  32.448  28.733  1.00  0.00     0.037 A 
BRANCH  45  59
ATOM     59  C   UNL A   1      47.237  27.726  25.902  1.00  0.00     0.064 A 
ATOM     60  C   UNL A   1      48.361  27.233  26.584  1.00  0.00     0.173 A 
ATOM     61  C   UNL A   1      47.267  27.717  24.500  1.00  0.00     0.173 A 
ATOM     62  F   UNL A   1      48.393  27.236  27.925  1.00  0.00    -0.203 F 
ATOM     63  C   UNL A   1      49.483  26.785  25.890  1.00  0.00     0.198 A 
ATOM     64  C   UNL A   1      48.376  27.234  23.809  1.00  0.00     0.198 A 
ATOM     65  F   UNL A   1      46.222  28.178  23.796  1.00  0.00    -0.203 F 
ATOM     66  F   UNL A   1      50.567  26.380  26.565  1.00  0.00    -0.200 F 
ATOM     67  C   UNL A   1      49.486  26.778  24.505  1.00  0.00     0.200 A 
ATOM     68  F   UNL A   1      48.374  27.218  22.469  1.00  0.00    -0.200 F 
ATOM     69  F   UNL A   1      50.564  26.343  23.838  1.00  0.00    -0.200 F 
ENDBRANCH  45  59
BRANCH  46  70
ATOM     70  C   UNL A   1      39.062  30.636  30.936  1.00  0.00     0.064 A 
ATOM     71  C   UNL A   1      39.016  30.528  32.334  1.00  0.00     0.173 A 
ATOM     72  C   UNL A   1      37.931  31.156  30.288  1.00  0.00     0.173 A 
ATOM     73  F   UNL A   1      40.064  30.022  33.001  1.00  0.00    -0.203 F 
ATOM     74  C   UNL A   1      37.878  30.895  33.050  1.00  0.00     0.198 A 
ATOM     75  C   UNL A   1      36.805  31.551  31.008  1.00  0.00     0.198 A 
ATOM     76  F   UNL A   1      37.922  31.288  28.954  1.00  0.00    -0.203 F 
ATOM     77  F   UNL A   1      37.843  30.729  34.380  1.00  0.00    -0.200 F 
ATOM     78  C   UNL A   1      36.775  31.411  32.388  1.00  0.00     0.200 A 
ATOM     79  F   UNL A   1      35.747  32.065  30.365  1.00  0.00    -0.200 F 
ATOM     80  F   UNL A   1      35.680  31.763  33.076  1.00  0.00    -0.200 F 
ENDBRANCH  46  70
BRANCH  58  81
ATOM     81  C   UNL A   1      44.887  33.865  28.875  1.00  0.00     0.064 A 
ATOM     82  C   UNL A   1      45.698  34.269  29.945  1.00  0.00     0.173 A 
ATOM     83  C   UNL A   1      44.566  34.818  27.896  1.00  0.00     0.173 A 
ATOM     84  F   UNL A   1      46.023  33.399  30.913  1.00  0.00    -0.203 F 
ATOM     85  C   UNL A   1      46.144  35.584  30.046  1.00  0.00     0.198 A 
ATOM     86  C   UNL A   1      45.044  36.121  27.982  1.00  0.00     0.198 A 
ATOM     87  F   UNL A   1      43.802  34.479  26.847  1.00  0.00    -0.203 F 
ATOM     88  F   UNL A   1      46.873  35.961  31.105  1.00  0.00    -0.200 F 
ATOM     89  C   UNL A   1      45.825  36.506  29.060  1.00  0.00     0.200 A 
ATOM     90  F   UNL A   1      44.750  37.006  27.018  1.00  0.00    -0.200 F 
ATOM     91  F   UNL A   1      46.266  37.768  29.153  1.00  0.00    -0.200 F 
ENDBRANCH  58  81
ENDBRANCH  32  33
ENDBRANCH  24  27
ENDBRANCH  22  23
ENDBRANCH   1  22
TORSDOF 14
ENDMDL
