MODEL 1
REMARK VINA RESULT:     -11.9      0.000      0.000
REMARK SMILES CCn1cnc(S(=O)(=O)N[C@H](CC(C)C)C(=O)NCCCNC(=O)c2ccc(-c3c4nc(c(-c5c(F)c(F)c(F)c(F)c5F)c5ccc([nH]5)c(-c5c(F)c(F)c(F)c(F)c5F)c5nc(c(-c6c(F)c(F)c(F)c(F)c6F)c6ccc3[nH]6)C=C5)C=C4)cc2)c1
REMARK SMILES IDX 19 1 18 2 16 3 17 4 11 6 10 7 7 9 8 10 9 11 6 12 3 13 4 14
REMARK SMILES IDX 88 15 5 16 2 17 1 18 12 19 13 20 14 21 15 22 20 23 21 24
REMARK SMILES IDX 22 25 23 26 24 28 25 29 26 30 87 31 27 32 86 33 28 34 29 35
REMARK SMILES IDX 30 36 80 37 31 38 85 39 79 40 81 41 32 42 84 43 78 44 77 45
REMARK SMILES IDX 33 47 65 48 45 49 64 50 46 51 49 52 63 53 82 54 47 55 48 56
REMARK SMILES IDX 62 58 83 59 50 60 34 61 35 62 43 63 36 64 37 65 41 66 44 67
REMARK SMILES IDX 38 68 39 69 42 70 40 71 66 72 67 73 75 74 68 75 69 76 73 77
REMARK SMILES IDX 76 78 70 79 71 80 74 81 72 82 51 83 52 84 60 85 53 86 54 87
REMARK SMILES IDX 58 88 61 89 55 90 56 91 59 92 57 93
REMARK H PARENT 18 5 10 8 22 27 81 46 49 57
REMARK Flexibility Score: inf
ROOT
ATOM      1  C   UNL A   1      32.151  30.486  26.135  1.00  0.00     0.117 C 
ENDROOT
BRANCH   1   2
ATOM      2  N   UNL A   1      31.632  29.311  26.822  1.00  0.00    -0.355 N 
ATOM      3  C   UNL A   1      31.708  27.986  26.516  1.00  0.00     0.238 C 
ATOM      4  O   UNL A   1      31.182  27.196  27.310  1.00  0.00    -0.273 OA
ATOM      5  H   UNL A   1      31.141  29.508  27.653  1.00  0.00     0.163 HD
BRANCH   3   6
ATOM      6  C   UNL A   1      32.351  27.445  25.232  1.00  0.00     0.159 C 
BRANCH   6   7
ATOM      7  N   UNL A   1      31.503  26.910  24.150  1.00  0.00    -0.197 NA
ATOM      8  H   UNL A   1      31.900  26.009  23.884  1.00  0.00     0.142 HD
BRANCH   7   9
ATOM      9  S   UNL A   1      31.291  27.790  22.712  1.00  0.00     0.260 S 
ATOM     10  O   UNL A   1      31.170  26.862  21.617  1.00  0.00    -0.205 OA
ATOM     11  O   UNL A   1      32.328  28.804  22.737  1.00  0.00    -0.205 OA
BRANCH   9  12
ATOM     12  C   UNL A   1      29.792  28.664  22.773  1.00  0.00     0.188 A 
ATOM     13  N   UNL A   1      28.359  30.302  22.879  1.00  0.00    -0.336 N 
ATOM     14  C   UNL A   1      27.721  29.109  23.090  1.00  0.00     0.201 A 
ATOM     15  C   UNL A   1      29.662  30.024  22.592  1.00  0.00     0.129 A 
ATOM     16  N   UNL A   1      28.560  28.098  23.049  1.00  0.00    -0.224 NA
BRANCH  13  17
ATOM     17  C   UNL A   1      27.743  31.607  23.006  1.00  0.00     0.120 C 
ATOM     18  C   UNL A   1      28.711  32.783  22.982  1.00  0.00     0.027 C 
ENDBRANCH  13  17
ENDBRANCH   9  12
ENDBRANCH   7   9
ENDBRANCH   6   7
BRANCH   6  19
ATOM     19  C   UNL A   1      33.611  26.556  25.463  1.00  0.00     0.033 C 
BRANCH  19  20
ATOM     20  C   UNL A   1      33.486  25.068  25.120  1.00  0.00    -0.015 C 
ATOM     21  C   UNL A   1      34.608  24.512  24.246  1.00  0.00     0.007 C 
ATOM     22  C   UNL A   1      33.289  24.154  26.329  1.00  0.00     0.007 C 
ENDBRANCH  19  20
ENDBRANCH   6  19
ENDBRANCH   3   6
ENDBRANCH   1   2
BRANCH   1  23
ATOM     23  C   UNL A   1      31.632  31.788  26.756  1.00  0.00     0.042 C 
BRANCH  23  24
ATOM     24  C   UNL A   1      32.692  32.559  27.479  1.00  0.00     0.118 C 
BRANCH  24  25
ATOM     25  N   UNL A   1      32.408  33.982  27.675  1.00  0.00    -0.352 N 
ATOM     26  C   UNL A   1      32.979  34.814  28.640  1.00  0.00     0.251 C 
ATOM     27  H   UNL A   1      31.749  34.392  27.068  1.00  0.00     0.163 HD
ATOM     28  O   UNL A   1      32.485  35.889  28.943  1.00  0.00    -0.269 OA
BRANCH  26  29
ATOM     29  C   UNL A   1      34.224  34.338  29.280  1.00  0.00     0.039 A 
ATOM     30  C   UNL A   1      34.303  33.622  30.477  1.00  0.00     0.014 A 
ATOM     31  C   UNL A   1      35.340  34.463  28.487  1.00  0.00     0.014 A 
ATOM     32  C   UNL A   1      35.523  33.008  30.786  1.00  0.00     0.010 A 
ATOM     33  C   UNL A   1      36.189  33.413  28.522  1.00  0.00     0.010 A 
ATOM     34  C   UNL A   1      36.481  32.928  29.772  1.00  0.00    -0.014 A 
BRANCH  34  35
ATOM     35  C   UNL A   1      37.810  32.345  29.854  1.00  0.00     0.031 A 
ATOM     36  C   UNL A   1      37.940  31.017  29.219  1.00  0.00     0.074 A 
ATOM     37  C   UNL A   1      38.888  33.119  30.151  1.00  0.00     0.049 A 
ATOM     38  N   UNL A   1      38.140  29.881  29.796  1.00  0.00    -0.248 NA
ATOM     39  C   UNL A   1      37.656  30.913  27.779  1.00  0.00     0.031 C 
ATOM     40  C   UNL A   1      38.954  34.571  30.407  1.00  0.00     0.029 A 
ATOM     41  N   UNL A   1      40.201  32.769  30.187  1.00  0.00    -0.354 N 
ATOM     42  C   UNL A   1      38.210  28.941  28.772  1.00  0.00     0.074 A 
ATOM     43  C   UNL A   1      37.685  29.590  27.601  1.00  0.00     0.031 C 
ATOM     44  C   UNL A   1      40.236  34.998  30.351  1.00  0.00     0.029 A 
ATOM     45  C   UNL A   1      41.095  33.838  30.246  1.00  0.00     0.049 A 
ATOM     46  H   UNL A   1      40.499  31.831  30.171  1.00  0.00     0.167 HD
ATOM     47  C   UNL A   1      38.926  27.792  28.922  1.00  0.00     0.037 A 
ATOM     48  C   UNL A   1      42.448  33.751  30.194  1.00  0.00     0.037 A 
ATOM     49  C   UNL A   1      39.291  27.604  30.306  1.00  0.00     0.049 A 
ATOM     50  C   UNL A   1      42.794  32.336  30.500  1.00  0.00     0.074 A 
ATOM     51  C   UNL A   1      38.579  27.422  31.476  1.00  0.00     0.029 A 
ATOM     52  N   UNL A   1      40.546  28.014  30.692  1.00  0.00    -0.354 N 
ATOM     53  N   UNL A   1      42.578  31.775  31.661  1.00  0.00    -0.248 NA
ATOM     54  C   UNL A   1      42.895  31.421  29.373  1.00  0.00     0.031 C 
ATOM     55  C   UNL A   1      39.273  28.201  32.450  1.00  0.00     0.029 A 
ATOM     56  C   UNL A   1      40.414  28.737  31.850  1.00  0.00     0.049 A 
ATOM     57  H   UNL A   1      41.389  27.823  30.221  1.00  0.00     0.167 HD
ATOM     58  C   UNL A   1      42.111  30.502  31.362  1.00  0.00     0.074 A 
ATOM     59  C   UNL A   1      42.385  30.321  29.937  1.00  0.00     0.031 C 
ATOM     60  C   UNL A   1      41.275  29.839  32.217  1.00  0.00     0.037 A 
BRANCH  47  61
ATOM     61  C   UNL A   1      39.607  27.024  27.813  1.00  0.00     0.064 A 
ATOM     62  C   UNL A   1      39.601  25.614  27.863  1.00  0.00     0.173 A 
ATOM     63  C   UNL A   1      40.488  27.588  26.867  1.00  0.00     0.173 A 
ATOM     64  F   UNL A   1      38.803  24.962  28.723  1.00  0.00    -0.203 F 
ATOM     65  C   UNL A   1      40.474  24.840  27.094  1.00  0.00     0.198 A 
ATOM     66  C   UNL A   1      41.319  26.810  26.061  1.00  0.00     0.198 A 
ATOM     67  F   UNL A   1      40.670  28.907  26.750  1.00  0.00    -0.203 F 
ATOM     68  F   UNL A   1      40.519  23.513  27.274  1.00  0.00    -0.200 F 
ATOM     69  C   UNL A   1      41.339  25.439  26.200  1.00  0.00     0.200 A 
ATOM     70  F   UNL A   1      42.159  27.412  25.207  1.00  0.00    -0.200 F 
ATOM     71  F   UNL A   1      42.220  24.706  25.507  1.00  0.00    -0.200 F 
ENDBRANCH  47  61
BRANCH  48  72
ATOM     72  C   UNL A   1      43.408  34.701  29.583  1.00  0.00     0.064 A 
ATOM     73  C   UNL A   1      43.186  35.258  28.315  1.00  0.00     0.173 A 
ATOM     74  C   UNL A   1      44.429  35.291  30.354  1.00  0.00     0.173 A 
ATOM     75  F   UNL A   1      42.202  34.785  27.536  1.00  0.00    -0.203 F 
ATOM     76  C   UNL A   1      43.927  36.353  27.853  1.00  0.00     0.198 A 
ATOM     77  C   UNL A   1      45.169  36.383  29.893  1.00  0.00     0.198 A 
ATOM     78  F   UNL A   1      44.663  34.880  31.609  1.00  0.00    -0.203 F 
ATOM     79  F   UNL A   1      43.649  36.895  26.658  1.00  0.00    -0.200 F 
ATOM     80  C   UNL A   1      44.910  36.922  28.646  1.00  0.00     0.200 A 
ATOM     81  F   UNL A   1      46.088  36.949  30.688  1.00  0.00    -0.200 F 
ATOM     82  F   UNL A   1      45.574  38.009  28.232  1.00  0.00    -0.200 F 
ENDBRANCH  48  72
BRANCH  60  83
ATOM     83  C   UNL A   1      41.054  30.424  33.589  1.00  0.00     0.064 A 
ATOM     84  C   UNL A   1      41.961  30.295  34.657  1.00  0.00     0.173 A 
ATOM     85  C   UNL A   1      39.985  31.308  33.764  1.00  0.00     0.173 A 
ATOM     86  F   UNL A   1      43.058  29.540  34.542  1.00  0.00    -0.203 F 
ATOM     87  C   UNL A   1      41.791  31.003  35.846  1.00  0.00     0.198 A 
ATOM     88  C   UNL A   1      39.834  32.041  34.939  1.00  0.00     0.198 A 
ATOM     89  F   UNL A   1      39.117  31.515  32.762  1.00  0.00    -0.203 F 
ATOM     90  F   UNL A   1      42.677  30.865  36.844  1.00  0.00    -0.200 F 
ATOM     91  C   UNL A   1      40.733  31.884  35.982  1.00  0.00     0.200 A 
ATOM     92  F   UNL A   1      38.837  32.930  35.044  1.00  0.00    -0.200 F 
ATOM     93  F   UNL A   1      40.597  32.607  37.102  1.00  0.00    -0.200 F 
ENDBRANCH  60  83
ENDBRANCH  34  35
ENDBRANCH  26  29
ENDBRANCH  24  25
ENDBRANCH  23  24
ENDBRANCH   1  23
TORSDOF 16
ENDMDL
MODEL 2
REMARK VINA RESULT:     -11.7      3.043      8.022
REMARK SMILES CCn1cnc(S(=O)(=O)N[C@H](CC(C)C)C(=O)NCCCNC(=O)c2ccc(-c3c4nc(c(-c5c(F)c(F)c(F)c(F)c5F)c5ccc([nH]5)c(-c5c(F)c(F)c(F)c(F)c5F)c5nc(c(-c6c(F)c(F)c(F)c(F)c6F)c6ccc3[nH]6)C=C5)C=C4)cc2)c1
REMARK SMILES IDX 19 1 18 2 16 3 17 4 11 6 10 7 7 9 8 10 9 11 6 12 3 13 4 14
REMARK SMILES IDX 88 15 5 16 2 17 1 18 12 19 13 20 14 21 15 22 20 23 21 24
REMARK SMILES IDX 22 25 23 26 24 28 25 29 26 30 87 31 27 32 86 33 28 34 29 35
REMARK SMILES IDX 30 36 80 37 31 38 85 39 79 40 81 41 32 42 84 43 78 44 77 45
REMARK SMILES IDX 33 47 65 48 45 49 64 50 46 51 49 52 63 53 82 54 47 55 48 56
REMARK SMILES IDX 62 58 83 59 50 60 34 61 35 62 43 63 36 64 37 65 41 66 44 67
REMARK SMILES IDX 38 68 39 69 42 70 40 71 66 72 67 73 75 74 68 75 69 76 73 77
REMARK SMILES IDX 76 78 70 79 71 80 74 81 72 82 51 83 52 84 60 85 53 86 54 87
REMARK SMILES IDX 58 88 61 89 55 90 56 91 59 92 57 93
REMARK H PARENT 18 5 10 8 22 27 81 46 49 57
REMARK Flexibility Score: inf
ROOT
ATOM      1  C   UNL A   1      33.627  28.477  26.651  1.00  0.00     0.117 C 
ENDROOT
BRANCH   1   2
ATOM      2  N   UNL A   1      32.487  27.582  26.801  1.00  0.00    -0.355 N 
ATOM      3  C   UNL A   1      31.576  27.129  25.894  1.00  0.00     0.238 C 
ATOM      4  O   UNL A   1      30.713  26.346  26.310  1.00  0.00    -0.273 OA
ATOM      5  H   UNL A   1      32.350  27.245  27.716  1.00  0.00     0.163 HD
BRANCH   3   6
ATOM      6  C   UNL A   1      31.540  27.581  24.427  1.00  0.00     0.159 C 
BRANCH   6   7
ATOM      7  N   UNL A   1      32.744  27.451  23.585  1.00  0.00    -0.197 NA
ATOM      8  H   UNL A   1      32.800  28.300  23.022  1.00  0.00     0.142 HD
BRANCH   7   9
ATOM      9  S   UNL A   1      32.903  26.145  22.511  1.00  0.00     0.260 S 
ATOM     10  O   UNL A   1      33.722  26.558  21.401  1.00  0.00    -0.205 OA
ATOM     11  O   UNL A   1      31.552  25.653  22.318  1.00  0.00    -0.205 OA
BRANCH   9  12
ATOM     12  C   UNL A   1      33.758  24.848  23.287  1.00  0.00     0.188 A 
ATOM     13  N   UNL A   1      34.997  23.744  24.699  1.00  0.00    -0.336 N 
ATOM     14  C   UNL A   1      34.773  22.984  23.582  1.00  0.00     0.201 A 
ATOM     15  C   UNL A   1      34.285  24.898  24.559  1.00  0.00     0.129 A 
ATOM     16  N   UNL A   1      34.041  23.627  22.699  1.00  0.00    -0.224 NA
BRANCH  13  17
ATOM     17  C   UNL A   1      35.883  23.381  25.786  1.00  0.00     0.120 C 
ATOM     18  C   UNL A   1      37.317  23.878  25.643  1.00  0.00     0.027 C 
ENDBRANCH  13  17
ENDBRANCH   9  12
ENDBRANCH   7   9
ENDBRANCH   6   7
BRANCH   6  19
ATOM     19  C   UNL A   1      30.816  28.941  24.186  1.00  0.00     0.033 C 
BRANCH  19  20
ATOM     20  C   UNL A   1      29.716  28.964  23.121  1.00  0.00    -0.015 C 
ATOM     21  C   UNL A   1      28.696  27.831  23.223  1.00  0.00     0.007 C 
ATOM     22  C   UNL A   1      28.978  30.297  23.002  1.00  0.00     0.007 C 
ENDBRANCH  19  20
ENDBRANCH   6  19
ENDBRANCH   3   6
ENDBRANCH   1   2
BRANCH   1  23
ATOM     23  C   UNL A   1      33.222  29.948  26.800  1.00  0.00     0.042 C 
BRANCH  23  24
ATOM     24  C   UNL A   1      33.822  30.605  28.003  1.00  0.00     0.118 C 
BRANCH  24  25
ATOM     25  N   UNL A   1      34.431  31.915  27.762  1.00  0.00    -0.352 N 
ATOM     26  C   UNL A   1      35.740  32.288  28.075  1.00  0.00     0.251 C 
ATOM     27  H   UNL A   1      33.863  32.599  27.339  1.00  0.00     0.163 HD
ATOM     28  O   UNL A   1      36.084  33.459  28.131  1.00  0.00    -0.269 OA
BRANCH  26  29
ATOM     29  C   UNL A   1      36.703  31.196  28.332  1.00  0.00     0.039 A 
ATOM     30  C   UNL A   1      36.801  30.008  27.605  1.00  0.00     0.014 A 
ATOM     31  C   UNL A   1      37.683  31.522  29.240  1.00  0.00     0.014 A 
ATOM     32  C   UNL A   1      37.944  29.222  27.798  1.00  0.00     0.010 A 
ATOM     33  C   UNL A   1      38.924  31.096  28.920  1.00  0.00     0.010 A 
ATOM     34  C   UNL A   1      39.013  29.795  28.491  1.00  0.00    -0.014 A 
BRANCH  34  35
ATOM     35  C   UNL A   1      40.289  29.180  28.815  1.00  0.00     0.031 A 
ATOM     36  C   UNL A   1      40.503  28.929  30.256  1.00  0.00     0.074 A 
ATOM     37  C   UNL A   1      41.026  28.566  27.851  1.00  0.00     0.049 A 
ATOM     38  N   UNL A   1      41.346  29.506  31.043  1.00  0.00    -0.248 NA
ATOM     39  C   UNL A   1      39.557  28.037  30.946  1.00  0.00     0.031 C 
ATOM     40  C   UNL A   1      40.723  28.381  26.419  1.00  0.00     0.029 A 
ATOM     41  N   UNL A   1      42.187  27.871  27.984  1.00  0.00    -0.354 N 
ATOM     42  C   UNL A   1      41.177  28.907  32.287  1.00  0.00     0.074 A 
ATOM     43  C   UNL A   1      39.931  28.192  32.218  1.00  0.00     0.031 C 
ATOM     44  C   UNL A   1      41.551  27.456  25.881  1.00  0.00     0.029 A 
ATOM     45  C   UNL A   1      42.555  27.121  26.867  1.00  0.00     0.049 A 
ATOM     46  H   UNL A   1      42.727  27.894  28.806  1.00  0.00     0.167 HD
ATOM     47  C   UNL A   1      42.201  28.849  33.183  1.00  0.00     0.037 A 
ATOM     48  C   UNL A   1      43.612  26.274  26.788  1.00  0.00     0.037 A 
ATOM     49  C   UNL A   1      43.279  29.716  32.771  1.00  0.00     0.049 A 
ATOM     50  C   UNL A   1      44.520  26.622  27.915  1.00  0.00     0.074 A 
ATOM     51  C   UNL A   1      43.402  31.079  32.579  1.00  0.00     0.029 A 
ATOM     52  N   UNL A   1      44.324  29.145  32.082  1.00  0.00    -0.354 N 
ATOM     53  N   UNL A   1      45.153  27.762  28.006  1.00  0.00    -0.248 NA
ATOM     54  C   UNL A   1      44.312  25.920  29.173  1.00  0.00     0.031 C 
ATOM     55  C   UNL A   1      44.195  31.210  31.400  1.00  0.00     0.029 A 
ATOM     56  C   UNL A   1      44.588  29.934  30.991  1.00  0.00     0.049 A 
ATOM     57  H   UNL A   1      44.797  28.317  32.327  1.00  0.00     0.167 HD
ATOM     58  C   UNL A   1      45.059  28.118  29.345  1.00  0.00     0.074 A 
ATOM     59  C   UNL A   1      44.583  26.914  30.025  1.00  0.00     0.031 C 
ATOM     60  C   UNL A   1      45.082  29.429  29.730  1.00  0.00     0.037 A 
BRANCH  47  61
ATOM     61  C   UNL A   1      42.405  27.772  34.223  1.00  0.00     0.064 A 
ATOM     62  C   UNL A   1      43.008  26.557  33.830  1.00  0.00     0.173 A 
ATOM     63  C   UNL A   1      41.802  27.758  35.498  1.00  0.00     0.173 A 
ATOM     64  F   UNL A   1      43.616  26.448  32.639  1.00  0.00    -0.203 F 
ATOM     65  C   UNL A   1      42.929  25.402  34.613  1.00  0.00     0.198 A 
ATOM     66  C   UNL A   1      41.772  26.618  36.300  1.00  0.00     0.198 A 
ATOM     67  F   UNL A   1      41.121  28.802  35.982  1.00  0.00    -0.203 F 
ATOM     68  F   UNL A   1      43.405  24.244  34.137  1.00  0.00    -0.200 F 
ATOM     69  C   UNL A   1      42.303  25.430  35.844  1.00  0.00     0.200 A 
ATOM     70  F   UNL A   1      41.151  26.664  37.487  1.00  0.00    -0.200 F 
ATOM     71  F   UNL A   1      42.170  24.313  36.568  1.00  0.00    -0.200 F 
ENDBRANCH  47  61
BRANCH  48  72
ATOM     72  C   UNL A   1      43.719  25.004  26.030  1.00  0.00     0.064 A 
ATOM     73  C   UNL A   1      44.791  24.754  25.159  1.00  0.00     0.173 A 
ATOM     74  C   UNL A   1      42.911  23.897  26.360  1.00  0.00     0.173 A 
ATOM     75  F   UNL A   1      45.636  25.743  24.832  1.00  0.00    -0.203 F 
ATOM     76  C   UNL A   1      45.051  23.471  24.663  1.00  0.00     0.198 A 
ATOM     77  C   UNL A   1      43.170  22.617  25.864  1.00  0.00     0.198 A 
ATOM     78  F   UNL A   1      41.912  24.020  27.246  1.00  0.00    -0.203 F 
ATOM     79  F   UNL A   1      46.117  23.259  23.877  1.00  0.00    -0.200 F 
ATOM     80  C   UNL A   1      44.247  22.402  25.024  1.00  0.00     0.200 A 
ATOM     81  F   UNL A   1      42.410  21.585  26.254  1.00  0.00    -0.200 F 
ATOM     82  F   UNL A   1      44.533  21.163  24.601  1.00  0.00    -0.200 F 
ENDBRANCH  48  72
BRANCH  60  83
ATOM     83  C   UNL A   1      45.437  30.466  28.694  1.00  0.00     0.064 A 
ATOM     84  C   UNL A   1      44.492  31.153  27.910  1.00  0.00     0.173 A 
ATOM     85  C   UNL A   1      46.760  30.916  28.639  1.00  0.00     0.173 A 
ATOM     86  F   UNL A   1      43.193  30.846  27.970  1.00  0.00    -0.203 F 
ATOM     87  C   UNL A   1      44.861  32.225  27.098  1.00  0.00     0.198 A 
ATOM     88  C   UNL A   1      47.122  32.008  27.854  1.00  0.00     0.198 A 
ATOM     89  F   UNL A   1      47.697  30.336  29.405  1.00  0.00    -0.203 F 
ATOM     90  F   UNL A   1      43.937  32.866  26.368  1.00  0.00    -0.200 F 
ATOM     91  C   UNL A   1      46.175  32.659  27.080  1.00  0.00     0.200 A 
ATOM     92  F   UNL A   1      48.385  32.455  27.879  1.00  0.00    -0.200 F 
ATOM     93  F   UNL A   1      46.523  33.723  26.342  1.00  0.00    -0.200 F 
ENDBRANCH  60  83
ENDBRANCH  34  35
ENDBRANCH  26  29
ENDBRANCH  24  25
ENDBRANCH  23  24
ENDBRANCH   1  23
TORSDOF 16
ENDMDL
MODEL 3
REMARK VINA RESULT:     -11.6      3.405      7.468
REMARK SMILES CCn1cnc(S(=O)(=O)N[C@H](CC(C)C)C(=O)NCCCNC(=O)c2ccc(-c3c4nc(c(-c5c(F)c(F)c(F)c(F)c5F)c5ccc([nH]5)c(-c5c(F)c(F)c(F)c(F)c5F)c5nc(c(-c6c(F)c(F)c(F)c(F)c6F)c6ccc3[nH]6)C=C5)C=C4)cc2)c1
REMARK SMILES IDX 19 1 18 2 16 3 17 4 11 6 10 7 7 9 8 10 9 11 6 12 3 13 4 14
REMARK SMILES IDX 88 15 5 16 2 17 1 18 12 19 13 20 14 21 15 22 20 23 21 24
REMARK SMILES IDX 22 25 23 26 24 28 25 29 26 30 87 31 27 32 86 33 28 34 29 35
REMARK SMILES IDX 30 36 80 37 31 38 85 39 79 40 81 41 32 42 84 43 78 44 77 45
REMARK SMILES IDX 33 47 65 48 45 49 64 50 46 51 49 52 63 53 82 54 47 55 48 56
REMARK SMILES IDX 62 58 83 59 50 60 34 61 35 62 43 63 36 64 37 65 41 66 44 67
REMARK SMILES IDX 38 68 39 69 42 70 40 71 66 72 67 73 75 74 68 75 69 76 73 77
REMARK SMILES IDX 76 78 70 79 71 80 74 81 72 82 51 83 52 84 60 85 53 86 54 87
REMARK SMILES IDX 58 88 61 89 55 90 56 91 59 92 57 93
REMARK H PARENT 18 5 10 8 22 27 81 46 49 57
REMARK Flexibility Score: inf
ROOT
ATOM      1  C   UNL A   1      35.878  24.006  25.358  1.00  0.00     0.117 C 
ENDROOT
BRANCH   1   2
ATOM      2  N   UNL A   1      35.182  23.729  24.109  1.00  0.00    -0.355 N 
ATOM      3  C   UNL A   1      34.182  22.851  23.815  1.00  0.00     0.238 C 
ATOM      4  O   UNL A   1      33.763  22.848  22.650  1.00  0.00    -0.273 OA
ATOM      5  H   UNL A   1      35.485  24.269  23.344  1.00  0.00     0.163 HD
BRANCH   3   6
ATOM      6  C   UNL A   1      33.605  21.850  24.825  1.00  0.00     0.159 C 
BRANCH   6   7
ATOM      7  N   UNL A   1      33.060  22.328  26.109  1.00  0.00    -0.197 NA
ATOM      8  H   UNL A   1      33.182  21.569  26.781  1.00  0.00     0.142 HD
BRANCH   7   9
ATOM      9  S   UNL A   1      31.438  22.821  26.223  1.00  0.00     0.260 S 
ATOM     10  O   UNL A   1      31.214  23.369  27.536  1.00  0.00    -0.205 OA
ATOM     11  O   UNL A   1      30.670  21.695  25.728  1.00  0.00    -0.205 OA
BRANCH   9  12
ATOM     12  C   UNL A   1      31.137  24.113  25.103  1.00  0.00     0.188 A 
ATOM     13  N   UNL A   1      30.799  26.107  24.293  1.00  0.00    -0.336 N 
ATOM     14  C   UNL A   1      30.496  25.162  23.349  1.00  0.00     0.201 A 
ATOM     15  C   UNL A   1      31.289  25.454  25.384  1.00  0.00     0.129 A 
ATOM     16  N   UNL A   1      30.673  23.944  23.810  1.00  0.00    -0.224 NA
BRANCH  13  17
ATOM     17  C   UNL A   1      30.570  27.531  24.146  1.00  0.00     0.120 C 
ATOM     18  C   UNL A   1      31.373  28.414  25.092  1.00  0.00     0.027 C 
ENDBRANCH  13  17
ENDBRANCH   9  12
ENDBRANCH   7   9
ENDBRANCH   6   7
BRANCH   6  19
ATOM     19  C   UNL A   1      34.453  20.555  25.010  1.00  0.00     0.033 C 
BRANCH  19  20
ATOM     20  C   UNL A   1      33.807  19.232  24.585  1.00  0.00    -0.015 C 
ATOM     21  C   UNL A   1      34.786  18.089  24.330  1.00  0.00     0.007 C 
ATOM     22  C   UNL A   1      32.693  18.745  25.512  1.00  0.00     0.007 C 
ENDBRANCH  19  20
ENDBRANCH   6  19
ENDBRANCH   3   6
ENDBRANCH   1   2
BRANCH   1  23
ATOM     23  C   UNL A   1      37.347  23.570  25.302  1.00  0.00     0.042 C 
BRANCH  23  24
ATOM     24  C   UNL A   1      38.101  23.879  26.557  1.00  0.00     0.118 C 
BRANCH  24  25
ATOM     25  N   UNL A   1      39.184  22.949  26.882  1.00  0.00    -0.352 N 
ATOM     26  C   UNL A   1      40.542  23.260  26.970  1.00  0.00     0.251 C 
ATOM     27  H   UNL A   1      38.930  22.013  27.055  1.00  0.00     0.163 HD
ATOM     28  O   UNL A   1      41.407  22.397  26.942  1.00  0.00    -0.269 OA
BRANCH  26  29
ATOM     29  C   UNL A   1      40.893  24.689  27.108  1.00  0.00     0.039 A 
ATOM     30  C   UNL A   1      40.621  25.689  26.171  1.00  0.00     0.014 A 
ATOM     31  C   UNL A   1      41.337  25.035  28.363  1.00  0.00     0.014 A 
ATOM     32  C   UNL A   1      40.762  27.020  26.584  1.00  0.00     0.010 A 
ATOM     33  C   UNL A   1      40.865  26.209  28.834  1.00  0.00     0.010 A 
ATOM     34  C   UNL A   1      40.904  27.260  27.953  1.00  0.00    -0.014 A 
BRANCH  34  35
ATOM     35  C   UNL A   1      41.067  28.544  28.613  1.00  0.00     0.031 A 
ATOM     36  C   UNL A   1      42.268  29.301  28.198  1.00  0.00     0.074 A 
ATOM     37  C   UNL A   1      40.022  29.131  29.254  1.00  0.00     0.049 A 
ATOM     38  N   UNL A   1      43.316  29.567  28.899  1.00  0.00    -0.248 NA
ATOM     39  C   UNL A   1      42.387  29.677  26.780  1.00  0.00     0.031 C 
ATOM     40  C   UNL A   1      38.629  28.664  29.393  1.00  0.00     0.029 A 
ATOM     41  N   UNL A   1      39.966  30.354  29.847  1.00  0.00    -0.354 N 
ATOM     42  C   UNL A   1      44.146  30.318  28.073  1.00  0.00     0.074 A 
ATOM     43  C   UNL A   1      43.632  30.156  26.740  1.00  0.00     0.031 C 
ATOM     44  C   UNL A   1      37.838  29.672  29.825  1.00  0.00     0.029 A 
ATOM     45  C   UNL A   1      38.684  30.794  30.172  1.00  0.00     0.049 A 
ATOM     46  H   UNL A   1      40.771  30.889  30.031  1.00  0.00     0.167 HD
ATOM     47  C   UNL A   1      45.036  31.208  28.595  1.00  0.00     0.037 A 
ATOM     48  C   UNL A   1      38.362  32.010  30.678  1.00  0.00     0.037 A 
ATOM     49  C   UNL A   1      45.168  31.011  30.019  1.00  0.00     0.049 A 
ATOM     50  C   UNL A   1      39.621  32.594  31.215  1.00  0.00     0.074 A 
ATOM     51  C   UNL A   1      45.606  29.968  30.812  1.00  0.00     0.029 A 
ATOM     52  N   UNL A   1      44.421  31.821  30.843  1.00  0.00    -0.354 N 
ATOM     53  N   UNL A   1      40.272  32.093  32.232  1.00  0.00    -0.248 NA
ATOM     54  C   UNL A   1      40.414  33.407  30.305  1.00  0.00     0.031 C 
ATOM     55  C   UNL A   1      44.700  29.944  31.915  1.00  0.00     0.029 A 
ATOM     56  C   UNL A   1      43.822  31.022  31.784  1.00  0.00     0.049 A 
ATOM     57  H   UNL A   1      44.331  32.798  30.770  1.00  0.00     0.167 HD
ATOM     58  C   UNL A   1      41.612  32.179  31.877  1.00  0.00     0.074 A 
ATOM     59  C   UNL A   1      41.639  33.053  30.705  1.00  0.00     0.031 C 
ATOM     60  C   UNL A   1      42.531  31.298  32.374  1.00  0.00     0.037 A 
BRANCH  47  61
ATOM     61  C   UNL A   1      45.516  32.474  27.923  1.00  0.00     0.064 A 
ATOM     62  C   UNL A   1      44.565  33.458  27.575  1.00  0.00     0.173 A 
ATOM     63  C   UNL A   1      46.797  32.652  27.362  1.00  0.00     0.173 A 
ATOM     64  F   UNL A   1      43.311  33.397  28.048  1.00  0.00    -0.203 F 
ATOM     65  C   UNL A   1      44.854  34.479  26.666  1.00  0.00     0.198 A 
ATOM     66  C   UNL A   1      47.097  33.704  26.498  1.00  0.00     0.198 A 
ATOM     67  F   UNL A   1      47.785  31.766  27.530  1.00  0.00    -0.203 F 
ATOM     68  F   UNL A   1      43.880  35.310  26.270  1.00  0.00    -0.200 F 
ATOM     69  C   UNL A   1      46.117  34.597  26.121  1.00  0.00     0.200 A 
ATOM     70  F   UNL A   1      48.327  33.794  25.972  1.00  0.00    -0.200 F 
ATOM     71  F   UNL A   1      46.380  35.535  25.203  1.00  0.00    -0.200 F 
ENDBRANCH  47  61
BRANCH  48  72
ATOM     72  C   UNL A   1      37.143  32.817  30.430  1.00  0.00     0.064 A 
ATOM     73  C   UNL A   1      36.776  33.217  29.136  1.00  0.00     0.173 A 
ATOM     74  C   UNL A   1      36.166  32.977  31.434  1.00  0.00     0.173 A 
ATOM     75  F   UNL A   1      37.631  33.056  28.115  1.00  0.00    -0.203 F 
ATOM     76  C   UNL A   1      35.502  33.728  28.858  1.00  0.00     0.198 A 
ATOM     77  C   UNL A   1      34.895  33.486  31.156  1.00  0.00     0.198 A 
ATOM     78  F   UNL A   1      36.395  32.550  32.684  1.00  0.00    -0.203 F 
ATOM     79  F   UNL A   1      35.168  34.048  27.599  1.00  0.00    -0.200 F 
ATOM     80  C   UNL A   1      34.559  33.852  29.866  1.00  0.00     0.200 A 
ATOM     81  F   UNL A   1      33.980  33.562  32.132  1.00  0.00    -0.200 F 
ATOM     82  F   UNL A   1      33.320  34.280  29.589  1.00  0.00    -0.200 F 
ENDBRANCH  48  72
BRANCH  60  83
ATOM     83  C   UNL A   1      42.100  30.376  33.486  1.00  0.00     0.064 A 
ATOM     84  C   UNL A   1      41.651  29.057  33.288  1.00  0.00     0.173 A 
ATOM     85  C   UNL A   1      42.340  30.776  34.805  1.00  0.00     0.173 A 
ATOM     86  F   UNL A   1      41.480  28.565  32.057  1.00  0.00    -0.203 F 
ATOM     87  C   UNL A   1      41.435  28.192  34.360  1.00  0.00     0.198 A 
ATOM     88  C   UNL A   1      42.158  29.901  35.873  1.00  0.00     0.198 A 
ATOM     89  F   UNL A   1      42.822  32.003  35.054  1.00  0.00    -0.203 F 
ATOM     90  F   UNL A   1      41.014  26.938  34.139  1.00  0.00    -0.200 F 
ATOM     91  C   UNL A   1      41.700  28.612  35.652  1.00  0.00     0.200 A 
ATOM     92  F   UNL A   1      42.464  30.297  37.116  1.00  0.00    -0.200 F 
ATOM     93  F   UNL A   1      41.546  27.766  36.681  1.00  0.00    -0.200 F 
ENDBRANCH  60  83
ENDBRANCH  34  35
ENDBRANCH  26  29
ENDBRANCH  24  25
ENDBRANCH  23  24
ENDBRANCH   1  23
TORSDOF 16
ENDMDL
