MODEL 1
REMARK VINA RESULT:     -13.1      0.000      0.000
REMARK SMILES O=C(NCCCNC(=O)[C@@H]1[C@@H](C(=O)Nc2ccc(F)c(F)c2)[C@H]2CC[C@@H]1O2)c1ccc(-c2c3nc(c(-c4c(F)c(F)c(F)c(F)c4F)c4ccc([nH]4)c(-c4c(F)c(F)c(F)c(F)c4F)c4nc(c(-c5c(F)c(F)c(F)c(F)c5F)c5ccc2[nH]5)C=C4)C=C3)cc1
REMARK SMILES IDX 5 1 4 2 3 3 1 4 2 5 28 7 29 8 90 9 30 10 89 11 31 12 32 13
REMARK SMILES IDX 33 14 83 15 34 16 88 17 82 18 84 19 35 20 87 21 81 22 80 23
REMARK SMILES IDX 36 25 68 26 48 27 67 28 49 29 52 30 66 31 85 32 50 33 51 34
REMARK SMILES IDX 65 36 86 37 53 38 37 39 38 40 46 41 39 42 40 43 44 44 47 45
REMARK SMILES IDX 41 46 42 47 45 48 43 49 69 50 70 51 78 52 71 53 72 54 76 55
REMARK SMILES IDX 79 56 73 57 74 58 77 59 75 60 54 61 55 62 63 63 56 64 57 65
REMARK SMILES IDX 61 66 64 67 58 68 59 69 62 70 60 71 6 72 7 73 8 74 9 76
REMARK SMILES IDX 10 77 11 78 26 79 23 80 25 81 27 82 24 83 12 84 13 85 14 86
REMARK SMILES IDX 15 88 16 89 22 90 17 91 20 92 18 93 21 94 19 95
REMARK H PARENT 3 6 84 24 52 35 7 75 14 87
REMARK Flexibility Score: inf
ROOT
ATOM      1  C   UNL A   1      31.393  32.273  26.501  1.00  0.00     0.042 C 
ENDROOT
BRANCH   1   2
ATOM      2  C   UNL A   1      32.645  32.831  27.169  1.00  0.00     0.118 C 
BRANCH   2   3
ATOM      3  N   UNL A   1      32.471  34.203  27.628  1.00  0.00    -0.352 N 
ATOM      4  O   UNL A   1      32.671  35.966  29.016  1.00  0.00    -0.269 OA
ATOM      5  C   UNL A   1      33.090  34.876  28.656  1.00  0.00     0.251 C 
ATOM      6  H   UNL A   1      31.810  34.730  27.124  1.00  0.00     0.163 HD
BRANCH   5   7
ATOM      7  C   UNL A   1      34.249  34.263  29.339  1.00  0.00     0.039 A 
ATOM      8  C   UNL A   1      35.551  34.557  28.932  1.00  0.00     0.014 A 
ATOM      9  C   UNL A   1      34.028  33.393  30.410  1.00  0.00     0.014 A 
ATOM     10  C   UNL A   1      36.619  33.856  29.479  1.00  0.00     0.010 A 
ATOM     11  C   UNL A   1      35.112  32.762  31.027  1.00  0.00     0.010 A 
ATOM     12  C   UNL A   1      36.414  32.961  30.541  1.00  0.00    -0.014 A 
BRANCH  12  13
ATOM     13  C   UNL A   1      37.584  32.277  31.150  1.00  0.00     0.031 A 
ATOM     14  C   UNL A   1      38.055  32.633  32.532  1.00  0.00     0.074 A 
ATOM     15  C   UNL A   1      38.193  31.296  30.456  1.00  0.00     0.049 A 
ATOM     16  N   UNL A   1      39.055  32.131  33.213  1.00  0.00    -0.248 NA
ATOM     17  C   UNL A   1      37.320  33.690  33.244  1.00  0.00     0.031 C 
ATOM     18  C   UNL A   1      37.821  30.868  29.105  1.00  0.00     0.029 A 
ATOM     19  N   UNL A   1      39.234  30.468  30.789  1.00  0.00    -0.354 N 
ATOM     20  C   UNL A   1      39.076  32.816  34.421  1.00  0.00     0.074 A 
ATOM     21  C   UNL A   1      38.010  33.792  34.373  1.00  0.00     0.031 C 
ATOM     22  C   UNL A   1      38.585  29.826  28.748  1.00  0.00     0.029 A 
ATOM     23  C   UNL A   1      39.546  29.557  29.810  1.00  0.00     0.049 A 
ATOM     24  H   UNL A   1      39.712  30.522  31.649  1.00  0.00     0.167 HD
ATOM     25  C   UNL A   1      39.904  32.633  35.476  1.00  0.00     0.037 A 
ATOM     26  C   UNL A   1      40.512  28.620  29.762  1.00  0.00     0.037 A 
ATOM     27  C   UNL A   1      40.942  31.637  35.530  1.00  0.00     0.049 A 
ATOM     28  C   UNL A   1      41.439  28.469  30.935  1.00  0.00     0.074 A 
ATOM     29  C   UNL A   1      41.805  31.350  36.574  1.00  0.00     0.029 A 
ATOM     30  N   UNL A   1      41.258  30.765  34.498  1.00  0.00    -0.354 N 
ATOM     31  N   UNL A   1      41.430  29.107  32.081  1.00  0.00    -0.248 NA
ATOM     32  C   UNL A   1      42.516  27.478  30.807  1.00  0.00     0.031 C 
ATOM     33  C   UNL A   1      42.673  30.337  36.158  1.00  0.00     0.029 A 
ATOM     34  C   UNL A   1      42.321  29.959  34.874  1.00  0.00     0.049 A 
ATOM     35  H   UNL A   1      40.796  30.725  33.630  1.00  0.00     0.167 HD
ATOM     36  C   UNL A   1      42.490  28.591  32.811  1.00  0.00     0.074 A 
ATOM     37  C   UNL A   1      43.106  27.569  31.992  1.00  0.00     0.031 C 
ATOM     38  C   UNL A   1      42.921  28.944  34.045  1.00  0.00     0.037 A 
BRANCH  25  39
ATOM     39  C   UNL A   1      39.732  33.513  36.679  1.00  0.00     0.064 A 
ATOM     40  C   UNL A   1      38.851  33.143  37.708  1.00  0.00     0.173 A 
ATOM     41  C   UNL A   1      40.342  34.773  36.758  1.00  0.00     0.173 A 
ATOM     42  F   UNL A   1      38.235  31.953  37.675  1.00  0.00    -0.203 F 
ATOM     43  C   UNL A   1      38.569  34.015  38.757  1.00  0.00     0.198 A 
ATOM     44  C   UNL A   1      40.076  35.632  37.821  1.00  0.00     0.198 A 
ATOM     45  F   UNL A   1      41.197  35.169  35.803  1.00  0.00    -0.203 F 
ATOM     46  F   UNL A   1      37.691  33.658  39.705  1.00  0.00    -0.200 F 
ATOM     47  C   UNL A   1      39.180  35.257  38.812  1.00  0.00     0.200 A 
ATOM     48  F   UNL A   1      40.679  36.827  37.882  1.00  0.00    -0.200 F 
ATOM     49  F   UNL A   1      38.904  36.099  39.819  1.00  0.00    -0.200 F 
ENDBRANCH  25  39
BRANCH  26  50
ATOM     50  C   UNL A   1      40.652  27.767  28.555  1.00  0.00     0.064 A 
ATOM     51  C   UNL A   1      41.421  28.181  27.455  1.00  0.00     0.173 A 
ATOM     52  C   UNL A   1      40.005  26.528  28.466  1.00  0.00     0.173 A 
ATOM     53  F   UNL A   1      42.060  29.360  27.488  1.00  0.00    -0.203 F 
ATOM     54  C   UNL A   1      41.519  27.398  26.308  1.00  0.00     0.198 A 
ATOM     55  C   UNL A   1      40.130  25.731  27.329  1.00  0.00     0.198 A 
ATOM     56  F   UNL A   1      39.274  26.079  29.498  1.00  0.00    -0.203 F 
ATOM     57  F   UNL A   1      42.229  27.836  25.260  1.00  0.00    -0.200 F 
ATOM     58  C   UNL A   1      40.878  26.170  26.249  1.00  0.00     0.200 A 
ATOM     59  F   UNL A   1      39.531  24.533  27.286  1.00  0.00    -0.200 F 
ATOM     60  F   UNL A   1      40.988  25.409  25.152  1.00  0.00    -0.200 F 
ENDBRANCH  26  50
BRANCH  38  61
ATOM     61  C   UNL A   1      44.114  28.222  34.596  1.00  0.00     0.064 A 
ATOM     62  C   UNL A   1      43.955  27.047  35.345  1.00  0.00     0.173 A 
ATOM     63  C   UNL A   1      45.408  28.742  34.451  1.00  0.00     0.173 A 
ATOM     64  F   UNL A   1      42.736  26.515  35.518  1.00  0.00    -0.203 F 
ATOM     65  C   UNL A   1      45.048  26.431  35.947  1.00  0.00     0.198 A 
ATOM     66  C   UNL A   1      46.501  28.107  35.031  1.00  0.00     0.198 A 
ATOM     67  F   UNL A   1      45.610  29.856  33.730  1.00  0.00    -0.203 F 
ATOM     68  F   UNL A   1      44.868  25.331  36.691  1.00  0.00    -0.200 F 
ATOM     69  C   UNL A   1      46.319  26.960  35.787  1.00  0.00     0.200 A 
ATOM     70  F   UNL A   1      47.733  28.607  34.857  1.00  0.00    -0.200 F 
ATOM     71  F   UNL A   1      47.372  26.362  36.364  1.00  0.00    -0.200 F 
ENDBRANCH  38  61
ENDBRANCH  12  13
ENDBRANCH   5   7
ENDBRANCH   2   3
ENDBRANCH   1   2
BRANCH   1  72
ATOM     72  C   UNL A   1      31.413  30.757  26.355  1.00  0.00     0.117 C 
BRANCH  72  73
ATOM     73  N   UNL A   1      32.226  30.362  25.216  1.00  0.00    -0.356 N 
ATOM     74  C   UNL A   1      32.360  29.138  24.631  1.00  0.00     0.226 C 
ATOM     75  H   UNL A   1      32.756  31.084  24.808  1.00  0.00     0.163 HD
ATOM     76  O   UNL A   1      33.371  28.928  23.963  1.00  0.00    -0.275 OA
BRANCH  74  77
ATOM     77  C   UNL A   1      31.218  28.153  24.727  1.00  0.00     0.122 C 
ATOM     78  C   UNL A   1      31.680  26.683  24.917  1.00  0.00     0.123 C 
ATOM     79  C   UNL A   1      30.513  28.127  23.362  1.00  0.00     0.132 C 
ATOM     80  C   UNL A   1      30.960  26.041  23.729  1.00  0.00     0.132 C 
ATOM     81  C   UNL A   1      29.115  27.539  23.501  1.00  0.00     0.035 C 
ATOM     82  O   UNL A   1      31.177  27.035  22.696  1.00  0.00    -0.373 OA
ATOM     83  C   UNL A   1      29.431  26.081  23.824  1.00  0.00     0.035 C 
BRANCH  78  84
ATOM     84  C   UNL A   1      31.395  26.277  26.365  1.00  0.00     0.231 C 
ATOM     85  O   UNL A   1      30.944  27.126  27.149  1.00  0.00    -0.274 OA
ATOM     86  N   UNL A   1      31.559  25.024  26.876  1.00  0.00    -0.326 N 
ATOM     87  H   UNL A   1      31.272  24.922  27.812  1.00  0.00     0.169 HD
BRANCH  86  88
ATOM     88  C   UNL A   1      32.064  23.863  26.293  1.00  0.00     0.044 A 
ATOM     89  C   UNL A   1      31.247  22.923  25.664  1.00  0.00     0.029 A 
ATOM     90  C   UNL A   1      33.437  23.633  26.415  1.00  0.00     0.068 A 
ATOM     91  C   UNL A   1      31.778  21.687  25.285  1.00  0.00     0.044 A 
ATOM     92  C   UNL A   1      33.950  22.388  26.063  1.00  0.00     0.160 A 
ATOM     93  C   UNL A   1      33.122  21.415  25.521  1.00  0.00     0.158 A 
ATOM     94  F   UNL A   1      35.239  22.121  26.311  1.00  0.00    -0.204 F 
ATOM     95  F   UNL A   1      33.607  20.198  25.239  1.00  0.00    -0.204 F 
ENDBRANCH  86  88
ENDBRANCH  78  84
ENDBRANCH  74  77
ENDBRANCH  72  73
ENDBRANCH   1  72
TORSDOF 12
ENDMDL
MODEL 2
REMARK VINA RESULT:     -13.1      5.469     10.775
REMARK SMILES O=C(NCCCNC(=O)[C@@H]1[C@@H](C(=O)Nc2ccc(F)c(F)c2)[C@H]2CC[C@@H]1O2)c1ccc(-c2c3nc(c(-c4c(F)c(F)c(F)c(F)c4F)c4ccc([nH]4)c(-c4c(F)c(F)c(F)c(F)c4F)c4nc(c(-c5c(F)c(F)c(F)c(F)c5F)c5ccc2[nH]5)C=C4)C=C3)cc1
REMARK SMILES IDX 5 1 4 2 3 3 1 4 2 5 28 7 29 8 90 9 30 10 89 11 31 12 32 13
REMARK SMILES IDX 33 14 83 15 34 16 88 17 82 18 84 19 35 20 87 21 81 22 80 23
REMARK SMILES IDX 36 25 68 26 48 27 67 28 49 29 52 30 66 31 85 32 50 33 51 34
REMARK SMILES IDX 65 36 86 37 53 38 37 39 38 40 46 41 39 42 40 43 44 44 47 45
REMARK SMILES IDX 41 46 42 47 45 48 43 49 69 50 70 51 78 52 71 53 72 54 76 55
REMARK SMILES IDX 79 56 73 57 74 58 77 59 75 60 54 61 55 62 63 63 56 64 57 65
REMARK SMILES IDX 61 66 64 67 58 68 59 69 62 70 60 71 6 72 7 73 8 74 9 76
REMARK SMILES IDX 10 77 11 78 26 79 23 80 25 81 27 82 24 83 12 84 13 85 14 86
REMARK SMILES IDX 15 88 16 89 22 90 17 91 20 92 18 93 21 94 19 95
REMARK H PARENT 3 6 84 24 52 35 7 75 14 87
REMARK Flexibility Score: inf
ROOT
ATOM      1  C   UNL A   1      37.930  19.587  24.969  1.00  0.00     0.042 C 
ENDROOT
BRANCH   1   2
ATOM      2  C   UNL A   1      39.116  20.132  25.757  1.00  0.00     0.118 C 
BRANCH   2   3
ATOM      3  N   UNL A   1      40.195  19.161  25.888  1.00  0.00    -0.352 N 
ATOM      4  O   UNL A   1      42.321  18.426  25.976  1.00  0.00    -0.269 OA
ATOM      5  C   UNL A   1      41.541  19.359  26.087  1.00  0.00     0.251 C 
ATOM      6  H   UNL A   1      39.917  18.219  25.827  1.00  0.00     0.163 HD
BRANCH   5   7
ATOM      7  C   UNL A   1      42.043  20.711  26.413  1.00  0.00     0.039 A 
ATOM      8  C   UNL A   1      42.296  21.077  27.735  1.00  0.00     0.014 A 
ATOM      9  C   UNL A   1      42.274  21.621  25.376  1.00  0.00     0.014 A 
ATOM     10  C   UNL A   1      42.616  22.394  28.037  1.00  0.00     0.010 A 
ATOM     11  C   UNL A   1      42.693  22.920  25.674  1.00  0.00     0.010 A 
ATOM     12  C   UNL A   1      42.831  23.328  27.010  1.00  0.00    -0.014 A 
BRANCH  12  13
ATOM     13  C   UNL A   1      43.238  24.713  27.362  1.00  0.00     0.031 A 
ATOM     14  C   UNL A   1      44.636  25.199  27.098  1.00  0.00     0.074 A 
ATOM     15  C   UNL A   1      42.317  25.545  27.885  1.00  0.00     0.049 A 
ATOM     16  N   UNL A   1      45.154  26.378  27.339  1.00  0.00    -0.248 NA
ATOM     17  C   UNL A   1      45.579  24.246  26.493  1.00  0.00     0.031 C 
ATOM     18  C   UNL A   1      40.930  25.179  28.184  1.00  0.00     0.029 A 
ATOM     19  N   UNL A   1      42.393  26.868  28.238  1.00  0.00    -0.354 N 
ATOM     20  C   UNL A   1      46.479  26.303  26.929  1.00  0.00     0.074 A 
ATOM     21  C   UNL A   1      46.699  24.956  26.451  1.00  0.00     0.031 C 
ATOM     22  C   UNL A   1      40.275  26.263  28.626  1.00  0.00     0.029 A 
ATOM     23  C   UNL A   1      41.208  27.380  28.708  1.00  0.00     0.049 A 
ATOM     24  H   UNL A   1      43.219  27.399  28.162  1.00  0.00     0.167 HD
ATOM     25  C   UNL A   1      47.417  27.278  26.940  1.00  0.00     0.037 A 
ATOM     26  C   UNL A   1      40.909  28.607  29.172  1.00  0.00     0.037 A 
ATOM     27  C   UNL A   1      47.182  28.626  27.387  1.00  0.00     0.049 A 
ATOM     28  C   UNL A   1      41.984  29.655  29.207  1.00  0.00     0.074 A 
ATOM     29  C   UNL A   1      48.063  29.695  27.397  1.00  0.00     0.029 A 
ATOM     30  N   UNL A   1      45.982  29.092  27.901  1.00  0.00    -0.354 N 
ATOM     31  N   UNL A   1      43.225  29.577  28.792  1.00  0.00    -0.248 NA
ATOM     32  C   UNL A   1      41.624  30.958  29.784  1.00  0.00     0.031 C 
ATOM     33  C   UNL A   1      47.410  30.794  27.959  1.00  0.00     0.029 A 
ATOM     34  C   UNL A   1      46.109  30.426  28.255  1.00  0.00     0.049 A 
ATOM     35  H   UNL A   1      45.162  28.556  27.999  1.00  0.00     0.167 HD
ATOM     36  C   UNL A   1      43.791  30.817  29.049  1.00  0.00     0.074 A 
ATOM     37  C   UNL A   1      42.752  31.640  29.631  1.00  0.00     0.031 C 
ATOM     38  C   UNL A   1      45.062  31.231  28.833  1.00  0.00     0.037 A 
BRANCH  25  39
ATOM     39  C   UNL A   1      48.796  26.947  26.448  1.00  0.00     0.064 A 
ATOM     40  C   UNL A   1      49.111  27.072  25.086  1.00  0.00     0.173 A 
ATOM     41  C   UNL A   1      49.764  26.392  27.298  1.00  0.00     0.173 A 
ATOM     42  F   UNL A   1      48.218  27.588  24.230  1.00  0.00    -0.203 F 
ATOM     43  C   UNL A   1      50.336  26.631  24.590  1.00  0.00     0.198 A 
ATOM     44  C   UNL A   1      50.996  25.974  26.803  1.00  0.00     0.198 A 
ATOM     45  F   UNL A   1      49.512  26.258  28.609  1.00  0.00    -0.203 F 
ATOM     46  F   UNL A   1      50.598  26.720  23.279  1.00  0.00    -0.200 F 
ATOM     47  C   UNL A   1      51.276  26.082  25.448  1.00  0.00     0.200 A 
ATOM     48  F   UNL A   1      51.911  25.458  27.635  1.00  0.00    -0.200 F 
ATOM     49  F   UNL A   1      52.452  25.651  24.970  1.00  0.00    -0.200 F 
ENDBRANCH  25  39
BRANCH  26  50
ATOM     50  C   UNL A   1      39.533  28.899  29.652  1.00  0.00     0.064 A 
ATOM     51  C   UNL A   1      38.564  29.445  28.796  1.00  0.00     0.173 A 
ATOM     52  C   UNL A   1      39.165  28.656  30.982  1.00  0.00     0.173 A 
ATOM     53  F   UNL A   1      38.866  29.698  27.514  1.00  0.00    -0.203 F 
ATOM     54  C   UNL A   1      37.288  29.755  29.257  1.00  0.00     0.198 A 
ATOM     55  C   UNL A   1      37.877  28.938  31.434  1.00  0.00     0.198 A 
ATOM     56  F   UNL A   1      40.050  28.117  31.834  1.00  0.00    -0.203 F 
ATOM     57  F   UNL A   1      36.394  30.311  28.427  1.00  0.00    -0.200 F 
ATOM     58  C   UNL A   1      36.943  29.496  30.575  1.00  0.00     0.200 A 
ATOM     59  F   UNL A   1      37.540  28.660  32.700  1.00  0.00    -0.200 F 
ATOM     60  F   UNL A   1      35.709  29.777  31.013  1.00  0.00    -0.200 F 
ENDBRANCH  26  50
BRANCH  38  61
ATOM     61  C   UNL A   1      45.409  32.637  29.222  1.00  0.00     0.064 A 
ATOM     62  C   UNL A   1      45.873  32.926  30.514  1.00  0.00     0.173 A 
ATOM     63  C   UNL A   1      45.202  33.707  28.341  1.00  0.00     0.173 A 
ATOM     64  F   UNL A   1      46.081  31.936  31.396  1.00  0.00    -0.203 F 
ATOM     65  C   UNL A   1      46.098  34.239  30.915  1.00  0.00     0.198 A 
ATOM     66  C   UNL A   1      45.453  35.017  28.737  1.00  0.00     0.198 A 
ATOM     67  F   UNL A   1      44.772  33.477  27.091  1.00  0.00    -0.203 F 
ATOM     68  F   UNL A   1      46.503  34.496  32.166  1.00  0.00    -0.200 F 
ATOM     69  C   UNL A   1      45.889  35.282  30.026  1.00  0.00     0.200 A 
ATOM     70  F   UNL A   1      45.273  36.023  27.869  1.00  0.00    -0.200 F 
ATOM     71  F   UNL A   1      46.110  36.547  30.412  1.00  0.00    -0.200 F 
ENDBRANCH  38  61
ENDBRANCH  12  13
ENDBRANCH   5   7
ENDBRANCH   2   3
ENDBRANCH   1   2
BRANCH   1  72
ATOM     72  C   UNL A   1      36.864  20.637  24.682  1.00  0.00     0.117 C 
BRANCH  72  73
ATOM     73  N   UNL A   1      35.933  20.740  25.795  1.00  0.00    -0.356 N 
ATOM     74  C   UNL A   1      34.803  21.493  25.911  1.00  0.00     0.226 C 
ATOM     75  H   UNL A   1      36.151  20.185  26.578  1.00  0.00     0.163 HD
ATOM     76  O   UNL A   1      34.395  21.746  27.043  1.00  0.00    -0.275 OA
BRANCH  74  77
ATOM     77  C   UNL A   1      34.046  21.874  24.660  1.00  0.00     0.122 C 
ATOM     78  C   UNL A   1      33.305  23.233  24.770  1.00  0.00     0.123 C 
ATOM     79  C   UNL A   1      32.902  20.862  24.486  1.00  0.00     0.132 C 
ATOM     80  C   UNL A   1      31.889  22.774  24.416  1.00  0.00     0.132 C 
ATOM     81  C   UNL A   1      32.394  20.882  23.049  1.00  0.00     0.035 C 
ATOM     82  O   UNL A   1      31.806  21.524  25.147  1.00  0.00    -0.373 OA
ATOM     83  C   UNL A   1      31.735  22.257  22.982  1.00  0.00     0.035 C 
BRANCH  78  84
ATOM     84  C   UNL A   1      34.067  24.261  23.930  1.00  0.00     0.231 C 
ATOM     85  O   UNL A   1      34.831  23.861  23.039  1.00  0.00    -0.274 OA
ATOM     86  N   UNL A   1      33.951  25.614  24.049  1.00  0.00    -0.326 N 
ATOM     87  H   UNL A   1      34.469  26.129  23.390  1.00  0.00     0.169 HD
BRANCH  86  88
ATOM     88  C   UNL A   1      33.219  26.388  24.949  1.00  0.00     0.044 A 
ATOM     89  C   UNL A   1      31.854  26.630  24.793  1.00  0.00     0.029 A 
ATOM     90  C   UNL A   1      33.923  26.980  26.001  1.00  0.00     0.068 A 
ATOM     91  C   UNL A   1      31.221  27.577  25.602  1.00  0.00     0.044 A 
ATOM     92  C   UNL A   1      33.293  27.944  26.780  1.00  0.00     0.160 A 
ATOM     93  C   UNL A   1      31.956  28.255  26.569  1.00  0.00     0.158 A 
ATOM     94  F   UNL A   1      34.008  28.611  27.697  1.00  0.00    -0.204 F 
ATOM     95  F   UNL A   1      31.369  29.226  27.282  1.00  0.00    -0.204 F 
ENDBRANCH  86  88
ENDBRANCH  78  84
ENDBRANCH  74  77
ENDBRANCH  72  73
ENDBRANCH   1  72
TORSDOF 12
ENDMDL
MODEL 3
REMARK VINA RESULT:     -13.1      0.441      7.451
REMARK SMILES O=C(NCCCNC(=O)[C@@H]1[C@@H](C(=O)Nc2ccc(F)c(F)c2)[C@H]2CC[C@@H]1O2)c1ccc(-c2c3nc(c(-c4c(F)c(F)c(F)c(F)c4F)c4ccc([nH]4)c(-c4c(F)c(F)c(F)c(F)c4F)c4nc(c(-c5c(F)c(F)c(F)c(F)c5F)c5ccc2[nH]5)C=C4)C=C3)cc1
REMARK SMILES IDX 5 1 4 2 3 3 1 4 2 5 28 7 29 8 90 9 30 10 89 11 31 12 32 13
REMARK SMILES IDX 33 14 83 15 34 16 88 17 82 18 84 19 35 20 87 21 81 22 80 23
REMARK SMILES IDX 36 25 68 26 48 27 67 28 49 29 52 30 66 31 85 32 50 33 51 34
REMARK SMILES IDX 65 36 86 37 53 38 37 39 38 40 46 41 39 42 40 43 44 44 47 45
REMARK SMILES IDX 41 46 42 47 45 48 43 49 69 50 70 51 78 52 71 53 72 54 76 55
REMARK SMILES IDX 79 56 73 57 74 58 77 59 75 60 54 61 55 62 63 63 56 64 57 65
REMARK SMILES IDX 61 66 64 67 58 68 59 69 62 70 60 71 6 72 7 73 8 74 9 76
REMARK SMILES IDX 10 77 11 78 26 79 23 80 25 81 27 82 24 83 12 84 13 85 14 86
REMARK SMILES IDX 15 88 16 89 22 90 17 91 20 92 18 93 21 94 19 95
REMARK H PARENT 3 6 84 24 52 35 7 75 14 87
REMARK Flexibility Score: inf
ROOT
ATOM      1  C   UNL A   1      31.403  32.184  26.684  1.00  0.00     0.042 C 
ENDROOT
BRANCH   1   2
ATOM      2  C   UNL A   1      32.684  32.845  27.180  1.00  0.00     0.118 C 
BRANCH   2   3
ATOM      3  N   UNL A   1      32.471  34.216  27.627  1.00  0.00    -0.352 N 
ATOM      4  O   UNL A   1      32.577  35.982  29.019  1.00  0.00    -0.269 OA
ATOM      5  C   UNL A   1      33.026  34.897  28.685  1.00  0.00     0.251 C 
ATOM      6  H   UNL A   1      31.832  34.734  27.087  1.00  0.00     0.163 HD
BRANCH   5   7
ATOM      7  C   UNL A   1      34.155  34.299  29.430  1.00  0.00     0.039 A 
ATOM      8  C   UNL A   1      35.472  34.525  29.030  1.00  0.00     0.014 A 
ATOM      9  C   UNL A   1      33.888  33.509  30.553  1.00  0.00     0.014 A 
ATOM     10  C   UNL A   1      36.508  33.833  29.643  1.00  0.00     0.010 A 
ATOM     11  C   UNL A   1      34.941  32.891  31.231  1.00  0.00     0.010 A 
ATOM     12  C   UNL A   1      36.257  33.018  30.759  1.00  0.00    -0.014 A 
BRANCH  12  13
ATOM     13  C   UNL A   1      37.395  32.343  31.435  1.00  0.00     0.031 A 
ATOM     14  C   UNL A   1      38.170  31.256  30.745  1.00  0.00     0.074 A 
ATOM     15  C   UNL A   1      37.752  32.755  32.667  1.00  0.00     0.049 A 
ATOM     16  N   UNL A   1      39.193  30.568  31.188  1.00  0.00    -0.248 NA
ATOM     17  C   UNL A   1      37.745  30.882  29.387  1.00  0.00     0.031 C 
ATOM     18  C   UNL A   1      37.071  33.803  33.432  1.00  0.00     0.029 A 
ATOM     19  N   UNL A   1      38.782  32.365  33.484  1.00  0.00    -0.354 N 
ATOM     20  C   UNL A   1      39.522  29.678  30.175  1.00  0.00     0.074 A 
ATOM     21  C   UNL A   1      38.575  29.886  29.102  1.00  0.00     0.031 C 
ATOM     22  C   UNL A   1      37.730  34.007  34.581  1.00  0.00     0.029 A 
ATOM     23  C   UNL A   1      38.836  33.060  34.668  1.00  0.00     0.049 A 
ATOM     24  H   UNL A   1      39.421  31.654  33.246  1.00  0.00     0.167 HD
ATOM     25  C   UNL A   1      40.534  28.779  30.143  1.00  0.00     0.037 A 
ATOM     26  C   UNL A   1      39.670  32.938  35.717  1.00  0.00     0.037 A 
ATOM     27  C   UNL A   1      41.494  28.599  31.201  1.00  0.00     0.049 A 
ATOM     28  C   UNL A   1      40.758  31.904  35.665  1.00  0.00     0.074 A 
ATOM     29  C   UNL A   1      42.579  27.740  31.240  1.00  0.00     0.029 A 
ATOM     30  N   UNL A   1      41.485  29.289  32.404  1.00  0.00    -0.354 N 
ATOM     31  N   UNL A   1      41.074  31.087  34.690  1.00  0.00    -0.248 NA
ATOM     32  C   UNL A   1      41.601  31.765  36.861  1.00  0.00     0.031 C 
ATOM     33  C   UNL A   1      43.200  27.877  32.484  1.00  0.00     0.029 A 
ATOM     34  C   UNL A   1      42.532  28.854  33.202  1.00  0.00     0.049 A 
ATOM     35  H   UNL A   1      40.834  29.984  32.653  1.00  0.00     0.167 HD
ATOM     36  C   UNL A   1      42.152  30.345  35.149  1.00  0.00     0.074 A 
ATOM     37  C   UNL A   1      42.456  30.825  36.480  1.00  0.00     0.031 C 
ATOM     38  C   UNL A   1      42.821  29.346  34.525  1.00  0.00     0.037 A 
BRANCH  25  39
ATOM     39  C   UNL A   1      40.682  27.914  28.925  1.00  0.00     0.064 A 
ATOM     40  C   UNL A   1      41.480  28.334  27.850  1.00  0.00     0.173 A 
ATOM     41  C   UNL A   1      39.941  26.733  28.772  1.00  0.00     0.173 A 
ATOM     42  F   UNL A   1      42.201  29.460  27.943  1.00  0.00    -0.203 F 
ATOM     43  C   UNL A   1      41.511  27.616  26.657  1.00  0.00     0.198 A 
ATOM     44  C   UNL A   1      39.992  26.005  27.586  1.00  0.00     0.198 A 
ATOM     45  F   UNL A   1      39.168  26.287  29.774  1.00  0.00    -0.203 F 
ATOM     46  F   UNL A   1      42.247  28.059  25.629  1.00  0.00    -0.200 F 
ATOM     47  C   UNL A   1      40.767  26.454  26.526  1.00  0.00     0.200 A 
ATOM     48  F   UNL A   1      39.286  24.873  27.465  1.00  0.00    -0.200 F 
ATOM     49  F   UNL A   1      40.792  25.766  25.375  1.00  0.00    -0.200 F 
ENDBRANCH  25  39
BRANCH  26  50
ATOM     50  C   UNL A   1      39.494  33.811  36.906  1.00  0.00     0.064 A 
ATOM     51  C   UNL A   1      38.726  33.398  38.006  1.00  0.00     0.173 A 
ATOM     52  C   UNL A   1      40.073  35.086  36.958  1.00  0.00     0.173 A 
ATOM     53  F   UNL A   1      38.148  32.188  38.005  1.00  0.00    -0.203 F 
ATOM     54  C   UNL A   1      38.528  34.234  39.101  1.00  0.00     0.198 A 
ATOM     55  C   UNL A   1      39.900  35.909  38.070  1.00  0.00     0.198 A 
ATOM     56  F   UNL A   1      40.832  35.519  35.940  1.00  0.00    -0.203 F 
ATOM     57  F   UNL A   1      37.759  33.828  40.121  1.00  0.00    -0.200 F 
ATOM     58  C   UNL A   1      39.121  35.487  39.135  1.00  0.00     0.200 A 
ATOM     59  F   UNL A   1      40.497  37.108  38.110  1.00  0.00    -0.200 F 
ATOM     60  F   UNL A   1      38.946  36.283  40.198  1.00  0.00    -0.200 F 
ENDBRANCH  26  50
BRANCH  38  61
ATOM     61  C   UNL A   1      43.952  28.700  35.268  1.00  0.00     0.064 A 
ATOM     62  C   UNL A   1      45.269  29.152  35.098  1.00  0.00     0.173 A 
ATOM     63  C   UNL A   1      43.740  27.579  36.083  1.00  0.00     0.173 A 
ATOM     64  F   UNL A   1      45.523  30.217  34.322  1.00  0.00    -0.203 F 
ATOM     65  C   UNL A   1      46.334  28.492  35.701  1.00  0.00     0.198 A 
ATOM     66  C   UNL A   1      44.805  26.938  36.707  1.00  0.00     0.198 A 
ATOM     67  F   UNL A   1      42.496  27.119  36.286  1.00  0.00    -0.203 F 
ATOM     68  F   UNL A   1      47.588  28.918  35.494  1.00  0.00    -0.200 F 
ATOM     69  C   UNL A   1      46.101  27.388  36.507  1.00  0.00     0.200 A 
ATOM     70  F   UNL A   1      44.577  25.884  37.503  1.00  0.00    -0.200 F 
ATOM     71  F   UNL A   1      47.129  26.755  37.091  1.00  0.00    -0.200 F 
ENDBRANCH  38  61
ENDBRANCH  12  13
ENDBRANCH   5   7
ENDBRANCH   2   3
ENDBRANCH   1   2
BRANCH   1  72
ATOM     72  C   UNL A   1      31.526  30.673  26.533  1.00  0.00     0.117 C 
BRANCH  72  73
ATOM     73  N   UNL A   1      32.308  30.338  25.353  1.00  0.00    -0.356 N 
ATOM     74  C   UNL A   1      32.418  29.148  24.697  1.00  0.00     0.226 C 
ATOM     75  H   UNL A   1      32.835  31.077  24.974  1.00  0.00     0.163 HD
ATOM     76  O   UNL A   1      33.411  28.969  23.995  1.00  0.00    -0.275 OA
BRANCH  74  77
ATOM     77  C   UNL A   1      31.271  28.167  24.765  1.00  0.00     0.122 C 
ATOM     78  C   UNL A   1      31.722  26.693  24.943  1.00  0.00     0.123 C 
ATOM     79  C   UNL A   1      30.585  28.162  23.390  1.00  0.00     0.132 C 
ATOM     80  C   UNL A   1      31.016  26.069  23.736  1.00  0.00     0.132 C 
ATOM     81  C   UNL A   1      29.181  27.579  23.502  1.00  0.00     0.035 C 
ATOM     82  O   UNL A   1      31.252  27.076  22.719  1.00  0.00    -0.373 OA
ATOM     83  C   UNL A   1      29.486  26.115  23.810  1.00  0.00     0.035 C 
BRANCH  78  84
ATOM     84  C   UNL A   1      31.415  26.269  26.381  1.00  0.00     0.231 C 
ATOM     85  O   UNL A   1      30.964  27.112  27.171  1.00  0.00    -0.274 OA
ATOM     86  N   UNL A   1      31.559  25.008  26.876  1.00  0.00    -0.326 N 
ATOM     87  H   UNL A   1      31.260  24.896  27.807  1.00  0.00     0.169 HD
BRANCH  86  88
ATOM     88  C   UNL A   1      32.060  23.850  26.282  1.00  0.00     0.044 A 
ATOM     89  C   UNL A   1      31.231  22.856  25.760  1.00  0.00     0.029 A 
ATOM     90  C   UNL A   1      33.447  23.680  26.284  1.00  0.00     0.068 A 
ATOM     91  C   UNL A   1      31.779  21.632  25.370  1.00  0.00     0.044 A 
ATOM     92  C   UNL A   1      33.980  22.447  25.923  1.00  0.00     0.160 A 
ATOM     93  C   UNL A   1      33.149  21.423  25.488  1.00  0.00     0.158 A 
ATOM     94  F   UNL A   1      35.297  22.241  26.058  1.00  0.00    -0.204 F 
ATOM     95  F   UNL A   1      33.659  20.218  25.198  1.00  0.00    -0.204 F 
ENDBRANCH  86  88
ENDBRANCH  78  84
ENDBRANCH  74  77
ENDBRANCH  72  73
ENDBRANCH   1  72
TORSDOF 12
ENDMDL
