MODEL 1
REMARK VINA RESULT:     -12.8      0.000      0.000
REMARK SMILES CC(C)c1nc(N2C[C@H](C)OC(C)(C)C2)sc1C(=O)NCCCNC(=O)c1ccc(-c2c3nc(c(-c4c(F)c(F)c(F)c(F)c4F)c4ccc([nH]4)c(-c4c(F)c(F)c(F)c(F)c4F)c4nc(c(-c5c(F)c(F)c(F)c(F)c5F)c5ccc2[nH]5)C=C4)C=C3)cc1
REMARK SMILES IDX 22 1 21 2 20 3 18 4 19 5 17 7 4 8 5 9 6 10 16 11 2 12 1 13
REMARK SMILES IDX 3 14 7 15 8 16 15 17 9 18 12 19 11 20 10 21 13 22 14 23
REMARK SMILES IDX 23 24 24 25 25 26 26 28 27 29 28 30 89 31 29 32 88 33 30 34
REMARK SMILES IDX 31 35 32 36 82 37 33 38 87 39 81 40 83 41 34 42 86 43 80 44
REMARK SMILES IDX 79 45 35 47 67 48 47 49 66 50 48 51 51 52 65 53 84 54 49 55
REMARK SMILES IDX 50 56 64 58 85 59 52 60 36 61 37 62 45 63 38 64 39 65 43 66
REMARK SMILES IDX 46 67 40 68 41 69 44 70 42 71 68 72 69 73 77 74 70 75 71 76
REMARK SMILES IDX 75 77 78 78 72 79 73 80 76 81 74 82 53 83 54 84 62 85 55 86
REMARK SMILES IDX 56 87 60 88 63 89 57 90 58 91 61 92 59 93
REMARK H PARENT 20 6 24 27 83 46 51 57
REMARK Flexibility Score: inf
ROOT
ATOM      1  C   UNL A   1      37.751  20.174  24.955  1.00  0.00     0.042 C 
ENDROOT
BRANCH   1   2
ATOM      2  C   UNL A   1      36.688  21.249  25.041  1.00  0.00     0.118 C 
BRANCH   2   3
ATOM      3  N   UNL A   1      35.913  21.240  26.256  1.00  0.00    -0.351 N 
ATOM      4  C   UNL A   1      34.692  21.812  26.519  1.00  0.00     0.263 C 
ATOM      5  O   UNL A   1      34.273  21.630  27.666  1.00  0.00    -0.268 OA
ATOM      6  H   UNL A   1      36.319  20.754  27.009  1.00  0.00     0.163 HD
BRANCH   4   7
ATOM      7  C   UNL A   1      33.988  22.615  25.537  1.00  0.00     0.117 A 
ATOM      8  C   UNL A   1      33.246  22.361  24.386  1.00  0.00     0.069 A 
ATOM      9  N   UNL A   1      32.674  23.501  23.827  1.00  0.00    -0.224 NA
ATOM     10  C   UNL A   1      33.002  24.597  24.466  1.00  0.00     0.186 A 
ATOM     11  S   UNL A   1      33.990  24.315  25.839  1.00  0.00    -0.091 S 
BRANCH   8  12
ATOM     12  C   UNL A   1      32.969  21.063  23.657  1.00  0.00     0.034 C 
ATOM     13  C   UNL A   1      32.461  19.952  24.573  1.00  0.00     0.014 C 
ATOM     14  C   UNL A   1      32.022  21.224  22.459  1.00  0.00     0.014 C 
ENDBRANCH   8  12
BRANCH  10  15
ATOM     15  N   UNL A   1      32.571  25.826  24.091  1.00  0.00    -0.343 N 
ATOM     16  C   UNL A   1      31.324  26.073  23.376  1.00  0.00     0.150 C 
ATOM     17  C   UNL A   1      33.295  27.024  24.513  1.00  0.00     0.153 C 
ATOM     18  C   UNL A   1      30.434  26.996  24.233  1.00  0.00     0.135 C 
ATOM     19  C   UNL A   1      32.365  28.007  25.273  1.00  0.00     0.081 C 
ATOM     20  O   UNL A   1      31.118  28.218  24.569  1.00  0.00    -0.369 OA
ATOM     21  C   UNL A   1      29.164  27.375  23.482  1.00  0.00     0.040 C 
ATOM     22  C   UNL A   1      32.100  27.538  26.711  1.00  0.00     0.044 C 
ATOM     23  C   UNL A   1      33.043  29.383  25.327  1.00  0.00     0.044 C 
ENDBRANCH  10  15
ENDBRANCH   4   7
ENDBRANCH   2   3
ENDBRANCH   1   2
BRANCH   1  24
ATOM     24  C   UNL A   1      39.020  20.486  25.737  1.00  0.00     0.118 C 
BRANCH  24  25
ATOM     25  N   UNL A   1      39.975  19.383  25.805  1.00  0.00    -0.352 N 
ATOM     26  C   UNL A   1      41.325  19.341  26.072  1.00  0.00     0.251 C 
ATOM     27  H   UNL A   1      39.577  18.501  25.627  1.00  0.00     0.163 HD
ATOM     28  O   UNL A   1      41.921  18.269  25.982  1.00  0.00    -0.269 OA
BRANCH  26  29
ATOM     29  C   UNL A   1      42.083  20.567  26.406  1.00  0.00     0.039 A 
ATOM     30  C   UNL A   1      42.594  21.356  25.370  1.00  0.00     0.014 A 
ATOM     31  C   UNL A   1      42.285  20.962  27.724  1.00  0.00     0.014 A 
ATOM     32  C   UNL A   1      43.185  22.591  25.658  1.00  0.00     0.010 A 
ATOM     33  C   UNL A   1      42.734  22.245  28.002  1.00  0.00     0.010 A 
ATOM     34  C   UNL A   1      43.190  23.081  26.974  1.00  0.00    -0.014 A 
BRANCH  34  35
ATOM     35  C   UNL A   1      43.665  24.449  27.313  1.00  0.00     0.031 A 
ATOM     36  C   UNL A   1      42.699  25.465  27.866  1.00  0.00     0.074 A 
ATOM     37  C   UNL A   1      44.928  24.817  27.017  1.00  0.00     0.049 A 
ATOM     38  N   UNL A   1      42.863  26.750  28.059  1.00  0.00    -0.248 NA
ATOM     39  C   UNL A   1      41.348  24.982  28.197  1.00  0.00     0.031 C 
ATOM     40  C   UNL A   1      45.947  23.955  26.415  1.00  0.00     0.029 A 
ATOM     41  N   UNL A   1      45.568  26.024  27.168  1.00  0.00    -0.354 N 
ATOM     42  C   UNL A   1      41.631  27.228  28.487  1.00  0.00     0.074 A 
ATOM     43  C   UNL A   1      40.713  26.111  28.467  1.00  0.00     0.031 C 
ATOM     44  C   UNL A   1      47.090  24.646  26.283  1.00  0.00     0.029 A 
ATOM     45  C   UNL A   1      46.875  26.013  26.744  1.00  0.00     0.049 A 
ATOM     46  H   UNL A   1      45.131  26.821  27.545  1.00  0.00     0.167 HD
ATOM     47  C   UNL A   1      41.300  28.477  28.891  1.00  0.00     0.037 A 
ATOM     48  C   UNL A   1      47.794  26.997  26.722  1.00  0.00     0.037 A 
ATOM     49  C   UNL A   1      42.232  29.570  28.978  1.00  0.00     0.049 A 
ATOM     50  C   UNL A   1      47.415  28.364  27.222  1.00  0.00     0.074 A 
ATOM     51  C   UNL A   1      42.018  30.851  29.453  1.00  0.00     0.029 A 
ATOM     52  N   UNL A   1      43.563  29.501  28.593  1.00  0.00    -0.354 N 
ATOM     53  N   UNL A   1      46.262  28.789  27.678  1.00  0.00    -0.248 NA
ATOM     54  C   UNL A   1      48.468  29.389  27.206  1.00  0.00     0.031 C 
ATOM     55  C   UNL A   1      43.213  31.568  29.327  1.00  0.00     0.029 A 
ATOM     56  C   UNL A   1      44.181  30.721  28.812  1.00  0.00     0.049 A 
ATOM     57  H   UNL A   1      44.003  28.704  28.218  1.00  0.00     0.167 HD
ATOM     58  C   UNL A   1      46.456  30.117  28.030  1.00  0.00     0.074 A 
ATOM     59  C   UNL A   1      47.843  30.425  27.747  1.00  0.00     0.031 C 
ATOM     60  C   UNL A   1      45.566  31.003  28.540  1.00  0.00     0.037 A 
BRANCH  47  61
ATOM     61  C   UNL A   1      39.874  28.722  29.293  1.00  0.00     0.064 A 
ATOM     62  C   UNL A   1      39.431  28.503  30.606  1.00  0.00     0.173 A 
ATOM     63  C   UNL A   1      38.943  29.203  28.359  1.00  0.00     0.173 A 
ATOM     64  F   UNL A   1      40.278  28.032  31.534  1.00  0.00    -0.203 F 
ATOM     65  C   UNL A   1      38.103  28.722  30.962  1.00  0.00     0.198 A 
ATOM     66  C   UNL A   1      37.623  29.452  28.726  1.00  0.00     0.198 A 
ATOM     67  F   UNL A   1      39.314  29.435  27.091  1.00  0.00    -0.203 F 
ATOM     68  F   UNL A   1      37.692  28.448  32.208  1.00  0.00    -0.200 F 
ATOM     69  C   UNL A   1      37.202  29.201  30.024  1.00  0.00     0.200 A 
ATOM     70  F   UNL A   1      36.756  29.928  27.822  1.00  0.00    -0.200 F 
ATOM     71  F   UNL A   1      35.924  29.415  30.369  1.00  0.00    -0.200 F 
ENDBRANCH  47  61
BRANCH  48  72
ATOM     72  C   UNL A   1      49.175  26.716  26.251  1.00  0.00     0.064 A 
ATOM     73  C   UNL A   1      49.540  26.964  24.920  1.00  0.00     0.173 A 
ATOM     74  C   UNL A   1      50.154  26.196  27.110  1.00  0.00     0.173 A 
ATOM     75  F   UNL A   1      48.631  27.444  24.058  1.00  0.00    -0.203 F 
ATOM     76  C   UNL A   1      50.823  26.682  24.460  1.00  0.00     0.198 A 
ATOM     77  C   UNL A   1      51.446  25.939  26.654  1.00  0.00     0.198 A 
ATOM     78  F   UNL A   1      49.859  25.948  28.394  1.00  0.00    -0.203 F 
ATOM     79  F   UNL A   1      51.130  26.886  23.171  1.00  0.00    -0.200 F 
ATOM     80  C   UNL A   1      51.777  26.174  25.328  1.00  0.00     0.200 A 
ATOM     81  F   UNL A   1      52.369  25.461  27.500  1.00  0.00    -0.200 F 
ATOM     82  F   UNL A   1      53.013  25.905  24.885  1.00  0.00    -0.200 F 
ENDBRANCH  48  72
BRANCH  60  83
ATOM     83  C   UNL A   1      46.073  32.376  28.865  1.00  0.00     0.064 A 
ATOM     84  C   UNL A   1      46.015  33.421  27.931  1.00  0.00     0.173 A 
ATOM     85  C   UNL A   1      46.578  32.660  30.143  1.00  0.00     0.173 A 
ATOM     86  F   UNL A   1      45.554  33.193  26.693  1.00  0.00    -0.203 F 
ATOM     87  C   UNL A   1      46.466  34.696  28.259  1.00  0.00     0.198 A 
ATOM     88  C   UNL A   1      47.002  33.942  30.476  1.00  0.00     0.198 A 
ATOM     89  F   UNL A   1      46.648  31.695  31.072  1.00  0.00    -0.203 F 
ATOM     90  F   UNL A   1      46.441  35.670  27.340  1.00  0.00    -0.200 F 
ATOM     91  C   UNL A   1      46.951  34.957  29.533  1.00  0.00     0.200 A 
ATOM     92  F   UNL A   1      47.459  34.196  31.710  1.00  0.00    -0.200 F 
ATOM     93  F   UNL A   1      47.376  36.188  29.849  1.00  0.00    -0.200 F 
ENDBRANCH  60  83
ENDBRANCH  34  35
ENDBRANCH  26  29
ENDBRANCH  24  25
ENDBRANCH   1  24
TORSDOF 12
ENDMDL
MODEL 2
REMARK VINA RESULT:     -12.8      0.105      1.596
REMARK SMILES CC(C)c1nc(N2C[C@H](C)OC(C)(C)C2)sc1C(=O)NCCCNC(=O)c1ccc(-c2c3nc(c(-c4c(F)c(F)c(F)c(F)c4F)c4ccc([nH]4)c(-c4c(F)c(F)c(F)c(F)c4F)c4nc(c(-c5c(F)c(F)c(F)c(F)c5F)c5ccc2[nH]5)C=C4)C=C3)cc1
REMARK SMILES IDX 22 1 21 2 20 3 18 4 19 5 17 7 4 8 5 9 6 10 16 11 2 12 1 13
REMARK SMILES IDX 3 14 7 15 8 16 15 17 9 18 12 19 11 20 10 21 13 22 14 23
REMARK SMILES IDX 23 24 24 25 25 26 26 28 27 29 28 30 89 31 29 32 88 33 30 34
REMARK SMILES IDX 31 35 32 36 82 37 33 38 87 39 81 40 83 41 34 42 86 43 80 44
REMARK SMILES IDX 79 45 35 47 67 48 47 49 66 50 48 51 51 52 65 53 84 54 49 55
REMARK SMILES IDX 50 56 64 58 85 59 52 60 36 61 37 62 45 63 38 64 39 65 43 66
REMARK SMILES IDX 46 67 40 68 41 69 44 70 42 71 68 72 69 73 77 74 70 75 71 76
REMARK SMILES IDX 75 77 78 78 72 79 73 80 76 81 74 82 53 83 54 84 62 85 55 86
REMARK SMILES IDX 56 87 60 88 63 89 57 90 58 91 61 92 59 93
REMARK H PARENT 20 6 24 27 83 46 51 57
REMARK Flexibility Score: inf
ROOT
ATOM      1  C   UNL A   1      37.742  20.195  24.951  1.00  0.00     0.042 C 
ENDROOT
BRANCH   1   2
ATOM      2  C   UNL A   1      36.675  21.266  25.045  1.00  0.00     0.118 C 
BRANCH   2   3
ATOM      3  N   UNL A   1      35.885  21.231  26.249  1.00  0.00    -0.351 N 
ATOM      4  C   UNL A   1      34.671  21.816  26.517  1.00  0.00     0.263 C 
ATOM      5  O   UNL A   1      34.235  21.605  27.652  1.00  0.00    -0.268 OA
ATOM      6  H   UNL A   1      36.273  20.712  26.990  1.00  0.00     0.163 HD
BRANCH   4   7
ATOM      7  C   UNL A   1      33.994  22.665  25.555  1.00  0.00     0.117 A 
ATOM      8  C   UNL A   1      33.242  22.463  24.400  1.00  0.00     0.069 A 
ATOM      9  N   UNL A   1      32.709  23.633  23.867  1.00  0.00    -0.224 NA
ATOM     10  C   UNL A   1      33.075  24.703  24.530  1.00  0.00     0.186 A 
ATOM     11  S   UNL A   1      34.055  24.357  25.894  1.00  0.00    -0.091 S 
BRANCH   8  12
ATOM     12  C   UNL A   1      32.920  21.191  23.643  1.00  0.00     0.034 C 
ATOM     13  C   UNL A   1      32.343  20.090  24.530  1.00  0.00     0.014 C 
ATOM     14  C   UNL A   1      32.005  21.416  22.431  1.00  0.00     0.014 C 
ENDBRANCH   8  12
BRANCH  10  15
ATOM     15  N   UNL A   1      32.687  25.954  24.183  1.00  0.00    -0.343 N 
ATOM     16  C   UNL A   1      31.512  26.250  23.370  1.00  0.00     0.150 C 
ATOM     17  C   UNL A   1      33.374  27.121  24.734  1.00  0.00     0.153 C 
ATOM     18  C   UNL A   1      30.551  27.136  24.190  1.00  0.00     0.135 C 
ATOM     19  C   UNL A   1      32.382  28.071  25.456  1.00  0.00     0.081 C 
ATOM     20  O   UNL A   1      31.206  28.331  24.652  1.00  0.00    -0.369 OA
ATOM     21  C   UNL A   1      29.357  27.565  23.347  1.00  0.00     0.040 C 
ATOM     22  C   UNL A   1      31.983  27.530  26.836  1.00  0.00     0.044 C 
ATOM     23  C   UNL A   1      33.058  29.437  25.645  1.00  0.00     0.044 C 
ENDBRANCH  10  15
ENDBRANCH   4   7
ENDBRANCH   2   3
ENDBRANCH   1   2
BRANCH   1  24
ATOM     24  C   UNL A   1      39.006  20.502  25.741  1.00  0.00     0.118 C 
BRANCH  24  25
ATOM     25  N   UNL A   1      39.965  19.402  25.799  1.00  0.00    -0.352 N 
ATOM     26  C   UNL A   1      41.316  19.363  26.061  1.00  0.00     0.251 C 
ATOM     27  H   UNL A   1      39.569  18.520  25.617  1.00  0.00     0.163 HD
ATOM     28  O   UNL A   1      41.915  18.294  25.962  1.00  0.00    -0.269 OA
BRANCH  26  29
ATOM     29  C   UNL A   1      42.071  20.589  26.399  1.00  0.00     0.039 A 
ATOM     30  C   UNL A   1      42.585  21.381  25.366  1.00  0.00     0.014 A 
ATOM     31  C   UNL A   1      42.268  20.982  27.719  1.00  0.00     0.014 A 
ATOM     32  C   UNL A   1      43.173  22.616  25.658  1.00  0.00     0.010 A 
ATOM     33  C   UNL A   1      42.715  22.265  28.000  1.00  0.00     0.010 A 
ATOM     34  C   UNL A   1      43.173  23.103  26.975  1.00  0.00    -0.014 A 
BRANCH  34  35
ATOM     35  C   UNL A   1      43.645  24.472  27.318  1.00  0.00     0.031 A 
ATOM     36  C   UNL A   1      42.676  25.486  27.871  1.00  0.00     0.074 A 
ATOM     37  C   UNL A   1      44.908  24.842  27.025  1.00  0.00     0.049 A 
ATOM     38  N   UNL A   1      42.838  26.770  28.067  1.00  0.00    -0.248 NA
ATOM     39  C   UNL A   1      41.326  24.999  28.197  1.00  0.00     0.031 C 
ATOM     40  C   UNL A   1      45.930  23.983  26.425  1.00  0.00     0.029 A 
ATOM     41  N   UNL A   1      45.546  26.050  27.181  1.00  0.00    -0.354 N 
ATOM     42  C   UNL A   1      41.604  27.245  28.492  1.00  0.00     0.074 A 
ATOM     43  C   UNL A   1      40.688  26.127  28.467  1.00  0.00     0.031 C 
ATOM     44  C   UNL A   1      47.072  24.676  26.297  1.00  0.00     0.029 A 
ATOM     45  C   UNL A   1      46.854  26.042  26.759  1.00  0.00     0.049 A 
ATOM     46  H   UNL A   1      45.107  26.846  27.558  1.00  0.00     0.167 HD
ATOM     47  C   UNL A   1      41.271  28.493  28.898  1.00  0.00     0.037 A 
ATOM     48  C   UNL A   1      47.772  27.027  26.742  1.00  0.00     0.037 A 
ATOM     49  C   UNL A   1      42.200  29.587  28.989  1.00  0.00     0.049 A 
ATOM     50  C   UNL A   1      47.389  28.393  27.244  1.00  0.00     0.074 A 
ATOM     51  C   UNL A   1      41.984  30.868  29.466  1.00  0.00     0.029 A 
ATOM     52  N   UNL A   1      43.532  29.521  28.607  1.00  0.00    -0.354 N 
ATOM     53  N   UNL A   1      46.235  28.815  27.698  1.00  0.00    -0.248 NA
ATOM     54  C   UNL A   1      48.441  29.420  27.233  1.00  0.00     0.031 C 
ATOM     55  C   UNL A   1      43.177  31.586  29.344  1.00  0.00     0.029 A 
ATOM     56  C   UNL A   1      44.148  30.742  28.830  1.00  0.00     0.049 A 
ATOM     57  H   UNL A   1      43.974  28.725  28.232  1.00  0.00     0.167 HD
ATOM     58  C   UNL A   1      46.426  30.142  28.053  1.00  0.00     0.074 A 
ATOM     59  C   UNL A   1      47.813  30.453  27.774  1.00  0.00     0.031 C 
ATOM     60  C   UNL A   1      45.533  31.026  28.563  1.00  0.00     0.037 A 
BRANCH  47  61
ATOM     61  C   UNL A   1      39.843  28.736  29.296  1.00  0.00     0.064 A 
ATOM     62  C   UNL A   1      39.391  28.487  30.601  1.00  0.00     0.173 A 
ATOM     63  C   UNL A   1      38.920  29.243  28.369  1.00  0.00     0.173 A 
ATOM     64  F   UNL A   1      40.230  27.989  31.523  1.00  0.00    -0.203 F 
ATOM     65  C   UNL A   1      38.061  28.704  30.954  1.00  0.00     0.198 A 
ATOM     66  C   UNL A   1      37.599  29.489  28.733  1.00  0.00     0.198 A 
ATOM     67  F   UNL A   1      39.300  29.504  27.109  1.00  0.00    -0.203 F 
ATOM     68  F   UNL A   1      37.641  28.402  32.190  1.00  0.00    -0.200 F 
ATOM     69  C   UNL A   1      37.168  29.209  30.022  1.00  0.00     0.200 A 
ATOM     70  F   UNL A   1      36.739  29.991  27.836  1.00  0.00    -0.200 F 
ATOM     71  F   UNL A   1      35.889  29.421  30.364  1.00  0.00    -0.200 F 
ENDBRANCH  47  61
BRANCH  48  72
ATOM     72  C   UNL A   1      49.154  26.749  26.274  1.00  0.00     0.064 A 
ATOM     73  C   UNL A   1      50.123  26.256  27.161  1.00  0.00     0.173 A 
ATOM     74  C   UNL A   1      49.539  26.969  24.944  1.00  0.00     0.173 A 
ATOM     75  F   UNL A   1      49.806  26.049  28.447  1.00  0.00    -0.203 F 
ATOM     76  C   UNL A   1      51.429  26.016  26.740  1.00  0.00     0.198 A 
ATOM     77  C   UNL A   1      50.840  26.703  24.519  1.00  0.00     0.198 A 
ATOM     78  F   UNL A   1      48.649  27.433  24.054  1.00  0.00    -0.203 F 
ATOM     79  F   UNL A   1      52.345  25.589  27.620  1.00  0.00    -0.200 F 
ATOM     80  C   UNL A   1      51.785  26.235  25.419  1.00  0.00     0.200 A 
ATOM     81  F   UNL A   1      51.177  26.902  23.237  1.00  0.00    -0.200 F 
ATOM     82  F   UNL A   1      53.041  26.000  25.015  1.00  0.00    -0.200 F 
ENDBRANCH  48  72
BRANCH  60  83
ATOM     83  C   UNL A   1      46.037  32.400  28.891  1.00  0.00     0.064 A 
ATOM     84  C   UNL A   1      46.598  32.697  30.141  1.00  0.00     0.173 A 
ATOM     85  C   UNL A   1      45.999  33.417  27.925  1.00  0.00     0.173 A 
ATOM     86  F   UNL A   1      46.641  31.761  31.101  1.00  0.00    -0.203 F 
ATOM     87  C   UNL A   1      47.084  33.971  30.420  1.00  0.00     0.198 A 
ATOM     88  C   UNL A   1      46.512  34.681  28.198  1.00  0.00     0.198 A 
ATOM     89  F   UNL A   1      45.478  33.178  26.712  1.00  0.00    -0.203 F 
ATOM     90  F   UNL A   1      47.578  34.247  31.634  1.00  0.00    -0.200 F 
ATOM     91  C   UNL A   1      47.048  34.958  29.446  1.00  0.00     0.200 A 
ATOM     92  F   UNL A   1      46.487  35.630  27.252  1.00  0.00    -0.200 F 
ATOM     93  F   UNL A   1      47.525  36.182  29.713  1.00  0.00    -0.200 F 
ENDBRANCH  60  83
ENDBRANCH  34  35
ENDBRANCH  26  29
ENDBRANCH  24  25
ENDBRANCH   1  24
TORSDOF 12
ENDMDL
MODEL 3
REMARK VINA RESULT:     -12.8      4.556      8.471
REMARK SMILES CC(C)c1nc(N2C[C@H](C)OC(C)(C)C2)sc1C(=O)NCCCNC(=O)c1ccc(-c2c3nc(c(-c4c(F)c(F)c(F)c(F)c4F)c4ccc([nH]4)c(-c4c(F)c(F)c(F)c(F)c4F)c4nc(c(-c5c(F)c(F)c(F)c(F)c5F)c5ccc2[nH]5)C=C4)C=C3)cc1
REMARK SMILES IDX 22 1 21 2 20 3 18 4 19 5 17 7 4 8 5 9 6 10 16 11 2 12 1 13
REMARK SMILES IDX 3 14 7 15 8 16 15 17 9 18 12 19 11 20 10 21 13 22 14 23
REMARK SMILES IDX 23 24 24 25 25 26 26 28 27 29 28 30 89 31 29 32 88 33 30 34
REMARK SMILES IDX 31 35 32 36 82 37 33 38 87 39 81 40 83 41 34 42 86 43 80 44
REMARK SMILES IDX 79 45 35 47 67 48 47 49 66 50 48 51 51 52 65 53 84 54 49 55
REMARK SMILES IDX 50 56 64 58 85 59 52 60 36 61 37 62 45 63 38 64 39 65 43 66
REMARK SMILES IDX 46 67 40 68 41 69 44 70 42 71 68 72 69 73 77 74 70 75 71 76
REMARK SMILES IDX 75 77 78 78 72 79 73 80 76 81 74 82 53 83 54 84 62 85 55 86
REMARK SMILES IDX 56 87 60 88 63 89 57 90 58 91 61 92 59 93
REMARK H PARENT 20 6 24 27 83 46 51 57
REMARK Flexibility Score: inf
ROOT
ATOM      1  C   UNL A   1      31.797  29.203  27.257  1.00  0.00     0.042 C 
ENDROOT
BRANCH   1   2
ATOM      2  C   UNL A   1      32.025  27.735  26.964  1.00  0.00     0.118 C 
BRANCH   2   3
ATOM      3  N   UNL A   1      30.827  26.940  26.873  1.00  0.00    -0.351 N 
ATOM      4  C   UNL A   1      30.664  25.650  26.430  1.00  0.00     0.263 C 
ATOM      5  O   UNL A   1      29.503  25.233  26.473  1.00  0.00    -0.268 OA
ATOM      6  H   UNL A   1      30.003  27.389  27.171  1.00  0.00     0.163 HD
BRANCH   4   7
ATOM      7  C   UNL A   1      31.766  24.870  25.899  1.00  0.00     0.117 A 
ATOM      8  C   UNL A   1      32.599  24.949  24.786  1.00  0.00     0.069 A 
ATOM      9  N   UNL A   1      33.603  23.984  24.769  1.00  0.00    -0.224 NA
ATOM     10  C   UNL A   1      33.524  23.154  25.781  1.00  0.00     0.186 A 
ATOM     11  S   UNL A   1      32.248  23.523  26.866  1.00  0.00    -0.091 S 
BRANCH   8  12
ATOM     12  C   UNL A   1      32.585  25.901  23.608  1.00  0.00     0.034 C 
ATOM     13  C   UNL A   1      33.660  26.982  23.693  1.00  0.00     0.014 C 
ATOM     14  C   UNL A   1      32.664  25.193  22.248  1.00  0.00     0.014 C 
ENDBRANCH   8  12
BRANCH  10  15
ATOM     15  N   UNL A   1      34.389  22.127  25.961  1.00  0.00    -0.343 N 
ATOM     16  C   UNL A   1      34.027  20.720  25.834  1.00  0.00     0.150 C 
ATOM     17  C   UNL A   1      35.812  22.388  26.171  1.00  0.00     0.153 C 
ATOM     18  C   UNL A   1      34.887  20.084  24.723  1.00  0.00     0.135 C 
ATOM     19  C   UNL A   1      36.683  21.649  25.121  1.00  0.00     0.081 C 
ATOM     20  O   UNL A   1      36.291  20.262  24.981  1.00  0.00    -0.369 OA
ATOM     21  C   UNL A   1      34.625  18.587  24.624  1.00  0.00     0.040 C 
ATOM     22  C   UNL A   1      36.651  22.358  23.760  1.00  0.00     0.044 C 
ATOM     23  C   UNL A   1      38.134  21.616  25.620  1.00  0.00     0.044 C 
ENDBRANCH  10  15
ENDBRANCH   4   7
ENDBRANCH   2   3
ENDBRANCH   1   2
BRANCH   1  24
ATOM     24  C   UNL A   1      32.517  30.150  26.307  1.00  0.00     0.118 C 
BRANCH  24  25
ATOM     25  N   UNL A   1      32.557  31.539  26.753  1.00  0.00    -0.352 N 
ATOM     26  C   UNL A   1      33.477  32.250  27.491  1.00  0.00     0.251 C 
ATOM     27  H   UNL A   1      31.778  32.070  26.472  1.00  0.00     0.163 HD
ATOM     28  O   UNL A   1      33.225  33.411  27.806  1.00  0.00    -0.269 OA
BRANCH  26  29
ATOM     29  C   UNL A   1      34.733  31.627  27.963  1.00  0.00     0.039 A 
ATOM     30  C   UNL A   1      35.859  32.432  28.169  1.00  0.00     0.014 A 
ATOM     31  C   UNL A   1      34.816  30.263  28.223  1.00  0.00     0.014 A 
ATOM     32  C   UNL A   1      37.009  31.889  28.752  1.00  0.00     0.010 A 
ATOM     33  C   UNL A   1      35.896  29.757  28.933  1.00  0.00     0.010 A 
ATOM     34  C   UNL A   1      37.009  30.562  29.210  1.00  0.00    -0.014 A 
BRANCH  34  35
ATOM     35  C   UNL A   1      38.147  29.983  29.973  1.00  0.00     0.031 A 
ATOM     36  C   UNL A   1      38.395  30.412  31.396  1.00  0.00     0.074 A 
ATOM     37  C   UNL A   1      39.024  29.165  29.357  1.00  0.00     0.049 A 
ATOM     38  N   UNL A   1      39.421  30.167  32.172  1.00  0.00    -0.248 NA
ATOM     39  C   UNL A   1      37.376  31.278  32.012  1.00  0.00     0.031 C 
ATOM     40  C   UNL A   1      38.944  28.723  27.963  1.00  0.00     0.029 A 
ATOM     41  N   UNL A   1      40.172  28.569  29.823  1.00  0.00    -0.354 N 
ATOM     42  C   UNL A   1      39.190  30.882  33.340  1.00  0.00     0.074 A 
ATOM     43  C   UNL A   1      37.961  31.618  33.150  1.00  0.00     0.031 C 
ATOM     44  C   UNL A   1      39.971  27.901  27.698  1.00  0.00     0.029 A 
ATOM     45  C   UNL A   1      40.811  27.793  28.885  1.00  0.00     0.049 A 
ATOM     46  H   UNL A   1      40.505  28.686  30.742  1.00  0.00     0.167 HD
ATOM     47  C   UNL A   1      39.919  30.900  34.481  1.00  0.00     0.037 A 
ATOM     48  C   UNL A   1      41.951  27.081  28.972  1.00  0.00     0.037 A 
ATOM     49  C   UNL A   1      41.104  30.113  34.694  1.00  0.00     0.049 A 
ATOM     50  C   UNL A   1      42.717  27.080  30.267  1.00  0.00     0.074 A 
ATOM     51  C   UNL A   1      41.868  29.995  35.841  1.00  0.00     0.029 A 
ATOM     52  N   UNL A   1      41.686  29.294  33.737  1.00  0.00    -0.354 N 
ATOM     53  N   UNL A   1      42.457  27.715  31.383  1.00  0.00    -0.248 NA
ATOM     54  C   UNL A   1      43.935  26.259  30.314  1.00  0.00     0.031 C 
ATOM     55  C   UNL A   1      42.932  29.128  35.569  1.00  0.00     0.029 A 
ATOM     56  C   UNL A   1      42.806  28.674  34.266  1.00  0.00     0.049 A 
ATOM     57  H   UNL A   1      41.353  29.173  32.818  1.00  0.00     0.167 HD
ATOM     58  C   UNL A   1      43.458  27.350  32.273  1.00  0.00     0.074 A 
ATOM     59  C   UNL A   1      44.324  26.425  31.569  1.00  0.00     0.031 C 
ATOM     60  C   UNL A   1      43.645  27.744  33.555  1.00  0.00     0.037 A 
BRANCH  47  61
ATOM     61  C   UNL A   1      39.441  31.785  35.597  1.00  0.00     0.064 A 
ATOM     62  C   UNL A   1      38.517  31.331  36.551  1.00  0.00     0.173 A 
ATOM     63  C   UNL A   1      39.928  33.094  35.728  1.00  0.00     0.173 A 
ATOM     64  F   UNL A   1      38.010  30.091  36.464  1.00  0.00    -0.203 F 
ATOM     65  C   UNL A   1      38.071  32.166  37.572  1.00  0.00     0.198 A 
ATOM     66  C   UNL A   1      39.505  33.915  36.770  1.00  0.00     0.198 A 
ATOM     67  F   UNL A   1      40.816  33.577  34.846  1.00  0.00    -0.203 F 
ATOM     68  F   UNL A   1      37.144  31.728  38.435  1.00  0.00    -0.200 F 
ATOM     69  C   UNL A   1      38.570  33.454  37.684  1.00  0.00     0.200 A 
ATOM     70  F   UNL A   1      39.997  35.157  36.885  1.00  0.00    -0.200 F 
ATOM     71  F   UNL A   1      38.143  34.255  38.671  1.00  0.00    -0.200 F 
ENDBRANCH  47  61
BRANCH  48  72
ATOM     72  C   UNL A   1      42.416  26.276  27.814  1.00  0.00     0.064 A 
ATOM     73  C   UNL A   1      43.397  26.774  26.945  1.00  0.00     0.173 A 
ATOM     74  C   UNL A   1      41.894  25.001  27.547  1.00  0.00     0.173 A 
ATOM     75  F   UNL A   1      43.911  27.996  27.149  1.00  0.00    -0.203 F 
ATOM     76  C   UNL A   1      43.823  26.039  25.841  1.00  0.00     0.198 A 
ATOM     77  C   UNL A   1      42.341  24.256  26.457  1.00  0.00     0.198 A 
ATOM     78  F   UNL A   1      40.959  24.476  28.351  1.00  0.00    -0.203 F 
ATOM     79  F   UNL A   1      44.729  26.559  25.002  1.00  0.00    -0.200 F 
ATOM     80  C   UNL A   1      43.298  24.779  25.600  1.00  0.00     0.200 A 
ATOM     81  F   UNL A   1      41.842  23.033  26.235  1.00  0.00    -0.200 F 
ATOM     82  F   UNL A   1      43.710  24.071  24.539  1.00  0.00    -0.200 F 
ENDBRANCH  48  72
BRANCH  60  83
ATOM     83  C   UNL A   1      44.804  27.148  34.296  1.00  0.00     0.064 A 
ATOM     84  C   UNL A   1      46.047  27.794  34.358  1.00  0.00     0.173 A 
ATOM     85  C   UNL A   1      44.653  25.938  34.991  1.00  0.00     0.173 A 
ATOM     86  F   UNL A   1      46.243  28.944  33.697  1.00  0.00    -0.203 F 
ATOM     87  C   UNL A   1      47.105  27.239  35.072  1.00  0.00     0.198 A 
ATOM     88  C   UNL A   1      45.704  25.400  35.727  1.00  0.00     0.198 A 
ATOM     89  F   UNL A   1      43.481  25.287  34.967  1.00  0.00    -0.203 F 
ATOM     90  F   UNL A   1      48.296  27.850  35.084  1.00  0.00    -0.200 F 
ATOM     91  C   UNL A   1      46.930  26.048  35.762  1.00  0.00     0.200 A 
ATOM     92  F   UNL A   1      45.531  24.256  36.403  1.00  0.00    -0.200 F 
ATOM     93  F   UNL A   1      47.947  25.520  36.457  1.00  0.00    -0.200 F 
ENDBRANCH  60  83
ENDBRANCH  34  35
ENDBRANCH  26  29
ENDBRANCH  24  25
ENDBRANCH   1  24
TORSDOF 12
ENDMDL
