MODEL 1
REMARK VINA RESULT:     -11.4      0.000      0.000
REMARK SMILES CCN(C(=O)N1C[C@@H](C)[C@H](C(=O)OC)C1)C(C)(C)C(=O)NCCCNC(=O)c1ccc(-c2c3nc(c(-c4c(F)c(F)c(F)c(F)c4F)c4ccc([nH]4)c(-c4c(F)c(F)c(F)c(F)c4F)c4nc(c(-c5c(F)c(F)c(F)c(F)c5F)c5ccc2[nH]5)C=C4)C=C3)cc1
REMARK SMILES IDX 19 1 20 2 21 3 16 5 17 6 18 7 3 8 2 9 1 10 4 11 5 12 6 13
REMARK SMILES IDX 7 14 15 15 8 16 10 17 9 18 11 19 12 20 13 21 14 22 22 23
REMARK SMILES IDX 23 24 24 25 25 26 26 27 27 29 28 30 29 31 90 32 30 33 89 34
REMARK SMILES IDX 31 35 32 36 33 37 83 38 34 39 88 40 82 41 84 42 35 43 87 44
REMARK SMILES IDX 81 45 80 46 36 48 68 49 48 50 67 51 49 52 52 53 66 54 85 55
REMARK SMILES IDX 50 56 51 57 65 59 86 60 53 61 37 62 38 63 46 64 39 65 40 66
REMARK SMILES IDX 44 67 47 68 41 69 42 70 45 71 43 72 69 73 70 74 78 75 71 76
REMARK SMILES IDX 72 77 76 78 79 79 73 80 74 81 77 82 75 83 54 84 55 85 63 86
REMARK SMILES IDX 56 87 57 88 61 89 64 90 58 91 59 92 62 93 60 94
REMARK H PARENT 21 4 25 28 84 47 52 58
REMARK Flexibility Score: inf
ROOT
ATOM      1  C   UNL A   1      35.883  22.652  25.840  1.00  0.00     0.245 C 
ATOM      2  O   UNL A   1      36.348  23.661  26.379  1.00  0.00    -0.272 OA
ATOM      3  N   UNL A   1      36.810  21.783  25.299  1.00  0.00    -0.354 N 
ATOM      4  H   UNL A   1      37.678  22.196  25.087  1.00  0.00     0.163 HD
ENDROOT
BRANCH   1   5
ATOM      5  C   UNL A   1      34.344  22.286  25.888  1.00  0.00     0.117 C 
ATOM      6  C   UNL A   1      33.756  23.390  26.808  1.00  0.00     0.045 C 
ATOM      7  C   UNL A   1      34.172  20.852  26.441  1.00  0.00     0.045 C 
BRANCH   5   8
ATOM      8  N   UNL A   1      33.625  22.373  24.552  1.00  0.00    -0.311 N 
BRANCH   8   9
ATOM      9  C   UNL A   1      33.267  21.107  23.872  1.00  0.00     0.119 C 
ATOM     10  C   UNL A   1      32.094  21.158  22.897  1.00  0.00     0.027 C 
ENDBRANCH   8   9
BRANCH   8  11
ATOM     11  C   UNL A   1      33.791  23.544  23.814  1.00  0.00     0.320 C 
ATOM     12  O   UNL A   1      34.634  23.605  22.914  1.00  0.00    -0.248 OA
BRANCH  11  13
ATOM     13  N   UNL A   1      32.977  24.624  24.083  1.00  0.00    -0.323 N 
ATOM     14  C   UNL A   1      31.533  24.805  24.075  1.00  0.00     0.125 C 
ATOM     15  C   UNL A   1      33.559  25.949  24.189  1.00  0.00     0.137 C 
ATOM     16  C   UNL A   1      31.364  25.986  23.098  1.00  0.00     0.021 C 
ATOM     17  C   UNL A   1      32.708  26.758  23.205  1.00  0.00     0.123 C 
ATOM     18  C   UNL A   1      30.154  26.851  23.413  1.00  0.00     0.010 C 
BRANCH  17  19
ATOM     19  C   UNL A   1      33.451  26.836  21.883  1.00  0.00     0.310 C 
ATOM     20  O   UNL A   1      33.365  25.985  21.008  1.00  0.00    -0.252 OA
BRANCH  19  21
ATOM     21  O   UNL A   1      34.186  27.977  21.783  1.00  0.00    -0.469 OA
ATOM     22  C   UNL A   1      33.757  29.054  22.614  1.00  0.00     0.282 C 
ENDBRANCH  19  21
ENDBRANCH  17  19
ENDBRANCH  11  13
ENDBRANCH   8  11
ENDBRANCH   5   8
ENDBRANCH   1   5
BRANCH   3  23
ATOM     23  C   UNL A   1      36.729  20.359  24.984  1.00  0.00     0.117 C 
BRANCH  23  24
ATOM     24  C   UNL A   1      38.069  19.655  24.800  1.00  0.00     0.042 C 
BRANCH  24  25
ATOM     25  C   UNL A   1      39.143  20.038  25.805  1.00  0.00     0.118 C 
BRANCH  25  26
ATOM     26  N   UNL A   1      40.189  19.032  25.929  1.00  0.00    -0.352 N 
ATOM     27  C   UNL A   1      41.539  19.163  26.142  1.00  0.00     0.251 C 
ATOM     28  H   UNL A   1      39.875  18.103  25.847  1.00  0.00     0.163 HD
ATOM     29  O   UNL A   1      42.266  18.178  26.035  1.00  0.00    -0.269 OA
BRANCH  27  30
ATOM     30  C   UNL A   1      42.138  20.478  26.468  1.00  0.00     0.039 A 
ATOM     31  C   UNL A   1      42.623  21.275  25.426  1.00  0.00     0.014 A 
ATOM     32  C   UNL A   1      42.254  20.919  27.788  1.00  0.00     0.014 A 
ATOM     33  C   UNL A   1      43.144  22.543  25.700  1.00  0.00     0.010 A 
ATOM     34  C   UNL A   1      42.692  22.214  28.053  1.00  0.00     0.010 A 
ATOM     35  C   UNL A   1      43.139  23.041  27.012  1.00  0.00    -0.014 A 
BRANCH  35  36
ATOM     36  C   UNL A   1      43.592  24.422  27.322  1.00  0.00     0.031 A 
ATOM     37  C   UNL A   1      42.616  25.439  27.845  1.00  0.00     0.074 A 
ATOM     38  C   UNL A   1      44.861  24.785  27.049  1.00  0.00     0.049 A 
ATOM     39  N   UNL A   1      42.789  26.719  28.065  1.00  0.00    -0.248 NA
ATOM     40  C   UNL A   1      41.255  24.961  28.133  1.00  0.00     0.031 C 
ATOM     41  C   UNL A   1      45.892  23.905  26.497  1.00  0.00     0.029 A 
ATOM     42  N   UNL A   1      45.496  25.996  27.182  1.00  0.00    -0.354 N 
ATOM     43  C   UNL A   1      41.558  27.199  28.495  1.00  0.00     0.074 A 
ATOM     44  C   UNL A   1      40.635  26.085  28.459  1.00  0.00     0.031 C 
ATOM     45  C   UNL A   1      47.032  24.599  26.352  1.00  0.00     0.029 A 
ATOM     46  C   UNL A   1      46.802  25.981  26.759  1.00  0.00     0.049 A 
ATOM     47  H   UNL A   1      45.056  26.798  27.545  1.00  0.00     0.167 HD
ATOM     48  C   UNL A   1      41.234  28.448  28.903  1.00  0.00     0.037 A 
ATOM     49  C   UNL A   1      47.710  26.976  26.691  1.00  0.00     0.037 A 
ATOM     50  C   UNL A   1      42.163  29.546  28.967  1.00  0.00     0.049 A 
ATOM     51  C   UNL A   1      47.322  28.357  27.141  1.00  0.00     0.074 A 
ATOM     52  C   UNL A   1      41.950  30.831  29.434  1.00  0.00     0.029 A 
ATOM     53  N   UNL A   1      43.485  29.487  28.547  1.00  0.00    -0.354 N 
ATOM     54  N   UNL A   1      46.174  28.782  27.609  1.00  0.00    -0.248 NA
ATOM     55  C   UNL A   1      48.356  29.398  27.053  1.00  0.00     0.031 C 
ATOM     56  C   UNL A   1      43.127  31.563  29.254  1.00  0.00     0.029 A 
ATOM     57  C   UNL A   1      44.090  30.721  28.721  1.00  0.00     0.049 A 
ATOM     58  H   UNL A   1      43.926  28.687  28.182  1.00  0.00     0.167 HD
ATOM     59  C   UNL A   1      46.353  30.129  27.896  1.00  0.00     0.074 A 
ATOM     60  C   UNL A   1      47.726  30.448  27.562  1.00  0.00     0.031 C 
ATOM     61  C   UNL A   1      45.460  31.020  28.389  1.00  0.00     0.037 A 
BRANCH  48  62
ATOM     62  C   UNL A   1      39.813  28.698  29.319  1.00  0.00     0.064 A 
ATOM     63  C   UNL A   1      39.376  28.450  30.629  1.00  0.00     0.173 A 
ATOM     64  C   UNL A   1      38.887  29.228  28.408  1.00  0.00     0.173 A 
ATOM     65  F   UNL A   1      40.219  27.934  31.536  1.00  0.00    -0.203 F 
ATOM     66  C   UNL A   1      38.057  28.696  31.003  1.00  0.00     0.198 A 
ATOM     67  C   UNL A   1      37.578  29.502  28.794  1.00  0.00     0.198 A 
ATOM     68  F   UNL A   1      39.255  29.491  27.145  1.00  0.00    -0.203 F 
ATOM     69  F   UNL A   1      37.651  28.405  32.247  1.00  0.00    -0.200 F 
ATOM     70  C   UNL A   1      37.161  29.228  30.088  1.00  0.00     0.200 A 
ATOM     71  F   UNL A   1      36.717  30.029  27.912  1.00  0.00    -0.200 F 
ATOM     72  F   UNL A   1      35.895  29.472  30.452  1.00  0.00    -0.200 F 
ENDBRANCH  48  62
BRANCH  49  73
ATOM     73  C   UNL A   1      49.080  26.695  26.187  1.00  0.00     0.064 A 
ATOM     74  C   UNL A   1      49.417  26.941  24.848  1.00  0.00     0.173 A 
ATOM     75  C   UNL A   1      50.077  26.180  27.027  1.00  0.00     0.173 A 
ATOM     76  F   UNL A   1      48.491  27.414  24.001  1.00  0.00    -0.203 F 
ATOM     77  C   UNL A   1      50.694  26.663  24.364  1.00  0.00     0.198 A 
ATOM     78  C   UNL A   1      51.362  25.929  26.550  1.00  0.00     0.198 A 
ATOM     79  F   UNL A   1      49.808  25.933  28.317  1.00  0.00    -0.203 F 
ATOM     80  F   UNL A   1      50.976  26.865  23.071  1.00  0.00    -0.200 F 
ATOM     81  C   UNL A   1      51.667  26.163  25.217  1.00  0.00     0.200 A 
ATOM     82  F   UNL A   1      52.304  25.461  27.379  1.00  0.00    -0.200 F 
ATOM     83  F   UNL A   1      52.896  25.901  24.753  1.00  0.00    -0.200 F 
ENDBRANCH  49  73
BRANCH  61  84
ATOM     84  C   UNL A   1      45.943  32.421  28.626  1.00  0.00     0.064 A 
ATOM     85  C   UNL A   1      46.553  32.794  29.832  1.00  0.00     0.173 A 
ATOM     86  C   UNL A   1      45.844  33.387  27.614  1.00  0.00     0.173 A 
ATOM     87  F   UNL A   1      46.658  31.910  30.837  1.00  0.00    -0.203 F 
ATOM     88  C   UNL A   1      47.028  34.088  30.024  1.00  0.00     0.198 A 
ATOM     89  C   UNL A   1      46.344  34.672  27.798  1.00  0.00     0.198 A 
ATOM     90  F   UNL A   1      45.273  33.080  26.439  1.00  0.00    -0.203 F 
ATOM     91  F   UNL A   1      47.571  34.434  31.200  1.00  0.00    -0.200 F 
ATOM     92  C   UNL A   1      46.931  35.023  29.003  1.00  0.00     0.200 A 
ATOM     93  F   UNL A   1      46.262  35.571  26.807  1.00  0.00    -0.200 F 
ATOM     94  F   UNL A   1      47.399  36.266  29.186  1.00  0.00    -0.200 F 
ENDBRANCH  61  84
ENDBRANCH  35  36
ENDBRANCH  27  30
ENDBRANCH  25  26
ENDBRANCH  24  25
ENDBRANCH  23  24
ENDBRANCH   3  23
TORSDOF 16
ENDMDL
MODEL 2
REMARK VINA RESULT:     -11.3      5.609     11.092
REMARK SMILES CCN(C(=O)N1C[C@@H](C)[C@H](C(=O)OC)C1)C(C)(C)C(=O)NCCCNC(=O)c1ccc(-c2c3nc(c(-c4c(F)c(F)c(F)c(F)c4F)c4ccc([nH]4)c(-c4c(F)c(F)c(F)c(F)c4F)c4nc(c(-c5c(F)c(F)c(F)c(F)c5F)c5ccc2[nH]5)C=C4)C=C3)cc1
REMARK SMILES IDX 19 1 20 2 21 3 16 5 17 6 18 7 3 8 2 9 1 10 4 11 5 12 6 13
REMARK SMILES IDX 7 14 15 15 8 16 10 17 9 18 11 19 12 20 13 21 14 22 22 23
REMARK SMILES IDX 23 24 24 25 25 26 26 27 27 29 28 30 29 31 90 32 30 33 89 34
REMARK SMILES IDX 31 35 32 36 33 37 83 38 34 39 88 40 82 41 84 42 35 43 87 44
REMARK SMILES IDX 81 45 80 46 36 48 68 49 48 50 67 51 49 52 52 53 66 54 85 55
REMARK SMILES IDX 50 56 51 57 65 59 86 60 53 61 37 62 38 63 46 64 39 65 40 66
REMARK SMILES IDX 44 67 47 68 41 69 42 70 45 71 43 72 69 73 70 74 78 75 71 76
REMARK SMILES IDX 72 77 76 78 79 79 73 80 74 81 77 82 75 83 54 84 55 85 63 86
REMARK SMILES IDX 56 87 57 88 61 89 64 90 58 91 59 92 62 93 60 94
REMARK H PARENT 21 4 25 28 84 47 52 58
REMARK Flexibility Score: inf
ROOT
ATOM      1  C   UNL A   1      32.863  28.856  25.227  1.00  0.00     0.245 C 
ATOM      2  O   UNL A   1      34.028  28.609  24.899  1.00  0.00    -0.272 OA
ATOM      3  N   UNL A   1      32.629  30.141  25.678  1.00  0.00    -0.354 N 
ATOM      4  H   UNL A   1      33.429  30.604  26.015  1.00  0.00     0.163 HD
ENDROOT
BRANCH   1   5
ATOM      5  C   UNL A   1      31.676  27.832  25.012  1.00  0.00     0.117 C 
ATOM      6  C   UNL A   1      30.703  28.620  24.094  1.00  0.00     0.045 C 
ATOM      7  C   UNL A   1      31.071  27.447  26.382  1.00  0.00     0.045 C 
BRANCH   5   8
ATOM      8  N   UNL A   1      32.059  26.554  24.282  1.00  0.00    -0.311 N 
BRANCH   8   9
ATOM      9  C   UNL A   1      31.957  26.540  22.805  1.00  0.00     0.119 C 
ATOM     10  C   UNL A   1      33.267  26.587  22.024  1.00  0.00     0.027 C 
ENDBRANCH   8   9
BRANCH   8  11
ATOM     11  C   UNL A   1      31.985  25.363  25.003  1.00  0.00     0.320 C 
ATOM     12  O   UNL A   1      30.932  24.718  25.043  1.00  0.00    -0.248 OA
BRANCH  11  13
ATOM     13  N   UNL A   1      33.113  24.898  25.645  1.00  0.00    -0.323 N 
ATOM     14  C   UNL A   1      34.529  25.207  25.509  1.00  0.00     0.125 C 
ATOM     15  C   UNL A   1      33.026  23.715  26.479  1.00  0.00     0.137 C 
ATOM     16  C   UNL A   1      35.134  23.816  25.232  1.00  0.00     0.021 C 
ATOM     17  C   UNL A   1      34.140  22.832  25.909  1.00  0.00     0.123 C 
ATOM     18  C   UNL A   1      36.557  23.672  25.747  1.00  0.00     0.010 C 
BRANCH  17  19
ATOM     19  C   UNL A   1      33.519  21.852  24.928  1.00  0.00     0.310 C 
ATOM     20  O   UNL A   1      32.740  20.968  25.258  1.00  0.00    -0.252 OA
BRANCH  19  21
ATOM     21  O   UNL A   1      33.905  22.106  23.648  1.00  0.00    -0.469 OA
ATOM     22  C   UNL A   1      32.872  22.564  22.778  1.00  0.00     0.282 C 
ENDBRANCH  19  21
ENDBRANCH  17  19
ENDBRANCH  11  13
ENDBRANCH   8  11
ENDBRANCH   5   8
ENDBRANCH   1   5
BRANCH   3  23
ATOM     23  C   UNL A   1      31.403  30.932  25.742  1.00  0.00     0.117 C 
BRANCH  23  24
ATOM     24  C   UNL A   1      31.336  31.937  26.888  1.00  0.00     0.042 C 
BRANCH  24  25
ATOM     25  C   UNL A   1      32.638  32.662  27.187  1.00  0.00     0.118 C 
BRANCH  25  26
ATOM     26  N   UNL A   1      32.439  34.058  27.551  1.00  0.00    -0.352 N 
ATOM     27  C   UNL A   1      33.048  34.831  28.510  1.00  0.00     0.251 C 
ATOM     28  H   UNL A   1      31.755  34.526  27.021  1.00  0.00     0.163 HD
ATOM     29  O   UNL A   1      32.596  35.945  28.765  1.00  0.00    -0.269 OA
BRANCH  27  30
ATOM     30  C   UNL A   1      34.221  34.331  29.264  1.00  0.00     0.039 A 
ATOM     31  C   UNL A   1      34.011  33.688  30.489  1.00  0.00     0.014 A 
ATOM     32  C   UNL A   1      35.522  34.516  28.795  1.00  0.00     0.014 A 
ATOM     33  C   UNL A   1      35.095  33.159  31.195  1.00  0.00     0.010 A 
ATOM     34  C   UNL A   1      36.592  33.914  29.453  1.00  0.00     0.010 A 
ATOM     35  C   UNL A   1      36.390  33.227  30.659  1.00  0.00    -0.014 A 
BRANCH  35  36
ATOM     36  C   UNL A   1      37.548  32.587  31.336  1.00  0.00     0.031 A 
ATOM     37  C   UNL A   1      38.254  31.426  30.692  1.00  0.00     0.074 A 
ATOM     38  C   UNL A   1      37.908  32.994  32.569  1.00  0.00     0.049 A 
ATOM     39  N   UNL A   1      39.204  30.663  31.172  1.00  0.00    -0.248 NA
ATOM     40  C   UNL A   1      37.812  31.053  29.339  1.00  0.00     0.031 C 
ATOM     41  C   UNL A   1      37.274  34.079  33.320  1.00  0.00     0.029 A 
ATOM     42  N   UNL A   1      38.884  32.530  33.417  1.00  0.00    -0.354 N 
ATOM     43  C   UNL A   1      39.458  29.713  30.191  1.00  0.00     0.074 A 
ATOM     44  C   UNL A   1      38.529  29.963  29.110  1.00  0.00     0.031 C 
ATOM     45  C   UNL A   1      37.885  34.207  34.509  1.00  0.00     0.029 A 
ATOM     46  C   UNL A   1      38.923  33.188  34.622  1.00  0.00     0.049 A 
ATOM     47  H   UNL A   1      39.496  31.797  33.183  1.00  0.00     0.167 HD
ATOM     48  C   UNL A   1      40.394  28.735  30.184  1.00  0.00     0.037 A 
ATOM     49  C   UNL A   1      39.698  32.981  35.705  1.00  0.00     0.037 A 
ATOM     50  C   UNL A   1      41.336  28.508  31.249  1.00  0.00     0.049 A 
ATOM     51  C   UNL A   1      40.724  31.882  35.676  1.00  0.00     0.074 A 
ATOM     52  C   UNL A   1      42.370  27.590  31.305  1.00  0.00     0.029 A 
ATOM     53  N   UNL A   1      41.357  29.208  32.447  1.00  0.00    -0.354 N 
ATOM     54  N   UNL A   1      41.000  31.034  34.716  1.00  0.00    -0.248 NA
ATOM     55  C   UNL A   1      41.547  31.711  36.882  1.00  0.00     0.031 C 
ATOM     56  C   UNL A   1      42.986  27.701  32.555  1.00  0.00     0.029 A 
ATOM     57  C   UNL A   1      42.369  28.723  33.259  1.00  0.00     0.049 A 
ATOM     58  H   UNL A   1      40.744  29.941  32.684  1.00  0.00     0.167 HD
ATOM     59  C   UNL A   1      42.042  30.247  35.188  1.00  0.00     0.074 A 
ATOM     60  C   UNL A   1      42.359  30.728  36.517  1.00  0.00     0.031 C 
ATOM     61  C   UNL A   1      42.677  29.218  34.577  1.00  0.00     0.037 A 
BRANCH  48  62
ATOM     62  C   UNL A   1      40.451  27.834  28.984  1.00  0.00     0.064 A 
ATOM     63  C   UNL A   1      39.680  26.665  28.905  1.00  0.00     0.173 A 
ATOM     64  C   UNL A   1      41.255  28.166  27.883  1.00  0.00     0.173 A 
ATOM     65  F   UNL A   1      38.903  26.298  29.935  1.00  0.00    -0.203 F 
ATOM     66  C   UNL A   1      39.735  25.844  27.781  1.00  0.00     0.198 A 
ATOM     67  C   UNL A   1      41.284  27.359  26.748  1.00  0.00     0.198 A 
ATOM     68  F   UNL A   1      42.006  29.277  27.902  1.00  0.00    -0.203 F 
ATOM     69  F   UNL A   1      39.027  24.707  27.750  1.00  0.00    -0.200 F 
ATOM     70  C   UNL A   1      40.531  26.196  26.701  1.00  0.00     0.200 A 
ATOM     71  F   UNL A   1      42.042  27.707  25.699  1.00  0.00    -0.200 F 
ATOM     72  F   UNL A   1      40.576  25.409  25.617  1.00  0.00    -0.200 F 
ENDBRANCH  48  62
BRANCH  49  73
ATOM     73  C   UNL A   1      39.542  33.845  36.905  1.00  0.00     0.064 A 
ATOM     74  C   UNL A   1      40.192  35.084  36.987  1.00  0.00     0.173 A 
ATOM     75  C   UNL A   1      38.743  33.454  37.989  1.00  0.00     0.173 A 
ATOM     76  F   UNL A   1      40.983  35.493  35.984  1.00  0.00    -0.203 F 
ATOM     77  C   UNL A   1      40.065  35.891  38.116  1.00  0.00     0.198 A 
ATOM     78  C   UNL A   1      38.594  34.273  39.106  1.00  0.00     0.198 A 
ATOM     79  F   UNL A   1      38.095  32.280  37.958  1.00  0.00    -0.203 F 
ATOM     80  F   UNL A   1      40.732  37.050  38.188  1.00  0.00    -0.200 F 
ATOM     81  C   UNL A   1      39.261  35.487  39.173  1.00  0.00     0.200 A 
ATOM     82  F   UNL A   1      37.804  33.888  40.118  1.00  0.00    -0.200 F 
ATOM     83  F   UNL A   1      39.135  36.265  40.256  1.00  0.00    -0.200 F 
ENDBRANCH  49  73
BRANCH  61  84
ATOM     84  C   UNL A   1      43.798  28.558  35.324  1.00  0.00     0.064 A 
ATOM     85  C   UNL A   1      45.120  29.011  35.215  1.00  0.00     0.173 A 
ATOM     86  C   UNL A   1      43.538  27.494  36.201  1.00  0.00     0.173 A 
ATOM     87  F   UNL A   1      45.423  30.015  34.377  1.00  0.00    -0.203 F 
ATOM     88  C   UNL A   1      46.145  28.410  35.942  1.00  0.00     0.198 A 
ATOM     89  C   UNL A   1      44.559  26.914  36.947  1.00  0.00     0.198 A 
ATOM     90  F   UNL A   1      42.288  27.027  36.346  1.00  0.00    -0.203 F 
ATOM     91  F   UNL A   1      47.408  28.832  35.791  1.00  0.00    -0.200 F 
ATOM     92  C   UNL A   1      45.861  27.369  36.814  1.00  0.00     0.200 A 
ATOM     93  F   UNL A   1      44.282  25.918  37.799  1.00  0.00    -0.200 F 
ATOM     94  F   UNL A   1      46.848  26.799  37.521  1.00  0.00    -0.200 F 
ENDBRANCH  61  84
ENDBRANCH  35  36
ENDBRANCH  27  30
ENDBRANCH  25  26
ENDBRANCH  24  25
ENDBRANCH  23  24
ENDBRANCH   3  23
TORSDOF 16
ENDMDL
MODEL 3
REMARK VINA RESULT:     -11.3      4.576     10.087
REMARK SMILES CCN(C(=O)N1C[C@@H](C)[C@H](C(=O)OC)C1)C(C)(C)C(=O)NCCCNC(=O)c1ccc(-c2c3nc(c(-c4c(F)c(F)c(F)c(F)c4F)c4ccc([nH]4)c(-c4c(F)c(F)c(F)c(F)c4F)c4nc(c(-c5c(F)c(F)c(F)c(F)c5F)c5ccc2[nH]5)C=C4)C=C3)cc1
REMARK SMILES IDX 19 1 20 2 21 3 16 5 17 6 18 7 3 8 2 9 1 10 4 11 5 12 6 13
REMARK SMILES IDX 7 14 15 15 8 16 10 17 9 18 11 19 12 20 13 21 14 22 22 23
REMARK SMILES IDX 23 24 24 25 25 26 26 27 27 29 28 30 29 31 90 32 30 33 89 34
REMARK SMILES IDX 31 35 32 36 33 37 83 38 34 39 88 40 82 41 84 42 35 43 87 44
REMARK SMILES IDX 81 45 80 46 36 48 68 49 48 50 67 51 49 52 52 53 66 54 85 55
REMARK SMILES IDX 50 56 51 57 65 59 86 60 53 61 37 62 38 63 46 64 39 65 40 66
REMARK SMILES IDX 44 67 47 68 41 69 42 70 45 71 43 72 69 73 70 74 78 75 71 76
REMARK SMILES IDX 72 77 76 78 79 79 73 80 74 81 77 82 75 83 54 84 55 85 63 86
REMARK SMILES IDX 56 87 57 88 61 89 64 90 58 91 59 92 62 93 60 94
REMARK H PARENT 21 4 25 28 84 47 52 58
REMARK Flexibility Score: inf
ROOT
ATOM      1  C   UNL A   1      32.931  25.639  22.893  1.00  0.00     0.245 C 
ATOM      2  O   UNL A   1      33.727  25.541  21.953  1.00  0.00    -0.272 OA
ATOM      3  N   UNL A   1      32.643  26.928  23.299  1.00  0.00    -0.354 N 
ATOM      4  H   UNL A   1      33.328  27.592  23.058  1.00  0.00     0.163 HD
ENDROOT
BRANCH   1   5
ATOM      5  C   UNL A   1      32.168  24.395  23.504  1.00  0.00     0.117 C 
ATOM      6  C   UNL A   1      32.895  23.189  22.850  1.00  0.00     0.045 C 
ATOM      7  C   UNL A   1      30.665  24.487  23.150  1.00  0.00     0.045 C 
BRANCH   5   8
ATOM      8  N   UNL A   1      32.295  24.244  25.011  1.00  0.00    -0.311 N 
BRANCH   8   9
ATOM      9  C   UNL A   1      31.102  24.525  25.841  1.00  0.00     0.119 C 
ATOM     10  C   UNL A   1      30.557  23.369  26.676  1.00  0.00     0.027 C 
ENDBRANCH   8   9
BRANCH   8  11
ATOM     11  C   UNL A   1      33.573  24.359  25.557  1.00  0.00     0.320 C 
ATOM     12  O   UNL A   1      34.057  25.471  25.791  1.00  0.00    -0.248 OA
BRANCH  11  13
ATOM     13  N   UNL A   1      34.277  23.213  25.859  1.00  0.00    -0.323 N 
ATOM     14  C   UNL A   1      35.519  22.649  25.352  1.00  0.00     0.125 C 
ATOM     15  C   UNL A   1      33.651  22.180  26.662  1.00  0.00     0.137 C 
ATOM     16  C   UNL A   1      35.069  21.247  24.894  1.00  0.00     0.021 C 
ATOM     17  C   UNL A   1      33.842  20.932  25.793  1.00  0.00     0.123 C 
ATOM     18  C   UNL A   1      36.169  20.203  25.001  1.00  0.00     0.010 C 
BRANCH  17  19
ATOM     19  C   UNL A   1      32.569  20.704  24.998  1.00  0.00     0.310 C 
ATOM     20  O   UNL A   1      31.462  21.066  25.375  1.00  0.00    -0.252 OA
BRANCH  19  21
ATOM     21  O   UNL A   1      32.819  20.088  23.810  1.00  0.00    -0.469 OA
ATOM     22  C   UNL A   1      32.545  18.689  23.778  1.00  0.00     0.282 C 
ENDBRANCH  19  21
ENDBRANCH  17  19
ENDBRANCH  11  13
ENDBRANCH   8  11
ENDBRANCH   5   8
ENDBRANCH   1   5
BRANCH   3  23
ATOM     23  C   UNL A   1      31.501  27.477  24.026  1.00  0.00     0.117 C 
BRANCH  23  24
ATOM     24  C   UNL A   1      31.827  28.090  25.384  1.00  0.00     0.042 C 
BRANCH  24  25
ATOM     25  C   UNL A   1      32.948  29.117  25.377  1.00  0.00     0.118 C 
BRANCH  25  26
ATOM     26  N   UNL A   1      32.528  30.418  25.879  1.00  0.00    -0.352 N 
ATOM     27  C   UNL A   1      33.053  31.208  26.872  1.00  0.00     0.251 C 
ATOM     28  H   UNL A   1      31.736  30.793  25.432  1.00  0.00     0.163 HD
ATOM     29  O   UNL A   1      32.427  32.196  27.252  1.00  0.00    -0.269 OA
BRANCH  27  30
ATOM     30  C   UNL A   1      34.345  30.874  27.514  1.00  0.00     0.039 A 
ATOM     31  C   UNL A   1      35.310  31.878  27.651  1.00  0.00     0.014 A 
ATOM     32  C   UNL A   1      34.628  29.580  27.953  1.00  0.00     0.014 A 
ATOM     33  C   UNL A   1      36.516  31.604  28.300  1.00  0.00     0.010 A 
ATOM     34  C   UNL A   1      35.791  29.328  28.676  1.00  0.00     0.010 A 
ATOM     35  C   UNL A   1      36.747  30.338  28.860  1.00  0.00    -0.014 A 
BRANCH  35  36
ATOM     36  C   UNL A   1      37.975  30.045  29.644  1.00  0.00     0.031 A 
ATOM     37  C   UNL A   1      39.006  29.092  29.108  1.00  0.00     0.074 A 
ATOM     38  C   UNL A   1      38.120  30.570  30.877  1.00  0.00     0.049 A 
ATOM     39  N   UNL A   1      40.082  28.621  29.688  1.00  0.00    -0.248 NA
ATOM     40  C   UNL A   1      38.783  28.575  27.748  1.00  0.00     0.031 C 
ATOM     41  C   UNL A   1      37.170  31.473  31.529  1.00  0.00     0.029 A 
ATOM     42  N   UNL A   1      39.114  30.406  31.810  1.00  0.00    -0.354 N 
ATOM     43  C   UNL A   1      40.649  27.740  28.775  1.00  0.00     0.074 A 
ATOM     44  C   UNL A   1      39.774  27.705  27.623  1.00  0.00     0.031 C 
ATOM     45  C   UNL A   1      37.633  31.794  32.747  1.00  0.00     0.029 A 
ATOM     46  C   UNL A   1      38.888  31.087  32.981  1.00  0.00     0.049 A 
ATOM     47  H   UNL A   1      39.913  29.852  31.655  1.00  0.00     0.167 HD
ATOM     48  C   UNL A   1      41.805  27.043  28.879  1.00  0.00     0.037 A 
ATOM     49  C   UNL A   1      39.604  31.125  34.122  1.00  0.00     0.037 A 
ATOM     50  C   UNL A   1      42.688  27.105  30.015  1.00  0.00     0.049 A 
ATOM     51  C   UNL A   1      40.879  30.334  34.217  1.00  0.00     0.074 A 
ATOM     52  C   UNL A   1      43.917  26.493  30.186  1.00  0.00     0.029 A 
ATOM     53  N   UNL A   1      42.434  27.822  31.175  1.00  0.00    -0.354 N 
ATOM     54  N   UNL A   1      41.439  29.559  33.321  1.00  0.00    -0.248 NA
ATOM     55  C   UNL A   1      41.622  30.422  35.482  1.00  0.00     0.031 C 
ATOM     56  C   UNL A   1      44.385  26.800  31.467  1.00  0.00     0.029 A 
ATOM     57  C   UNL A   1      43.471  27.646  32.076  1.00  0.00     0.049 A 
ATOM     58  H   UNL A   1      41.635  28.375  31.333  1.00  0.00     0.167 HD
ATOM     59  C   UNL A   1      42.610  29.088  33.900  1.00  0.00     0.074 A 
ATOM     60  C   UNL A   1      42.687  29.677  35.221  1.00  0.00     0.031 C 
ATOM     61  C   UNL A   1      43.536  28.244  33.385  1.00  0.00     0.037 A 
BRANCH  48  62
ATOM     62  C   UNL A   1      42.187  26.153  27.732  1.00  0.00     0.064 A 
ATOM     63  C   UNL A   1      43.124  26.556  26.769  1.00  0.00     0.173 A 
ATOM     64  C   UNL A   1      41.640  24.866  27.617  1.00  0.00     0.173 A 
ATOM     65  F   UNL A   1      43.669  27.780  26.828  1.00  0.00    -0.203 F 
ATOM     66  C   UNL A   1      43.476  25.716  25.715  1.00  0.00     0.198 A 
ATOM     67  C   UNL A   1      42.017  24.017  26.580  1.00  0.00     0.198 A 
ATOM     68  F   UNL A   1      40.746  24.427  28.515  1.00  0.00    -0.203 F 
ATOM     69  F   UNL A   1      44.336  26.142  24.780  1.00  0.00    -0.200 F 
ATOM     70  C   UNL A   1      42.929  24.445  25.626  1.00  0.00     0.200 A 
ATOM     71  F   UNL A   1      41.498  22.784  26.502  1.00  0.00    -0.200 F 
ATOM     72  F   UNL A   1      43.275  23.634  24.616  1.00  0.00    -0.200 F 
ENDBRANCH  48  62
BRANCH  49  73
ATOM     73  C   UNL A   1      39.135  31.954  35.264  1.00  0.00     0.064 A 
ATOM     74  C   UNL A   1      38.396  31.383  36.309  1.00  0.00     0.173 A 
ATOM     75  C   UNL A   1      39.416  33.326  35.335  1.00  0.00     0.173 A 
ATOM     76  F   UNL A   1      38.086  30.079  36.276  1.00  0.00    -0.203 F 
ATOM     77  C   UNL A   1      37.938  32.158  37.374  1.00  0.00     0.198 A 
ATOM     78  C   UNL A   1      38.981  34.094  36.413  1.00  0.00     0.198 A 
ATOM     79  F   UNL A   1      40.124  33.919  34.363  1.00  0.00    -0.203 F 
ATOM     80  F   UNL A   1      37.196  31.597  38.337  1.00  0.00    -0.200 F 
ATOM     81  C   UNL A   1      38.236  33.512  37.428  1.00  0.00     0.200 A 
ATOM     82  F   UNL A   1      39.284  35.398  36.471  1.00  0.00    -0.200 F 
ATOM     83  F   UNL A   1      37.800  34.255  38.453  1.00  0.00    -0.200 F 
ENDBRANCH  49  73
BRANCH  61  84
ATOM     84  C   UNL A   1      44.729  27.925  34.238  1.00  0.00     0.064 A 
ATOM     85  C   UNL A   1      45.893  28.705  34.194  1.00  0.00     0.173 A 
ATOM     86  C   UNL A   1      44.686  26.859  35.148  1.00  0.00     0.173 A 
ATOM     87  F   UNL A   1      45.989  29.727  33.328  1.00  0.00    -0.203 F 
ATOM     88  C   UNL A   1      46.978  28.417  35.016  1.00  0.00     0.198 A 
ATOM     89  C   UNL A   1      45.762  26.591  35.989  1.00  0.00     0.198 A 
ATOM     90  F   UNL A   1      43.593  26.085  35.233  1.00  0.00    -0.203 F 
ATOM     91  F   UNL A   1      48.097  29.151  34.928  1.00  0.00    -0.200 F 
ATOM     92  C   UNL A   1      46.908  27.367  35.919  1.00  0.00     0.200 A 
ATOM     93  F   UNL A   1      45.688  25.584  36.870  1.00  0.00    -0.200 F 
ATOM     94  F   UNL A   1      47.951  27.098  36.718  1.00  0.00    -0.200 F 
ENDBRANCH  61  84
ENDBRANCH  35  36
ENDBRANCH  27  30
ENDBRANCH  25  26
ENDBRANCH  24  25
ENDBRANCH  23  24
ENDBRANCH   3  23
TORSDOF 16
ENDMDL
