MODEL 1
REMARK VINA RESULT:      -9.3      0.000      0.000
REMARK SMILES NS(=O)(=O)c1ccc(-n2nc(NC(=O)NCCCCCCCCCCC(=O)NCCCNC(=O)c3ccc(-c4c5nc(c(-c6c(F)c(F)c(F)c(F)c6F)c6ccc([nH]6)c(-c6c(F)c(F)c(F)c(F)c6F)c6nc(c(-c7c(F)c(F)c(F)c(F)c7F)c7ccc4[nH]7)C=C6)C=C5)cc3)cc2-c2ccccc2)cc1
REMARK SMILES IDX 22 1 21 2 20 3 19 4 18 5 17 6 16 7 15 8 12 9 13 10 14 12
REMARK SMILES IDX 11 14 9 15 10 16 99 17 98 18 8 19 5 20 6 21 107 22 7 23
REMARK SMILES IDX 106 24 2 25 3 26 4 27 1 28 100 31 101 32 105 33 102 34
REMARK SMILES IDX 104 35 103 36 23 37 24 38 25 39 26 40 27 41 28 42 29 44
REMARK SMILES IDX 30 45 31 46 32 47 33 48 34 50 35 51 36 52 97 53 37 54 96 55
REMARK SMILES IDX 38 56 39 57 40 58 90 59 41 60 95 61 89 62 91 63 42 64 94 65
REMARK SMILES IDX 88 66 87 67 43 69 75 70 55 71 74 72 56 73 59 74 73 75 92 76
REMARK SMILES IDX 57 77 58 78 72 80 93 81 60 82 44 83 45 84 53 85 46 86 47 87
REMARK SMILES IDX 51 88 54 89 48 90 49 91 52 92 50 93 76 94 77 95 85 96 78 97
REMARK SMILES IDX 79 98 83 99 86 100 80 101 81 102 84 103 82 104 61 105 62 106
REMARK SMILES IDX 70 107 63 108 64 109 68 110 71 111 65 112 66 113 69 114
REMARK SMILES IDX 67 115
REMARK H PARENT 12 11 15 13 1 29 1 30 28 43 32 49 91 68 59 79
REMARK Flexibility Score: inf
ROOT
ATOM      1  C   UNL A   1      42.642  34.310  29.548  1.00  0.00     0.000 C 
ENDROOT
BRANCH   1   2
ATOM      2  C   UNL A   1      43.010  35.724  29.166  1.00  0.00     0.000 C 
BRANCH   2   3
ATOM      3  C   UNL A   1      43.367  35.886  27.694  1.00  0.00     0.000 C 
BRANCH   3   4
ATOM      4  C   UNL A   1      43.280  37.297  27.100  1.00  0.00     0.000 C 
BRANCH   4   5
ATOM      5  C   UNL A   1      44.505  38.203  27.270  1.00  0.00     0.002 C 
BRANCH   5   6
ATOM      6  C   UNL A   1      44.536  39.490  26.446  1.00  0.00     0.021 C 
BRANCH   6   7
ATOM      7  C   UNL A   1      44.693  40.792  27.217  1.00  0.00     0.117 C 
BRANCH   7   8
ATOM      8  N   UNL A   1      44.213  40.805  28.573  1.00  0.00    -0.338 N 
ATOM      9  N   UNL A   1      45.283  42.778  29.387  1.00  0.00    -0.291 N 
ATOM     10  C   UNL A   1      44.482  41.698  29.552  1.00  0.00     0.320 C 
ATOM     11  H   UNL A   1      45.649  43.127  30.232  1.00  0.00     0.173 HD
ATOM     12  O   UNL A   1      44.064  41.446  30.686  1.00  0.00    -0.248 OA
ATOM     13  H   UNL A   1      43.610  40.067  28.821  1.00  0.00     0.165 HD
BRANCH   9  14
ATOM     14  C   UNL A   1      45.689  43.487  28.276  1.00  0.00     0.157 A 
ATOM     15  N   UNL A   1      45.785  44.196  26.280  1.00  0.00    -0.231 N 
ATOM     16  N   UNL A   1      44.913  43.864  27.256  1.00  0.00    -0.149 NA
ATOM     17  C   UNL A   1      47.040  44.478  26.800  1.00  0.00     0.076 A 
ATOM     18  C   UNL A   1      47.009  43.970  28.085  1.00  0.00     0.078 A 
BRANCH  15  19
ATOM     19  C   UNL A   1      45.398  44.144  24.912  1.00  0.00     0.065 A 
ATOM     20  C   UNL A   1      44.630  44.051  22.235  1.00  0.00     0.082 A 
ATOM     21  C   UNL A   1      44.607  45.271  22.912  1.00  0.00     0.024 A 
ATOM     22  C   UNL A   1      45.039  42.879  22.884  1.00  0.00     0.024 A 
ATOM     23  C   UNL A   1      44.979  45.315  24.256  1.00  0.00     0.030 A 
ATOM     24  C   UNL A   1      45.450  42.931  24.220  1.00  0.00     0.030 A 
BRANCH  20  25
ATOM     25  S   UNL A   1      44.179  44.000  20.526  1.00  0.00     0.238 S 
ATOM     26  O   UNL A   1      44.555  45.257  19.903  1.00  0.00    -0.207 OA
ATOM     27  O   UNL A   1      42.861  43.442  20.412  1.00  0.00    -0.207 OA
BRANCH  25  28
ATOM     28  N   UNL A   1      45.240  42.864  19.890  1.00  0.00    -0.225 NA
ATOM     29  H   UNL A   1      46.199  43.193  20.006  1.00  0.00     0.137 HD
ATOM     30  H   UNL A   1      45.044  42.731  18.899  1.00  0.00     0.137 HD
ENDBRANCH  25  28
ENDBRANCH  20  25
ENDBRANCH  15  19
BRANCH  17  31
ATOM     31  C   UNL A   1      48.068  45.180  26.041  1.00  0.00     0.000 A 
ATOM     32  C   UNL A   1      48.580  44.585  24.874  1.00  0.00     0.010 A 
ATOM     33  C   UNL A   1      48.632  46.371  26.505  1.00  0.00     0.010 A 
ATOM     34  C   UNL A   1      49.674  45.138  24.214  1.00  0.00     0.001 A 
ATOM     35  C   UNL A   1      49.727  46.928  25.836  1.00  0.00     0.001 A 
ATOM     36  C   UNL A   1      50.252  46.306  24.702  1.00  0.00     0.000 A 
ENDBRANCH  17  31
ENDBRANCH   9  14
ENDBRANCH   7   8
ENDBRANCH   6   7
ENDBRANCH   5   6
ENDBRANCH   4   5
ENDBRANCH   3   4
ENDBRANCH   2   3
ENDBRANCH   1   2
BRANCH   1  37
ATOM     37  C   UNL A   1      41.164  34.134  29.913  1.00  0.00     0.001 C 
BRANCH  37  38
ATOM     38  C   UNL A   1      40.932  33.740  31.366  1.00  0.00     0.010 C 
BRANCH  38  39
ATOM     39  C   UNL A   1      39.672  34.323  32.012  1.00  0.00     0.100 C 
BRANCH  39  40
ATOM     40  C   UNL A   1      38.828  33.304  32.752  1.00  0.00     0.219 C 
ATOM     41  O   UNL A   1      39.349  32.293  33.230  1.00  0.00    -0.275 OA
ATOM     42  N   UNL A   1      37.483  33.459  32.922  1.00  0.00    -0.356 N 
ATOM     43  H   UNL A   1      37.045  32.702  33.372  1.00  0.00     0.163 HD
BRANCH  42  44
ATOM     44  C   UNL A   1      36.575  34.544  32.562  1.00  0.00     0.117 C 
BRANCH  44  45
ATOM     45  C   UNL A   1      35.229  34.055  31.991  1.00  0.00     0.042 C 
BRANCH  45  46
ATOM     46  C   UNL A   1      35.182  32.583  31.668  1.00  0.00     0.118 C 
BRANCH  46  47
ATOM     47  N   UNL A   1      34.394  32.272  30.469  1.00  0.00    -0.352 N 
ATOM     48  C   UNL A   1      34.879  31.998  29.196  1.00  0.00     0.251 C 
ATOM     49  H   UNL A   1      33.416  32.256  30.578  1.00  0.00     0.163 HD
ATOM     50  O   UNL A   1      34.185  32.137  28.199  1.00  0.00    -0.269 OA
BRANCH  48  51
ATOM     51  C   UNL A   1      36.272  31.535  29.088  1.00  0.00     0.039 A 
ATOM     52  C   UNL A   1      37.381  32.374  29.213  1.00  0.00     0.014 A 
ATOM     53  C   UNL A   1      36.428  30.163  28.985  1.00  0.00     0.014 A 
ATOM     54  C   UNL A   1      38.641  31.785  29.319  1.00  0.00     0.010 A 
ATOM     55  C   UNL A   1      37.582  29.611  29.443  1.00  0.00     0.010 A 
ATOM     56  C   UNL A   1      38.723  30.392  29.454  1.00  0.00    -0.014 A 
BRANCH  56  57
ATOM     57  C   UNL A   1      39.970  29.671  29.641  1.00  0.00     0.031 A 
ATOM     58  C   UNL A   1      40.386  29.494  31.050  1.00  0.00     0.074 A 
ATOM     59  C   UNL A   1      40.565  29.011  28.621  1.00  0.00     0.049 A 
ATOM     60  N   UNL A   1      41.403  30.034  31.629  1.00  0.00    -0.248 NA
ATOM     61  C   UNL A   1      39.505  28.748  31.961  1.00  0.00     0.031 C 
ATOM     62  C   UNL A   1      40.105  28.838  27.234  1.00  0.00     0.029 A 
ATOM     63  N   UNL A   1      41.683  28.242  28.647  1.00  0.00    -0.354 N 
ATOM     64  C   UNL A   1      41.413  29.542  32.930  1.00  0.00     0.074 A 
ATOM     65  C   UNL A   1      40.129  28.920  33.130  1.00  0.00     0.031 C 
ATOM     66  C   UNL A   1      40.788  27.835  26.644  1.00  0.00     0.029 A 
ATOM     67  C   UNL A   1      41.854  27.425  27.536  1.00  0.00     0.049 A 
ATOM     68  H   UNL A   1      42.324  28.263  29.395  1.00  0.00     0.167 HD
ATOM     69  C   UNL A   1      42.575  29.481  33.637  1.00  0.00     0.037 A 
ATOM     70  C   UNL A   1      42.797  26.464  27.380  1.00  0.00     0.037 A 
ATOM     71  C   UNL A   1      43.605  30.268  32.999  1.00  0.00     0.049 A 
ATOM     72  C   UNL A   1      43.882  26.771  28.349  1.00  0.00     0.074 A 
ATOM     73  C   UNL A   1      43.723  31.603  32.656  1.00  0.00     0.029 A 
ATOM     74  N   UNL A   1      44.545  29.607  32.244  1.00  0.00    -0.354 N 
ATOM     75  N   UNL A   1      44.657  27.818  28.250  1.00  0.00    -0.248 NA
ATOM     76  C   UNL A   1      43.774  26.201  29.685  1.00  0.00     0.031 C 
ATOM     77  C   UNL A   1      44.348  31.597  31.374  1.00  0.00     0.029 A 
ATOM     78  C   UNL A   1      44.657  30.275  31.050  1.00  0.00     0.049 A 
ATOM     79  H   UNL A   1      45.046  28.803  32.511  1.00  0.00     0.167 HD
ATOM     80  C   UNL A   1      44.771  28.296  29.548  1.00  0.00     0.074 A 
ATOM     81  C   UNL A   1      44.278  27.213  30.398  1.00  0.00     0.031 C 
ATOM     82  C   UNL A   1      44.962  29.626  29.797  1.00  0.00     0.037 A 
BRANCH  69  83
ATOM     83  C   UNL A   1      42.905  28.438  34.675  1.00  0.00     0.064 A 
ATOM     84  C   UNL A   1      43.369  28.861  35.938  1.00  0.00     0.173 A 
ATOM     85  C   UNL A   1      43.077  27.066  34.395  1.00  0.00     0.173 A 
ATOM     86  F   UNL A   1      43.259  30.146  36.311  1.00  0.00    -0.203 F 
ATOM     87  C   UNL A   1      44.044  28.000  36.804  1.00  0.00     0.198 A 
ATOM     88  C   UNL A   1      43.702  26.196  35.287  1.00  0.00     0.198 A 
ATOM     89  F   UNL A   1      42.757  26.530  33.212  1.00  0.00    -0.203 F 
ATOM     90  F   UNL A   1      44.590  28.482  37.930  1.00  0.00    -0.200 F 
ATOM     91  C   UNL A   1      44.219  26.670  36.473  1.00  0.00     0.200 A 
ATOM     92  F   UNL A   1      43.873  24.912  34.941  1.00  0.00    -0.200 F 
ATOM     93  F   UNL A   1      44.926  25.856  37.269  1.00  0.00    -0.200 F 
ENDBRANCH  69  83
BRANCH  70  94
ATOM     94  C   UNL A   1      42.689  25.177  26.652  1.00  0.00     0.064 A 
ATOM     95  C   UNL A   1      43.472  24.916  25.517  1.00  0.00     0.173 A 
ATOM     96  C   UNL A   1      42.009  24.071  27.207  1.00  0.00     0.173 A 
ATOM     97  F   UNL A   1      44.184  25.900  24.950  1.00  0.00    -0.203 F 
ATOM     98  C   UNL A   1      43.592  23.626  24.986  1.00  0.00     0.198 A 
ATOM     99  C   UNL A   1      42.123  22.787  26.671  1.00  0.00     0.198 A 
ATOM    100  F   UNL A   1      41.294  24.197  28.334  1.00  0.00    -0.203 F 
ATOM    101  F   UNL A   1      44.399  23.407  23.938  1.00  0.00    -0.200 F 
ATOM    102  C   UNL A   1      42.926  22.562  25.569  1.00  0.00     0.200 A 
ATOM    103  F   UNL A   1      41.499  21.761  27.267  1.00  0.00    -0.200 F 
ATOM    104  F   UNL A   1      43.088  21.317  25.099  1.00  0.00    -0.200 F 
ENDBRANCH  70  94
BRANCH  82 105
ATOM    105  C   UNL A   1      45.279  30.528  28.633  1.00  0.00     0.064 A 
ATOM    106  C   UNL A   1      44.321  31.284  27.936  1.00  0.00     0.173 A 
ATOM    107  C   UNL A   1      46.625  30.758  28.319  1.00  0.00     0.173 A 
ATOM    108  F   UNL A   1      43.022  31.206  28.243  1.00  0.00    -0.203 F 
ATOM    109  C   UNL A   1      44.690  32.193  26.946  1.00  0.00     0.198 A 
ATOM    110  C   UNL A   1      46.995  31.694  27.357  1.00  0.00     0.198 A 
ATOM    111  F   UNL A   1      47.591  30.111  28.991  1.00  0.00    -0.203 F 
ATOM    112  F   UNL A   1      43.750  32.895  26.293  1.00  0.00    -0.200 F 
ATOM    113  C   UNL A   1      46.027  32.403  26.662  1.00  0.00     0.200 A 
ATOM    114  F   UNL A   1      48.292  31.931  27.122  1.00  0.00    -0.200 F 
ATOM    115  F   UNL A   1      46.386  33.309  25.742  1.00  0.00    -0.200 F 
ENDBRANCH  82 105
ENDBRANCH  56  57
ENDBRANCH  48  51
ENDBRANCH  46  47
ENDBRANCH  45  46
ENDBRANCH  44  45
ENDBRANCH  42  44
ENDBRANCH  39  40
ENDBRANCH  38  39
ENDBRANCH  37  38
ENDBRANCH   1  37
TORSDOF 25
ENDMDL
MODEL 2
REMARK VINA RESULT:      -9.3      3.675      5.987
REMARK SMILES NS(=O)(=O)c1ccc(-n2nc(NC(=O)NCCCCCCCCCCC(=O)NCCCNC(=O)c3ccc(-c4c5nc(c(-c6c(F)c(F)c(F)c(F)c6F)c6ccc([nH]6)c(-c6c(F)c(F)c(F)c(F)c6F)c6nc(c(-c7c(F)c(F)c(F)c(F)c7F)c7ccc4[nH]7)C=C6)C=C5)cc3)cc2-c2ccccc2)cc1
REMARK SMILES IDX 22 1 21 2 20 3 19 4 18 5 17 6 16 7 15 8 12 9 13 10 14 12
REMARK SMILES IDX 11 14 9 15 10 16 99 17 98 18 8 19 5 20 6 21 107 22 7 23
REMARK SMILES IDX 106 24 2 25 3 26 4 27 1 28 100 31 101 32 105 33 102 34
REMARK SMILES IDX 104 35 103 36 23 37 24 38 25 39 26 40 27 41 28 42 29 44
REMARK SMILES IDX 30 45 31 46 32 47 33 48 34 50 35 51 36 52 97 53 37 54 96 55
REMARK SMILES IDX 38 56 39 57 40 58 90 59 41 60 95 61 89 62 91 63 42 64 94 65
REMARK SMILES IDX 88 66 87 67 43 69 75 70 55 71 74 72 56 73 59 74 73 75 92 76
REMARK SMILES IDX 57 77 58 78 72 80 93 81 60 82 44 83 45 84 53 85 46 86 47 87
REMARK SMILES IDX 51 88 54 89 48 90 49 91 52 92 50 93 76 94 77 95 85 96 78 97
REMARK SMILES IDX 79 98 83 99 86 100 80 101 81 102 84 103 82 104 61 105 62 106
REMARK SMILES IDX 70 107 63 108 64 109 68 110 71 111 65 112 66 113 69 114
REMARK SMILES IDX 67 115
REMARK H PARENT 12 11 15 13 1 29 1 30 28 43 32 49 91 68 59 79
REMARK Flexibility Score: inf
ROOT
ATOM      1  C   UNL A   1      42.417  34.242  29.349  1.00  0.00     0.000 C 
ENDROOT
BRANCH   1   2
ATOM      2  C   UNL A   1      43.004  35.623  29.172  1.00  0.00     0.000 C 
BRANCH   2   3
ATOM      3  C   UNL A   1      42.614  36.288  27.858  1.00  0.00     0.000 C 
BRANCH   3   4
ATOM      4  C   UNL A   1      42.057  37.715  27.930  1.00  0.00     0.000 C 
BRANCH   4   5
ATOM      5  C   UNL A   1      42.746  38.779  27.068  1.00  0.00     0.002 C 
BRANCH   5   6
ATOM      6  C   UNL A   1      42.724  40.216  27.588  1.00  0.00     0.021 C 
BRANCH   6   7
ATOM      7  C   UNL A   1      43.712  40.558  28.692  1.00  0.00     0.117 C 
BRANCH   7   8
ATOM      8  N   UNL A   1      43.784  41.938  29.094  1.00  0.00    -0.338 N 
ATOM      9  N   UNL A   1      43.811  41.693  31.469  1.00  0.00    -0.291 N 
ATOM     10  C   UNL A   1      43.826  42.449  30.345  1.00  0.00     0.320 C 
ATOM     11  H   UNL A   1      43.509  42.183  32.267  1.00  0.00     0.173 HD
ATOM     12  O   UNL A   1      43.757  43.676  30.463  1.00  0.00    -0.248 OA
ATOM     13  H   UNL A   1      43.807  42.596  28.362  1.00  0.00     0.165 HD
BRANCH   9  14
ATOM     14  C   UNL A   1      44.134  40.376  31.720  1.00  0.00     0.157 A 
ATOM     15  N   UNL A   1      44.039  38.406  32.500  1.00  0.00    -0.231 N 
ATOM     16  N   UNL A   1      43.271  39.391  31.987  1.00  0.00    -0.149 NA
ATOM     17  C   UNL A   1      45.368  38.561  32.135  1.00  0.00     0.076 A 
ATOM     18  C   UNL A   1      45.455  39.862  31.675  1.00  0.00     0.078 A 
BRANCH  15  19
ATOM     19  C   UNL A   1      43.481  37.429  33.370  1.00  0.00     0.065 A 
ATOM     20  C   UNL A   1      42.394  35.520  35.086  1.00  0.00     0.082 A 
ATOM     21  C   UNL A   1      42.560  36.831  35.536  1.00  0.00     0.024 A 
ATOM     22  C   UNL A   1      42.763  35.159  33.784  1.00  0.00     0.024 A 
ATOM     23  C   UNL A   1      43.116  37.783  34.681  1.00  0.00     0.030 A 
ATOM     24  C   UNL A   1      43.284  36.123  32.915  1.00  0.00     0.030 A 
BRANCH  20  25
ATOM     25  S   UNL A   1      41.671  34.320  36.164  1.00  0.00     0.238 S 
ATOM     26  O   UNL A   1      40.370  34.800  36.596  1.00  0.00    -0.207 OA
ATOM     27  O   UNL A   1      42.673  33.860  37.083  1.00  0.00    -0.207 OA
BRANCH  25  28
ATOM     28  N   UNL A   1      41.341  33.037  35.130  1.00  0.00    -0.225 NA
ATOM     29  H   UNL A   1      40.341  32.835  35.147  1.00  0.00     0.137 HD
ATOM     30  H   UNL A   1      41.859  32.213  35.433  1.00  0.00     0.137 HD
ENDBRANCH  25  28
ENDBRANCH  20  25
ENDBRANCH  15  19
BRANCH  17  31
ATOM     31  C   UNL A   1      46.349  37.489  32.253  1.00  0.00     0.000 A 
ATOM     32  C   UNL A   1      46.534  36.611  31.171  1.00  0.00     0.010 A 
ATOM     33  C   UNL A   1      47.026  37.249  33.451  1.00  0.00     0.010 A 
ATOM     34  C   UNL A   1      47.334  35.480  31.301  1.00  0.00     0.001 A 
ATOM     35  C   UNL A   1      47.835  36.116  33.576  1.00  0.00     0.001 A 
ATOM     36  C   UNL A   1      47.979  35.229  32.508  1.00  0.00     0.000 A 
ENDBRANCH  17  31
ENDBRANCH   9  14
ENDBRANCH   7   8
ENDBRANCH   6   7
ENDBRANCH   5   6
ENDBRANCH   4   5
ENDBRANCH   3   4
ENDBRANCH   2   3
ENDBRANCH   1   2
BRANCH   1  37
ATOM     37  C   UNL A   1      40.974  34.246  29.863  1.00  0.00     0.001 C 
BRANCH  37  38
ATOM     38  C   UNL A   1      40.820  33.681  31.269  1.00  0.00     0.010 C 
BRANCH  38  39
ATOM     39  C   UNL A   1      39.604  34.186  32.051  1.00  0.00     0.100 C 
BRANCH  39  40
ATOM     40  C   UNL A   1      38.696  33.084  32.561  1.00  0.00     0.219 C 
ATOM     41  O   UNL A   1      39.175  32.084  33.104  1.00  0.00    -0.275 OA
ATOM     42  N   UNL A   1      37.338  33.150  32.451  1.00  0.00    -0.356 N 
ATOM     43  H   UNL A   1      36.869  32.348  32.772  1.00  0.00     0.163 HD
BRANCH  42  44
ATOM     44  C   UNL A   1      36.453  34.195  31.945  1.00  0.00     0.117 C 
BRANCH  44  45
ATOM     45  C   UNL A   1      35.080  33.666  31.482  1.00  0.00     0.042 C 
BRANCH  45  46
ATOM     46  C   UNL A   1      35.063  32.205  31.112  1.00  0.00     0.118 C 
BRANCH  46  47
ATOM     47  N   UNL A   1      34.390  31.934  29.835  1.00  0.00    -0.352 N 
ATOM     48  C   UNL A   1      34.991  31.734  28.598  1.00  0.00     0.251 C 
ATOM     49  H   UNL A   1      33.407  31.889  29.858  1.00  0.00     0.163 HD
ATOM     50  O   UNL A   1      34.381  31.904  27.552  1.00  0.00    -0.269 OA
BRANCH  48  51
ATOM     51  C   UNL A   1      36.400  31.311  28.591  1.00  0.00     0.039 A 
ATOM     52  C   UNL A   1      37.464  32.151  28.925  1.00  0.00     0.014 A 
ATOM     53  C   UNL A   1      36.607  29.962  28.357  1.00  0.00     0.014 A 
ATOM     54  C   UNL A   1      38.724  31.577  29.101  1.00  0.00     0.010 A 
ATOM     55  C   UNL A   1      37.723  29.384  28.873  1.00  0.00     0.010 A 
ATOM     56  C   UNL A   1      38.832  30.179  29.092  1.00  0.00    -0.014 A 
BRANCH  56  57
ATOM     57  C   UNL A   1      40.074  29.465  29.333  1.00  0.00     0.031 A 
ATOM     58  C   UNL A   1      40.355  29.159  30.753  1.00  0.00     0.074 A 
ATOM     59  C   UNL A   1      40.783  28.917  28.319  1.00  0.00     0.049 A 
ATOM     60  N   UNL A   1      41.297  29.657  31.479  1.00  0.00    -0.248 NA
ATOM     61  C   UNL A   1      39.410  28.314  31.498  1.00  0.00     0.031 C 
ATOM     62  C   UNL A   1      40.464  28.871  26.883  1.00  0.00     0.029 A 
ATOM     63  N   UNL A   1      41.913  28.168  28.383  1.00  0.00    -0.354 N 
ATOM     64  C   UNL A   1      41.193  29.042  32.721  1.00  0.00     0.074 A 
ATOM     65  C   UNL A   1      39.913  28.382  32.734  1.00  0.00     0.031 C 
ATOM     66  C   UNL A   1      41.228  27.942  26.272  1.00  0.00     0.029 A 
ATOM     67  C   UNL A   1      42.212  27.466  27.222  1.00  0.00     0.049 A 
ATOM     68  H   UNL A   1      42.477  28.127  29.189  1.00  0.00     0.167 HD
ATOM     69  C   UNL A   1      42.282  28.933  33.532  1.00  0.00     0.037 A 
ATOM     70  C   UNL A   1      43.190  26.541  27.070  1.00  0.00     0.037 A 
ATOM     71  C   UNL A   1      43.348  29.795  33.077  1.00  0.00     0.049 A 
ATOM     72  C   UNL A   1      44.169  26.770  28.166  1.00  0.00     0.074 A 
ATOM     73  C   UNL A   1      43.464  31.158  32.875  1.00  0.00     0.029 A 
ATOM     74  N   UNL A   1      44.374  29.226  32.360  1.00  0.00    -0.354 N 
ATOM     75  N   UNL A   1      44.921  27.835  28.245  1.00  0.00    -0.248 NA
ATOM     76  C   UNL A   1      43.946  26.072  29.425  1.00  0.00     0.031 C 
ATOM     77  C   UNL A   1      44.211  31.288  31.667  1.00  0.00     0.029 A 
ATOM     78  C   UNL A   1      44.584  30.008  31.251  1.00  0.00     0.049 A 
ATOM     79  H   UNL A   1      44.868  28.409  32.597  1.00  0.00     0.167 HD
ATOM     80  C   UNL A   1      44.896  28.187  29.587  1.00  0.00     0.074 A 
ATOM     81  C   UNL A   1      44.351  27.019  30.277  1.00  0.00     0.031 C 
ATOM     82  C   UNL A   1      45.027  29.489  29.979  1.00  0.00     0.037 A 
BRANCH  69  83
ATOM     83  C   UNL A   1      42.537  27.799  34.494  1.00  0.00     0.064 A 
ATOM     84  C   UNL A   1      43.120  26.612  34.002  1.00  0.00     0.173 A 
ATOM     85  C   UNL A   1      41.970  27.707  35.781  1.00  0.00     0.173 A 
ATOM     86  F   UNL A   1      43.688  26.582  32.787  1.00  0.00    -0.203 F 
ATOM     87  C   UNL A   1      43.046  25.408  34.703  1.00  0.00     0.198 A 
ATOM     88  C   UNL A   1      41.947  26.515  36.503  1.00  0.00     0.198 A 
ATOM     89  F   UNL A   1      41.315  28.726  36.350  1.00  0.00    -0.203 F 
ATOM     90  F   UNL A   1      43.489  24.278  34.133  1.00  0.00    -0.200 F 
ATOM     91  C   UNL A   1      42.450  25.358  35.949  1.00  0.00     0.200 A 
ATOM     92  F   UNL A   1      41.353  26.485  37.704  1.00  0.00    -0.200 F 
ATOM     93  F   UNL A   1      42.315  24.192  36.595  1.00  0.00    -0.200 F 
ENDBRANCH  69  83
BRANCH  70  94
ATOM     94  C   UNL A   1      43.188  25.328  26.216  1.00  0.00     0.064 A 
ATOM     95  C   UNL A   1      44.215  25.090  25.289  1.00  0.00     0.173 A 
ATOM     96  C   UNL A   1      42.321  24.246  26.476  1.00  0.00     0.173 A 
ATOM     97  F   UNL A   1      45.109  26.051  25.013  1.00  0.00    -0.203 F 
ATOM     98  C   UNL A   1      44.382  23.841  24.680  1.00  0.00     0.198 A 
ATOM     99  C   UNL A   1      42.484  23.002  25.862  1.00  0.00     0.198 A 
ATOM    100  F   UNL A   1      41.354  24.344  27.399  1.00  0.00    -0.203 F 
ATOM    101  F   UNL A   1      45.412  23.635  23.847  1.00  0.00    -0.200 F 
ATOM    102  C   UNL A   1      43.523  22.796  24.975  1.00  0.00     0.200 A 
ATOM    103  F   UNL A   1      41.665  21.991  26.184  1.00  0.00    -0.200 F 
ATOM    104  F   UNL A   1      43.719  21.582  24.441  1.00  0.00    -0.200 F 
ENDBRANCH  70  94
BRANCH  82 105
ATOM    105  C   UNL A   1      45.432  30.505  28.942  1.00  0.00     0.064 A 
ATOM    106  C   UNL A   1      44.523  31.269  28.189  1.00  0.00     0.173 A 
ATOM    107  C   UNL A   1      46.789  30.831  28.827  1.00  0.00     0.173 A 
ATOM    108  F   UNL A   1      43.204  31.099  28.316  1.00  0.00    -0.203 F 
ATOM    109  C   UNL A   1      44.957  32.280  27.332  1.00  0.00     0.198 A 
ATOM    110  C   UNL A   1      47.218  31.865  28.000  1.00  0.00     0.198 A 
ATOM    111  F   UNL A   1      47.701  30.178  29.565  1.00  0.00    -0.203 F 
ATOM    112  F   UNL A   1      44.065  32.987  26.621  1.00  0.00    -0.200 F 
ATOM    113  C   UNL A   1      46.304  32.582  27.244  1.00  0.00     0.200 A 
ATOM    114  F   UNL A   1      48.518  32.189  27.958  1.00  0.00    -0.200 F 
ATOM    115  F   UNL A   1      46.719  33.583  26.455  1.00  0.00    -0.200 F 
ENDBRANCH  82 105
ENDBRANCH  56  57
ENDBRANCH  48  51
ENDBRANCH  46  47
ENDBRANCH  45  46
ENDBRANCH  44  45
ENDBRANCH  42  44
ENDBRANCH  39  40
ENDBRANCH  38  39
ENDBRANCH  37  38
ENDBRANCH   1  37
TORSDOF 25
ENDMDL
MODEL 3
REMARK VINA RESULT:      -9.2      6.501     13.999
REMARK SMILES NS(=O)(=O)c1ccc(-n2nc(NC(=O)NCCCCCCCCCCC(=O)NCCCNC(=O)c3ccc(-c4c5nc(c(-c6c(F)c(F)c(F)c(F)c6F)c6ccc([nH]6)c(-c6c(F)c(F)c(F)c(F)c6F)c6nc(c(-c7c(F)c(F)c(F)c(F)c7F)c7ccc4[nH]7)C=C6)C=C5)cc3)cc2-c2ccccc2)cc1
REMARK SMILES IDX 22 1 21 2 20 3 19 4 18 5 17 6 16 7 15 8 12 9 13 10 14 12
REMARK SMILES IDX 11 14 9 15 10 16 99 17 98 18 8 19 5 20 6 21 107 22 7 23
REMARK SMILES IDX 106 24 2 25 3 26 4 27 1 28 100 31 101 32 105 33 102 34
REMARK SMILES IDX 104 35 103 36 23 37 24 38 25 39 26 40 27 41 28 42 29 44
REMARK SMILES IDX 30 45 31 46 32 47 33 48 34 50 35 51 36 52 97 53 37 54 96 55
REMARK SMILES IDX 38 56 39 57 40 58 90 59 41 60 95 61 89 62 91 63 42 64 94 65
REMARK SMILES IDX 88 66 87 67 43 69 75 70 55 71 74 72 56 73 59 74 73 75 92 76
REMARK SMILES IDX 57 77 58 78 72 80 93 81 60 82 44 83 45 84 53 85 46 86 47 87
REMARK SMILES IDX 51 88 54 89 48 90 49 91 52 92 50 93 76 94 77 95 85 96 78 97
REMARK SMILES IDX 79 98 83 99 86 100 80 101 81 102 84 103 82 104 61 105 62 106
REMARK SMILES IDX 70 107 63 108 64 109 68 110 71 111 65 112 66 113 69 114
REMARK SMILES IDX 67 115
REMARK H PARENT 12 11 15 13 1 29 1 30 28 43 32 49 91 68 59 79
REMARK Flexibility Score: inf
ROOT
ATOM      1  C   UNL A   1      34.240  28.923  27.236  1.00  0.00     0.000 C 
ENDROOT
BRANCH   1   2
ATOM      2  C   UNL A   1      32.749  28.978  27.472  1.00  0.00     0.000 C 
BRANCH   2   3
ATOM      3  C   UNL A   1      31.930  29.068  26.191  1.00  0.00     0.000 C 
BRANCH   3   4
ATOM      4  C   UNL A   1      32.677  29.431  24.902  1.00  0.00     0.000 C 
BRANCH   4   5
ATOM      5  C   UNL A   1      32.932  28.299  23.900  1.00  0.00     0.002 C 
BRANCH   5   6
ATOM      6  C   UNL A   1      31.718  27.748  23.152  1.00  0.00     0.021 C 
BRANCH   6   7
ATOM      7  C   UNL A   1      31.859  26.357  22.554  1.00  0.00     0.117 C 
BRANCH   7   8
ATOM      8  N   UNL A   1      31.683  26.241  21.130  1.00  0.00    -0.338 N 
ATOM      9  N   UNL A   1      33.225  24.483  20.650  1.00  0.00    -0.291 N 
ATOM     10  C   UNL A   1      32.302  25.399  20.272  1.00  0.00     0.320 C 
ATOM     11  H   UNL A   1      33.814  24.194  19.916  1.00  0.00     0.173 HD
ATOM     12  O   UNL A   1      32.093  25.558  19.066  1.00  0.00    -0.248 OA
ATOM     13  H   UNL A   1      31.027  26.855  20.729  1.00  0.00     0.165 HD
BRANCH   9  14
ATOM     14  C   UNL A   1      33.506  23.872  21.854  1.00  0.00     0.157 A 
ATOM     15  N   UNL A   1      34.583  23.197  23.551  1.00  0.00    -0.231 N 
ATOM     16  N   UNL A   1      34.429  24.263  22.738  1.00  0.00    -0.149 NA
ATOM     17  C   UNL A   1      33.483  22.355  23.492  1.00  0.00     0.076 A 
ATOM     18  C   UNL A   1      32.801  22.749  22.356  1.00  0.00     0.078 A 
BRANCH  15  19
ATOM     19  C   UNL A   1      35.796  23.000  24.269  1.00  0.00     0.065 A 
ATOM     20  C   UNL A   1      38.169  22.600  25.675  1.00  0.00     0.082 A 
ATOM     21  C   UNL A   1      37.744  21.636  24.759  1.00  0.00     0.024 A 
ATOM     22  C   UNL A   1      37.419  23.763  25.889  1.00  0.00     0.024 A 
ATOM     23  C   UNL A   1      36.550  21.830  24.065  1.00  0.00     0.030 A 
ATOM     24  C   UNL A   1      36.241  23.976  25.164  1.00  0.00     0.030 A 
BRANCH  20  25
ATOM     25  S   UNL A   1      39.693  22.362  26.539  1.00  0.00     0.238 S 
ATOM     26  O   UNL A   1      40.778  22.888  25.730  1.00  0.00    -0.207 OA
ATOM     27  O   UNL A   1      39.709  21.038  27.092  1.00  0.00    -0.207 OA
BRANCH  25  28
ATOM     28  N   UNL A   1      39.560  23.424  27.834  1.00  0.00    -0.225 NA
ATOM     29  H   UNL A   1      39.877  24.351  27.548  1.00  0.00     0.137 HD
ATOM     30  H   UNL A   1      40.136  23.092  28.607  1.00  0.00     0.137 HD
ENDBRANCH  25  28
ENDBRANCH  20  25
ENDBRANCH  15  19
BRANCH  17  31
ATOM     31  C   UNL A   1      33.221  21.326  24.492  1.00  0.00     0.000 A 
ATOM     32  C   UNL A   1      33.259  21.674  25.854  1.00  0.00     0.010 A 
ATOM     33  C   UNL A   1      33.045  19.988  24.133  1.00  0.00     0.010 A 
ATOM     34  C   UNL A   1      33.180  20.696  26.841  1.00  0.00     0.001 A 
ATOM     35  C   UNL A   1      32.960  19.008  25.127  1.00  0.00     0.001 A 
ATOM     36  C   UNL A   1      33.039  19.361  26.475  1.00  0.00     0.000 A 
ENDBRANCH  17  31
ENDBRANCH   9  14
ENDBRANCH   7   8
ENDBRANCH   6   7
ENDBRANCH   5   6
ENDBRANCH   4   5
ENDBRANCH   3   4
ENDBRANCH   2   3
ENDBRANCH   1   2
BRANCH   1  37
ATOM     37  C   UNL A   1      34.968  30.229  27.573  1.00  0.00     0.001 C 
BRANCH  37  38
ATOM     38  C   UNL A   1      34.034  31.378  27.934  1.00  0.00     0.010 C 
BRANCH  38  39
ATOM     39  C   UNL A   1      34.692  32.758  28.013  1.00  0.00     0.100 C 
BRANCH  39  40
ATOM     40  C   UNL A   1      34.021  33.708  28.987  1.00  0.00     0.219 C 
ATOM     41  O   UNL A   1      33.251  34.579  28.576  1.00  0.00    -0.275 OA
ATOM     42  N   UNL A   1      34.232  33.637  30.333  1.00  0.00    -0.356 N 
ATOM     43  H   UNL A   1      33.780  34.344  30.848  1.00  0.00     0.163 HD
BRANCH  42  44
ATOM     44  C   UNL A   1      35.003  32.705  31.151  1.00  0.00     0.117 C 
BRANCH  44  45
ATOM     45  C   UNL A   1      34.701  32.816  32.658  1.00  0.00     0.042 C 
BRANCH  45  46
ATOM     46  C   UNL A   1      35.914  32.733  33.550  1.00  0.00     0.118 C 
BRANCH  46  47
ATOM     47  N   UNL A   1      36.546  34.035  33.799  1.00  0.00    -0.352 N 
ATOM     48  C   UNL A   1      37.906  34.317  33.807  1.00  0.00     0.251 C 
ATOM     49  H   UNL A   1      35.940  34.789  33.982  1.00  0.00     0.163 HD
ATOM     50  O   UNL A   1      38.358  35.292  34.392  1.00  0.00    -0.269 OA
BRANCH  48  51
ATOM     51  C   UNL A   1      38.793  33.393  33.083  1.00  0.00     0.039 A 
ATOM     52  C   UNL A   1      38.939  33.386  31.694  1.00  0.00     0.014 A 
ATOM     53  C   UNL A   1      39.595  32.598  33.884  1.00  0.00     0.014 A 
ATOM     54  C   UNL A   1      39.971  32.623  31.146  1.00  0.00     0.010 A 
ATOM     55  C   UNL A   1      40.781  32.169  33.382  1.00  0.00     0.010 A 
ATOM     56  C   UNL A   1      40.903  32.033  32.012  1.00  0.00    -0.014 A 
BRANCH  56  57
ATOM     57  C   UNL A   1      42.058  31.277  31.560  1.00  0.00     0.031 A 
ATOM     58  C   UNL A   1      43.222  32.095  31.152  1.00  0.00     0.074 A 
ATOM     59  C   UNL A   1      42.137  29.937  31.732  1.00  0.00     0.049 A 
ATOM     60  N   UNL A   1      43.696  32.224  29.961  1.00  0.00    -0.248 NA
ATOM     61  C   UNL A   1      43.851  32.978  32.146  1.00  0.00     0.031 C 
ATOM     62  C   UNL A   1      41.191  29.030  32.402  1.00  0.00     0.029 A 
ATOM     63  N   UNL A   1      43.165  29.104  31.431  1.00  0.00    -0.354 N 
ATOM     64  C   UNL A   1      44.810  33.049  30.076  1.00  0.00     0.074 A 
ATOM     65  C   UNL A   1      44.740  33.631  31.392  1.00  0.00     0.031 C 
ATOM     66  C   UNL A   1      41.795  27.854  32.672  1.00  0.00     0.029 A 
ATOM     67  C   UNL A   1      43.094  27.852  32.031  1.00  0.00     0.049 A 
ATOM     68  H   UNL A   1      43.903  29.365  30.834  1.00  0.00     0.167 HD
ATOM     69  C   UNL A   1      45.816  32.984  29.161  1.00  0.00     0.037 A 
ATOM     70  C   UNL A   1      44.054  26.896  32.015  1.00  0.00     0.037 A 
ATOM     71  C   UNL A   1      45.396  32.252  27.988  1.00  0.00     0.049 A 
ATOM     72  C   UNL A   1      44.948  27.208  30.868  1.00  0.00     0.074 A 
ATOM     73  C   UNL A   1      44.380  32.417  27.064  1.00  0.00     0.029 A 
ATOM     74  N   UNL A   1      45.796  30.942  27.869  1.00  0.00    -0.354 N 
ATOM     75  N   UNL A   1      44.570  27.122  29.621  1.00  0.00    -0.248 NA
ATOM     76  C   UNL A   1      46.079  28.092  31.115  1.00  0.00     0.031 C 
ATOM     77  C   UNL A   1      43.892  31.099  26.817  1.00  0.00     0.029 A 
ATOM     78  C   UNL A   1      44.690  30.203  27.531  1.00  0.00     0.049 A 
ATOM     79  H   UNL A   1      46.709  30.598  28.002  1.00  0.00     0.167 HD
ATOM     80  C   UNL A   1      45.105  28.248  29.011  1.00  0.00     0.074 A 
ATOM     81  C   UNL A   1      46.093  28.761  29.959  1.00  0.00     0.031 C 
ATOM     82  C   UNL A   1      44.487  28.834  27.943  1.00  0.00     0.037 A 
BRANCH  69  83
ATOM     83  C   UNL A   1      47.274  33.237  29.456  1.00  0.00     0.064 A 
ATOM     84  C   UNL A   1      47.987  34.130  28.628  1.00  0.00     0.173 A 
ATOM     85  C   UNL A   1      48.065  32.432  30.301  1.00  0.00     0.173 A 
ATOM     86  F   UNL A   1      47.337  34.943  27.781  1.00  0.00    -0.203 F 
ATOM     87  C   UNL A   1      49.381  34.138  28.579  1.00  0.00     0.198 A 
ATOM     88  C   UNL A   1      49.458  32.482  30.290  1.00  0.00     0.198 A 
ATOM     89  F   UNL A   1      47.539  31.485  31.087  1.00  0.00    -0.203 F 
ATOM     90  F   UNL A   1      50.010  34.904  27.676  1.00  0.00    -0.200 F 
ATOM     91  C   UNL A   1      50.116  33.307  29.403  1.00  0.00     0.200 A 
ATOM     92  F   UNL A   1      50.152  31.659  31.088  1.00  0.00    -0.200 F 
ATOM     93  F   UNL A   1      51.452  33.262  29.311  1.00  0.00    -0.200 F 
ENDBRANCH  69  83
BRANCH  70  94
ATOM     94  C   UNL A   1      44.392  25.911  33.071  1.00  0.00     0.064 A 
ATOM     95  C   UNL A   1      44.513  24.544  32.777  1.00  0.00     0.173 A 
ATOM     96  C   UNL A   1      44.863  26.320  34.337  1.00  0.00     0.173 A 
ATOM     97  F   UNL A   1      44.128  24.075  31.581  1.00  0.00    -0.203 F 
ATOM     98  C   UNL A   1      45.094  23.646  33.680  1.00  0.00     0.198 A 
ATOM     99  C   UNL A   1      45.435  25.422  35.240  1.00  0.00     0.198 A 
ATOM    100  F   UNL A   1      44.861  27.614  34.687  1.00  0.00    -0.203 F 
ATOM    101  F   UNL A   1      45.248  22.359  33.338  1.00  0.00    -0.200 F 
ATOM    102  C   UNL A   1      45.563  24.087  34.906  1.00  0.00     0.200 A 
ATOM    103  F   UNL A   1      45.915  25.870  36.408  1.00  0.00    -0.200 F 
ATOM    104  F   UNL A   1      46.175  23.240  35.745  1.00  0.00    -0.200 F 
ENDBRANCH  70  94
BRANCH  82 105
ATOM    105  C   UNL A   1      43.343  28.100  27.294  1.00  0.00     0.064 A 
ATOM    106  C   UNL A   1      43.500  27.073  26.346  1.00  0.00     0.173 A 
ATOM    107  C   UNL A   1      42.047  28.333  27.772  1.00  0.00     0.173 A 
ATOM    108  F   UNL A   1      44.712  26.711  25.914  1.00  0.00    -0.203 F 
ATOM    109  C   UNL A   1      42.409  26.347  25.871  1.00  0.00     0.198 A 
ATOM    110  C   UNL A   1      40.963  27.583  27.325  1.00  0.00     0.198 A 
ATOM    111  F   UNL A   1      41.839  29.260  28.721  1.00  0.00    -0.203 F 
ATOM    112  F   UNL A   1      42.591  25.378  24.960  1.00  0.00    -0.200 F 
ATOM    113  C   UNL A   1      41.142  26.598  26.366  1.00  0.00     0.200 A 
ATOM    114  F   UNL A   1      39.747  27.794  27.846  1.00  0.00    -0.200 F 
ATOM    115  F   UNL A   1      40.098  25.871  25.943  1.00  0.00    -0.200 F 
ENDBRANCH  82 105
ENDBRANCH  56  57
ENDBRANCH  48  51
ENDBRANCH  46  47
ENDBRANCH  45  46
ENDBRANCH  44  45
ENDBRANCH  42  44
ENDBRANCH  39  40
ENDBRANCH  38  39
ENDBRANCH  37  38
ENDBRANCH   1  37
TORSDOF 25
ENDMDL
