MODEL 1
REMARK VINA RESULT:     -12.0      0.000      0.000
REMARK SMILES O=C(NCCCNC(=O)c1ccc(NC2CC2)c(F)c1F)c1ccc(-c2c3nc(c(-c4c(F)c(F)c(F)c(F)c4F)c4ccc([nH]4)c(-c4c(F)c(F)c(F)c(F)c4F)c4nc(c(-c5c(F)c(F)c(F)c(F)c5F)c5ccc2[nH]5)C=C4)C=C3)cc1
REMARK SMILES IDX 5 1 4 2 3 3 1 4 2 5 22 7 23 8 84 9 24 10 83 11 25 12 26 13
REMARK SMILES IDX 27 14 77 15 28 16 82 17 76 18 78 19 29 20 81 21 75 22 74 23
REMARK SMILES IDX 30 25 62 26 42 27 61 28 43 29 46 30 60 31 79 32 44 33 45 34
REMARK SMILES IDX 59 36 80 37 47 38 31 39 32 40 40 41 33 42 34 43 38 44 41 45
REMARK SMILES IDX 35 46 36 47 39 48 37 49 63 50 64 51 72 52 65 53 66 54 70 55
REMARK SMILES IDX 73 56 67 57 68 58 71 59 69 60 48 61 49 62 57 63 50 64 51 65
REMARK SMILES IDX 55 66 58 67 52 68 53 69 56 70 54 71 6 72 7 73 8 74 9 76
REMARK SMILES IDX 10 77 11 78 20 79 12 80 18 81 21 82 13 83 19 84 14 85 15 87
REMARK SMILES IDX 16 88 17 89
REMARK H PARENT 3 6 78 24 46 35 7 75 14 86
REMARK Flexibility Score: inf
ROOT
ATOM      1  C   UNL A   1      33.321  27.643  25.780  1.00  0.00     0.042 C 
ENDROOT
BRANCH   1   2
ATOM      2  C   UNL A   1      33.794  28.965  25.206  1.00  0.00     0.118 C 
BRANCH   2   3
ATOM      3  N   UNL A   1      33.098  30.117  25.771  1.00  0.00    -0.352 N 
ATOM      4  O   UNL A   1      32.606  31.717  27.285  1.00  0.00    -0.269 OA
ATOM      5  C   UNL A   1      33.400  30.875  26.879  1.00  0.00     0.251 C 
ATOM      6  H   UNL A   1      32.288  30.394  25.285  1.00  0.00     0.163 HD
BRANCH   5   7
ATOM      7  C   UNL A   1      34.673  30.653  27.597  1.00  0.00     0.039 A 
ATOM      8  C   UNL A   1      34.926  29.431  28.217  1.00  0.00     0.014 A 
ATOM      9  C   UNL A   1      35.621  31.678  27.660  1.00  0.00     0.014 A 
ATOM     10  C   UNL A   1      36.013  29.304  29.065  1.00  0.00     0.010 A 
ATOM     11  C   UNL A   1      36.792  31.497  28.403  1.00  0.00     0.010 A 
ATOM     12  C   UNL A   1      36.980  30.319  29.141  1.00  0.00    -0.014 A 
BRANCH  12  13
ATOM     13  C   UNL A   1      38.216  30.056  29.920  1.00  0.00     0.031 A 
ATOM     14  C   UNL A   1      38.397  30.571  31.317  1.00  0.00     0.074 A 
ATOM     15  C   UNL A   1      39.162  29.282  29.352  1.00  0.00     0.049 A 
ATOM     16  N   UNL A   1      39.388  30.356  32.146  1.00  0.00    -0.248 NA
ATOM     17  C   UNL A   1      37.346  31.445  31.854  1.00  0.00     0.031 C 
ATOM     18  C   UNL A   1      39.091  28.743  27.991  1.00  0.00     0.029 A 
ATOM     19  N   UNL A   1      40.337  28.779  29.845  1.00  0.00    -0.354 N 
ATOM     20  C   UNL A   1      39.089  31.077  33.294  1.00  0.00     0.074 A 
ATOM     21  C   UNL A   1      37.839  31.763  33.045  1.00  0.00     0.031 C 
ATOM     22  C   UNL A   1      40.126  27.920  27.789  1.00  0.00     0.029 A 
ATOM     23  C   UNL A   1      40.982  27.940  28.969  1.00  0.00     0.049 A 
ATOM     24  H   UNL A   1      40.685  28.996  30.740  1.00  0.00     0.167 HD
ATOM     25  C   UNL A   1      39.795  31.149  34.448  1.00  0.00     0.037 A 
ATOM     26  C   UNL A   1      42.141  27.269  29.089  1.00  0.00     0.037 A 
ATOM     27  C   UNL A   1      41.034  30.448  34.681  1.00  0.00     0.049 A 
ATOM     28  C   UNL A   1      42.917  27.388  30.365  1.00  0.00     0.074 A 
ATOM     29  C   UNL A   1      41.803  30.423  35.831  1.00  0.00     0.029 A 
ATOM     30  N   UNL A   1      41.686  29.654  33.747  1.00  0.00    -0.354 N 
ATOM     31  N   UNL A   1      42.606  28.047  31.455  1.00  0.00    -0.248 NA
ATOM     32  C   UNL A   1      44.201  26.681  30.430  1.00  0.00     0.031 C 
ATOM     33  C   UNL A   1      42.953  29.673  35.571  1.00  0.00     0.029 A 
ATOM     34  C   UNL A   1      42.869  29.167  34.284  1.00  0.00     0.049 A 
ATOM     35  H   UNL A   1      41.360  29.467  32.837  1.00  0.00     0.167 HD
ATOM     36  C   UNL A   1      43.649  27.827  32.342  1.00  0.00     0.074 A 
ATOM     37  C   UNL A   1      44.595  26.961  31.667  1.00  0.00     0.031 C 
ATOM     38  C   UNL A   1      43.803  28.305  33.601  1.00  0.00     0.037 A 
BRANCH  25  39
ATOM     39  C   UNL A   1      39.265  32.026  35.548  1.00  0.00     0.064 A 
ATOM     40  C   UNL A   1      39.667  33.369  35.640  1.00  0.00     0.173 A 
ATOM     41  C   UNL A   1      38.418  31.530  36.551  1.00  0.00     0.173 A 
ATOM     42  F   UNL A   1      40.482  33.896  34.714  1.00  0.00    -0.203 F 
ATOM     43  C   UNL A   1      39.250  34.175  36.697  1.00  0.00     0.198 A 
ATOM     44  C   UNL A   1      37.977  32.348  37.589  1.00  0.00     0.198 A 
ATOM     45  F   UNL A   1      37.998  30.256  36.510  1.00  0.00    -0.203 F 
ATOM     46  F   UNL A   1      39.676  35.443  36.779  1.00  0.00    -0.200 F 
ATOM     47  C   UNL A   1      38.401  33.666  37.667  1.00  0.00     0.200 A 
ATOM     48  F   UNL A   1      37.136  31.860  38.512  1.00  0.00    -0.200 F 
ATOM     49  F   UNL A   1      37.988  34.446  38.674  1.00  0.00    -0.200 F 
ENDBRANCH  25  39
BRANCH  26  50
ATOM     50  C   UNL A   1      42.598  26.424  27.957  1.00  0.00     0.064 A 
ATOM     51  C   UNL A   1      43.477  26.927  26.984  1.00  0.00     0.173 A 
ATOM     52  C   UNL A   1      42.081  25.136  27.766  1.00  0.00     0.173 A 
ATOM     53  F   UNL A   1      43.988  28.161  27.115  1.00  0.00    -0.203 F 
ATOM     54  C   UNL A   1      43.783  26.193  25.841  1.00  0.00     0.198 A 
ATOM     55  C   UNL A   1      42.414  24.390  26.638  1.00  0.00     0.198 A 
ATOM     56  F   UNL A   1      41.247  24.609  28.674  1.00  0.00    -0.203 F 
ATOM     57  F   UNL A   1      44.569  26.726  24.896  1.00  0.00    -0.200 F 
ATOM     58  C   UNL A   1      43.252  24.924  25.670  1.00  0.00     0.200 A 
ATOM     59  F   UNL A   1      41.912  23.157  26.481  1.00  0.00    -0.200 F 
ATOM     60  F   UNL A   1      43.540  24.220  24.567  1.00  0.00    -0.200 F 
ENDBRANCH  26  50
BRANCH  38  61
ATOM     61  C   UNL A   1      45.033  27.893  34.355  1.00  0.00     0.064 A 
ATOM     62  C   UNL A   1      46.212  28.648  34.249  1.00  0.00     0.173 A 
ATOM     63  C   UNL A   1      45.077  26.705  35.097  1.00  0.00     0.173 A 
ATOM     64  F   UNL A   1      46.223  29.790  33.545  1.00  0.00    -0.203 F 
ATOM     65  C   UNL A   1      47.396  28.212  34.836  1.00  0.00     0.198 A 
ATOM     66  C   UNL A   1      46.257  26.287  35.708  1.00  0.00     0.198 A 
ATOM     67  F   UNL A   1      43.973  25.957  35.241  1.00  0.00    -0.203 F 
ATOM     68  F   UNL A   1      48.520  28.925  34.680  1.00  0.00    -0.200 F 
ATOM     69  C   UNL A   1      47.418  27.034  35.565  1.00  0.00     0.200 A 
ATOM     70  F   UNL A   1      46.271  25.161  36.434  1.00  0.00    -0.200 F 
ATOM     71  F   UNL A   1      48.558  26.615  36.130  1.00  0.00    -0.200 F 
ENDBRANCH  38  61
ENDBRANCH  12  13
ENDBRANCH   5   7
ENDBRANCH   2   3
ENDBRANCH   1   2
BRANCH   1  72
ATOM     72  C   UNL A   1      31.833  27.404  25.598  1.00  0.00     0.118 C 
BRANCH  72  73
ATOM     73  N   UNL A   1      31.555  26.139  24.930  1.00  0.00    -0.352 N 
ATOM     74  C   UNL A   1      30.599  25.837  23.988  1.00  0.00     0.254 C 
ATOM     75  H   UNL A   1      32.135  25.389  25.195  1.00  0.00     0.163 HD
ATOM     76  O   UNL A   1      30.418  24.683  23.633  1.00  0.00    -0.269 OA
BRANCH  74  77
ATOM     77  C   UNL A   1      29.829  26.935  23.389  1.00  0.00     0.078 A 
ATOM     78  C   UNL A   1      30.461  27.827  22.520  1.00  0.00     0.019 A 
ATOM     79  C   UNL A   1      28.493  27.110  23.713  1.00  0.00     0.173 A 
ATOM     80  C   UNL A   1      29.786  28.964  22.075  1.00  0.00     0.030 A 
ATOM     81  C   UNL A   1      27.822  28.231  23.238  1.00  0.00     0.182 A 
ATOM     82  F   UNL A   1      27.857  26.252  24.525  1.00  0.00    -0.203 F 
ATOM     83  C   UNL A   1      28.461  29.206  22.444  1.00  0.00     0.074 A 
ATOM     84  F   UNL A   1      26.536  28.420  23.584  1.00  0.00    -0.201 F 
BRANCH  83  85
ATOM     85  N   UNL A   1      27.746  30.376  22.121  1.00  0.00    -0.380 N 
ATOM     86  H   UNL A   1      27.119  30.281  21.367  1.00  0.00     0.160 HD
BRANCH  85  87
ATOM     87  C   UNL A   1      27.783  31.706  22.719  1.00  0.00     0.079 C 
ATOM     88  C   UNL A   1      28.839  32.228  23.646  1.00  0.00     0.027 C 
ATOM     89  C   UNL A   1      28.690  32.808  22.262  1.00  0.00     0.027 C 
ENDBRANCH  85  87
ENDBRANCH  83  85
ENDBRANCH  74  77
ENDBRANCH  72  73
ENDBRANCH   1  72
TORSDOF 12
ENDMDL
MODEL 2
REMARK VINA RESULT:     -11.9      2.353      3.655
REMARK SMILES O=C(NCCCNC(=O)c1ccc(NC2CC2)c(F)c1F)c1ccc(-c2c3nc(c(-c4c(F)c(F)c(F)c(F)c4F)c4ccc([nH]4)c(-c4c(F)c(F)c(F)c(F)c4F)c4nc(c(-c5c(F)c(F)c(F)c(F)c5F)c5ccc2[nH]5)C=C4)C=C3)cc1
REMARK SMILES IDX 5 1 4 2 3 3 1 4 2 5 22 7 23 8 84 9 24 10 83 11 25 12 26 13
REMARK SMILES IDX 27 14 77 15 28 16 82 17 76 18 78 19 29 20 81 21 75 22 74 23
REMARK SMILES IDX 30 25 62 26 42 27 61 28 43 29 46 30 60 31 79 32 44 33 45 34
REMARK SMILES IDX 59 36 80 37 47 38 31 39 32 40 40 41 33 42 34 43 38 44 41 45
REMARK SMILES IDX 35 46 36 47 39 48 37 49 63 50 64 51 72 52 65 53 66 54 70 55
REMARK SMILES IDX 73 56 67 57 68 58 71 59 69 60 48 61 49 62 57 63 50 64 51 65
REMARK SMILES IDX 55 66 58 67 52 68 53 69 56 70 54 71 6 72 7 73 8 74 9 76
REMARK SMILES IDX 10 77 11 78 20 79 12 80 18 81 21 82 13 83 19 84 14 85 15 87
REMARK SMILES IDX 16 88 17 89
REMARK H PARENT 3 6 78 24 46 35 7 75 14 86
REMARK Flexibility Score: inf
ROOT
ATOM      1  C   UNL A   1      31.304  31.799  26.437  1.00  0.00     0.042 C 
ENDROOT
BRANCH   1   2
ATOM      2  C   UNL A   1      32.578  32.452  26.938  1.00  0.00     0.118 C 
BRANCH   2   3
ATOM      3  N   UNL A   1      32.366  33.801  27.453  1.00  0.00    -0.352 N 
ATOM      4  O   UNL A   1      32.613  35.564  28.839  1.00  0.00    -0.269 OA
ATOM      5  C   UNL A   1      33.038  34.484  28.440  1.00  0.00     0.251 C 
ATOM      6  H   UNL A   1      31.630  34.298  27.029  1.00  0.00     0.163 HD
BRANCH   5   7
ATOM      7  C   UNL A   1      34.257  33.902  29.039  1.00  0.00     0.039 A 
ATOM      8  C   UNL A   1      34.166  32.792  29.877  1.00  0.00     0.014 A 
ATOM      9  C   UNL A   1      35.503  34.473  28.769  1.00  0.00     0.014 A 
ATOM     10  C   UNL A   1      35.274  32.388  30.604  1.00  0.00     0.010 A 
ATOM     11  C   UNL A   1      36.648  33.972  29.396  1.00  0.00     0.010 A 
ATOM     12  C   UNL A   1      36.537  32.946  30.346  1.00  0.00    -0.014 A 
BRANCH  12  13
ATOM     13  C   UNL A   1      37.719  32.350  31.018  1.00  0.00     0.031 A 
ATOM     14  C   UNL A   1      38.115  32.733  32.412  1.00  0.00     0.074 A 
ATOM     15  C   UNL A   1      38.404  31.399  30.352  1.00  0.00     0.049 A 
ATOM     16  N   UNL A   1      39.075  32.240  33.155  1.00  0.00    -0.248 NA
ATOM     17  C   UNL A   1      37.350  33.808  33.059  1.00  0.00     0.031 C 
ATOM     18  C   UNL A   1      38.111  30.964  28.984  1.00  0.00     0.029 A 
ATOM     19  N   UNL A   1      39.449  30.600  30.736  1.00  0.00    -0.354 N 
ATOM     20  C   UNL A   1      39.041  32.953  34.345  1.00  0.00     0.074 A 
ATOM     21  C   UNL A   1      37.985  33.935  34.217  1.00  0.00     0.031 C 
ATOM     22  C   UNL A   1      38.894  29.925  28.675  1.00  0.00     0.029 A 
ATOM     23  C   UNL A   1      39.806  29.676  29.785  1.00  0.00     0.049 A 
ATOM     24  H   UNL A   1      39.899  30.680  31.608  1.00  0.00     0.167 HD
ATOM     25  C   UNL A   1      39.819  32.791  35.444  1.00  0.00     0.037 A 
ATOM     26  C   UNL A   1      40.769  28.737  29.792  1.00  0.00     0.037 A 
ATOM     27  C   UNL A   1      40.859  31.798  35.556  1.00  0.00     0.049 A 
ATOM     28  C   UNL A   1      41.634  28.597  31.007  1.00  0.00     0.074 A 
ATOM     29  C   UNL A   1      41.673  31.528  36.641  1.00  0.00     0.029 A 
ATOM     30  N   UNL A   1      41.231  30.919  34.549  1.00  0.00    -0.354 N 
ATOM     31  N   UNL A   1      41.570  29.255  32.140  1.00  0.00    -0.248 NA
ATOM     32  C   UNL A   1      42.705  27.597  30.949  1.00  0.00     0.031 C 
ATOM     33  C   UNL A   1      42.583  30.535  36.268  1.00  0.00     0.029 A 
ATOM     34  C   UNL A   1      42.290  30.131  34.975  1.00  0.00     0.049 A 
ATOM     35  H   UNL A   1      40.808  30.863  33.661  1.00  0.00     0.167 HD
ATOM     36  C   UNL A   1      42.583  28.743  32.935  1.00  0.00     0.074 A 
ATOM     37  C   UNL A   1      43.238  27.707  32.160  1.00  0.00     0.031 C 
ATOM     38  C   UNL A   1      42.934  29.103  34.194  1.00  0.00     0.037 A 
BRANCH  25  39
ATOM     39  C   UNL A   1      39.597  33.714  36.610  1.00  0.00     0.064 A 
ATOM     40  C   UNL A   1      40.242  34.961  36.661  1.00  0.00     0.173 A 
ATOM     41  C   UNL A   1      38.806  33.344  37.709  1.00  0.00     0.173 A 
ATOM     42  F   UNL A   1      41.018  35.362  35.643  1.00  0.00    -0.203 F 
ATOM     43  C   UNL A   1      40.113  35.794  37.769  1.00  0.00     0.198 A 
ATOM     44  C   UNL A   1      38.653  34.194  38.802  1.00  0.00     0.198 A 
ATOM     45  F   UNL A   1      38.161  32.167  37.711  1.00  0.00    -0.203 F 
ATOM     46  F   UNL A   1      40.767  36.962  37.807  1.00  0.00    -0.200 F 
ATOM     47  C   UNL A   1      39.313  35.413  38.836  1.00  0.00     0.200 A 
ATOM     48  F   UNL A   1      37.859  33.836  39.820  1.00  0.00    -0.200 F 
ATOM     49  F   UNL A   1      39.176  36.222  39.895  1.00  0.00    -0.200 F 
ENDBRANCH  25  39
BRANCH  26  50
ATOM     50  C   UNL A   1      40.926  27.865  28.601  1.00  0.00     0.064 A 
ATOM     51  C   UNL A   1      41.709  28.266  27.506  1.00  0.00     0.173 A 
ATOM     52  C   UNL A   1      40.211  26.666  28.488  1.00  0.00     0.173 A 
ATOM     53  F   UNL A   1      42.401  29.414  27.560  1.00  0.00    -0.203 F 
ATOM     54  C   UNL A   1      41.732  27.525  26.327  1.00  0.00     0.198 A 
ATOM     55  C   UNL A   1      40.262  25.908  27.320  1.00  0.00     0.198 A 
ATOM     56  F   UNL A   1      39.460  26.235  29.511  1.00  0.00    -0.203 F 
ATOM     57  F   UNL A   1      42.432  27.968  25.274  1.00  0.00    -0.200 F 
ATOM     58  C   UNL A   1      41.009  26.346  26.236  1.00  0.00     0.200 A 
ATOM     59  F   UNL A   1      39.574  24.761  27.237  1.00  0.00    -0.200 F 
ATOM     60  F   UNL A   1      41.025  25.636  25.100  1.00  0.00    -0.200 F 
ENDBRANCH  26  50
BRANCH  38  61
ATOM     61  C   UNL A   1      44.073  28.366  34.836  1.00  0.00     0.064 A 
ATOM     62  C   UNL A   1      45.391  28.817  34.668  1.00  0.00     0.173 A 
ATOM     63  C   UNL A   1      43.872  27.164  35.528  1.00  0.00     0.173 A 
ATOM     64  F   UNL A   1      45.636  29.960  34.008  1.00  0.00    -0.203 F 
ATOM     65  C   UNL A   1      46.467  28.078  35.146  1.00  0.00     0.198 A 
ATOM     66  C   UNL A   1      44.950  26.441  36.032  1.00  0.00     0.198 A 
ATOM     67  F   UNL A   1      42.630  26.698  35.728  1.00  0.00    -0.203 F 
ATOM     68  F   UNL A   1      47.720  28.504  34.932  1.00  0.00    -0.200 F 
ATOM     69  C   UNL A   1      46.247  26.891  35.828  1.00  0.00     0.200 A 
ATOM     70  F   UNL A   1      44.735  25.307  36.712  1.00  0.00    -0.200 F 
ATOM     71  F   UNL A   1      47.284  26.179  36.288  1.00  0.00    -0.200 F 
ENDBRANCH  38  61
ENDBRANCH  12  13
ENDBRANCH   5   7
ENDBRANCH   2   3
ENDBRANCH   1   2
BRANCH   1  72
ATOM     72  C   UNL A   1      31.486  30.345  26.040  1.00  0.00     0.118 C 
BRANCH  72  73
ATOM     73  N   UNL A   1      31.434  30.157  24.595  1.00  0.00    -0.352 N 
ATOM     74  C   UNL A   1      31.546  29.001  23.858  1.00  0.00     0.254 C 
ATOM     75  H   UNL A   1      31.300  30.978  24.070  1.00  0.00     0.163 HD
ATOM     76  O   UNL A   1      31.614  29.044  22.640  1.00  0.00    -0.269 OA
BRANCH  74  77
ATOM     77  C   UNL A   1      31.542  27.712  24.564  1.00  0.00     0.078 A 
ATOM     78  C   UNL A   1      30.331  27.058  24.799  1.00  0.00     0.019 A 
ATOM     79  C   UNL A   1      32.729  27.166  25.027  1.00  0.00     0.173 A 
ATOM     80  C   UNL A   1      30.298  25.921  25.607  1.00  0.00     0.030 A 
ATOM     81  C   UNL A   1      32.685  26.014  25.805  1.00  0.00     0.182 A 
ATOM     82  F   UNL A   1      33.907  27.762  24.791  1.00  0.00    -0.203 F 
ATOM     83  C   UNL A   1      31.468  25.388  26.150  1.00  0.00     0.074 A 
ATOM     84  F   UNL A   1      33.833  25.506  26.286  1.00  0.00    -0.201 F 
BRANCH  83  85
ATOM     85  N   UNL A   1      31.508  24.308  27.054  1.00  0.00    -0.380 N 
ATOM     86  H   UNL A   1      31.545  24.566  28.003  1.00  0.00     0.160 HD
BRANCH  85  87
ATOM     87  C   UNL A   1      31.503  22.870  26.813  1.00  0.00     0.079 C 
ATOM     88  C   UNL A   1      31.235  22.195  25.502  1.00  0.00     0.027 C 
ATOM     89  C   UNL A   1      32.607  22.129  26.122  1.00  0.00     0.027 C 
ENDBRANCH  85  87
ENDBRANCH  83  85
ENDBRANCH  74  77
ENDBRANCH  72  73
ENDBRANCH   1  72
TORSDOF 12
ENDMDL
MODEL 3
REMARK VINA RESULT:     -11.9      1.881      3.600
REMARK SMILES O=C(NCCCNC(=O)c1ccc(NC2CC2)c(F)c1F)c1ccc(-c2c3nc(c(-c4c(F)c(F)c(F)c(F)c4F)c4ccc([nH]4)c(-c4c(F)c(F)c(F)c(F)c4F)c4nc(c(-c5c(F)c(F)c(F)c(F)c5F)c5ccc2[nH]5)C=C4)C=C3)cc1
REMARK SMILES IDX 5 1 4 2 3 3 1 4 2 5 22 7 23 8 84 9 24 10 83 11 25 12 26 13
REMARK SMILES IDX 27 14 77 15 28 16 82 17 76 18 78 19 29 20 81 21 75 22 74 23
REMARK SMILES IDX 30 25 62 26 42 27 61 28 43 29 46 30 60 31 79 32 44 33 45 34
REMARK SMILES IDX 59 36 80 37 47 38 31 39 32 40 40 41 33 42 34 43 38 44 41 45
REMARK SMILES IDX 35 46 36 47 39 48 37 49 63 50 64 51 72 52 65 53 66 54 70 55
REMARK SMILES IDX 73 56 67 57 68 58 71 59 69 60 48 61 49 62 57 63 50 64 51 65
REMARK SMILES IDX 55 66 58 67 52 68 53 69 56 70 54 71 6 72 7 73 8 74 9 76
REMARK SMILES IDX 10 77 11 78 20 79 12 80 18 81 21 82 13 83 19 84 14 85 15 87
REMARK SMILES IDX 16 88 17 89
REMARK H PARENT 3 6 78 24 46 35 7 75 14 86
REMARK Flexibility Score: inf
ROOT
ATOM      1  C   UNL A   1      33.553  28.778  23.636  1.00  0.00     0.042 C 
ENDROOT
BRANCH   1   2
ATOM      2  C   UNL A   1      33.698  28.911  25.140  1.00  0.00     0.118 C 
BRANCH   2   3
ATOM      3  N   UNL A   1      33.019  30.084  25.680  1.00  0.00    -0.352 N 
ATOM      4  O   UNL A   1      32.549  31.723  27.158  1.00  0.00    -0.269 OA
ATOM      5  C   UNL A   1      33.331  30.861  26.771  1.00  0.00     0.251 C 
ATOM      6  H   UNL A   1      32.214  30.363  25.187  1.00  0.00     0.163 HD
BRANCH   5   7
ATOM      7  C   UNL A   1      34.600  30.635  27.495  1.00  0.00     0.039 A 
ATOM      8  C   UNL A   1      34.881  29.388  28.050  1.00  0.00     0.014 A 
ATOM      9  C   UNL A   1      35.517  31.682  27.629  1.00  0.00     0.014 A 
ATOM     10  C   UNL A   1      35.959  29.245  28.907  1.00  0.00     0.010 A 
ATOM     11  C   UNL A   1      36.682  31.494  28.379  1.00  0.00     0.010 A 
ATOM     12  C   UNL A   1      36.895  30.282  29.054  1.00  0.00    -0.014 A 
BRANCH  12  13
ATOM     13  C   UNL A   1      38.127  30.012  29.835  1.00  0.00     0.031 A 
ATOM     14  C   UNL A   1      38.311  30.531  31.230  1.00  0.00     0.074 A 
ATOM     15  C   UNL A   1      39.067  29.227  29.272  1.00  0.00     0.049 A 
ATOM     16  N   UNL A   1      39.298  30.310  32.062  1.00  0.00    -0.248 NA
ATOM     17  C   UNL A   1      37.266  31.416  31.763  1.00  0.00     0.031 C 
ATOM     18  C   UNL A   1      38.994  28.683  27.913  1.00  0.00     0.029 A 
ATOM     19  N   UNL A   1      40.237  28.715  29.769  1.00  0.00    -0.354 N 
ATOM     20  C   UNL A   1      39.004  31.039  33.206  1.00  0.00     0.074 A 
ATOM     21  C   UNL A   1      37.760  31.734  32.953  1.00  0.00     0.031 C 
ATOM     22  C   UNL A   1      40.021  27.850  27.716  1.00  0.00     0.029 A 
ATOM     23  C   UNL A   1      40.876  27.868  28.897  1.00  0.00     0.049 A 
ATOM     24  H   UNL A   1      40.585  28.934  30.664  1.00  0.00     0.167 HD
ATOM     25  C   UNL A   1      39.709  31.109  34.362  1.00  0.00     0.037 A 
ATOM     26  C   UNL A   1      42.029  27.187  29.022  1.00  0.00     0.037 A 
ATOM     27  C   UNL A   1      40.941  30.398  34.600  1.00  0.00     0.049 A 
ATOM     28  C   UNL A   1      42.804  27.304  30.298  1.00  0.00     0.074 A 
ATOM     29  C   UNL A   1      41.708  30.371  35.750  1.00  0.00     0.029 A 
ATOM     30  N   UNL A   1      41.588  29.595  33.670  1.00  0.00    -0.354 N 
ATOM     31  N   UNL A   1      42.497  27.970  31.385  1.00  0.00    -0.248 NA
ATOM     32  C   UNL A   1      44.082  26.587  30.368  1.00  0.00     0.031 C 
ATOM     33  C   UNL A   1      42.852  29.610  35.495  1.00  0.00     0.029 A 
ATOM     34  C   UNL A   1      42.766  29.100  34.210  1.00  0.00     0.049 A 
ATOM     35  H   UNL A   1      41.261  29.407  32.760  1.00  0.00     0.167 HD
ATOM     36  C   UNL A   1      43.537  27.745  32.275  1.00  0.00     0.074 A 
ATOM     37  C   UNL A   1      44.476  26.868  31.604  1.00  0.00     0.031 C 
ATOM     38  C   UNL A   1      43.693  28.226  33.532  1.00  0.00     0.037 A 
BRANCH  25  39
ATOM     39  C   UNL A   1      39.185  31.995  35.457  1.00  0.00     0.064 A 
ATOM     40  C   UNL A   1      39.534  33.355  35.498  1.00  0.00     0.173 A 
ATOM     41  C   UNL A   1      38.397  31.494  36.505  1.00  0.00     0.173 A 
ATOM     42  F   UNL A   1      40.293  33.887  34.528  1.00  0.00    -0.203 F 
ATOM     43  C   UNL A   1      39.125  34.173  36.548  1.00  0.00     0.198 A 
ATOM     44  C   UNL A   1      37.962  32.323  37.537  1.00  0.00     0.198 A 
ATOM     45  F   UNL A   1      38.028  30.204  36.514  1.00  0.00    -0.203 F 
ATOM     46  F   UNL A   1      39.502  35.459  36.580  1.00  0.00    -0.200 F 
ATOM     47  C   UNL A   1      38.334  33.658  37.563  1.00  0.00     0.200 A 
ATOM     48  F   UNL A   1      37.176  31.829  38.503  1.00  0.00    -0.200 F 
ATOM     49  F   UNL A   1      37.927  34.450  38.564  1.00  0.00    -0.200 F 
ENDBRANCH  25  39
BRANCH  26  50
ATOM     50  C   UNL A   1      42.481  26.334  27.894  1.00  0.00     0.064 A 
ATOM     51  C   UNL A   1      43.367  26.824  26.921  1.00  0.00     0.173 A 
ATOM     52  C   UNL A   1      41.951  25.050  27.706  1.00  0.00     0.173 A 
ATOM     53  F   UNL A   1      43.889  28.054  27.048  1.00  0.00    -0.203 F 
ATOM     54  C   UNL A   1      43.668  26.083  25.782  1.00  0.00     0.198 A 
ATOM     55  C   UNL A   1      42.280  24.296  26.582  1.00  0.00     0.198 A 
ATOM     56  F   UNL A   1      41.111  24.534  28.614  1.00  0.00    -0.203 F 
ATOM     57  F   UNL A   1      44.461  26.605  24.837  1.00  0.00    -0.200 F 
ATOM     58  C   UNL A   1      43.125  24.819  25.614  1.00  0.00     0.200 A 
ATOM     59  F   UNL A   1      41.766  23.068  26.428  1.00  0.00    -0.200 F 
ATOM     60  F   UNL A   1      43.409  24.108  24.514  1.00  0.00    -0.200 F 
ENDBRANCH  26  50
BRANCH  38  61
ATOM     61  C   UNL A   1      44.919  27.807  34.290  1.00  0.00     0.064 A 
ATOM     62  C   UNL A   1      44.885  26.675  35.118  1.00  0.00     0.173 A 
ATOM     63  C   UNL A   1      46.089  28.579  34.277  1.00  0.00     0.173 A 
ATOM     64  F   UNL A   1      43.785  25.907  35.170  1.00  0.00    -0.203 F 
ATOM     65  C   UNL A   1      45.969  26.346  35.926  1.00  0.00     0.198 A 
ATOM     66  C   UNL A   1      47.183  28.229  35.064  1.00  0.00     0.198 A 
ATOM     67  F   UNL A   1      46.176  29.661  33.491  1.00  0.00    -0.203 F 
ATOM     68  F   UNL A   1      45.895  25.287  36.744  1.00  0.00    -0.200 F 
ATOM     69  C   UNL A   1      47.117  27.122  35.898  1.00  0.00     0.200 A 
ATOM     70  F   UNL A   1      48.302  28.966  35.019  1.00  0.00    -0.200 F 
ATOM     71  F   UNL A   1      48.160  26.805  36.676  1.00  0.00    -0.200 F 
ENDBRANCH  38  61
ENDBRANCH  12  13
ENDBRANCH   5   7
ENDBRANCH   2   3
ENDBRANCH   1   2
BRANCH   1  72
ATOM     72  C   UNL A   1      32.330  27.984  23.215  1.00  0.00     0.118 C 
BRANCH  72  73
ATOM     73  N   UNL A   1      32.561  27.216  21.998  1.00  0.00    -0.352 N 
ATOM     74  C   UNL A   1      32.954  25.907  21.849  1.00  0.00     0.254 C 
ATOM     75  H   UNL A   1      32.416  27.709  21.158  1.00  0.00     0.163 HD
ATOM     76  O   UNL A   1      33.232  25.462  20.746  1.00  0.00    -0.269 OA
BRANCH  74  77
ATOM     77  C   UNL A   1      32.993  25.044  23.037  1.00  0.00     0.078 A 
ATOM     78  C   UNL A   1      34.203  24.846  23.706  1.00  0.00     0.019 A 
ATOM     79  C   UNL A   1      31.846  24.398  23.470  1.00  0.00     0.173 A 
ATOM     80  C   UNL A   1      34.287  23.905  24.732  1.00  0.00     0.030 A 
ATOM     81  C   UNL A   1      31.937  23.485  24.514  1.00  0.00     0.182 A 
ATOM     82  F   UNL A   1      30.667  24.592  22.860  1.00  0.00    -0.203 F 
ATOM     83  C   UNL A   1      33.164  23.184  25.143  1.00  0.00     0.074 A 
ATOM     84  F   UNL A   1      30.830  22.830  24.909  1.00  0.00    -0.201 F 
BRANCH  83  85
ATOM     85  N   UNL A   1      33.188  22.148  26.097  1.00  0.00    -0.380 N 
ATOM     86  H   UNL A   1      33.088  22.446  27.031  1.00  0.00     0.160 HD
BRANCH  85  87
ATOM     87  C   UNL A   1      33.336  20.707  25.930  1.00  0.00     0.079 C 
ATOM     88  C   UNL A   1      32.593  19.851  24.949  1.00  0.00     0.027 C 
ATOM     89  C   UNL A   1      34.077  20.065  24.797  1.00  0.00     0.027 C 
ENDBRANCH  85  87
ENDBRANCH  83  85
ENDBRANCH  74  77
ENDBRANCH  72  73
ENDBRANCH   1  72
TORSDOF 12
ENDMDL
