MODEL 1
REMARK VINA RESULT:     -11.7      0.000      0.000
REMARK SMILES CCCc1nc(C[N@H+]2CCCC[C@@H]2C(=O)NCCCNC(=O)c2ccc(-c3c4nc(c(-c5c(F)c(F)c(F)c(F)c5F)c5ccc([nH]5)c(-c5c(F)c(F)c(F)c(F)c5F)c5nc(c(-c6c(F)c(F)c(F)c(F)c6F)c6ccc3[nH]6)C=C5)C=C4)cc2)cs1
REMARK SMILES IDX 17 1 16 2 14 3 15 4 13 6 8 7 9 8 10 10 12 11 11 12 7 13 6 14
REMARK SMILES IDX 4 15 5 16 87 17 86 18 3 19 2 20 1 21 18 22 19 23 20 24 21 25
REMARK SMILES IDX 22 27 23 28 24 29 85 30 25 31 84 32 26 33 27 34 28 35 78 36
REMARK SMILES IDX 29 37 83 38 77 39 79 40 30 41 82 42 76 43 75 44 31 46 63 47
REMARK SMILES IDX 43 48 62 49 44 50 47 51 61 52 80 53 45 54 46 55 60 57 81 58
REMARK SMILES IDX 48 59 32 60 33 61 41 62 34 63 35 64 39 65 42 66 36 67 37 68
REMARK SMILES IDX 40 69 38 70 64 71 65 72 73 73 66 74 67 75 71 76 74 77 68 78
REMARK SMILES IDX 69 79 72 80 70 81 49 82 50 83 58 84 51 85 52 86 56 87 59 88
REMARK SMILES IDX 53 89 54 90 57 91 55 92
REMARK H PARENT 16 5 8 9 20 26 79 45 47 56
REMARK Flexibility Score: inf
ROOT
ATOM      1  C   UNL A   1      31.614  30.049  25.747  1.00  0.00     0.118 C 
ENDROOT
BRANCH   1   2
ATOM      2  N   UNL A   1      32.557  30.033  24.641  1.00  0.00    -0.351 N 
ATOM      3  C   UNL A   1      33.137  28.979  23.997  1.00  0.00     0.278 C 
ATOM      4  O   UNL A   1      33.945  29.235  23.099  1.00  0.00    -0.268 OA
ATOM      5  H   UNL A   1      32.818  30.920  24.304  1.00  0.00     0.163 HD
BRANCH   3   6
ATOM      6  C   UNL A   1      32.781  27.517  24.346  1.00  0.00     0.274 C 
ATOM      7  N   UNL A   1      31.351  27.241  24.072  1.00  0.00    -0.320 N 
ATOM      8  C   UNL A   1      30.943  25.892  24.477  1.00  0.00     0.263 C 
ATOM      9  H   UNL A   1      30.849  27.898  24.668  1.00  0.00     0.349 HD
ATOM     10  C   UNL A   1      31.261  25.638  25.951  1.00  0.00     0.062 C 
ATOM     11  C   UNL A   1      33.192  27.210  25.794  1.00  0.00     0.076 C 
ATOM     12  C   UNL A   1      32.747  25.819  26.225  1.00  0.00     0.012 C 
BRANCH   7  13
ATOM     13  C   UNL A   1      30.922  27.561  22.693  1.00  0.00     0.321 C 
BRANCH  13  14
ATOM     14  C   UNL A   1      29.737  28.480  22.597  1.00  0.00     0.106 A 
ATOM     15  C   UNL A   1      28.701  30.251  21.741  1.00  0.00     0.093 A 
ATOM     16  N   UNL A   1      29.835  29.586  21.767  1.00  0.00    -0.240 NA
ATOM     17  S   UNL A   1      27.461  29.613  22.750  1.00  0.00    -0.127 S 
ATOM     18  C   UNL A   1      28.502  28.331  23.200  1.00  0.00     0.096 A 
BRANCH  15  19
ATOM     19  C   UNL A   1      28.419  31.438  20.870  1.00  0.00     0.067 C 
BRANCH  19  20
ATOM     20  C   UNL A   1      28.028  32.703  21.640  1.00  0.00     0.004 C 
ATOM     21  C   UNL A   1      28.978  33.060  22.777  1.00  0.00     0.004 C 
ENDBRANCH  19  20
ENDBRANCH  15  19
ENDBRANCH  13  14
ENDBRANCH   7  13
ENDBRANCH   3   6
ENDBRANCH   1   2
BRANCH   1  22
ATOM     22  C   UNL A   1      31.423  31.459  26.291  1.00  0.00     0.042 C 
BRANCH  22  23
ATOM     23  C   UNL A   1      32.689  32.063  26.880  1.00  0.00     0.118 C 
BRANCH  23  24
ATOM     24  N   UNL A   1      32.515  33.453  27.273  1.00  0.00    -0.352 N 
ATOM     25  C   UNL A   1      33.154  34.169  28.253  1.00  0.00     0.251 C 
ATOM     26  H   UNL A   1      31.839  33.953  26.762  1.00  0.00     0.163 HD
ATOM     27  O   UNL A   1      32.744  35.288  28.561  1.00  0.00    -0.269 OA
BRANCH  25  28
ATOM     28  C   UNL A   1      34.321  33.596  28.956  1.00  0.00     0.039 A 
ATOM     29  C   UNL A   1      34.099  32.718  30.022  1.00  0.00     0.014 A 
ATOM     30  C   UNL A   1      35.625  33.928  28.582  1.00  0.00     0.014 A 
ATOM     31  C   UNL A   1      35.185  32.131  30.672  1.00  0.00     0.010 A 
ATOM     32  C   UNL A   1      36.704  33.281  29.177  1.00  0.00     0.010 A 
ATOM     33  C   UNL A   1      36.496  32.382  30.233  1.00  0.00    -0.014 A 
BRANCH  33  34
ATOM     34  C   UNL A   1      37.661  31.723  30.874  1.00  0.00     0.031 A 
ATOM     35  C   UNL A   1      38.092  32.129  32.256  1.00  0.00     0.074 A 
ATOM     36  C   UNL A   1      38.367  30.804  30.188  1.00  0.00     0.049 A 
ATOM     37  N   UNL A   1      39.119  31.720  32.957  1.00  0.00    -0.248 NA
ATOM     38  C   UNL A   1      37.277  33.153  32.928  1.00  0.00     0.031 C 
ATOM     39  C   UNL A   1      38.078  30.362  28.824  1.00  0.00     0.029 A 
ATOM     40  N   UNL A   1      39.480  30.084  30.543  1.00  0.00    -0.354 N 
ATOM     41  C   UNL A   1      39.082  32.447  34.140  1.00  0.00     0.074 A 
ATOM     42  C   UNL A   1      37.964  33.359  34.041  1.00  0.00     0.031 C 
ATOM     43  C   UNL A   1      38.974  29.429  28.465  1.00  0.00     0.029 A 
ATOM     44  C   UNL A   1      39.921  29.234  29.558  1.00  0.00     0.049 A 
ATOM     45  H   UNL A   1      39.920  30.167  31.420  1.00  0.00     0.167 HD
ATOM     46  C   UNL A   1      39.892  32.344  35.221  1.00  0.00     0.037 A 
ATOM     47  C   UNL A   1      40.975  28.396  29.540  1.00  0.00     0.037 A 
ATOM     48  C   UNL A   1      40.986  31.415  35.327  1.00  0.00     0.049 A 
ATOM     49  C   UNL A   1      41.857  28.298  30.754  1.00  0.00     0.074 A 
ATOM     50  C   UNL A   1      41.826  31.190  36.402  1.00  0.00     0.029 A 
ATOM     51  N   UNL A   1      41.390  30.555  34.316  1.00  0.00    -0.354 N 
ATOM     52  N   UNL A   1      41.772  28.941  31.893  1.00  0.00    -0.248 NA
ATOM     53  C   UNL A   1      42.978  27.350  30.682  1.00  0.00     0.031 C 
ATOM     54  C   UNL A   1      42.766  30.223  36.028  1.00  0.00     0.029 A 
ATOM     55  C   UNL A   1      42.481  29.811  34.737  1.00  0.00     0.049 A 
ATOM     56  H   UNL A   1      40.965  30.484  33.431  1.00  0.00     0.167 HD
ATOM     57  C   UNL A   1      42.808  28.459  32.682  1.00  0.00     0.074 A 
ATOM     58  C   UNL A   1      43.500  27.458  31.896  1.00  0.00     0.031 C 
ATOM     59  C   UNL A   1      43.154  28.815  33.944  1.00  0.00     0.037 A 
BRANCH  46  60
ATOM     60  C   UNL A   1      39.621  33.261  36.378  1.00  0.00     0.064 A 
ATOM     61  C   UNL A   1      38.765  32.888  37.427  1.00  0.00     0.173 A 
ATOM     62  C   UNL A   1      40.244  34.515  36.455  1.00  0.00     0.173 A 
ATOM     63  F   UNL A   1      38.136  31.704  37.396  1.00  0.00    -0.203 F 
ATOM     64  C   UNL A   1      38.520  33.750  38.493  1.00  0.00     0.198 A 
ATOM     65  C   UNL A   1      40.020  35.363  37.538  1.00  0.00     0.198 A 
ATOM     66  F   UNL A   1      41.075  34.919  35.482  1.00  0.00    -0.203 F 
ATOM     67  F   UNL A   1      37.659  33.393  39.456  1.00  0.00    -0.200 F 
ATOM     68  C   UNL A   1      39.152  34.983  38.551  1.00  0.00     0.200 A 
ATOM     69  F   UNL A   1      40.641  36.548  37.599  1.00  0.00    -0.200 F 
ATOM     70  F   UNL A   1      38.919  35.809  39.580  1.00  0.00    -0.200 F 
ENDBRANCH  46  60
BRANCH  47  71
ATOM     71  C   UNL A   1      41.233  27.559  28.339  1.00  0.00     0.064 A 
ATOM     72  C   UNL A   1      40.594  26.322  28.177  1.00  0.00     0.173 A 
ATOM     73  C   UNL A   1      42.117  27.975  27.333  1.00  0.00     0.173 A 
ATOM     74  F   UNL A   1      39.756  25.873  29.123  1.00  0.00    -0.203 F 
ATOM     75  C   UNL A   1      40.842  25.525  27.061  1.00  0.00     0.198 A 
ATOM     76  C   UNL A   1      42.343  27.190  26.205  1.00  0.00     0.198 A 
ATOM     77  F   UNL A   1      42.749  29.153  27.440  1.00  0.00    -0.203 F 
ATOM     78  F   UNL A   1      40.250  24.328  26.952  1.00  0.00    -0.200 F 
ATOM     79  C   UNL A   1      41.712  25.961  26.074  1.00  0.00     0.200 A 
ATOM     80  F   UNL A   1      43.174  27.621  25.246  1.00  0.00    -0.200 F 
ATOM     81  F   UNL A   1      41.946  25.197  24.999  1.00  0.00    -0.200 F 
ENDBRANCH  47  71
BRANCH  59  82
ATOM     82  C   UNL A   1      44.314  28.093  34.565  1.00  0.00     0.064 A 
ATOM     83  C   UNL A   1      45.620  28.600  34.493  1.00  0.00     0.173 A 
ATOM     84  C   UNL A   1      44.110  26.898  35.270  1.00  0.00     0.173 A 
ATOM     85  F   UNL A   1      45.869  29.730  33.815  1.00  0.00    -0.203 F 
ATOM     86  C   UNL A   1      46.683  27.922  35.084  1.00  0.00     0.198 A 
ATOM     87  C   UNL A   1      45.170  26.238  35.886  1.00  0.00     0.198 A 
ATOM     88  F   UNL A   1      42.879  26.375  35.374  1.00  0.00    -0.203 F 
ATOM     89  F   UNL A   1      47.929  28.399  34.963  1.00  0.00    -0.200 F 
ATOM     90  C   UNL A   1      46.457  26.747  35.785  1.00  0.00     0.200 A 
ATOM     91  F   UNL A   1      44.948  25.110  36.574  1.00  0.00    -0.200 F 
ATOM     92  F   UNL A   1      47.480  26.100  36.359  1.00  0.00    -0.200 F 
ENDBRANCH  59  82
ENDBRANCH  33  34
ENDBRANCH  25  28
ENDBRANCH  23  24
ENDBRANCH  22  23
ENDBRANCH   1  22
TORSDOF 14
ENDMDL
MODEL 2
REMARK VINA RESULT:     -11.7      0.591      7.417
REMARK SMILES CCCc1nc(C[N@H+]2CCCC[C@@H]2C(=O)NCCCNC(=O)c2ccc(-c3c4nc(c(-c5c(F)c(F)c(F)c(F)c5F)c5ccc([nH]5)c(-c5c(F)c(F)c(F)c(F)c5F)c5nc(c(-c6c(F)c(F)c(F)c(F)c6F)c6ccc3[nH]6)C=C5)C=C4)cc2)cs1
REMARK SMILES IDX 17 1 16 2 14 3 15 4 13 6 8 7 9 8 10 10 12 11 11 12 7 13 6 14
REMARK SMILES IDX 4 15 5 16 87 17 86 18 3 19 2 20 1 21 18 22 19 23 20 24 21 25
REMARK SMILES IDX 22 27 23 28 24 29 85 30 25 31 84 32 26 33 27 34 28 35 78 36
REMARK SMILES IDX 29 37 83 38 77 39 79 40 30 41 82 42 76 43 75 44 31 46 63 47
REMARK SMILES IDX 43 48 62 49 44 50 47 51 61 52 80 53 45 54 46 55 60 57 81 58
REMARK SMILES IDX 48 59 32 60 33 61 41 62 34 63 35 64 39 65 42 66 36 67 37 68
REMARK SMILES IDX 40 69 38 70 64 71 65 72 73 73 66 74 67 75 71 76 74 77 68 78
REMARK SMILES IDX 69 79 72 80 70 81 49 82 50 83 58 84 51 85 52 86 56 87 59 88
REMARK SMILES IDX 53 89 54 90 57 91 55 92
REMARK H PARENT 16 5 8 9 20 26 79 45 47 56
REMARK Flexibility Score: inf
ROOT
ATOM      1  C   UNL A   1      31.715  29.960  25.792  1.00  0.00     0.118 C 
ENDROOT
BRANCH   1   2
ATOM      2  N   UNL A   1      32.657  29.988  24.685  1.00  0.00    -0.351 N 
ATOM      3  C   UNL A   1      33.250  28.961  24.010  1.00  0.00     0.278 C 
ATOM      4  O   UNL A   1      34.053  29.254  23.119  1.00  0.00    -0.268 OA
ATOM      5  H   UNL A   1      32.904  30.888  24.372  1.00  0.00     0.163 HD
BRANCH   3   6
ATOM      6  C   UNL A   1      32.916  27.485  24.318  1.00  0.00     0.274 C 
ATOM      7  N   UNL A   1      31.489  27.197  24.038  1.00  0.00    -0.320 N 
ATOM      8  C   UNL A   1      31.101  25.831  24.405  1.00  0.00     0.263 C 
ATOM      9  H   UNL A   1      30.979  27.829  24.653  1.00  0.00     0.349 HD
ATOM     10  C   UNL A   1      31.424  25.541  25.871  1.00  0.00     0.062 C 
ATOM     11  C   UNL A   1      33.333  27.144  25.756  1.00  0.00     0.076 C 
ATOM     12  C   UNL A   1      32.909  25.735  26.149  1.00  0.00     0.012 C 
BRANCH   7  13
ATOM     13  C   UNL A   1      31.054  27.550  22.669  1.00  0.00     0.321 C 
BRANCH  13  14
ATOM     14  C   UNL A   1      29.839  28.432  22.600  1.00  0.00     0.106 A 
ATOM     15  C   UNL A   1      28.733  30.175  21.774  1.00  0.00     0.093 A 
ATOM     16  N   UNL A   1      29.887  29.546  21.775  1.00  0.00    -0.240 NA
ATOM     17  S   UNL A   1      27.533  29.494  22.801  1.00  0.00    -0.127 S 
ATOM     18  C   UNL A   1      28.620  28.242  23.225  1.00  0.00     0.096 A 
BRANCH  15  19
ATOM     19  C   UNL A   1      28.400  31.358  20.916  1.00  0.00     0.067 C 
BRANCH  19  20
ATOM     20  C   UNL A   1      28.010  32.613  21.701  1.00  0.00     0.004 C 
ATOM     21  C   UNL A   1      28.941  32.938  22.863  1.00  0.00     0.004 C 
ENDBRANCH  19  20
ENDBRANCH  15  19
ENDBRANCH  13  14
ENDBRANCH   7  13
ENDBRANCH   3   6
ENDBRANCH   1   2
BRANCH   1  22
ATOM     22  C   UNL A   1      31.417  31.364  26.302  1.00  0.00     0.042 C 
BRANCH  22  23
ATOM     23  C   UNL A   1      32.621  32.054  26.928  1.00  0.00     0.118 C 
BRANCH  23  24
ATOM     24  N   UNL A   1      32.362  33.450  27.246  1.00  0.00    -0.352 N 
ATOM     25  C   UNL A   1      32.960  34.258  28.179  1.00  0.00     0.251 C 
ATOM     26  H   UNL A   1      31.653  33.878  26.713  1.00  0.00     0.163 HD
ATOM     27  O   UNL A   1      32.482  35.364  28.430  1.00  0.00    -0.269 OA
BRANCH  25  28
ATOM     28  C   UNL A   1      34.163  33.797  28.903  1.00  0.00     0.039 A 
ATOM     29  C   UNL A   1      34.015  32.849  29.920  1.00  0.00     0.014 A 
ATOM     30  C   UNL A   1      35.428  34.304  28.597  1.00  0.00     0.014 A 
ATOM     31  C   UNL A   1      35.143  32.368  30.587  1.00  0.00     0.010 A 
ATOM     32  C   UNL A   1      36.558  33.765  29.205  1.00  0.00     0.010 A 
ATOM     33  C   UNL A   1      36.426  32.798  30.213  1.00  0.00    -0.014 A 
BRANCH  33  34
ATOM     34  C   UNL A   1      37.641  32.256  30.871  1.00  0.00     0.031 A 
ATOM     35  C   UNL A   1      38.462  31.199  30.187  1.00  0.00     0.074 A 
ATOM     36  C   UNL A   1      37.970  32.673  32.109  1.00  0.00     0.049 A 
ATOM     37  N   UNL A   1      39.516  30.556  30.624  1.00  0.00    -0.248 NA
ATOM     38  C   UNL A   1      38.023  30.787  28.845  1.00  0.00     0.031 C 
ATOM     39  C   UNL A   1      37.226  33.657  32.895  1.00  0.00     0.029 A 
ATOM     40  N   UNL A   1      39.011  32.312  32.927  1.00  0.00    -0.354 N 
ATOM     41  C   UNL A   1      39.853  29.657  29.621  1.00  0.00     0.074 A 
ATOM     42  C   UNL A   1      38.862  29.799  28.577  1.00  0.00     0.031 C 
ATOM     43  C   UNL A   1      37.846  33.840  34.071  1.00  0.00     0.029 A 
ATOM     44  C   UNL A   1      39.009  32.961  34.137  1.00  0.00     0.049 A 
ATOM     45  H   UNL A   1      39.694  31.650  32.671  1.00  0.00     0.167 HD
ATOM     46  C   UNL A   1      40.907  28.808  29.566  1.00  0.00     0.037 A 
ATOM     47  C   UNL A   1      39.851  32.854  35.183  1.00  0.00     0.037 A 
ATOM     48  C   UNL A   1      41.906  28.692  30.595  1.00  0.00     0.049 A 
ATOM     49  C   UNL A   1      41.016  31.908  35.095  1.00  0.00     0.074 A 
ATOM     50  C   UNL A   1      43.046  27.908  30.606  1.00  0.00     0.029 A 
ATOM     51  N   UNL A   1      41.883  29.382  31.798  1.00  0.00    -0.354 N 
ATOM     52  N   UNL A   1      41.363  31.111  34.114  1.00  0.00    -0.248 NA
ATOM     53  C   UNL A   1      41.911  31.850  36.260  1.00  0.00     0.031 C 
ATOM     54  C   UNL A   1      43.691  28.091  31.834  1.00  0.00     0.029 A 
ATOM     55  C   UNL A   1      42.979  29.026  32.568  1.00  0.00     0.049 A 
ATOM     56  H   UNL A   1      41.190  30.028  32.066  1.00  0.00     0.167 HD
ATOM     57  C   UNL A   1      42.528  30.480  34.528  1.00  0.00     0.074 A 
ATOM     58  C   UNL A   1      42.837  30.997  35.845  1.00  0.00     0.031 C 
ATOM     59  C   UNL A   1      43.274  29.554  33.875  1.00  0.00     0.037 A 
BRANCH  46  60
ATOM     60  C   UNL A   1      41.034  27.941  28.348  1.00  0.00     0.064 A 
ATOM     61  C   UNL A   1      41.780  28.348  27.230  1.00  0.00     0.173 A 
ATOM     62  C   UNL A   1      40.426  26.678  28.305  1.00  0.00     0.173 A 
ATOM     63  F   UNL A   1      42.371  29.552  27.214  1.00  0.00    -0.203 F 
ATOM     64  C   UNL A   1      41.886  27.535  26.104  1.00  0.00     0.198 A 
ATOM     65  C   UNL A   1      40.560  25.854  27.190  1.00  0.00     0.198 A 
ATOM     66  F   UNL A   1      39.706  26.238  29.348  1.00  0.00    -0.203 F 
ATOM     67  F   UNL A   1      42.561  27.966  25.030  1.00  0.00    -0.200 F 
ATOM     68  C   UNL A   1      41.282  26.286  26.087  1.00  0.00     0.200 A 
ATOM     69  F   UNL A   1      39.987  24.643  27.180  1.00  0.00    -0.200 F 
ATOM     70  F   UNL A   1      41.391  25.503  25.006  1.00  0.00    -0.200 F 
ENDBRANCH  46  60
BRANCH  47  71
ATOM     71  C   UNL A   1      39.638  33.692  36.392  1.00  0.00     0.064 A 
ATOM     72  C   UNL A   1      38.832  33.240  37.445  1.00  0.00     0.173 A 
ATOM     73  C   UNL A   1      40.234  34.955  36.520  1.00  0.00     0.173 A 
ATOM     74  F   UNL A   1      38.224  32.047  37.358  1.00  0.00    -0.203 F 
ATOM     75  C   UNL A   1      38.615  34.027  38.575  1.00  0.00     0.198 A 
ATOM     76  C   UNL A   1      40.039  35.729  37.662  1.00  0.00     0.198 A 
ATOM     77  F   UNL A   1      41.018  35.430  35.542  1.00  0.00    -0.203 F 
ATOM     78  F   UNL A   1      37.807  33.588  39.549  1.00  0.00    -0.200 F 
ATOM     79  C   UNL A   1      39.223  35.268  38.685  1.00  0.00     0.200 A 
ATOM     80  F   UNL A   1      40.639  36.923  37.771  1.00  0.00    -0.200 F 
ATOM     81  F   UNL A   1      39.019  36.021  39.774  1.00  0.00    -0.200 F 
ENDBRANCH  47  71
BRANCH  59  82
ATOM     82  C   UNL A   1      44.515  29.066  34.563  1.00  0.00     0.064 A 
ATOM     83  C   UNL A   1      45.746  29.722  34.413  1.00  0.00     0.173 A 
ATOM     84  C   UNL A   1      44.464  27.950  35.411  1.00  0.00     0.173 A 
ATOM     85  F   UNL A   1      45.850  30.785  33.600  1.00  0.00    -0.203 F 
ATOM     86  C   UNL A   1      46.885  29.262  35.067  1.00  0.00     0.198 A 
ATOM     87  C   UNL A   1      45.599  27.510  36.086  1.00  0.00     0.198 A 
ATOM     88  F   UNL A   1      43.309  27.291  35.593  1.00  0.00    -0.203 F 
ATOM     89  F   UNL A   1      48.061  29.875  34.872  1.00  0.00    -0.200 F 
ATOM     90  C   UNL A   1      46.810  28.162  35.908  1.00  0.00     0.200 A 
ATOM     91  F   UNL A   1      45.520  26.454  36.909  1.00  0.00    -0.200 F 
ATOM     92  F   UNL A   1      47.906  27.723  36.541  1.00  0.00    -0.200 F 
ENDBRANCH  59  82
ENDBRANCH  33  34
ENDBRANCH  25  28
ENDBRANCH  23  24
ENDBRANCH  22  23
ENDBRANCH   1  22
TORSDOF 14
ENDMDL
MODEL 3
REMARK VINA RESULT:     -11.7      0.516      7.496
REMARK SMILES CCCc1nc(C[N@H+]2CCCC[C@@H]2C(=O)NCCCNC(=O)c2ccc(-c3c4nc(c(-c5c(F)c(F)c(F)c(F)c5F)c5ccc([nH]5)c(-c5c(F)c(F)c(F)c(F)c5F)c5nc(c(-c6c(F)c(F)c(F)c(F)c6F)c6ccc3[nH]6)C=C5)C=C4)cc2)cs1
REMARK SMILES IDX 17 1 16 2 14 3 15 4 13 6 8 7 9 8 10 10 12 11 11 12 7 13 6 14
REMARK SMILES IDX 4 15 5 16 87 17 86 18 3 19 2 20 1 21 18 22 19 23 20 24 21 25
REMARK SMILES IDX 22 27 23 28 24 29 85 30 25 31 84 32 26 33 27 34 28 35 78 36
REMARK SMILES IDX 29 37 83 38 77 39 79 40 30 41 82 42 76 43 75 44 31 46 63 47
REMARK SMILES IDX 43 48 62 49 44 50 47 51 61 52 80 53 45 54 46 55 60 57 81 58
REMARK SMILES IDX 48 59 32 60 33 61 41 62 34 63 35 64 39 65 42 66 36 67 37 68
REMARK SMILES IDX 40 69 38 70 64 71 65 72 73 73 66 74 67 75 71 76 74 77 68 78
REMARK SMILES IDX 69 79 72 80 70 81 49 82 50 83 58 84 51 85 52 86 56 87 59 88
REMARK SMILES IDX 53 89 54 90 57 91 55 92
REMARK H PARENT 16 5 8 9 20 26 79 45 47 56
REMARK Flexibility Score: inf
ROOT
ATOM      1  C   UNL A   1      31.806  29.926  25.920  1.00  0.00     0.118 C 
ENDROOT
BRANCH   1   2
ATOM      2  N   UNL A   1      32.698  29.949  24.773  1.00  0.00    -0.351 N 
ATOM      3  C   UNL A   1      33.210  28.919  24.039  1.00  0.00     0.278 C 
ATOM      4  O   UNL A   1      33.986  29.204  23.122  1.00  0.00    -0.268 OA
ATOM      5  H   UNL A   1      32.975  30.846  24.479  1.00  0.00     0.163 HD
BRANCH   3   6
ATOM      6  C   UNL A   1      32.817  27.451  24.313  1.00  0.00     0.274 C 
ATOM      7  N   UNL A   1      31.388  27.218  23.996  1.00  0.00    -0.320 N 
ATOM      8  C   UNL A   1      30.944  25.860  24.331  1.00  0.00     0.263 C 
ATOM      9  H   UNL A   1      30.886  27.857  24.611  1.00  0.00     0.349 HD
ATOM     10  C   UNL A   1      31.223  25.534  25.798  1.00  0.00     0.062 C 
ATOM     11  C   UNL A   1      33.189  27.070  25.754  1.00  0.00     0.076 C 
ATOM     12  C   UNL A   1      32.707  25.671  26.112  1.00  0.00     0.012 C 
BRANCH   7  13
ATOM     13  C   UNL A   1      30.996  27.609  22.625  1.00  0.00     0.321 C 
BRANCH  13  14
ATOM     14  C   UNL A   1      29.793  28.505  22.542  1.00  0.00     0.106 A 
ATOM     15  C   UNL A   1      28.712  30.254  21.697  1.00  0.00     0.093 A 
ATOM     16  N   UNL A   1      29.859  29.611  21.709  1.00  0.00    -0.240 NA
ATOM     17  S   UNL A   1      27.498  29.595  22.723  1.00  0.00    -0.127 S 
ATOM     18  C   UNL A   1      28.569  28.334  23.162  1.00  0.00     0.096 A 
BRANCH  15  19
ATOM     19  C   UNL A   1      28.397  31.434  20.827  1.00  0.00     0.067 C 
BRANCH  19  20
ATOM     20  C   UNL A   1      28.027  32.703  21.601  1.00  0.00     0.004 C 
ATOM     21  C   UNL A   1      28.932  32.994  22.792  1.00  0.00     0.004 C 
ENDBRANCH  19  20
ENDBRANCH  15  19
ENDBRANCH  13  14
ENDBRANCH   7  13
ENDBRANCH   3   6
ENDBRANCH   1   2
BRANCH   1  22
ATOM     22  C   UNL A   1      31.518  31.334  26.426  1.00  0.00     0.042 C 
BRANCH  22  23
ATOM     23  C   UNL A   1      32.754  32.068  26.927  1.00  0.00     0.118 C 
BRANCH  23  24
ATOM     24  N   UNL A   1      32.476  33.450  27.288  1.00  0.00    -0.352 N 
ATOM     25  C   UNL A   1      33.037  34.224  28.271  1.00  0.00     0.251 C 
ATOM     26  H   UNL A   1      31.784  33.895  26.747  1.00  0.00     0.163 HD
ATOM     27  O   UNL A   1      32.545  35.318  28.545  1.00  0.00    -0.269 OA
BRANCH  25  28
ATOM     28  C   UNL A   1      34.217  33.743  29.018  1.00  0.00     0.039 A 
ATOM     29  C   UNL A   1      34.031  32.806  30.039  1.00  0.00     0.014 A 
ATOM     30  C   UNL A   1      35.499  34.219  28.730  1.00  0.00     0.014 A 
ATOM     31  C   UNL A   1      35.135  32.304  30.729  1.00  0.00     0.010 A 
ATOM     32  C   UNL A   1      36.606  33.659  29.362  1.00  0.00     0.010 A 
ATOM     33  C   UNL A   1      36.434  32.702  30.374  1.00  0.00    -0.014 A 
BRANCH  33  34
ATOM     34  C   UNL A   1      37.626  32.138  31.057  1.00  0.00     0.031 A 
ATOM     35  C   UNL A   1      38.436  31.061  30.393  1.00  0.00     0.074 A 
ATOM     36  C   UNL A   1      37.940  32.554  32.298  1.00  0.00     0.049 A 
ATOM     37  N   UNL A   1      39.468  30.398  30.852  1.00  0.00    -0.248 NA
ATOM     38  C   UNL A   1      38.014  30.652  29.045  1.00  0.00     0.031 C 
ATOM     39  C   UNL A   1      37.203  33.557  33.066  1.00  0.00     0.029 A 
ATOM     40  N   UNL A   1      38.959  32.175  33.137  1.00  0.00    -0.354 N 
ATOM     41  C   UNL A   1      39.804  29.487  29.859  1.00  0.00     0.074 A 
ATOM     42  C   UNL A   1      38.836  29.644  28.796  1.00  0.00     0.031 C 
ATOM     43  C   UNL A   1      37.806  33.733  34.253  1.00  0.00     0.029 A 
ATOM     44  C   UNL A   1      38.949  32.830  34.344  1.00  0.00     0.049 A 
ATOM     45  H   UNL A   1      39.632  31.498  32.897  1.00  0.00     0.167 HD
ATOM     46  C   UNL A   1      40.841  28.616  29.827  1.00  0.00     0.037 A 
ATOM     47  C   UNL A   1      39.768  32.711  35.406  1.00  0.00     0.037 A 
ATOM     48  C   UNL A   1      41.819  28.484  30.875  1.00  0.00     0.049 A 
ATOM     49  C   UNL A   1      40.914  31.739  35.343  1.00  0.00     0.074 A 
ATOM     50  C   UNL A   1      42.942  27.676  30.911  1.00  0.00     0.029 A 
ATOM     51  N   UNL A   1      41.788  29.180  32.074  1.00  0.00    -0.354 N 
ATOM     52  N   UNL A   1      41.263  30.931  34.372  1.00  0.00    -0.248 NA
ATOM     53  C   UNL A   1      41.787  31.669  36.524  1.00  0.00     0.031 C 
ATOM     54  C   UNL A   1      43.567  27.852  32.150  1.00  0.00     0.029 A 
ATOM     55  C   UNL A   1      42.862  28.805  32.866  1.00  0.00     0.049 A 
ATOM     56  H   UNL A   1      41.104  29.841  32.326  1.00  0.00     0.167 HD
ATOM     57  C   UNL A   1      42.406  30.278  34.811  1.00  0.00     0.074 A 
ATOM     58  C   UNL A   1      42.702  30.794  36.131  1.00  0.00     0.031 C 
ATOM     59  C   UNL A   1      43.144  29.333  34.176  1.00  0.00     0.037 A 
BRANCH  46  60
ATOM     60  C   UNL A   1      40.972  27.741  28.615  1.00  0.00     0.064 A 
ATOM     61  C   UNL A   1      40.261  26.535  28.499  1.00  0.00     0.173 A 
ATOM     62  C   UNL A   1      41.795  28.121  27.546  1.00  0.00     0.173 A 
ATOM     63  F   UNL A   1      39.470  26.119  29.499  1.00  0.00    -0.203 F 
ATOM     64  C   UNL A   1      40.394  25.730  27.371  1.00  0.00     0.198 A 
ATOM     65  C   UNL A   1      41.902  27.329  26.405  1.00  0.00     0.198 A 
ATOM     66  F   UNL A   1      42.492  29.267  27.602  1.00  0.00    -0.203 F 
ATOM     67  F   UNL A   1      39.746  24.559  27.305  1.00  0.00    -0.200 F 
ATOM     68  C   UNL A   1      41.209  26.131  26.322  1.00  0.00     0.200 A 
ATOM     69  F   UNL A   1      42.679  27.723  25.388  1.00  0.00    -0.200 F 
ATOM     70  F   UNL A   1      41.332  25.358  25.234  1.00  0.00    -0.200 F 
ENDBRANCH  46  60
BRANCH  47  71
ATOM     71  C   UNL A   1      39.551  33.559  36.607  1.00  0.00     0.064 A 
ATOM     72  C   UNL A   1      40.098  34.847  36.683  1.00  0.00     0.173 A 
ATOM     73  C   UNL A   1      38.794  33.105  37.696  1.00  0.00     0.173 A 
ATOM     74  F   UNL A   1      40.847  35.317  35.674  1.00  0.00    -0.203 F 
ATOM     75  C   UNL A   1      39.912  35.642  37.812  1.00  0.00     0.198 A 
ATOM     76  C   UNL A   1      38.585  33.912  38.812  1.00  0.00     0.198 A 
ATOM     77  F   UNL A   1      38.245  31.882  37.669  1.00  0.00    -0.203 F 
ATOM     78  F   UNL A   1      40.481  36.853  37.876  1.00  0.00    -0.200 F 
ATOM     79  C   UNL A   1      39.151  35.177  38.873  1.00  0.00     0.200 A 
ATOM     80  F   UNL A   1      37.837  33.464  39.830  1.00  0.00    -0.200 F 
ATOM     81  F   UNL A   1      38.967  35.944  39.955  1.00  0.00    -0.200 F 
ENDBRANCH  47  71
BRANCH  59  82
ATOM     82  C   UNL A   1      44.362  28.823  34.889  1.00  0.00     0.064 A 
ATOM     83  C   UNL A   1      44.302  27.717  35.749  1.00  0.00     0.173 A 
ATOM     84  C   UNL A   1      45.611  29.426  34.680  1.00  0.00     0.173 A 
ATOM     85  F   UNL A   1      43.127  27.116  35.994  1.00  0.00    -0.203 F 
ATOM     86  C   UNL A   1      45.444  27.249  36.394  1.00  0.00     0.198 A 
ATOM     87  C   UNL A   1      46.756  28.938  35.303  1.00  0.00     0.198 A 
ATOM     88  F   UNL A   1      45.724  30.483  33.861  1.00  0.00    -0.203 F 
ATOM     89  F   UNL A   1      45.355  26.221  37.248  1.00  0.00    -0.200 F 
ATOM     90  C   UNL A   1      46.670  27.855  36.165  1.00  0.00     0.200 A 
ATOM     91  F   UNL A   1      47.943  29.517  35.071  1.00  0.00    -0.200 F 
ATOM     92  F   UNL A   1      47.769  27.401  36.782  1.00  0.00    -0.200 F 
ENDBRANCH  59  82
ENDBRANCH  33  34
ENDBRANCH  25  28
ENDBRANCH  23  24
ENDBRANCH  22  23
ENDBRANCH   1  22
TORSDOF 14
ENDMDL
