MODEL 1
REMARK VINA RESULT:     -12.6      0.000      0.000
REMARK SMILES CCN(CC)c1ccc(NC(=O)c2ccc(OC)cc2)cc1C(=O)NCCCNC(=O)c1ccc(-c2c3nc(c(-c4c(F)c(F)c(F)c(F)c4F)c4ccc([nH]4)c(-c4c(F)c(F)c(F)c(F)c4F)c4nc(c(-c5c(F)c(F)c(F)c(F)c5F)c5ccc2[nH]5)C=C4)C=C3)cc1
REMARK SMILES IDX 26 1 25 2 23 3 24 4 22 6 6 7 7 8 8 9 21 10 9 11 3 12 2 13
REMARK SMILES IDX 1 14 4 15 5 16 10 17 11 18 12 20 13 21 14 22 20 23 15 24
REMARK SMILES IDX 19 25 16 26 17 27 18 28 27 29 28 30 29 31 30 32 31 34 32 35
REMARK SMILES IDX 33 36 94 37 34 38 93 39 35 40 36 41 37 42 87 43 38 44 92 45
REMARK SMILES IDX 86 46 88 47 39 48 91 49 85 50 84 51 40 53 72 54 52 55 71 56
REMARK SMILES IDX 53 57 56 58 70 59 89 60 54 61 55 62 69 64 90 65 57 66 41 67
REMARK SMILES IDX 42 68 50 69 43 70 44 71 48 72 51 73 45 74 46 75 49 76 47 77
REMARK SMILES IDX 73 78 74 79 82 80 75 81 76 82 80 83 83 84 77 85 78 86 81 87
REMARK SMILES IDX 79 88 58 89 59 90 67 91 60 92 61 93 65 94 68 95 62 96 63 97
REMARK SMILES IDX 66 98 64 99
REMARK H PARENT 25 5 10 19 29 33 88 52 56 63
REMARK Flexibility Score: inf
ROOT
ATOM      1  C   UNL A   1      32.303  27.981  26.997  1.00  0.00     0.118 C 
ENDROOT
BRANCH   1   2
ATOM      2  N   UNL A   1      31.317  26.930  27.072  1.00  0.00    -0.352 N 
ATOM      3  C   UNL A   1      31.067  25.944  26.142  1.00  0.00     0.253 C 
ATOM      4  O   UNL A   1      30.273  25.054  26.452  1.00  0.00    -0.269 OA
ATOM      5  H   UNL A   1      30.759  26.915  27.882  1.00  0.00     0.163 HD
BRANCH   3   6
ATOM      6  C   UNL A   1      31.609  25.994  24.746  1.00  0.00     0.065 A 
ATOM      7  C   UNL A   1      31.046  26.671  23.640  1.00  0.00     0.050 A 
ATOM      8  C   UNL A   1      31.471  26.223  22.385  1.00  0.00     0.029 A 
ATOM      9  C   UNL A   1      32.519  25.322  22.225  1.00  0.00     0.028 A 
ATOM     10  C   UNL A   1      32.774  25.196  24.570  1.00  0.00     0.042 A 
ATOM     11  C   UNL A   1      33.292  24.943  23.304  1.00  0.00     0.042 A 
BRANCH   7  12
ATOM     12  N   UNL A   1      30.158  27.744  23.694  1.00  0.00    -0.371 N 
BRANCH  12  13
ATOM     13  C   UNL A   1      30.685  29.124  23.683  1.00  0.00     0.113 C 
ATOM     14  C   UNL A   1      29.640  30.211  23.497  1.00  0.00     0.027 C 
ENDBRANCH  12  13
BRANCH  12  15
ATOM     15  C   UNL A   1      28.745  27.566  23.290  1.00  0.00     0.113 C 
ATOM     16  C   UNL A   1      27.968  26.537  24.097  1.00  0.00     0.027 C 
ENDBRANCH  12  15
ENDBRANCH   7  12
BRANCH  11  17
ATOM     17  N   UNL A   1      34.557  24.332  23.187  1.00  0.00    -0.322 N 
ATOM     18  C   UNL A   1      35.012  23.088  23.597  1.00  0.00     0.255 C 
ATOM     19  H   UNL A   1      35.236  24.885  22.737  1.00  0.00     0.170 HD
ATOM     20  O   UNL A   1      36.197  22.785  23.470  1.00  0.00    -0.269 OA
BRANCH  18  21
ATOM     21  C   UNL A   1      34.091  22.091  24.185  1.00  0.00     0.040 A 
ATOM     22  C   UNL A   1      33.160  21.476  23.344  1.00  0.00     0.017 A 
ATOM     23  C   UNL A   1      34.230  21.667  25.515  1.00  0.00     0.017 A 
ATOM     24  C   UNL A   1      32.463  20.353  23.797  1.00  0.00     0.047 A 
ATOM     25  C   UNL A   1      33.542  20.530  25.955  1.00  0.00     0.047 A 
ATOM     26  C   UNL A   1      32.695  19.845  25.080  1.00  0.00     0.118 A 
BRANCH  26  27
ATOM     27  O   UNL A   1      32.042  18.679  25.372  1.00  0.00    -0.497 OA
ATOM     28  C   UNL A   1      32.504  17.526  24.672  1.00  0.00     0.278 C 
ENDBRANCH  26  27
ENDBRANCH  18  21
ENDBRANCH  11  17
ENDBRANCH   3   6
ENDBRANCH   1   2
BRANCH   1  29
ATOM     29  C   UNL A   1      31.794  29.393  27.186  1.00  0.00     0.042 C 
BRANCH  29  30
ATOM     30  C   UNL A   1      32.586  30.426  26.389  1.00  0.00     0.118 C 
BRANCH  30  31
ATOM     31  N   UNL A   1      32.574  31.784  26.941  1.00  0.00    -0.352 N 
ATOM     32  C   UNL A   1      33.491  32.542  27.631  1.00  0.00     0.251 C 
ATOM     33  H   UNL A   1      31.726  32.257  26.781  1.00  0.00     0.163 HD
ATOM     34  O   UNL A   1      33.169  33.667  28.013  1.00  0.00    -0.269 OA
BRANCH  32  35
ATOM     35  C   UNL A   1      34.822  32.010  28.000  1.00  0.00     0.039 A 
ATOM     36  C   UNL A   1      35.922  32.877  28.030  1.00  0.00     0.014 A 
ATOM     37  C   UNL A   1      35.002  30.683  28.362  1.00  0.00     0.014 A 
ATOM     38  C   UNL A   1      37.138  32.446  28.572  1.00  0.00     0.010 A 
ATOM     39  C   UNL A   1      36.146  30.305  29.051  1.00  0.00     0.010 A 
ATOM     40  C   UNL A   1      37.228  31.185  29.180  1.00  0.00    -0.014 A 
BRANCH  40  41
ATOM     41  C   UNL A   1      38.412  30.757  29.976  1.00  0.00     0.031 A 
ATOM     42  C   UNL A   1      39.390  29.764  29.403  1.00  0.00     0.074 A 
ATOM     43  C   UNL A   1      38.527  31.138  31.265  1.00  0.00     0.049 A 
ATOM     44  N   UNL A   1      40.342  29.093  30.002  1.00  0.00    -0.248 NA
ATOM     45  C   UNL A   1      39.235  29.433  27.977  1.00  0.00     0.031 C 
ATOM     46  C   UNL A   1      37.606  32.025  31.978  1.00  0.00     0.029 A 
ATOM     47  N   UNL A   1      39.460  30.802  32.218  1.00  0.00    -0.354 N 
ATOM     48  C   UNL A   1      40.851  28.224  29.045  1.00  0.00     0.074 A 
ATOM     49  C   UNL A   1      40.064  28.410  27.845  1.00  0.00     0.031 C 
ATOM     50  C   UNL A   1      38.033  32.188  33.240  1.00  0.00     0.029 A 
ATOM     51  C   UNL A   1      39.226  31.376  33.444  1.00  0.00     0.049 A 
ATOM     52  H   UNL A   1      40.222  30.206  32.038  1.00  0.00     0.167 HD
ATOM     53  C   UNL A   1      41.895  27.368  29.145  1.00  0.00     0.037 A 
ATOM     54  C   UNL A   1      39.890  31.253  34.610  1.00  0.00     0.037 A 
ATOM     55  C   UNL A   1      42.727  27.247  30.313  1.00  0.00     0.049 A 
ATOM     56  C   UNL A   1      41.097  30.361  34.675  1.00  0.00     0.074 A 
ATOM     57  C   UNL A   1      43.874  26.491  30.481  1.00  0.00     0.029 A 
ATOM     58  N   UNL A   1      42.508  27.916  31.509  1.00  0.00    -0.354 N 
ATOM     59  N   UNL A   1      41.609  29.594  33.743  1.00  0.00    -0.248 NA
ATOM     60  C   UNL A   1      41.825  30.321  35.952  1.00  0.00     0.031 C 
ATOM     61  C   UNL A   1      44.334  26.680  31.789  1.00  0.00     0.029 A 
ATOM     62  C   UNL A   1      43.495  27.584  32.423  1.00  0.00     0.049 A 
ATOM     63  H   UNL A   1      41.763  28.534  31.682  1.00  0.00     0.167 HD
ATOM     64  C   UNL A   1      42.725  28.997  34.311  1.00  0.00     0.074 A 
ATOM     65  C   UNL A   1      42.828  29.503  35.664  1.00  0.00     0.031 C 
ATOM     66  C   UNL A   1      43.586  28.106  33.761  1.00  0.00     0.037 A 
BRANCH  53  67
ATOM     67  C   UNL A   1      42.208  26.513  27.951  1.00  0.00     0.064 A 
ATOM     68  C   UNL A   1      43.160  26.900  26.995  1.00  0.00     0.173 A 
ATOM     69  C   UNL A   1      41.555  25.286  27.764  1.00  0.00     0.173 A 
ATOM     70  F   UNL A   1      43.806  28.069  27.121  1.00  0.00    -0.203 F 
ATOM     71  C   UNL A   1      43.414  26.114  25.874  1.00  0.00     0.198 A 
ATOM     72  C   UNL A   1      41.836  24.484  26.659  1.00  0.00     0.198 A 
ATOM     73  F   UNL A   1      40.641  24.862  28.650  1.00  0.00    -0.203 F 
ATOM     74  F   UNL A   1      44.277  26.539  24.942  1.00  0.00    -0.200 F 
ATOM     75  C   UNL A   1      42.755  24.904  25.709  1.00  0.00     0.200 A 
ATOM     76  F   UNL A   1      41.209  23.309  26.508  1.00  0.00    -0.200 F 
ATOM     77  F   UNL A   1      42.999  24.149  24.630  1.00  0.00    -0.200 F 
ENDBRANCH  53  67
BRANCH  54  78
ATOM     78  C   UNL A   1      39.444  32.022  35.799  1.00  0.00     0.064 A 
ATOM     79  C   UNL A   1      39.990  33.282  36.082  1.00  0.00     0.173 A 
ATOM     80  C   UNL A   1      38.456  31.528  36.665  1.00  0.00     0.173 A 
ATOM     81  F   UNL A   1      40.949  33.787  35.293  1.00  0.00    -0.203 F 
ATOM     82  C   UNL A   1      39.581  34.011  37.196  1.00  0.00     0.198 A 
ATOM     83  C   UNL A   1      38.029  32.271  37.764  1.00  0.00     0.198 A 
ATOM     84  F   UNL A   1      37.894  30.334  36.431  1.00  0.00    -0.203 F 
ATOM     85  F   UNL A   1      40.148  35.194  37.465  1.00  0.00    -0.200 F 
ATOM     86  C   UNL A   1      38.595  33.508  38.033  1.00  0.00     0.200 A 
ATOM     87  F   UNL A   1      37.065  31.790  38.560  1.00  0.00    -0.200 F 
ATOM     88  F   UNL A   1      38.196  34.213  39.100  1.00  0.00    -0.200 F 
ENDBRANCH  54  78
BRANCH  66  89
ATOM     89  C   UNL A   1      44.734  27.647  34.610  1.00  0.00     0.064 A 
ATOM     90  C   UNL A   1      44.647  26.493  35.399  1.00  0.00     0.173 A 
ATOM     91  C   UNL A   1      45.950  28.348  34.595  1.00  0.00     0.173 A 
ATOM     92  F   UNL A   1      43.499  25.800  35.458  1.00  0.00    -0.203 F 
ATOM     93  C   UNL A   1      45.732  26.063  36.159  1.00  0.00     0.198 A 
ATOM     94  C   UNL A   1      47.041  27.901  35.336  1.00  0.00     0.198 A 
ATOM     95  F   UNL A   1      46.083  29.457  33.853  1.00  0.00    -0.203 F 
ATOM     96  F   UNL A   1      45.615  24.979  36.936  1.00  0.00    -0.200 F 
ATOM     97  C   UNL A   1      46.929  26.763  36.120  1.00  0.00     0.200 A 
ATOM     98  F   UNL A   1      48.200  28.572  35.289  1.00  0.00    -0.200 F 
ATOM     99  F   UNL A   1      47.975  26.343  36.845  1.00  0.00    -0.200 F 
ENDBRANCH  66  89
ENDBRANCH  40  41
ENDBRANCH  32  35
ENDBRANCH  30  31
ENDBRANCH  29  30
ENDBRANCH   1  29
TORSDOF 16
ENDMDL
MODEL 2
REMARK VINA RESULT:     -12.6      4.169      9.949
REMARK SMILES CCN(CC)c1ccc(NC(=O)c2ccc(OC)cc2)cc1C(=O)NCCCNC(=O)c1ccc(-c2c3nc(c(-c4c(F)c(F)c(F)c(F)c4F)c4ccc([nH]4)c(-c4c(F)c(F)c(F)c(F)c4F)c4nc(c(-c5c(F)c(F)c(F)c(F)c5F)c5ccc2[nH]5)C=C4)C=C3)cc1
REMARK SMILES IDX 26 1 25 2 23 3 24 4 22 6 6 7 7 8 8 9 21 10 9 11 3 12 2 13
REMARK SMILES IDX 1 14 4 15 5 16 10 17 11 18 12 20 13 21 14 22 20 23 15 24
REMARK SMILES IDX 19 25 16 26 17 27 18 28 27 29 28 30 29 31 30 32 31 34 32 35
REMARK SMILES IDX 33 36 94 37 34 38 93 39 35 40 36 41 37 42 87 43 38 44 92 45
REMARK SMILES IDX 86 46 88 47 39 48 91 49 85 50 84 51 40 53 72 54 52 55 71 56
REMARK SMILES IDX 53 57 56 58 70 59 89 60 54 61 55 62 69 64 90 65 57 66 41 67
REMARK SMILES IDX 42 68 50 69 43 70 44 71 48 72 51 73 45 74 46 75 49 76 47 77
REMARK SMILES IDX 73 78 74 79 82 80 75 81 76 82 80 83 83 84 77 85 78 86 81 87
REMARK SMILES IDX 79 88 58 89 59 90 67 91 60 92 61 93 65 94 68 95 62 96 63 97
REMARK SMILES IDX 66 98 64 99
REMARK H PARENT 25 5 10 19 29 33 88 52 56 63
REMARK Flexibility Score: inf
ROOT
ATOM      1  C   UNL A   1      36.114  23.232  24.139  1.00  0.00     0.118 C 
ENDROOT
BRANCH   1   2
ATOM      2  N   UNL A   1      35.280  23.446  22.981  1.00  0.00    -0.352 N 
ATOM      3  C   UNL A   1      33.910  23.597  22.948  1.00  0.00     0.253 C 
ATOM      4  O   UNL A   1      33.396  23.908  21.872  1.00  0.00    -0.269 OA
ATOM      5  H   UNL A   1      35.744  23.490  22.115  1.00  0.00     0.163 HD
BRANCH   3   6
ATOM      6  C   UNL A   1      33.032  23.267  24.117  1.00  0.00     0.065 A 
ATOM      7  C   UNL A   1      32.502  22.000  24.449  1.00  0.00     0.050 A 
ATOM      8  C   UNL A   1      31.389  22.020  25.296  1.00  0.00     0.029 A 
ATOM      9  C   UNL A   1      30.953  23.178  25.933  1.00  0.00     0.028 A 
ATOM     10  C   UNL A   1      32.677  24.408  24.887  1.00  0.00     0.042 A 
ATOM     11  C   UNL A   1      31.699  24.337  25.875  1.00  0.00     0.042 A 
BRANCH   7  12
ATOM     12  N   UNL A   1      33.006  20.763  24.046  1.00  0.00    -0.371 N 
BRANCH  12  13
ATOM     13  C   UNL A   1      33.924  20.029  24.939  1.00  0.00     0.113 C 
ATOM     14  C   UNL A   1      34.177  18.581  24.553  1.00  0.00     0.027 C 
ENDBRANCH  12  13
BRANCH  12  15
ATOM     15  C   UNL A   1      32.303  19.970  23.014  1.00  0.00     0.113 C 
ATOM     16  C   UNL A   1      31.819  20.763  21.809  1.00  0.00     0.027 C 
ENDBRANCH  12  15
ENDBRANCH   7  12
BRANCH  11  17
ATOM     17  N   UNL A   1      31.528  25.426  26.755  1.00  0.00    -0.322 N 
ATOM     18  C   UNL A   1      31.263  26.765  26.510  1.00  0.00     0.255 C 
ATOM     19  H   UNL A   1      31.611  25.195  27.708  1.00  0.00     0.170 HD
ATOM     20  O   UNL A   1      31.237  27.574  27.435  1.00  0.00    -0.269 OA
BRANCH  18  21
ATOM     21  C   UNL A   1      30.995  27.254  25.140  1.00  0.00     0.040 A 
ATOM     22  C   UNL A   1      29.812  26.852  24.515  1.00  0.00     0.017 A 
ATOM     23  C   UNL A   1      31.829  28.204  24.531  1.00  0.00     0.017 A 
ATOM     24  C   UNL A   1      29.401  27.497  23.345  1.00  0.00     0.047 A 
ATOM     25  C   UNL A   1      31.401  28.857  23.370  1.00  0.00     0.047 A 
ATOM     26  C   UNL A   1      30.164  28.537  22.804  1.00  0.00     0.118 A 
BRANCH  26  27
ATOM     27  O   UNL A   1      29.607  29.169  21.725  1.00  0.00    -0.497 OA
ATOM     28  C   UNL A   1      28.332  29.762  21.954  1.00  0.00     0.278 C 
ENDBRANCH  26  27
ENDBRANCH  18  21
ENDBRANCH  11  17
ENDBRANCH   3   6
ENDBRANCH   1   2
BRANCH   1  29
ATOM     29  C   UNL A   1      36.967  21.982  24.131  1.00  0.00     0.042 C 
BRANCH  29  30
ATOM     30  C   UNL A   1      37.249  21.440  25.529  1.00  0.00     0.118 C 
BRANCH  30  31
ATOM     31  N   UNL A   1      38.454  20.614  25.648  1.00  0.00    -0.352 N 
ATOM     32  C   UNL A   1      39.700  20.817  26.195  1.00  0.00     0.251 C 
ATOM     33  H   UNL A   1      38.348  19.720  25.251  1.00  0.00     0.163 HD
ATOM     34  O   UNL A   1      40.545  19.927  26.100  1.00  0.00    -0.269 OA
BRANCH  32  35
ATOM     35  C   UNL A   1      40.078  22.105  26.819  1.00  0.00     0.039 A 
ATOM     36  C   UNL A   1      41.022  22.115  27.853  1.00  0.00     0.014 A 
ATOM     37  C   UNL A   1      39.554  23.311  26.375  1.00  0.00     0.014 A 
ATOM     38  C   UNL A   1      41.546  23.329  28.311  1.00  0.00     0.010 A 
ATOM     39  C   UNL A   1      40.187  24.501  26.706  1.00  0.00     0.010 A 
ATOM     40  C   UNL A   1      41.204  24.528  27.669  1.00  0.00    -0.014 A 
BRANCH  40  41
ATOM     41  C   UNL A   1      41.894  25.818  27.950  1.00  0.00     0.031 A 
ATOM     42  C   UNL A   1      41.169  26.921  28.676  1.00  0.00     0.074 A 
ATOM     43  C   UNL A   1      43.112  26.056  27.421  1.00  0.00     0.049 A 
ATOM     44  N   UNL A   1      41.497  28.181  28.816  1.00  0.00    -0.248 NA
ATOM     45  C   UNL A   1      39.867  26.576  29.270  1.00  0.00     0.031 C 
ATOM     46  C   UNL A   1      43.895  25.112  26.621  1.00  0.00     0.029 A 
ATOM     47  N   UNL A   1      43.898  27.183  27.456  1.00  0.00    -0.354 N 
ATOM     48  C   UNL A   1      40.420  28.783  29.454  1.00  0.00     0.074 A 
ATOM     49  C   UNL A   1      39.405  27.766  29.620  1.00  0.00     0.031 C 
ATOM     50  C   UNL A   1      45.056  25.684  26.269  1.00  0.00     0.029 A 
ATOM     51  C   UNL A   1      45.080  27.052  26.769  1.00  0.00     0.049 A 
ATOM     52  H   UNL A   1      43.637  28.007  27.928  1.00  0.00     0.167 HD
ATOM     53  C   UNL A   1      40.296  30.060  29.888  1.00  0.00     0.037 A 
ATOM     54  C   UNL A   1      46.070  27.940  26.552  1.00  0.00     0.037 A 
ATOM     55  C   UNL A   1      41.339  31.047  29.796  1.00  0.00     0.049 A 
ATOM     56  C   UNL A   1      45.947  29.328  27.115  1.00  0.00     0.074 A 
ATOM     57  C   UNL A   1      41.356  32.335  30.300  1.00  0.00     0.029 A 
ATOM     58  N   UNL A   1      42.560  30.845  29.169  1.00  0.00    -0.354 N 
ATOM     59  N   UNL A   1      44.951  29.865  27.775  1.00  0.00    -0.248 NA
ATOM     60  C   UNL A   1      47.089  30.231  26.909  1.00  0.00     0.031 C 
ATOM     61  C   UNL A   1      42.577  32.924  29.954  1.00  0.00     0.029 A 
ATOM     62  C   UNL A   1      43.336  31.989  29.267  1.00  0.00     0.049 A 
ATOM     63  H   UNL A   1      42.834  30.013  28.721  1.00  0.00     0.167 HD
ATOM     64  C   UNL A   1      45.350  31.159  28.081  1.00  0.00     0.074 A 
ATOM     65  C   UNL A   1      46.687  31.320  27.548  1.00  0.00     0.031 C 
ATOM     66  C   UNL A   1      44.669  32.127  28.740  1.00  0.00     0.037 A 
BRANCH  53  67
ATOM     67  C   UNL A   1      38.992  30.454  30.522  1.00  0.00     0.064 A 
ATOM     68  C   UNL A   1      37.913  30.927  29.759  1.00  0.00     0.173 A 
ATOM     69  C   UNL A   1      38.815  30.348  31.909  1.00  0.00     0.173 A 
ATOM     70  F   UNL A   1      38.033  31.057  28.429  1.00  0.00    -0.203 F 
ATOM     71  C   UNL A   1      36.724  31.322  30.364  1.00  0.00     0.198 A 
ATOM     72  C   UNL A   1      37.611  30.711  32.509  1.00  0.00     0.198 A 
ATOM     73  F   UNL A   1      39.810  29.894  32.687  1.00  0.00    -0.203 F 
ATOM     74  F   UNL A   1      35.734  31.835  29.621  1.00  0.00    -0.200 F 
ATOM     75  C   UNL A   1      36.571  31.209  31.738  1.00  0.00     0.200 A 
ATOM     76  F   UNL A   1      37.460  30.589  33.836  1.00  0.00    -0.200 F 
ATOM     77  F   UNL A   1      35.426  31.591  32.320  1.00  0.00    -0.200 F 
ENDBRANCH  53  67
BRANCH  54  78
ATOM     78  C   UNL A   1      47.278  27.528  25.792  1.00  0.00     0.064 A 
ATOM     79  C   UNL A   1      47.344  27.706  24.403  1.00  0.00     0.173 A 
ATOM     80  C   UNL A   1      48.393  26.968  26.432  1.00  0.00     0.173 A 
ATOM     81  F   UNL A   1      46.296  28.223  23.745  1.00  0.00    -0.203 F 
ATOM     82  C   UNL A   1      48.470  27.322  23.679  1.00  0.00     0.198 A 
ATOM     83  C   UNL A   1      49.530  26.608  25.710  1.00  0.00     0.198 A 
ATOM     84  F   UNL A   1      48.385  26.788  27.761  1.00  0.00    -0.203 F 
ATOM     85  F   UNL A   1      48.490  27.467  22.348  1.00  0.00    -0.200 F 
ATOM     86  C   UNL A   1      49.566  26.779  24.335  1.00  0.00     0.200 A 
ATOM     87  F   UNL A   1      50.593  26.100  26.349  1.00  0.00    -0.200 F 
ATOM     88  F   UNL A   1      50.652  26.417  23.639  1.00  0.00    -0.200 F 
ENDBRANCH  54  78
BRANCH  66  89
ATOM     89  C   UNL A   1      45.368  33.436  28.953  1.00  0.00     0.064 A 
ATOM     90  C   UNL A   1      46.189  33.655  30.068  1.00  0.00     0.173 A 
ATOM     91  C   UNL A   1      45.250  34.464  28.006  1.00  0.00     0.173 A 
ATOM     92  F   UNL A   1      46.318  32.707  31.009  1.00  0.00    -0.203 F 
ATOM     93  C   UNL A   1      46.855  34.866  30.237  1.00  0.00     0.198 A 
ATOM     94  C   UNL A   1      45.939  35.664  28.165  1.00  0.00     0.198 A 
ATOM     95  F   UNL A   1      44.480  34.300  26.921  1.00  0.00    -0.203 F 
ATOM     96  F   UNL A   1      47.603  35.070  31.329  1.00  0.00    -0.200 F 
ATOM     97  C   UNL A   1      46.735  35.866  29.281  1.00  0.00     0.200 A 
ATOM     98  F   UNL A   1      45.831  36.624  27.236  1.00  0.00    -0.200 F 
ATOM     99  F   UNL A   1      47.384  37.027  29.441  1.00  0.00    -0.200 F 
ENDBRANCH  66  89
ENDBRANCH  40  41
ENDBRANCH  32  35
ENDBRANCH  30  31
ENDBRANCH  29  30
ENDBRANCH   1  29
TORSDOF 16
ENDMDL
MODEL 3
REMARK VINA RESULT:     -12.5      4.109      7.694
REMARK SMILES CCN(CC)c1ccc(NC(=O)c2ccc(OC)cc2)cc1C(=O)NCCCNC(=O)c1ccc(-c2c3nc(c(-c4c(F)c(F)c(F)c(F)c4F)c4ccc([nH]4)c(-c4c(F)c(F)c(F)c(F)c4F)c4nc(c(-c5c(F)c(F)c(F)c(F)c5F)c5ccc2[nH]5)C=C4)C=C3)cc1
REMARK SMILES IDX 26 1 25 2 23 3 24 4 22 6 6 7 7 8 8 9 21 10 9 11 3 12 2 13
REMARK SMILES IDX 1 14 4 15 5 16 10 17 11 18 12 20 13 21 14 22 20 23 15 24
REMARK SMILES IDX 19 25 16 26 17 27 18 28 27 29 28 30 29 31 30 32 31 34 32 35
REMARK SMILES IDX 33 36 94 37 34 38 93 39 35 40 36 41 37 42 87 43 38 44 92 45
REMARK SMILES IDX 86 46 88 47 39 48 91 49 85 50 84 51 40 53 72 54 52 55 71 56
REMARK SMILES IDX 53 57 56 58 70 59 89 60 54 61 55 62 69 64 90 65 57 66 41 67
REMARK SMILES IDX 42 68 50 69 43 70 44 71 48 72 51 73 45 74 46 75 49 76 47 77
REMARK SMILES IDX 73 78 74 79 82 80 75 81 76 82 80 83 83 84 77 85 78 86 81 87
REMARK SMILES IDX 79 88 58 89 59 90 67 91 60 92 61 93 65 94 68 95 62 96 63 97
REMARK SMILES IDX 66 98 64 99
REMARK H PARENT 25 5 10 19 29 33 88 52 56 63
REMARK Flexibility Score: inf
ROOT
ATOM      1  C   UNL A   1      36.059  23.287  24.022  1.00  0.00     0.118 C 
ENDROOT
BRANCH   1   2
ATOM      2  N   UNL A   1      35.200  23.448  22.873  1.00  0.00    -0.352 N 
ATOM      3  C   UNL A   1      33.827  23.558  22.859  1.00  0.00     0.253 C 
ATOM      4  O   UNL A   1      33.286  23.828  21.785  1.00  0.00    -0.269 OA
ATOM      5  H   UNL A   1      35.649  23.485  21.998  1.00  0.00     0.163 HD
BRANCH   3   6
ATOM      6  C   UNL A   1      32.978  23.232  24.050  1.00  0.00     0.065 A 
ATOM      7  C   UNL A   1      32.461  21.965  24.403  1.00  0.00     0.050 A 
ATOM      8  C   UNL A   1      31.368  21.986  25.276  1.00  0.00     0.029 A 
ATOM      9  C   UNL A   1      30.942  23.145  25.916  1.00  0.00     0.028 A 
ATOM     10  C   UNL A   1      32.636  24.376  24.822  1.00  0.00     0.042 A 
ATOM     11  C   UNL A   1      31.682  24.308  25.834  1.00  0.00     0.042 A 
BRANCH   7  12
ATOM     12  N   UNL A   1      32.961  20.728  23.996  1.00  0.00    -0.371 N 
BRANCH  12  13
ATOM     13  C   UNL A   1      33.878  19.988  24.886  1.00  0.00     0.113 C 
ATOM     14  C   UNL A   1      34.104  18.533  24.511  1.00  0.00     0.027 C 
ENDBRANCH  12  13
BRANCH  12  15
ATOM     15  C   UNL A   1      32.254  19.940  22.962  1.00  0.00     0.113 C 
ATOM     16  C   UNL A   1      31.783  20.736  21.754  1.00  0.00     0.027 C 
ENDBRANCH  12  15
ENDBRANCH   7  12
BRANCH  11  17
ATOM     17  N   UNL A   1      31.526  25.401  26.710  1.00  0.00    -0.322 N 
ATOM     18  C   UNL A   1      31.264  26.740  26.462  1.00  0.00     0.255 C 
ATOM     19  H   UNL A   1      31.620  25.174  27.663  1.00  0.00     0.170 HD
ATOM     20  O   UNL A   1      31.254  27.553  27.384  1.00  0.00    -0.269 OA
BRANCH  18  21
ATOM     21  C   UNL A   1      30.982  27.224  25.094  1.00  0.00     0.040 A 
ATOM     22  C   UNL A   1      29.756  26.886  24.514  1.00  0.00     0.017 A 
ATOM     23  C   UNL A   1      31.851  28.112  24.442  1.00  0.00     0.017 A 
ATOM     24  C   UNL A   1      29.346  27.537  23.348  1.00  0.00     0.047 A 
ATOM     25  C   UNL A   1      31.425  28.773  23.284  1.00  0.00     0.047 A 
ATOM     26  C   UNL A   1      30.153  28.521  22.765  1.00  0.00     0.118 A 
BRANCH  26  27
ATOM     27  O   UNL A   1      29.600  29.169  21.694  1.00  0.00    -0.497 OA
ATOM     28  C   UNL A   1      28.328  29.767  21.930  1.00  0.00     0.278 C 
ENDBRANCH  26  27
ENDBRANCH  18  21
ENDBRANCH  11  17
ENDBRANCH   3   6
ENDBRANCH   1   2
BRANCH   1  29
ATOM     29  C   UNL A   1      36.871  22.011  24.080  1.00  0.00     0.042 C 
BRANCH  29  30
ATOM     30  C   UNL A   1      37.135  21.534  25.505  1.00  0.00     0.118 C 
BRANCH  30  31
ATOM     31  N   UNL A   1      38.386  20.794  25.694  1.00  0.00    -0.352 N 
ATOM     32  C   UNL A   1      39.604  21.104  26.252  1.00  0.00     0.251 C 
ATOM     33  H   UNL A   1      38.344  19.873  25.348  1.00  0.00     0.163 HD
ATOM     34  O   UNL A   1      40.504  20.265  26.225  1.00  0.00    -0.269 OA
BRANCH  32  35
ATOM     35  C   UNL A   1      39.888  22.447  26.806  1.00  0.00     0.039 A 
ATOM     36  C   UNL A   1      40.899  22.593  27.764  1.00  0.00     0.014 A 
ATOM     37  C   UNL A   1      39.208  23.575  26.368  1.00  0.00     0.014 A 
ATOM     38  C   UNL A   1      41.323  23.871  28.145  1.00  0.00     0.010 A 
ATOM     39  C   UNL A   1      39.735  24.835  26.614  1.00  0.00     0.010 A 
ATOM     40  C   UNL A   1      40.810  25.003  27.496  1.00  0.00    -0.014 A 
BRANCH  40  41
ATOM     41  C   UNL A   1      41.379  26.367  27.685  1.00  0.00     0.031 A 
ATOM     42  C   UNL A   1      42.767  26.683  27.190  1.00  0.00     0.074 A 
ATOM     43  C   UNL A   1      40.716  27.273  28.432  1.00  0.00     0.049 A 
ATOM     44  N   UNL A   1      43.529  27.715  27.452  1.00  0.00    -0.248 NA
ATOM     45  C   UNL A   1      43.411  25.669  26.339  1.00  0.00     0.031 C 
ATOM     46  C   UNL A   1      39.403  27.074  29.049  1.00  0.00     0.029 A 
ATOM     47  N   UNL A   1      41.071  28.542  28.825  1.00  0.00    -0.354 N 
ATOM     48  C   UNL A   1      44.752  27.445  26.851  1.00  0.00     0.074 A 
ATOM     49  C   UNL A   1      44.651  26.126  26.264  1.00  0.00     0.031 C 
ATOM     50  C   UNL A   1      39.051  28.185  29.713  1.00  0.00     0.029 A 
ATOM     51  C   UNL A   1      40.132  29.157  29.617  1.00  0.00     0.049 A 
ATOM     52  H   UNL A   1      41.919  28.968  28.564  1.00  0.00     0.167 HD
ATOM     53  C   UNL A   1      45.851  28.231  26.770  1.00  0.00     0.037 A 
ATOM     54  C   UNL A   1      40.145  30.365  30.213  1.00  0.00     0.037 A 
ATOM     55  C   UNL A   1      45.919  29.574  27.283  1.00  0.00     0.049 A 
ATOM     56  C   UNL A   1      41.343  31.255  30.041  1.00  0.00     0.074 A 
ATOM     57  C   UNL A   1      46.945  30.494  27.159  1.00  0.00     0.029 A 
ATOM     58  N   UNL A   1      44.909  30.194  28.004  1.00  0.00    -0.354 N 
ATOM     59  N   UNL A   1      42.468  31.013  29.413  1.00  0.00    -0.248 NA
ATOM     60  C   UNL A   1      41.271  32.590  30.653  1.00  0.00     0.031 C 
ATOM     61  C   UNL A   1      46.567  31.662  27.831  1.00  0.00     0.029 A 
ATOM     62  C   UNL A   1      45.291  31.483  28.339  1.00  0.00     0.049 A 
ATOM     63  H   UNL A   1      44.049  29.779  28.242  1.00  0.00     0.167 HD
ATOM     64  C   UNL A   1      43.229  32.167  29.537  1.00  0.00     0.074 A 
ATOM     65  C   UNL A   1      42.431  33.116  30.285  1.00  0.00     0.031 C 
ATOM     66  C   UNL A   1      44.478  32.416  29.075  1.00  0.00     0.037 A 
BRANCH  53  67
ATOM     67  C   UNL A   1      47.061  27.665  26.083  1.00  0.00     0.064 A 
ATOM     68  C   UNL A   1      48.075  27.007  26.796  1.00  0.00     0.173 A 
ATOM     69  C   UNL A   1      47.204  27.773  24.692  1.00  0.00     0.173 A 
ATOM     70  F   UNL A   1      47.992  26.885  28.130  1.00  0.00    -0.203 F 
ATOM     71  C   UNL A   1      49.207  26.519  26.150  1.00  0.00     0.198 A 
ATOM     72  C   UNL A   1      48.323  27.253  24.043  1.00  0.00     0.198 A 
ATOM     73  F   UNL A   1      46.262  28.385  23.959  1.00  0.00    -0.203 F 
ATOM     74  F   UNL A   1      50.192  25.956  26.863  1.00  0.00    -0.200 F 
ATOM     75  C   UNL A   1      49.328  26.638  24.774  1.00  0.00     0.200 A 
ATOM     76  F   UNL A   1      48.432  27.356  22.711  1.00  0.00    -0.200 F 
ATOM     77  F   UNL A   1      50.419  26.168  24.153  1.00  0.00    -0.200 F 
ENDBRANCH  53  67
BRANCH  54  78
ATOM     78  C   UNL A   1      38.968  30.812  31.001  1.00  0.00     0.064 A 
ATOM     79  C   UNL A   1      38.933  30.642  32.392  1.00  0.00     0.173 A 
ATOM     80  C   UNL A   1      37.867  31.431  30.390  1.00  0.00     0.173 A 
ATOM     81  F   UNL A   1      39.954  30.041  33.018  1.00  0.00    -0.203 F 
ATOM     82  C   UNL A   1      37.833  31.055  33.141  1.00  0.00     0.198 A 
ATOM     83  C   UNL A   1      36.779  31.868  31.144  1.00  0.00     0.198 A 
ATOM     84  F   UNL A   1      37.858  31.628  29.064  1.00  0.00    -0.203 F 
ATOM     85  F   UNL A   1      37.809  30.845  34.464  1.00  0.00    -0.200 F 
ATOM     86  C   UNL A   1      36.760  31.674  32.517  1.00  0.00     0.200 A 
ATOM     87  F   UNL A   1      35.752  32.481  30.540  1.00  0.00    -0.200 F 
ATOM     88  F   UNL A   1      35.706  32.079  33.239  1.00  0.00    -0.200 F 
ENDBRANCH  54  78
BRANCH  66  89
ATOM     89  C   UNL A   1      45.048  33.779  29.335  1.00  0.00     0.064 A 
ATOM     90  C   UNL A   1      44.826  34.846  28.454  1.00  0.00     0.173 A 
ATOM     91  C   UNL A   1      45.785  34.027  30.502  1.00  0.00     0.173 A 
ATOM     92  F   UNL A   1      44.141  34.652  27.317  1.00  0.00    -0.203 F 
ATOM     93  C   UNL A   1      45.336  36.113  28.725  1.00  0.00     0.198 A 
ATOM     94  C   UNL A   1      46.272  35.301  30.782  1.00  0.00     0.198 A 
ATOM     95  F   UNL A   1      46.021  33.038  31.378  1.00  0.00    -0.203 F 
ATOM     96  F   UNL A   1      45.146  37.110  27.851  1.00  0.00    -0.200 F 
ATOM     97  C   UNL A   1      46.052  36.340  29.892  1.00  0.00     0.200 A 
ATOM     98  F   UNL A   1      46.954  35.522  31.915  1.00  0.00    -0.200 F 
ATOM     99  F   UNL A   1      46.536  37.562  30.154  1.00  0.00    -0.200 F 
ENDBRANCH  66  89
ENDBRANCH  40  41
ENDBRANCH  32  35
ENDBRANCH  30  31
ENDBRANCH  29  30
ENDBRANCH   1  29
TORSDOF 16
ENDMDL
