MODEL 1
REMARK VINA RESULT:     -13.7      0.000      0.000
REMARK SMILES Cc1cccc(NC(=O)C[C@@H]2CCCCO2)c1C(=O)NCCCNC(=O)c1ccc(-c2c3nc(c(-c4c(F)c(F)c(F)c(F)c4F)c4ccc([nH]4)c(-c4c(F)c(F)c(F)c(F)c4F)c4nc(c(-c5c(F)c(F)c(F)c(F)c5F)c5ccc2[nH]5)C=C4)C=C3)cc1
REMARK SMILES IDX 21 1 20 2 18 3 19 4 17 6 1 7 2 8 3 9 4 10 6 11 5 12 7 13
REMARK SMILES IDX 8 14 9 16 10 17 11 18 12 19 16 20 13 21 15 22 14 23 22 24
REMARK SMILES IDX 23 25 24 26 25 27 26 29 27 30 28 31 89 32 29 33 88 34 30 35
REMARK SMILES IDX 31 36 32 37 82 38 33 39 87 40 81 41 83 42 34 43 86 44 80 45
REMARK SMILES IDX 79 46 35 48 67 49 47 50 66 51 48 52 51 53 65 54 84 55 49 56
REMARK SMILES IDX 50 57 64 59 85 60 52 61 36 62 37 63 45 64 38 65 39 66 43 67
REMARK SMILES IDX 46 68 40 69 41 70 44 71 42 72 68 73 69 74 77 75 70 76 71 77
REMARK SMILES IDX 75 78 78 79 72 80 73 81 76 82 74 83 53 84 54 85 62 86 55 87
REMARK SMILES IDX 56 88 60 89 63 90 57 91 58 92 61 93 59 94
REMARK H PARENT 20 5 7 15 24 28 83 47 51 58
REMARK Flexibility Score: inf
ROOT
ATOM      1  C   UNL A   1      37.755  23.418  25.737  1.00  0.00     0.118 C 
ENDROOT
BRANCH   1   2
ATOM      2  N   UNL A   1      37.423  23.339  24.320  1.00  0.00    -0.352 N 
ATOM      3  C   UNL A   1      36.306  22.903  23.642  1.00  0.00     0.253 C 
ATOM      4  O   UNL A   1      36.342  23.001  22.415  1.00  0.00    -0.269 OA
ATOM      5  H   UNL A   1      38.141  23.661  23.729  1.00  0.00     0.163 HD
BRANCH   3   6
ATOM      6  C   UNL A   1      35.044  22.465  24.323  1.00  0.00     0.066 A 
ATOM      7  C   UNL A   1      35.770  20.075  24.870  1.00  0.00     0.045 C 
ATOM      8  C   UNL A   1      34.918  21.290  25.089  1.00  0.00    -0.036 A 
ATOM      9  C   UNL A   1      33.799  21.114  25.926  1.00  0.00     0.004 A 
ATOM     10  C   UNL A   1      32.752  22.023  25.901  1.00  0.00     0.002 A 
ATOM     11  C   UNL A   1      33.852  23.191  24.084  1.00  0.00     0.054 A 
ATOM     12  C   UNL A   1      32.760  23.036  24.948  1.00  0.00     0.027 A 
BRANCH  11  13
ATOM     13  N   UNL A   1      33.717  23.936  22.887  1.00  0.00    -0.325 N 
ATOM     14  C   UNL A   1      33.753  25.300  22.692  1.00  0.00     0.227 C 
ATOM     15  H   UNL A   1      33.576  23.401  22.073  1.00  0.00     0.169 HD
ATOM     16  O   UNL A   1      33.552  25.741  21.557  1.00  0.00    -0.275 OA
BRANCH  14  17
ATOM     17  C   UNL A   1      33.993  26.269  23.840  1.00  0.00     0.132 C 
BRANCH  17  18
ATOM     18  C   UNL A   1      32.855  27.278  24.088  1.00  0.00     0.127 C 
ATOM     19  C   UNL A   1      33.405  28.630  24.583  1.00  0.00     0.033 C 
ATOM     20  O   UNL A   1      31.834  26.846  24.995  1.00  0.00    -0.378 OA
ATOM     21  C   UNL A   1      33.922  28.544  26.019  1.00  0.00     0.005 C 
ATOM     22  C   UNL A   1      32.232  26.711  26.350  1.00  0.00     0.160 C 
ATOM     23  C   UNL A   1      32.856  27.965  26.937  1.00  0.00     0.029 C 
ENDBRANCH  17  18
ENDBRANCH  14  17
ENDBRANCH  11  13
ENDBRANCH   3   6
ENDBRANCH   1   2
BRANCH   1  24
ATOM     24  C   UNL A   1      38.801  22.362  26.105  1.00  0.00     0.042 C 
BRANCH  24  25
ATOM     25  C   UNL A   1      39.765  22.769  27.204  1.00  0.00     0.118 C 
BRANCH  25  26
ATOM     26  N   UNL A   1      41.076  23.186  26.702  1.00  0.00    -0.352 N 
ATOM     27  C   UNL A   1      41.511  24.472  26.415  1.00  0.00     0.251 C 
ATOM     28  H   UNL A   1      41.729  22.465  26.550  1.00  0.00     0.163 HD
ATOM     29  O   UNL A   1      42.646  24.700  26.045  1.00  0.00    -0.269 OA
BRANCH  27  30
ATOM     30  C   UNL A   1      40.564  25.571  26.705  1.00  0.00     0.039 A 
ATOM     31  C   UNL A   1      40.880  26.821  26.170  1.00  0.00     0.014 A 
ATOM     32  C   UNL A   1      39.705  25.440  27.792  1.00  0.00     0.014 A 
ATOM     33  C   UNL A   1      40.567  27.957  26.906  1.00  0.00     0.010 A 
ATOM     34  C   UNL A   1      39.482  26.560  28.570  1.00  0.00     0.010 A 
ATOM     35  C   UNL A   1      39.983  27.805  28.165  1.00  0.00    -0.014 A 
BRANCH  35  36
ATOM     36  C   UNL A   1      39.934  28.888  29.140  1.00  0.00     0.031 A 
ATOM     37  C   UNL A   1      38.886  29.921  29.022  1.00  0.00     0.074 A 
ATOM     38  C   UNL A   1      40.835  28.978  30.146  1.00  0.00     0.049 A 
ATOM     39  N   UNL A   1      39.026  31.139  29.424  1.00  0.00    -0.248 NA
ATOM     40  C   UNL A   1      37.602  29.663  28.387  1.00  0.00     0.031 C 
ATOM     41  C   UNL A   1      40.791  29.901  31.279  1.00  0.00     0.029 A 
ATOM     42  N   UNL A   1      42.103  28.382  30.236  1.00  0.00    -0.354 N 
ATOM     43  C   UNL A   1      37.798  31.749  29.343  1.00  0.00     0.074 A 
ATOM     44  C   UNL A   1      36.959  30.806  28.639  1.00  0.00     0.031 C 
ATOM     45  C   UNL A   1      42.036  30.070  31.747  1.00  0.00     0.029 A 
ATOM     46  C   UNL A   1      42.934  29.341  30.875  1.00  0.00     0.049 A 
ATOM     47  H   UNL A   1      42.364  27.485  29.921  1.00  0.00     0.167 HD
ATOM     48  C   UNL A   1      37.597  32.940  29.980  1.00  0.00     0.037 A 
ATOM     49  C   UNL A   1      44.036  29.851  30.254  1.00  0.00     0.037 A 
ATOM     50  C   UNL A   1      38.815  33.420  30.631  1.00  0.00     0.049 A 
ATOM     51  C   UNL A   1      43.980  31.340  29.998  1.00  0.00     0.074 A 
ATOM     52  C   UNL A   1      39.293  33.393  31.933  1.00  0.00     0.029 A 
ATOM     53  N   UNL A   1      39.893  33.788  29.845  1.00  0.00    -0.354 N 
ATOM     54  N   UNL A   1      42.999  32.119  30.361  1.00  0.00    -0.248 NA
ATOM     55  C   UNL A   1      44.979  32.041  29.191  1.00  0.00     0.031 C 
ATOM     56  C   UNL A   1      40.666  33.769  31.915  1.00  0.00     0.029 A 
ATOM     57  C   UNL A   1      41.025  34.024  30.605  1.00  0.00     0.049 A 
ATOM     58  H   UNL A   1      39.859  33.871  28.865  1.00  0.00     0.167 HD
ATOM     59  C   UNL A   1      43.176  33.358  29.803  1.00  0.00     0.074 A 
ATOM     60  C   UNL A   1      44.428  33.259  29.076  1.00  0.00     0.031 C 
ATOM     61  C   UNL A   1      42.264  34.367  29.929  1.00  0.00     0.037 A 
BRANCH  48  62
ATOM     62  C   UNL A   1      36.227  33.535  30.216  1.00  0.00     0.064 A 
ATOM     63  C   UNL A   1      35.459  34.031  29.143  1.00  0.00     0.173 A 
ATOM     64  C   UNL A   1      35.637  33.694  31.484  1.00  0.00     0.173 A 
ATOM     65  F   UNL A   1      35.824  33.834  27.870  1.00  0.00    -0.203 F 
ATOM     66  C   UNL A   1      34.279  34.753  29.337  1.00  0.00     0.198 A 
ATOM     67  C   UNL A   1      34.495  34.473  31.686  1.00  0.00     0.198 A 
ATOM     68  F   UNL A   1      36.111  33.048  32.557  1.00  0.00    -0.203 F 
ATOM     69  F   UNL A   1      33.595  35.206  28.277  1.00  0.00    -0.200 F 
ATOM     70  C   UNL A   1      33.822  35.017  30.612  1.00  0.00     0.200 A 
ATOM     71  F   UNL A   1      34.049  34.690  32.932  1.00  0.00    -0.200 F 
ATOM     72  F   UNL A   1      32.725  35.761  30.802  1.00  0.00    -0.200 F 
ENDBRANCH  48  62
BRANCH  49  73
ATOM     73  C   UNL A   1      44.690  28.848  29.377  1.00  0.00     0.064 A 
ATOM     74  C   UNL A   1      45.407  27.809  30.004  1.00  0.00     0.173 A 
ATOM     75  C   UNL A   1      44.257  28.643  28.063  1.00  0.00     0.173 A 
ATOM     76  F   UNL A   1      45.865  27.968  31.256  1.00  0.00    -0.203 F 
ATOM     77  C   UNL A   1      45.509  26.554  29.412  1.00  0.00     0.198 A 
ATOM     78  C   UNL A   1      44.398  27.396  27.460  1.00  0.00     0.198 A 
ATOM     79  F   UNL A   1      43.575  29.598  27.415  1.00  0.00    -0.203 F 
ATOM     80  F   UNL A   1      46.034  25.531  30.102  1.00  0.00    -0.200 F 
ATOM     81  C   UNL A   1      44.968  26.339  28.156  1.00  0.00     0.200 A 
ATOM     82  F   UNL A   1      43.886  27.189  26.240  1.00  0.00    -0.200 F 
ATOM     83  F   UNL A   1      44.950  25.102  27.640  1.00  0.00    -0.200 F 
ENDBRANCH  49  73
BRANCH  61  84
ATOM     84  C   UNL A   1      42.476  35.753  29.379  1.00  0.00     0.064 A 
ATOM     85  C   UNL A   1      41.937  36.169  28.149  1.00  0.00     0.173 A 
ATOM     86  C   UNL A   1      43.315  36.688  30.024  1.00  0.00     0.173 A 
ATOM     87  F   UNL A   1      41.222  35.324  27.390  1.00  0.00    -0.203 F 
ATOM     88  C   UNL A   1      42.137  37.458  27.653  1.00  0.00     0.198 A 
ATOM     89  C   UNL A   1      43.559  37.956  29.498  1.00  0.00     0.198 A 
ATOM     90  F   UNL A   1      43.906  36.413  31.196  1.00  0.00    -0.203 F 
ATOM     91  F   UNL A   1      41.537  37.832  26.514  1.00  0.00    -0.200 F 
ATOM     92  C   UNL A   1      42.950  38.351  28.325  1.00  0.00     0.200 A 
ATOM     93  F   UNL A   1      44.381  38.796  30.144  1.00  0.00    -0.200 F 
ATOM     94  F   UNL A   1      43.150  39.584  27.842  1.00  0.00    -0.200 F 
ENDBRANCH  61  84
ENDBRANCH  35  36
ENDBRANCH  27  30
ENDBRANCH  25  26
ENDBRANCH  24  25
ENDBRANCH   1  24
TORSDOF 13
ENDMDL
MODEL 2
REMARK VINA RESULT:     -13.6      3.447     10.100
REMARK SMILES Cc1cccc(NC(=O)C[C@@H]2CCCCO2)c1C(=O)NCCCNC(=O)c1ccc(-c2c3nc(c(-c4c(F)c(F)c(F)c(F)c4F)c4ccc([nH]4)c(-c4c(F)c(F)c(F)c(F)c4F)c4nc(c(-c5c(F)c(F)c(F)c(F)c5F)c5ccc2[nH]5)C=C4)C=C3)cc1
REMARK SMILES IDX 21 1 20 2 18 3 19 4 17 6 1 7 2 8 3 9 4 10 6 11 5 12 7 13
REMARK SMILES IDX 8 14 9 16 10 17 11 18 12 19 16 20 13 21 15 22 14 23 22 24
REMARK SMILES IDX 23 25 24 26 25 27 26 29 27 30 28 31 89 32 29 33 88 34 30 35
REMARK SMILES IDX 31 36 32 37 82 38 33 39 87 40 81 41 83 42 34 43 86 44 80 45
REMARK SMILES IDX 79 46 35 48 67 49 47 50 66 51 48 52 51 53 65 54 84 55 49 56
REMARK SMILES IDX 50 57 64 59 85 60 52 61 36 62 37 63 45 64 38 65 39 66 43 67
REMARK SMILES IDX 46 68 40 69 41 70 44 71 42 72 68 73 69 74 77 75 70 76 71 77
REMARK SMILES IDX 75 78 78 79 72 80 73 81 76 82 74 83 53 84 54 85 62 86 55 87
REMARK SMILES IDX 56 88 60 89 63 90 57 91 58 92 61 93 59 94
REMARK H PARENT 20 5 7 15 24 28 83 47 51 58
REMARK Flexibility Score: inf
ROOT
ATOM      1  C   UNL A   1      34.004  29.744  27.066  1.00  0.00     0.118 C 
ENDROOT
BRANCH   1   2
ATOM      2  N   UNL A   1      32.874  29.032  27.649  1.00  0.00    -0.352 N 
ATOM      3  C   UNL A   1      31.811  28.351  27.099  1.00  0.00     0.253 C 
ATOM      4  O   UNL A   1      31.029  27.828  27.895  1.00  0.00    -0.269 OA
ATOM      5  H   UNL A   1      32.869  29.040  28.633  1.00  0.00     0.163 HD
BRANCH   3   6
ATOM      6  C   UNL A   1      31.656  28.110  25.626  1.00  0.00     0.066 A 
ATOM      7  C   UNL A   1      30.768  30.425  25.001  1.00  0.00     0.045 C 
ATOM      8  C   UNL A   1      31.436  29.122  24.672  1.00  0.00    -0.036 A 
ATOM      9  C   UNL A   1      31.599  28.843  23.302  1.00  0.00     0.004 A 
ATOM     10  C   UNL A   1      31.842  27.547  22.872  1.00  0.00     0.002 A 
ATOM     11  C   UNL A   1      31.586  26.776  25.156  1.00  0.00     0.054 A 
ATOM     12  C   UNL A   1      31.790  26.509  23.797  1.00  0.00     0.027 A 
BRANCH  11  13
ATOM     13  N   UNL A   1      31.149  25.751  26.029  1.00  0.00    -0.325 N 
ATOM     14  C   UNL A   1      31.845  24.680  26.545  1.00  0.00     0.227 C 
ATOM     15  H   UNL A   1      30.207  25.811  26.310  1.00  0.00     0.169 HD
ATOM     16  O   UNL A   1      31.242  23.865  27.250  1.00  0.00    -0.275 OA
BRANCH  14  17
ATOM     17  C   UNL A   1      33.318  24.455  26.236  1.00  0.00     0.132 C 
BRANCH  17  18
ATOM     18  C   UNL A   1      33.662  23.056  25.689  1.00  0.00     0.127 C 
ATOM     19  C   UNL A   1      35.077  22.622  26.119  1.00  0.00     0.033 C 
ATOM     20  O   UNL A   1      33.553  22.905  24.270  1.00  0.00    -0.378 OA
ATOM     21  C   UNL A   1      36.163  23.406  25.380  1.00  0.00     0.005 C 
ATOM     22  C   UNL A   1      34.507  23.620  23.500  1.00  0.00     0.160 C 
ATOM     23  C   UNL A   1      35.948  23.328  23.876  1.00  0.00     0.029 C 
ENDBRANCH  17  18
ENDBRANCH  14  17
ENDBRANCH  11  13
ENDBRANCH   3   6
ENDBRANCH   1   2
BRANCH   1  24
ATOM     24  C   UNL A   1      34.041  31.193  27.558  1.00  0.00     0.042 C 
BRANCH  24  25
ATOM     25  C   UNL A   1      35.428  31.741  27.839  1.00  0.00     0.118 C 
BRANCH  25  26
ATOM     26  N   UNL A   1      35.674  31.995  29.260  1.00  0.00    -0.352 N 
ATOM     27  C   UNL A   1      36.312  31.173  30.177  1.00  0.00     0.251 C 
ATOM     28  H   UNL A   1      35.347  32.857  29.607  1.00  0.00     0.163 HD
ATOM     29  O   UNL A   1      36.501  31.516  31.328  1.00  0.00    -0.269 OA
BRANCH  27  30
ATOM     30  C   UNL A   1      36.871  29.908  29.653  1.00  0.00     0.039 A 
ATOM     31  C   UNL A   1      37.273  28.966  30.602  1.00  0.00     0.014 A 
ATOM     32  C   UNL A   1      37.363  29.885  28.351  1.00  0.00     0.014 A 
ATOM     33  C   UNL A   1      38.386  28.180  30.329  1.00  0.00     0.010 A 
ATOM     34  C   UNL A   1      38.526  29.177  28.118  1.00  0.00     0.010 A 
ATOM     35  C   UNL A   1      39.080  28.387  29.136  1.00  0.00    -0.014 A 
BRANCH  35  36
ATOM     36  C   UNL A   1      40.427  27.872  28.915  1.00  0.00     0.031 A 
ATOM     37  C   UNL A   1      40.610  26.448  28.573  1.00  0.00     0.074 A 
ATOM     38  C   UNL A   1      41.518  28.665  29.029  1.00  0.00     0.049 A 
ATOM     39  N   UNL A   1      41.662  25.764  28.869  1.00  0.00    -0.248 NA
ATOM     40  C   UNL A   1      39.580  25.667  27.903  1.00  0.00     0.031 C 
ATOM     41  C   UNL A   1      42.891  28.321  28.665  1.00  0.00     0.029 A 
ATOM     42  N   UNL A   1      41.637  29.892  29.703  1.00  0.00    -0.354 N 
ATOM     43  C   UNL A   1      41.571  24.555  28.225  1.00  0.00     0.074 A 
ATOM     44  C   UNL A   1      40.231  24.522  27.683  1.00  0.00     0.031 C 
ATOM     45  C   UNL A   1      43.731  29.091  29.371  1.00  0.00     0.029 A 
ATOM     46  C   UNL A   1      42.934  29.887  30.282  1.00  0.00     0.049 A 
ATOM     47  H   UNL A   1      40.961  30.606  29.763  1.00  0.00     0.167 HD
ATOM     48  C   UNL A   1      42.678  23.762  28.126  1.00  0.00     0.037 A 
ATOM     49  C   UNL A   1      43.110  29.974  31.632  1.00  0.00     0.037 A 
ATOM     50  C   UNL A   1      43.828  24.345  28.815  1.00  0.00     0.049 A 
ATOM     51  C   UNL A   1      43.764  28.764  32.260  1.00  0.00     0.074 A 
ATOM     52  C   UNL A   1      44.940  25.065  28.405  1.00  0.00     0.029 A 
ATOM     53  N   UNL A   1      43.789  24.470  30.192  1.00  0.00    -0.354 N 
ATOM     54  N   UNL A   1      44.182  27.720  31.599  1.00  0.00    -0.248 NA
ATOM     55  C   UNL A   1      43.877  28.590  33.708  1.00  0.00     0.031 C 
ATOM     56  C   UNL A   1      45.575  25.606  29.559  1.00  0.00     0.029 A 
ATOM     57  C   UNL A   1      44.851  25.216  30.670  1.00  0.00     0.049 A 
ATOM     58  H   UNL A   1      43.089  24.077  30.763  1.00  0.00     0.167 HD
ATOM     59  C   UNL A   1      44.537  26.738  32.487  1.00  0.00     0.074 A 
ATOM     60  C   UNL A   1      44.325  27.328  33.795  1.00  0.00     0.031 C 
ATOM     61  C   UNL A   1      44.931  25.490  32.094  1.00  0.00     0.037 A 
BRANCH  48  62
ATOM     62  C   UNL A   1      42.771  22.580  27.187  1.00  0.00     0.064 A 
ATOM     63  C   UNL A   1      42.025  21.407  27.425  1.00  0.00     0.173 A 
ATOM     64  C   UNL A   1      43.618  22.520  26.065  1.00  0.00     0.173 A 
ATOM     65  F   UNL A   1      41.080  21.357  28.372  1.00  0.00    -0.203 F 
ATOM     66  C   UNL A   1      42.223  20.232  26.694  1.00  0.00     0.198 A 
ATOM     67  C   UNL A   1      43.868  21.329  25.377  1.00  0.00     0.198 A 
ATOM     68  F   UNL A   1      44.183  23.625  25.561  1.00  0.00    -0.203 F 
ATOM     69  F   UNL A   1      41.488  19.146  26.971  1.00  0.00    -0.200 F 
ATOM     70  C   UNL A   1      43.180  20.179  25.702  1.00  0.00     0.200 A 
ATOM     71  F   UNL A   1      44.779  21.306  24.394  1.00  0.00    -0.200 F 
ATOM     72  F   UNL A   1      43.414  19.037  25.043  1.00  0.00    -0.200 F 
ENDBRANCH  48  62
BRANCH  49  73
ATOM     73  C   UNL A   1      42.073  30.824  32.270  1.00  0.00     0.064 A 
ATOM     74  C   UNL A   1      42.160  32.216  32.066  1.00  0.00     0.173 A 
ATOM     75  C   UNL A   1      40.834  30.295  32.645  1.00  0.00     0.173 A 
ATOM     76  F   UNL A   1      43.335  32.773  31.728  1.00  0.00    -0.203 F 
ATOM     77  C   UNL A   1      41.017  33.008  32.044  1.00  0.00     0.198 A 
ATOM     78  C   UNL A   1      39.698  31.102  32.662  1.00  0.00     0.198 A 
ATOM     79  F   UNL A   1      40.692  28.979  32.858  1.00  0.00    -0.203 F 
ATOM     80  F   UNL A   1      41.102  34.292  31.668  1.00  0.00    -0.200 F 
ATOM     81  C   UNL A   1      39.782  32.440  32.303  1.00  0.00     0.200 A 
ATOM     82  F   UNL A   1      38.503  30.557  32.924  1.00  0.00    -0.200 F 
ATOM     83  F   UNL A   1      38.668  33.170  32.156  1.00  0.00    -0.200 F 
ENDBRANCH  49  73
BRANCH  61  84
ATOM     84  C   UNL A   1      45.389  24.424  33.054  1.00  0.00     0.064 A 
ATOM     85  C   UNL A   1      44.541  23.396  33.503  1.00  0.00     0.173 A 
ATOM     86  C   UNL A   1      46.675  24.451  33.637  1.00  0.00     0.173 A 
ATOM     87  F   UNL A   1      43.260  23.340  33.109  1.00  0.00    -0.203 F 
ATOM     88  C   UNL A   1      44.980  22.410  34.389  1.00  0.00     0.198 A 
ATOM     89  C   UNL A   1      47.092  23.497  34.565  1.00  0.00     0.198 A 
ATOM     90  F   UNL A   1      47.577  25.387  33.309  1.00  0.00    -0.203 F 
ATOM     91  F   UNL A   1      44.157  21.407  34.725  1.00  0.00    -0.200 F 
ATOM     92  C   UNL A   1      46.254  22.462  34.922  1.00  0.00     0.200 A 
ATOM     93  F   UNL A   1      48.318  23.584  35.102  1.00  0.00    -0.200 F 
ATOM     94  F   UNL A   1      46.669  21.522  35.780  1.00  0.00    -0.200 F 
ENDBRANCH  61  84
ENDBRANCH  35  36
ENDBRANCH  27  30
ENDBRANCH  25  26
ENDBRANCH  24  25
ENDBRANCH   1  24
TORSDOF 13
ENDMDL
MODEL 3
REMARK VINA RESULT:     -13.3      3.640      9.856
REMARK SMILES Cc1cccc(NC(=O)C[C@@H]2CCCCO2)c1C(=O)NCCCNC(=O)c1ccc(-c2c3nc(c(-c4c(F)c(F)c(F)c(F)c4F)c4ccc([nH]4)c(-c4c(F)c(F)c(F)c(F)c4F)c4nc(c(-c5c(F)c(F)c(F)c(F)c5F)c5ccc2[nH]5)C=C4)C=C3)cc1
REMARK SMILES IDX 21 1 20 2 18 3 19 4 17 6 1 7 2 8 3 9 4 10 6 11 5 12 7 13
REMARK SMILES IDX 8 14 9 16 10 17 11 18 12 19 16 20 13 21 15 22 14 23 22 24
REMARK SMILES IDX 23 25 24 26 25 27 26 29 27 30 28 31 89 32 29 33 88 34 30 35
REMARK SMILES IDX 31 36 32 37 82 38 33 39 87 40 81 41 83 42 34 43 86 44 80 45
REMARK SMILES IDX 79 46 35 48 67 49 47 50 66 51 48 52 51 53 65 54 84 55 49 56
REMARK SMILES IDX 50 57 64 59 85 60 52 61 36 62 37 63 45 64 38 65 39 66 43 67
REMARK SMILES IDX 46 68 40 69 41 70 44 71 42 72 68 73 69 74 77 75 70 76 71 77
REMARK SMILES IDX 75 78 78 79 72 80 73 81 76 82 74 83 53 84 54 85 62 86 55 87
REMARK SMILES IDX 56 88 60 89 63 90 57 91 58 92 61 93 59 94
REMARK H PARENT 20 5 7 15 24 28 83 47 51 58
REMARK Flexibility Score: inf
ROOT
ATOM      1  C   UNL A   1      31.830  29.819  25.780  1.00  0.00     0.118 C 
ENDROOT
BRANCH   1   2
ATOM      2  N   UNL A   1      31.561  28.561  26.465  1.00  0.00    -0.352 N 
ATOM      3  C   UNL A   1      31.486  27.256  26.032  1.00  0.00     0.253 C 
ATOM      4  O   UNL A   1      31.263  26.408  26.897  1.00  0.00    -0.269 OA
ATOM      5  H   UNL A   1      31.401  28.665  27.431  1.00  0.00     0.163 HD
BRANCH   3   6
ATOM      6  C   UNL A   1      31.796  26.832  24.627  1.00  0.00     0.066 A 
ATOM      7  C   UNL A   1      29.400  26.862  23.733  1.00  0.00     0.045 C 
ATOM      8  C   UNL A   1      30.889  26.911  23.552  1.00  0.00    -0.036 A 
ATOM      9  C   UNL A   1      31.353  26.774  22.230  1.00  0.00     0.004 A 
ATOM     10  C   UNL A   1      32.673  26.426  21.981  1.00  0.00     0.002 A 
ATOM     11  C   UNL A   1      33.025  26.179  24.366  1.00  0.00     0.054 A 
ATOM     12  C   UNL A   1      33.494  26.086  23.050  1.00  0.00     0.027 A 
BRANCH  11  13
ATOM     13  N   UNL A   1      33.683  25.487  25.411  1.00  0.00    -0.325 N 
ATOM     14  C   UNL A   1      33.587  24.165  25.787  1.00  0.00     0.227 C 
ATOM     15  H   UNL A   1      34.303  26.031  25.950  1.00  0.00     0.169 HD
ATOM     16  O   UNL A   1      34.216  23.783  26.778  1.00  0.00    -0.275 OA
BRANCH  14  17
ATOM     17  C   UNL A   1      32.698  23.181  25.040  1.00  0.00     0.132 C 
BRANCH  17  18
ATOM     18  C   UNL A   1      33.379  22.449  23.867  1.00  0.00     0.127 C 
ATOM     19  C   UNL A   1      32.471  21.343  23.297  1.00  0.00     0.033 C 
ATOM     20  O   UNL A   1      34.660  21.879  24.158  1.00  0.00    -0.378 OA
ATOM     21  C   UNL A   1      32.358  20.150  24.248  1.00  0.00     0.005 C 
ATOM     22  C   UNL A   1      34.655  20.780  25.056  1.00  0.00     0.160 C 
ATOM     23  C   UNL A   1      33.740  19.644  24.636  1.00  0.00     0.029 C 
ENDBRANCH  17  18
ENDBRANCH  14  17
ENDBRANCH  11  13
ENDBRANCH   3   6
ENDBRANCH   1   2
BRANCH   1  24
ATOM     24  C   UNL A   1      32.424  30.844  26.749  1.00  0.00     0.042 C 
BRANCH  24  25
ATOM     25  C   UNL A   1      33.507  30.307  27.668  1.00  0.00     0.118 C 
BRANCH  25  26
ATOM     26  N   UNL A   1      34.191  31.353  28.431  1.00  0.00    -0.352 N 
ATOM     27  C   UNL A   1      35.455  31.307  29.001  1.00  0.00     0.251 C 
ATOM     28  H   UNL A   1      33.692  32.194  28.554  1.00  0.00     0.163 HD
ATOM     29  O   UNL A   1      35.939  32.262  29.574  1.00  0.00    -0.269 OA
BRANCH  27  30
ATOM     30  C   UNL A   1      36.242  30.077  28.763  1.00  0.00     0.039 A 
ATOM     31  C   UNL A   1      36.723  29.418  29.896  1.00  0.00     0.014 A 
ATOM     32  C   UNL A   1      36.818  29.886  27.510  1.00  0.00     0.014 A 
ATOM     33  C   UNL A   1      37.963  28.794  29.826  1.00  0.00     0.010 A 
ATOM     34  C   UNL A   1      38.092  29.354  27.466  1.00  0.00     0.010 A 
ATOM     35  C   UNL A   1      38.695  28.881  28.640  1.00  0.00    -0.014 A 
BRANCH  35  36
ATOM     36  C   UNL A   1      40.118  28.568  28.575  1.00  0.00     0.031 A 
ATOM     37  C   UNL A   1      40.544  27.222  28.145  1.00  0.00     0.074 A 
ATOM     38  C   UNL A   1      41.061  29.479  28.913  1.00  0.00     0.049 A 
ATOM     39  N   UNL A   1      41.634  26.652  28.533  1.00  0.00    -0.248 NA
ATOM     40  C   UNL A   1      39.733  26.389  27.270  1.00  0.00     0.031 C 
ATOM     41  C   UNL A   1      42.505  29.352  28.725  1.00  0.00     0.029 A 
ATOM     42  N   UNL A   1      40.915  30.634  29.698  1.00  0.00    -0.354 N 
ATOM     43  C   UNL A   1      41.800  25.514  27.783  1.00  0.00     0.074 A 
ATOM     44  C   UNL A   1      40.563  25.366  27.051  1.00  0.00     0.031 C 
ATOM     45  C   UNL A   1      43.127  30.147  29.608  1.00  0.00     0.029 A 
ATOM     46  C   UNL A   1      42.112  30.736  30.456  1.00  0.00     0.049 A 
ATOM     47  H   UNL A   1      40.143  31.246  29.719  1.00  0.00     0.167 HD
ATOM     48  C   UNL A   1      43.012  24.884  27.780  1.00  0.00     0.037 A 
ATOM     49  C   UNL A   1      42.092  30.706  31.820  1.00  0.00     0.037 A 
ATOM     50  C   UNL A   1      43.966  25.535  28.676  1.00  0.00     0.049 A 
ATOM     51  C   UNL A   1      42.821  29.532  32.433  1.00  0.00     0.074 A 
ATOM     52  C   UNL A   1      45.010  26.430  28.493  1.00  0.00     0.029 A 
ATOM     53  N   UNL A   1      43.727  25.512  30.038  1.00  0.00    -0.354 N 
ATOM     54  N   UNL A   1      43.467  28.624  31.755  1.00  0.00    -0.248 NA
ATOM     55  C   UNL A   1      42.765  29.226  33.863  1.00  0.00     0.031 C 
ATOM     56  C   UNL A   1      45.403  26.926  29.769  1.00  0.00     0.029 A 
ATOM     57  C   UNL A   1      44.601  26.335  30.726  1.00  0.00     0.049 A 
ATOM     58  H   UNL A   1      43.021  24.976  30.466  1.00  0.00     0.167 HD
ATOM     59  C   UNL A   1      43.836  27.609  32.599  1.00  0.00     0.074 A 
ATOM     60  C   UNL A   1      43.372  28.030  33.907  1.00  0.00     0.031 C 
ATOM     61  C   UNL A   1      44.451  26.469  32.165  1.00  0.00     0.037 A 
BRANCH  48  62
ATOM     62  C   UNL A   1      43.395  23.826  26.769  1.00  0.00     0.064 A 
ATOM     63  C   UNL A   1      42.965  22.492  26.920  1.00  0.00     0.173 A 
ATOM     64  C   UNL A   1      44.229  24.052  25.658  1.00  0.00     0.173 A 
ATOM     65  F   UNL A   1      42.063  22.147  27.848  1.00  0.00    -0.203 F 
ATOM     66  C   UNL A   1      43.447  21.454  26.119  1.00  0.00     0.198 A 
ATOM     67  C   UNL A   1      44.766  23.009  24.899  1.00  0.00     0.198 A 
ATOM     68  F   UNL A   1      44.500  25.294  25.234  1.00  0.00    -0.203 F 
ATOM     69  F   UNL A   1      43.006  20.203  26.315  1.00  0.00    -0.200 F 
ATOM     70  C   UNL A   1      44.386  21.705  25.140  1.00  0.00     0.200 A 
ATOM     71  F   UNL A   1      45.653  23.278  23.930  1.00  0.00    -0.200 F 
ATOM     72  F   UNL A   1      44.896  20.703  24.412  1.00  0.00    -0.200 F 
ENDBRANCH  48  62
BRANCH  49  73
ATOM     73  C   UNL A   1      40.870  31.346  32.370  1.00  0.00     0.064 A 
ATOM     74  C   UNL A   1      39.843  30.495  32.826  1.00  0.00     0.173 A 
ATOM     75  C   UNL A   1      40.894  32.657  32.853  1.00  0.00     0.173 A 
ATOM     76  F   UNL A   1      39.763  29.234  32.371  1.00  0.00    -0.203 F 
ATOM     77  C   UNL A   1      39.003  30.882  33.864  1.00  0.00     0.198 A 
ATOM     78  C   UNL A   1      40.023  33.052  33.866  1.00  0.00     0.198 A 
ATOM     79  F   UNL A   1      41.845  33.513  32.452  1.00  0.00    -0.203 F 
ATOM     80  F   UNL A   1      38.156  29.994  34.405  1.00  0.00    -0.200 F 
ATOM     81  C   UNL A   1      39.122  32.148  34.410  1.00  0.00     0.200 A 
ATOM     82  F   UNL A   1      40.129  34.282  34.388  1.00  0.00    -0.200 F 
ATOM     83  F   UNL A   1      38.406  32.478  35.494  1.00  0.00    -0.200 F 
ENDBRANCH  49  73
BRANCH  61  84
ATOM     84  C   UNL A   1      44.924  25.377  33.088  1.00  0.00     0.064 A 
ATOM     85  C   UNL A   1      44.046  24.650  33.910  1.00  0.00     0.173 A 
ATOM     86  C   UNL A   1      46.296  25.086  33.254  1.00  0.00     0.173 A 
ATOM     87  F   UNL A   1      42.732  24.922  33.925  1.00  0.00    -0.203 F 
ATOM     88  C   UNL A   1      44.496  23.636  34.758  1.00  0.00     0.198 A 
ATOM     89  C   UNL A   1      46.748  24.112  34.144  1.00  0.00     0.198 A 
ATOM     90  F   UNL A   1      47.241  25.718  32.544  1.00  0.00    -0.203 F 
ATOM     91  F   UNL A   1      43.611  22.918  35.463  1.00  0.00    -0.200 F 
ATOM     92  C   UNL A   1      45.847  23.369  34.877  1.00  0.00     0.200 A 
ATOM     93  F   UNL A   1      48.065  23.893  34.275  1.00  0.00    -0.200 F 
ATOM     94  F   UNL A   1      46.278  22.404  35.699  1.00  0.00    -0.200 F 
ENDBRANCH  61  84
ENDBRANCH  35  36
ENDBRANCH  27  30
ENDBRANCH  25  26
ENDBRANCH  24  25
ENDBRANCH   1  24
TORSDOF 13
ENDMDL
