MODEL 1
REMARK VINA RESULT:     -11.8      0.000      0.000
REMARK SMILES COc1cc(CC(=O)NCCCNC(=O)c2ccc(-c3c4nc(c(-c5c(F)c(F)c(F)c(F)c5F)c5ccc([nH]5)c(-c5c(F)c(F)c(F)c(F)c5F)c5nc(c(-c6c(F)c(F)c(F)c(F)c6F)c6ccc3[nH]6)C=C5)C=C4)cc2)cc(Br)c1O
REMARK SMILES IDX 11 1 10 2 9 3 7 4 8 5 6 7 5 8 3 9 4 10 82 11 80 12 79 13
REMARK SMILES IDX 81 14 2 15 1 16 83 17 12 19 13 20 14 21 15 23 16 24 17 25
REMARK SMILES IDX 78 26 18 27 77 28 19 29 20 30 21 31 71 32 22 33 76 34 70 35
REMARK SMILES IDX 72 36 23 37 75 38 69 39 68 40 24 42 56 43 36 44 55 45 37 46
REMARK SMILES IDX 40 47 54 48 73 49 38 50 39 51 53 53 74 54 41 55 25 56 26 57
REMARK SMILES IDX 34 58 27 59 28 60 32 61 35 62 29 63 30 64 33 65 31 66 57 67
REMARK SMILES IDX 58 68 66 69 59 70 60 71 64 72 67 73 61 74 62 75 65 76 63 77
REMARK SMILES IDX 42 78 43 79 51 80 44 81 45 82 49 83 52 84 46 85 47 86 50 87
REMARK SMILES IDX 48 88
REMARK H PARENT 9 6 83 18 13 22 72 41 40 52
REMARK Flexibility Score: inf
ROOT
ATOM      1  C   UNL A   1      31.217  32.417  26.548  1.00  0.00     0.042 C 
ENDROOT
BRANCH   1   2
ATOM      2  C   UNL A   1      31.324  30.975  26.056  1.00  0.00     0.117 C 
BRANCH   2   3
ATOM      3  N   UNL A   1      32.521  30.316  26.540  1.00  0.00    -0.356 N 
ATOM      4  C   UNL A   1      32.727  28.992  26.805  1.00  0.00     0.224 C 
ATOM      5  O   UNL A   1      33.811  28.652  27.280  1.00  0.00    -0.275 OA
ATOM      6  H   UNL A   1      33.294  30.905  26.700  1.00  0.00     0.163 HD
BRANCH   4   7
ATOM      7  C   UNL A   1      31.641  27.977  26.497  1.00  0.00     0.135 C 
BRANCH   7   8
ATOM      8  C   UNL A   1      31.599  27.543  25.051  1.00  0.00    -0.034 A 
ATOM      9  C   UNL A   1      30.712  27.776  22.807  1.00  0.00     0.161 A 
ATOM     10  C   UNL A   1      30.758  28.195  24.136  1.00  0.00     0.054 A 
ATOM     11  C   UNL A   1      31.550  26.757  22.353  1.00  0.00     0.172 A 
ATOM     12  C   UNL A   1      32.390  26.102  23.252  1.00  0.00     0.063 A 
ATOM     13  C   UNL A   1      32.416  26.494  24.595  1.00  0.00     0.024 A 
ATOM     14  Br  UNL A   1      33.524  24.688  22.698  1.00  0.00    -0.047 Br
BRANCH   9  15
ATOM     15  O   UNL A   1      29.863  28.425  21.947  1.00  0.00    -0.493 OA
ATOM     16  C   UNL A   1      29.992  29.843  22.091  1.00  0.00     0.278 C 
ENDBRANCH   9  15
BRANCH  11  17
ATOM     17  O   UNL A   1      31.556  26.429  21.025  1.00  0.00    -0.503 OA
ATOM     18  H   UNL A   1      30.747  26.330  20.563  1.00  0.00     0.293 HD
ENDBRANCH  11  17
ENDBRANCH   7   8
ENDBRANCH   4   7
ENDBRANCH   2   3
ENDBRANCH   1   2
BRANCH   1  19
ATOM     19  C   UNL A   1      32.476  32.940  27.235  1.00  0.00     0.118 C 
BRANCH  19  20
ATOM     20  N   UNL A   1      32.345  34.324  27.666  1.00  0.00    -0.352 N 
ATOM     21  C   UNL A   1      33.013  35.024  28.637  1.00  0.00     0.251 C 
ATOM     22  H   UNL A   1      31.665  34.843  27.180  1.00  0.00     0.163 HD
ATOM     23  O   UNL A   1      32.609  36.141  28.958  1.00  0.00    -0.269 OA
BRANCH  21  24
ATOM     24  C   UNL A   1      34.197  34.456  29.320  1.00  0.00     0.039 A 
ATOM     25  C   UNL A   1      34.011  33.795  30.539  1.00  0.00     0.014 A 
ATOM     26  C   UNL A   1      35.488  34.614  28.807  1.00  0.00     0.014 A 
ATOM     27  C   UNL A   1      35.105  33.239  31.208  1.00  0.00     0.010 A 
ATOM     28  C   UNL A   1      36.569  34.003  29.440  1.00  0.00     0.010 A 
ATOM     29  C   UNL A   1      36.389  33.311  30.646  1.00  0.00    -0.014 A 
BRANCH  29  30
ATOM     30  C   UNL A   1      37.550  32.656  31.301  1.00  0.00     0.031 A 
ATOM     31  C   UNL A   1      38.259  31.514  30.631  1.00  0.00     0.074 A 
ATOM     32  C   UNL A   1      37.921  33.047  32.535  1.00  0.00     0.049 A 
ATOM     33  N   UNL A   1      39.241  30.771  31.080  1.00  0.00    -0.248 NA
ATOM     34  C   UNL A   1      37.788  31.141  29.289  1.00  0.00     0.031 C 
ATOM     35  C   UNL A   1      37.281  34.109  33.311  1.00  0.00     0.029 A 
ATOM     36  N   UNL A   1      38.915  32.583  33.360  1.00  0.00    -0.354 N 
ATOM     37  C   UNL A   1      39.493  29.837  30.084  1.00  0.00     0.074 A 
ATOM     38  C   UNL A   1      38.532  30.077  29.029  1.00  0.00     0.031 C 
ATOM     39  C   UNL A   1      37.903  34.223  34.495  1.00  0.00     0.029 A 
ATOM     40  C   UNL A   1      38.962  33.220  34.575  1.00  0.00     0.049 A 
ATOM     41  H   UNL A   1      39.534  31.862  33.106  1.00  0.00     0.167 HD
ATOM     42  C   UNL A   1      40.451  28.880  30.045  1.00  0.00     0.037 A 
ATOM     43  C   UNL A   1      39.759  33.015  35.639  1.00  0.00     0.037 A 
ATOM     44  C   UNL A   1      41.417  28.654  31.089  1.00  0.00     0.049 A 
ATOM     45  C   UNL A   1      40.817  31.950  35.573  1.00  0.00     0.074 A 
ATOM     46  C   UNL A   1      42.465  27.750  31.116  1.00  0.00     0.029 A 
ATOM     47  N   UNL A   1      41.450  29.338  32.296  1.00  0.00    -0.354 N 
ATOM     48  N   UNL A   1      41.091  31.117  34.599  1.00  0.00    -0.248 NA
ATOM     49  C   UNL A   1      41.683  31.801  36.750  1.00  0.00     0.031 C 
ATOM     50  C   UNL A   1      43.107  27.860  32.355  1.00  0.00     0.029 A 
ATOM     51  C   UNL A   1      42.487  28.863  33.083  1.00  0.00     0.049 A 
ATOM     52  H   UNL A   1      40.828  30.055  32.555  1.00  0.00     0.167 HD
ATOM     53  C   UNL A   1      42.167  30.358  35.036  1.00  0.00     0.074 A 
ATOM     54  C   UNL A   1      42.509  30.841  36.358  1.00  0.00     0.031 C 
ATOM     55  C   UNL A   1      42.813  29.351  34.399  1.00  0.00     0.037 A 
BRANCH  42  56
ATOM     56  C   UNL A   1      40.499  28.003  28.828  1.00  0.00     0.064 A 
ATOM     57  C   UNL A   1      41.254  28.355  27.699  1.00  0.00     0.173 A 
ATOM     58  C   UNL A   1      39.798  26.788  28.794  1.00  0.00     0.173 A 
ATOM     59  F   UNL A   1      41.935  29.511  27.675  1.00  0.00    -0.203 F 
ATOM     60  C   UNL A   1      41.277  27.541  26.569  1.00  0.00     0.198 A 
ATOM     61  C   UNL A   1      39.847  25.963  27.674  1.00  0.00     0.198 A 
ATOM     62  F   UNL A   1      39.067  26.400  29.849  1.00  0.00    -0.203 F 
ATOM     63  F   UNL A   1      41.962  27.926  25.483  1.00  0.00    -0.200 F 
ATOM     64  C   UNL A   1      40.579  26.345  26.559  1.00  0.00     0.200 A 
ATOM     65  F   UNL A   1      39.180  24.800  27.669  1.00  0.00    -0.200 F 
ATOM     66  F   UNL A   1      40.601  25.562  25.470  1.00  0.00    -0.200 F 
ENDBRANCH  42  56
BRANCH  43  67
ATOM     67  C   UNL A   1      39.595  33.856  36.851  1.00  0.00     0.064 A 
ATOM     68  C   UNL A   1      40.225  35.104  36.950  1.00  0.00     0.173 A 
ATOM     69  C   UNL A   1      38.784  33.446  37.919  1.00  0.00     0.173 A 
ATOM     70  F   UNL A   1      41.024  35.531  35.962  1.00  0.00    -0.203 F 
ATOM     71  C   UNL A   1      40.058  35.906  38.077  1.00  0.00     0.198 A 
ATOM     72  C   UNL A   1      38.597  34.258  39.034  1.00  0.00     0.198 A 
ATOM     73  F   UNL A   1      38.153  32.263  37.866  1.00  0.00    -0.203 F 
ATOM     74  F   UNL A   1      40.695  37.082  38.161  1.00  0.00    -0.200 F 
ATOM     75  C   UNL A   1      39.239  35.486  39.115  1.00  0.00     0.200 A 
ATOM     76  F   UNL A   1      37.792  33.857  40.027  1.00  0.00    -0.200 F 
ATOM     77  F   UNL A   1      39.067  36.263  40.193  1.00  0.00    -0.200 F 
ENDBRANCH  43  67
BRANCH  55  78
ATOM     78  C   UNL A   1      43.967  28.715  35.116  1.00  0.00     0.064 A 
ATOM     79  C   UNL A   1      43.787  27.615  35.967  1.00  0.00     0.173 A 
ATOM     80  C   UNL A   1      45.273  29.190  34.922  1.00  0.00     0.173 A 
ATOM     81  F   UNL A   1      42.554  27.136  36.197  1.00  0.00    -0.203 F 
ATOM     82  C   UNL A   1      44.869  27.026  36.614  1.00  0.00     0.198 A 
ATOM     83  C   UNL A   1      46.357  28.582  35.551  1.00  0.00     0.198 A 
ATOM     84  F   UNL A   1      45.500  30.237  34.115  1.00  0.00    -0.203 F 
ATOM     85  F   UNL A   1      44.668  26.003  37.456  1.00  0.00    -0.200 F 
ATOM     86  C   UNL A   1      46.153  27.505  36.401  1.00  0.00     0.200 A 
ATOM     87  F   UNL A   1      47.598  29.039  35.336  1.00  0.00    -0.200 F 
ATOM     88  F   UNL A   1      47.194  26.934  37.021  1.00  0.00    -0.200 F 
ENDBRANCH  55  78
ENDBRANCH  29  30
ENDBRANCH  21  24
ENDBRANCH  19  20
ENDBRANCH   1  19
TORSDOF 13
ENDMDL
MODEL 2
REMARK VINA RESULT:     -11.7      5.891     11.044
REMARK SMILES COc1cc(CC(=O)NCCCNC(=O)c2ccc(-c3c4nc(c(-c5c(F)c(F)c(F)c(F)c5F)c5ccc([nH]5)c(-c5c(F)c(F)c(F)c(F)c5F)c5nc(c(-c6c(F)c(F)c(F)c(F)c6F)c6ccc3[nH]6)C=C5)C=C4)cc2)cc(Br)c1O
REMARK SMILES IDX 11 1 10 2 9 3 7 4 8 5 6 7 5 8 3 9 4 10 82 11 80 12 79 13
REMARK SMILES IDX 81 14 2 15 1 16 83 17 12 19 13 20 14 21 15 23 16 24 17 25
REMARK SMILES IDX 78 26 18 27 77 28 19 29 20 30 21 31 71 32 22 33 76 34 70 35
REMARK SMILES IDX 72 36 23 37 75 38 69 39 68 40 24 42 56 43 36 44 55 45 37 46
REMARK SMILES IDX 40 47 54 48 73 49 38 50 39 51 53 53 74 54 41 55 25 56 26 57
REMARK SMILES IDX 34 58 27 59 28 60 32 61 35 62 29 63 30 64 33 65 31 66 57 67
REMARK SMILES IDX 58 68 66 69 59 70 60 71 64 72 67 73 61 74 62 75 65 76 63 77
REMARK SMILES IDX 42 78 43 79 51 80 44 81 45 82 49 83 52 84 46 85 47 86 50 87
REMARK SMILES IDX 48 88
REMARK H PARENT 9 6 83 18 13 22 72 41 40 52
REMARK Flexibility Score: inf
ROOT
ATOM      1  C   UNL A   1      38.091  19.716  24.921  1.00  0.00     0.042 C 
ENDROOT
BRANCH   1   2
ATOM      2  C   UNL A   1      36.890  20.660  24.948  1.00  0.00     0.117 C 
BRANCH   2   3
ATOM      3  N   UNL A   1      37.125  21.826  25.778  1.00  0.00    -0.356 N 
ATOM      4  C   UNL A   1      36.551  23.063  25.708  1.00  0.00     0.224 C 
ATOM      5  O   UNL A   1      36.951  23.939  26.476  1.00  0.00    -0.275 OA
ATOM      6  H   UNL A   1      37.792  21.709  26.493  1.00  0.00     0.163 HD
BRANCH   4   7
ATOM      7  C   UNL A   1      35.435  23.327  24.712  1.00  0.00     0.135 C 
BRANCH   7   8
ATOM      8  C   UNL A   1      34.283  24.121  25.280  1.00  0.00    -0.034 A 
ATOM      9  C   UNL A   1      32.246  24.233  26.590  1.00  0.00     0.161 A 
ATOM     10  C   UNL A   1      33.317  23.498  26.085  1.00  0.00     0.054 A 
ATOM     11  C   UNL A   1      32.158  25.608  26.363  1.00  0.00     0.172 A 
ATOM     12  C   UNL A   1      33.111  26.238  25.565  1.00  0.00     0.063 A 
ATOM     13  C   UNL A   1      34.169  25.499  25.026  1.00  0.00     0.024 A 
ATOM     14  Br  UNL A   1      33.020  28.094  25.195  1.00  0.00    -0.047 Br
BRANCH   9  15
ATOM     15  O   UNL A   1      31.313  23.585  27.357  1.00  0.00    -0.493 OA
ATOM     16  C   UNL A   1      30.425  22.825  26.530  1.00  0.00     0.278 C 
ENDBRANCH   9  15
BRANCH  11  17
ATOM     17  O   UNL A   1      31.151  26.325  26.949  1.00  0.00    -0.503 OA
ATOM     18  H   UNL A   1      31.271  26.691  27.803  1.00  0.00     0.293 HD
ENDBRANCH  11  17
ENDBRANCH   7   8
ENDBRANCH   4   7
ENDBRANCH   2   3
ENDBRANCH   1   2
BRANCH   1  19
ATOM     19  C   UNL A   1      39.174  20.050  25.943  1.00  0.00     0.118 C 
BRANCH  19  20
ATOM     20  N   UNL A   1      40.301  19.131  25.884  1.00  0.00    -0.352 N 
ATOM     21  C   UNL A   1      41.647  19.360  26.009  1.00  0.00     0.251 C 
ATOM     22  H   UNL A   1      40.057  18.191  25.730  1.00  0.00     0.163 HD
ATOM     23  O   UNL A   1      42.438  18.456  25.740  1.00  0.00    -0.269 OA
BRANCH  21  24
ATOM     24  C   UNL A   1      42.168  20.676  26.443  1.00  0.00     0.039 A 
ATOM     25  C   UNL A   1      42.599  21.578  25.464  1.00  0.00     0.014 A 
ATOM     26  C   UNL A   1      42.290  21.009  27.795  1.00  0.00     0.014 A 
ATOM     27  C   UNL A   1      43.089  22.833  25.836  1.00  0.00     0.010 A 
ATOM     28  C   UNL A   1      42.717  22.284  28.162  1.00  0.00     0.010 A 
ATOM     29  C   UNL A   1      43.121  23.208  27.188  1.00  0.00    -0.014 A 
BRANCH  29  30
ATOM     30  C   UNL A   1      43.562  24.566  27.596  1.00  0.00     0.031 A 
ATOM     31  C   UNL A   1      42.553  25.619  27.956  1.00  0.00     0.074 A 
ATOM     32  C   UNL A   1      44.873  24.871  27.575  1.00  0.00     0.049 A 
ATOM     33  N   UNL A   1      42.744  26.879  28.263  1.00  0.00    -0.248 NA
ATOM     34  C   UNL A   1      41.141  25.210  27.946  1.00  0.00     0.031 C 
ATOM     35  C   UNL A   1      45.946  23.952  27.196  1.00  0.00     0.029 A 
ATOM     36  N   UNL A   1      45.525  26.045  27.861  1.00  0.00    -0.354 N 
ATOM     37  C   UNL A   1      41.479  27.413  28.467  1.00  0.00     0.074 A 
ATOM     38  C   UNL A   1      40.527  26.356  28.205  1.00  0.00     0.031 C 
ATOM     39  C   UNL A   1      47.123  24.592  27.281  1.00  0.00     0.029 A 
ATOM     40  C   UNL A   1      46.884  25.974  27.687  1.00  0.00     0.049 A 
ATOM     41  H   UNL A   1      45.061  26.859  28.161  1.00  0.00     0.167 HD
ATOM     42  C   UNL A   1      41.143  28.667  28.857  1.00  0.00     0.037 A 
ATOM     43  C   UNL A   1      47.833  26.918  27.827  1.00  0.00     0.037 A 
ATOM     44  C   UNL A   1      42.093  29.713  29.135  1.00  0.00     0.049 A 
ATOM     45  C   UNL A   1      47.439  28.301  28.264  1.00  0.00     0.074 A 
ATOM     46  C   UNL A   1      41.855  30.997  29.595  1.00  0.00     0.029 A 
ATOM     47  N   UNL A   1      43.466  29.597  28.973  1.00  0.00    -0.354 N 
ATOM     48  N   UNL A   1      46.245  28.777  28.521  1.00  0.00    -0.248 NA
ATOM     49  C   UNL A   1      48.523  29.276  28.440  1.00  0.00     0.031 C 
ATOM     50  C   UNL A   1      43.080  31.669  29.673  1.00  0.00     0.029 A 
ATOM     51  C   UNL A   1      44.086  30.791  29.304  1.00  0.00     0.049 A 
ATOM     52  H   UNL A   1      43.931  28.785  28.667  1.00  0.00     0.167 HD
ATOM     53  C   UNL A   1      46.434  30.097  28.902  1.00  0.00     0.074 A 
ATOM     54  C   UNL A   1      47.861  30.344  28.862  1.00  0.00     0.031 C 
ATOM     55  C   UNL A   1      45.508  31.022  29.255  1.00  0.00     0.037 A 
BRANCH  42  56
ATOM     56  C   UNL A   1      39.682  28.973  29.008  1.00  0.00     0.064 A 
ATOM     57  C   UNL A   1      39.038  28.888  30.252  1.00  0.00     0.173 A 
ATOM     58  C   UNL A   1      38.918  29.372  27.901  1.00  0.00     0.173 A 
ATOM     59  F   UNL A   1      39.720  28.501  31.340  1.00  0.00    -0.203 F 
ATOM     60  C   UNL A   1      37.678  29.158  30.376  1.00  0.00     0.198 A 
ATOM     61  C   UNL A   1      37.564  29.670  28.034  1.00  0.00     0.198 A 
ATOM     62  F   UNL A   1      39.485  29.477  26.690  1.00  0.00    -0.203 F 
ATOM     63  F   UNL A   1      37.074  29.017  31.564  1.00  0.00    -0.200 F 
ATOM     64  C   UNL A   1      36.943  29.553  29.269  1.00  0.00     0.200 A 
ATOM     65  F   UNL A   1      36.857  30.063  26.966  1.00  0.00    -0.200 F 
ATOM     66  F   UNL A   1      35.633  29.812  29.390  1.00  0.00    -0.200 F 
ENDBRANCH  42  56
BRANCH  43  67
ATOM     67  C   UNL A   1      49.254  26.573  27.569  1.00  0.00     0.064 A 
ATOM     68  C   UNL A   1      49.759  26.540  26.262  1.00  0.00     0.173 A 
ATOM     69  C   UNL A   1      50.140  26.299  28.621  1.00  0.00     0.173 A 
ATOM     70  F   UNL A   1      48.945  26.777  25.224  1.00  0.00    -0.203 F 
ATOM     71  C   UNL A   1      51.096  26.236  26.017  1.00  0.00     0.198 A 
ATOM     72  C   UNL A   1      51.482  26.020  28.376  1.00  0.00     0.198 A 
ATOM     73  F   UNL A   1      49.704  26.328  29.889  1.00  0.00    -0.203 F 
ATOM     74  F   UNL A   1      51.548  26.182  24.756  1.00  0.00    -0.200 F 
ATOM     75  C   UNL A   1      51.958  25.983  27.074  1.00  0.00     0.200 A 
ATOM     76  F   UNL A   1      52.315  25.794  29.400  1.00  0.00    -0.200 F 
ATOM     77  F   UNL A   1      53.248  25.705  26.838  1.00  0.00    -0.200 F 
ENDBRANCH  43  67
BRANCH  55  78
ATOM     78  C   UNL A   1      46.010  32.382  29.641  1.00  0.00     0.064 A 
ATOM     79  C   UNL A   1      46.144  33.411  28.697  1.00  0.00     0.173 A 
ATOM     80  C   UNL A   1      46.327  32.670  30.977  1.00  0.00     0.173 A 
ATOM     81  F   UNL A   1      45.869  33.179  27.404  1.00  0.00    -0.203 F 
ATOM     82  C   UNL A   1      46.597  34.672  29.073  1.00  0.00     0.198 A 
ATOM     83  C   UNL A   1      46.755  33.940  31.354  1.00  0.00     0.198 A 
ATOM     84  F   UNL A   1      46.212  31.722  31.919  1.00  0.00    -0.203 F 
ATOM     85  F   UNL A   1      46.759  35.627  28.146  1.00  0.00    -0.200 F 
ATOM     86  C   UNL A   1      46.896  34.938  30.401  1.00  0.00     0.200 A 
ATOM     87  F   UNL A   1      47.034  34.198  32.639  1.00  0.00    -0.200 F 
ATOM     88  F   UNL A   1      47.328  36.154  30.761  1.00  0.00    -0.200 F 
ENDBRANCH  55  78
ENDBRANCH  29  30
ENDBRANCH  21  24
ENDBRANCH  19  20
ENDBRANCH   1  19
TORSDOF 13
ENDMDL
MODEL 3
REMARK VINA RESULT:     -11.6      0.237      2.033
REMARK SMILES COc1cc(CC(=O)NCCCNC(=O)c2ccc(-c3c4nc(c(-c5c(F)c(F)c(F)c(F)c5F)c5ccc([nH]5)c(-c5c(F)c(F)c(F)c(F)c5F)c5nc(c(-c6c(F)c(F)c(F)c(F)c6F)c6ccc3[nH]6)C=C5)C=C4)cc2)cc(Br)c1O
REMARK SMILES IDX 11 1 10 2 9 3 7 4 8 5 6 7 5 8 3 9 4 10 82 11 80 12 79 13
REMARK SMILES IDX 81 14 2 15 1 16 83 17 12 19 13 20 14 21 15 23 16 24 17 25
REMARK SMILES IDX 78 26 18 27 77 28 19 29 20 30 21 31 71 32 22 33 76 34 70 35
REMARK SMILES IDX 72 36 23 37 75 38 69 39 68 40 24 42 56 43 36 44 55 45 37 46
REMARK SMILES IDX 40 47 54 48 73 49 38 50 39 51 53 53 74 54 41 55 25 56 26 57
REMARK SMILES IDX 34 58 27 59 28 60 32 61 35 62 29 63 30 64 33 65 31 66 57 67
REMARK SMILES IDX 58 68 66 69 59 70 60 71 64 72 67 73 61 74 62 75 65 76 63 77
REMARK SMILES IDX 42 78 43 79 51 80 44 81 45 82 49 83 52 84 46 85 47 86 50 87
REMARK SMILES IDX 48 88
REMARK H PARENT 9 6 83 18 13 22 72 41 40 52
REMARK Flexibility Score: inf
ROOT
ATOM      1  C   UNL A   1      31.274  32.355  26.546  1.00  0.00     0.042 C 
ENDROOT
BRANCH   1   2
ATOM      2  C   UNL A   1      31.371  30.888  26.131  1.00  0.00     0.117 C 
BRANCH   2   3
ATOM      3  N   UNL A   1      32.656  30.305  26.467  1.00  0.00    -0.356 N 
ATOM      4  C   UNL A   1      32.982  28.994  26.662  1.00  0.00     0.224 C 
ATOM      5  O   UNL A   1      34.131  28.721  27.012  1.00  0.00    -0.275 OA
ATOM      6  H   UNL A   1      33.398  30.946  26.568  1.00  0.00     0.163 HD
BRANCH   4   7
ATOM      7  C   UNL A   1      31.943  27.910  26.430  1.00  0.00     0.135 C 
BRANCH   7   8
ATOM      8  C   UNL A   1      31.803  27.494  24.986  1.00  0.00    -0.034 A 
ATOM      9  C   UNL A   1      30.861  27.835  22.778  1.00  0.00     0.161 A 
ATOM     10  C   UNL A   1      31.001  28.237  24.106  1.00  0.00     0.054 A 
ATOM     11  C   UNL A   1      31.572  26.738  22.289  1.00  0.00     0.172 A 
ATOM     12  C   UNL A   1      32.371  25.993  23.153  1.00  0.00     0.063 A 
ATOM     13  C   UNL A   1      32.488  26.369  24.496  1.00  0.00     0.024 A 
ATOM     14  Br  UNL A   1      33.330  24.472  22.551  1.00  0.00    -0.047 Br
BRANCH   9  15
ATOM     15  O   UNL A   1      30.053  28.575  21.953  1.00  0.00    -0.493 OA
ATOM     16  C   UNL A   1      28.833  28.914  22.621  1.00  0.00     0.278 C 
ENDBRANCH   9  15
BRANCH  11  17
ATOM     17  O   UNL A   1      31.494  26.422  20.960  1.00  0.00    -0.503 OA
ATOM     18  H   UNL A   1      31.975  26.921  20.330  1.00  0.00     0.293 HD
ENDBRANCH  11  17
ENDBRANCH   7   8
ENDBRANCH   4   7
ENDBRANCH   2   3
ENDBRANCH   1   2
BRANCH   1  19
ATOM     19  C   UNL A   1      32.542  32.910  27.189  1.00  0.00     0.118 C 
BRANCH  19  20
ATOM     20  N   UNL A   1      32.387  34.287  27.635  1.00  0.00    -0.352 N 
ATOM     21  C   UNL A   1      33.031  34.983  28.625  1.00  0.00     0.251 C 
ATOM     22  H   UNL A   1      31.709  34.804  27.144  1.00  0.00     0.163 HD
ATOM     23  O   UNL A   1      32.608  36.092  28.952  1.00  0.00    -0.269 OA
BRANCH  21  24
ATOM     24  C   UNL A   1      34.210  34.422  29.320  1.00  0.00     0.039 A 
ATOM     25  C   UNL A   1      34.018  33.774  30.545  1.00  0.00     0.014 A 
ATOM     26  C   UNL A   1      35.504  34.572  28.811  1.00  0.00     0.014 A 
ATOM     27  C   UNL A   1      35.108  33.224  31.226  1.00  0.00     0.010 A 
ATOM     28  C   UNL A   1      36.581  33.967  29.457  1.00  0.00     0.010 A 
ATOM     29  C   UNL A   1      36.395  33.288  30.669  1.00  0.00    -0.014 A 
BRANCH  29  30
ATOM     30  C   UNL A   1      37.551  32.639  31.337  1.00  0.00     0.031 A 
ATOM     31  C   UNL A   1      38.251  31.477  30.692  1.00  0.00     0.074 A 
ATOM     32  C   UNL A   1      37.928  33.054  32.562  1.00  0.00     0.049 A 
ATOM     33  N   UNL A   1      39.227  30.737  31.156  1.00  0.00    -0.248 NA
ATOM     34  C   UNL A   1      37.775  31.079  29.359  1.00  0.00     0.031 C 
ATOM     35  C   UNL A   1      37.297  34.138  33.315  1.00  0.00     0.029 A 
ATOM     36  N   UNL A   1      38.919  32.601  33.396  1.00  0.00    -0.354 N 
ATOM     37  C   UNL A   1      39.471  29.779  30.180  1.00  0.00     0.074 A 
ATOM     38  C   UNL A   1      38.511  30.003  29.121  1.00  0.00     0.031 C 
ATOM     39  C   UNL A   1      37.921  34.274  34.495  1.00  0.00     0.029 A 
ATOM     40  C   UNL A   1      38.972  33.265  34.596  1.00  0.00     0.049 A 
ATOM     41  H   UNL A   1      39.532  31.870  33.157  1.00  0.00     0.167 HD
ATOM     42  C   UNL A   1      40.422  28.814  30.162  1.00  0.00     0.037 A 
ATOM     43  C   UNL A   1      39.769  33.076  35.664  1.00  0.00     0.037 A 
ATOM     44  C   UNL A   1      41.388  28.604  31.209  1.00  0.00     0.049 A 
ATOM     45  C   UNL A   1      40.819  32.002  35.620  1.00  0.00     0.074 A 
ATOM     46  C   UNL A   1      42.429  27.693  31.254  1.00  0.00     0.029 A 
ATOM     47  N   UNL A   1      41.427  29.314  32.400  1.00  0.00    -0.354 N 
ATOM     48  N   UNL A   1      41.085  31.146  34.664  1.00  0.00    -0.248 NA
ATOM     49  C   UNL A   1      41.685  31.873  36.799  1.00  0.00     0.031 C 
ATOM     50  C   UNL A   1      43.073  27.825  32.490  1.00  0.00     0.029 A 
ATOM     51  C   UNL A   1      42.461  28.848  33.196  1.00  0.00     0.049 A 
ATOM     52  H   UNL A   1      40.811  30.042  32.644  1.00  0.00     0.167 HD
ATOM     53  C   UNL A   1      42.156  30.389  35.116  1.00  0.00     0.074 A 
ATOM     54  C   UNL A   1      42.504  30.898  36.427  1.00  0.00     0.031 C 
ATOM     55  C   UNL A   1      42.793  29.363  34.501  1.00  0.00     0.037 A 
BRANCH  42  56
ATOM     56  C   UNL A   1      40.462  27.910  28.964  1.00  0.00     0.064 A 
ATOM     57  C   UNL A   1      39.719  26.720  28.917  1.00  0.00     0.173 A 
ATOM     58  C   UNL A   1      41.237  28.243  27.843  1.00  0.00     0.173 A 
ATOM     59  F   UNL A   1      38.971  26.349  29.966  1.00  0.00    -0.203 F 
ATOM     60  C   UNL A   1      39.779  25.881  27.807  1.00  0.00     0.198 A 
ATOM     61  C   UNL A   1      41.270  27.416  26.723  1.00  0.00     0.198 A 
ATOM     62  F   UNL A   1      41.960  29.373  27.833  1.00  0.00    -0.203 F 
ATOM     63  F   UNL A   1      39.103  24.724  27.808  1.00  0.00    -0.200 F 
ATOM     64  C   UNL A   1      40.549  26.232  26.710  1.00  0.00     0.200 A 
ATOM     65  F   UNL A   1      42.007  27.762  25.658  1.00  0.00    -0.200 F 
ATOM     66  F   UNL A   1      40.605  25.423  25.642  1.00  0.00    -0.200 F 
ENDBRANCH  42  56
BRANCH  43  67
ATOM     67  C   UNL A   1      39.612  33.946  36.857  1.00  0.00     0.064 A 
ATOM     68  C   UNL A   1      38.813  33.547  37.937  1.00  0.00     0.173 A 
ATOM     69  C   UNL A   1      40.280  35.175  36.956  1.00  0.00     0.173 A 
ATOM     70  F   UNL A   1      38.142  32.387  37.880  1.00  0.00    -0.203 F 
ATOM     71  C   UNL A   1      38.679  34.350  39.067  1.00  0.00     0.198 A 
ATOM     72  C   UNL A   1      40.165  35.966  38.096  1.00  0.00     0.198 A 
ATOM     73  F   UNL A   1      41.063  35.595  35.951  1.00  0.00    -0.203 F 
ATOM     74  F   UNL A   1      37.885  33.959  40.074  1.00  0.00    -0.200 F 
ATOM     75  C   UNL A   1      39.361  35.555  39.149  1.00  0.00     0.200 A 
ATOM     76  F   UNL A   1      40.839  37.121  38.179  1.00  0.00    -0.200 F 
ATOM     77  F   UNL A   1      39.243  36.321  40.242  1.00  0.00    -0.200 F 
ENDBRANCH  43  67
BRANCH  55  78
ATOM     78  C   UNL A   1      43.943  28.735  35.230  1.00  0.00     0.064 A 
ATOM     79  C   UNL A   1      45.258  29.195  35.065  1.00  0.00     0.173 A 
ATOM     80  C   UNL A   1      43.724  27.682  36.132  1.00  0.00     0.173 A 
ATOM     81  F   UNL A   1      45.520  30.189  34.201  1.00  0.00    -0.203 F 
ATOM     82  C   UNL A   1      46.314  28.612  35.759  1.00  0.00     0.198 A 
ATOM     83  C   UNL A   1      44.779  27.118  36.845  1.00  0.00     0.198 A 
ATOM     84  F   UNL A   1      42.486  27.207  36.330  1.00  0.00    -0.203 F 
ATOM     85  F   UNL A   1      47.567  29.041  35.553  1.00  0.00    -0.200 F 
ATOM     86  C   UNL A   1      46.073  27.579  36.653  1.00  0.00     0.200 A 
ATOM     87  F   UNL A   1      44.544  26.127  37.716  1.00  0.00    -0.200 F 
ATOM     88  F   UNL A   1      47.090  27.022  37.324  1.00  0.00    -0.200 F 
ENDBRANCH  55  78
ENDBRANCH  29  30
ENDBRANCH  21  24
ENDBRANCH  19  20
ENDBRANCH   1  19
TORSDOF 13
ENDMDL
