MODEL 1
REMARK VINA RESULT:     -12.9      0.000      0.000
REMARK SMILES CC1(C)[C@H]2CC[C@]1(C)C(=O)N(CC(=O)NCCCNC(=O)c1ccc(-c3c4nc(c(-c5c(F)c(F)c(F)c(F)c5F)c5ccc([nH]5)c(-c5c(F)c(F)c(F)c(F)c5F)c5nc(c(-c6c(F)c(F)c(F)c(F)c6F)c6ccc3[nH]6)C=C5)C=C4)cc1)C2=O
REMARK SMILES IDX 17 1 16 2 15 3 13 4 14 5 12 7 11 8 1 9 2 10 4 11 7 12 3 13
REMARK SMILES IDX 5 14 85 15 6 16 9 17 8 18 86 19 10 20 18 21 19 22 20 23
REMARK SMILES IDX 21 25 22 26 23 27 84 28 24 29 83 30 25 31 26 32 27 33 77 34
REMARK SMILES IDX 28 35 82 36 76 37 78 38 29 39 81 40 75 41 74 42 30 44 62 45
REMARK SMILES IDX 42 46 61 47 43 48 46 49 60 50 79 51 44 52 45 53 59 55 80 56
REMARK SMILES IDX 47 57 31 58 32 59 40 60 33 61 34 62 38 63 41 64 35 65 36 66
REMARK SMILES IDX 39 67 37 68 63 69 64 70 72 71 65 72 66 73 70 74 73 75 67 76
REMARK SMILES IDX 68 77 71 78 69 79 48 80 49 81 57 82 50 83 51 84 55 85 58 86
REMARK SMILES IDX 52 87 53 88 56 89 54 90
REMARK H PARENT 15 6 19 24 78 43 46 54
REMARK Flexibility Score: inf
ROOT
ATOM      1  C   UNL A   1      32.238  29.703  25.423  1.00  0.00     0.042 C 
ENDROOT
BRANCH   1   2
ATOM      2  C   UNL A   1      30.943  29.738  24.592  1.00  0.00     0.117 C 
BRANCH   2   3
ATOM      3  N   UNL A   1      31.018  29.005  23.329  1.00  0.00    -0.354 N 
ATOM      4  C   UNL A   1      30.483  27.801  22.945  1.00  0.00     0.240 C 
ATOM      5  O   UNL A   1      30.696  27.452  21.778  1.00  0.00    -0.273 OA
ATOM      6  H   UNL A   1      31.546  29.455  22.632  1.00  0.00     0.163 HD
BRANCH   4   7
ATOM      7  C   UNL A   1      29.816  26.835  23.946  1.00  0.00     0.228 C 
BRANCH   7   8
ATOM      8  N   UNL A   1      30.868  25.933  24.389  1.00  0.00    -0.272 N 
ATOM      9  C   UNL A   1      31.835  23.662  26.840  1.00  0.00     0.013 C 
ATOM     10  C   UNL A   1      32.828  24.249  25.818  1.00  0.00    -0.010 C 
ATOM     11  C   UNL A   1      32.836  25.777  25.760  1.00  0.00     0.086 C 
ATOM     12  C   UNL A   1      32.442  23.993  24.318  1.00  0.00     0.053 C 
ATOM     13  C   UNL A   1      34.241  23.772  26.247  1.00  0.00     0.013 C 
ATOM     14  C   UNL A   1      33.633  26.103  24.461  1.00  0.00     0.015 C 
ATOM     15  C   UNL A   1      31.375  26.153  25.634  1.00  0.00     0.233 C 
ATOM     16  C   UNL A   1      33.501  24.840  23.579  1.00  0.00     0.018 C 
ATOM     17  C   UNL A   1      31.077  24.665  23.880  1.00  0.00     0.236 C 
ATOM     18  C   UNL A   1      32.457  22.516  23.940  1.00  0.00     0.022 C 
ATOM     19  O   UNL A   1      30.656  26.393  26.600  1.00  0.00    -0.274 OA
ATOM     20  O   UNL A   1      30.279  24.111  23.126  1.00  0.00    -0.274 OA
ENDBRANCH   7   8
ENDBRANCH   4   7
ENDBRANCH   2   3
ENDBRANCH   1   2
BRANCH   1  21
ATOM     21  C   UNL A   1      32.151  30.211  26.854  1.00  0.00     0.118 C 
BRANCH  21  22
ATOM     22  N   UNL A   1      32.375  31.641  26.933  1.00  0.00    -0.352 N 
ATOM     23  C   UNL A   1      33.366  32.405  27.499  1.00  0.00     0.251 C 
ATOM     24  H   UNL A   1      31.674  32.173  26.492  1.00  0.00     0.163 HD
ATOM     25  O   UNL A   1      33.134  33.609  27.626  1.00  0.00    -0.269 OA
BRANCH  23  26
ATOM     26  C   UNL A   1      34.692  31.891  27.956  1.00  0.00     0.039 A 
ATOM     27  C   UNL A   1      34.760  30.536  28.327  1.00  0.00     0.014 A 
ATOM     28  C   UNL A   1      35.809  32.691  28.200  1.00  0.00     0.014 A 
ATOM     29  C   UNL A   1      35.902  30.004  28.943  1.00  0.00     0.010 A 
ATOM     30  C   UNL A   1      36.981  32.144  28.751  1.00  0.00     0.010 A 
ATOM     31  C   UNL A   1      37.030  30.804  29.168  1.00  0.00    -0.014 A 
BRANCH  31  32
ATOM     32  C   UNL A   1      38.213  30.271  29.910  1.00  0.00     0.031 A 
ATOM     33  C   UNL A   1      38.467  30.676  31.342  1.00  0.00     0.074 A 
ATOM     34  C   UNL A   1      39.070  29.419  29.314  1.00  0.00     0.049 A 
ATOM     35  N   UNL A   1      39.450  30.340  32.144  1.00  0.00    -0.248 NA
ATOM     36  C   UNL A   1      37.494  31.597  31.949  1.00  0.00     0.031 C 
ATOM     37  C   UNL A   1      38.966  28.942  27.937  1.00  0.00     0.029 A 
ATOM     38  N   UNL A   1      40.200  28.800  29.797  1.00  0.00    -0.354 N 
ATOM     39  C   UNL A   1      39.224  31.021  33.334  1.00  0.00     0.074 A 
ATOM     40  C   UNL A   1      38.038  31.826  33.135  1.00  0.00     0.031 C 
ATOM     41  C   UNL A   1      39.969  28.083  27.692  1.00  0.00     0.029 A 
ATOM     42  C   UNL A   1      40.809  27.974  28.883  1.00  0.00     0.049 A 
ATOM     43  H   UNL A   1      40.540  28.935  30.710  1.00  0.00     0.167 HD
ATOM     44  C   UNL A   1      39.921  30.968  34.496  1.00  0.00     0.037 A 
ATOM     45  C   UNL A   1      41.917  27.213  28.989  1.00  0.00     0.037 A 
ATOM     46  C   UNL A   1      41.081  30.145  34.721  1.00  0.00     0.049 A 
ATOM     47  C   UNL A   1      42.685  27.181  30.282  1.00  0.00     0.074 A 
ATOM     48  C   UNL A   1      41.821  29.989  35.881  1.00  0.00     0.029 A 
ATOM     49  N   UNL A   1      41.669  29.332  33.764  1.00  0.00    -0.354 N 
ATOM     50  N   UNL A   1      42.436  27.800  31.410  1.00  0.00    -0.248 NA
ATOM     51  C   UNL A   1      43.891  26.338  30.315  1.00  0.00     0.031 C 
ATOM     52  C   UNL A   1      42.880  29.113  35.616  1.00  0.00     0.029 A 
ATOM     53  C   UNL A   1      42.774  28.689  34.302  1.00  0.00     0.049 A 
ATOM     54  H   UNL A   1      41.350  29.227  32.838  1.00  0.00     0.167 HD
ATOM     55  C   UNL A   1      43.431  27.401  32.292  1.00  0.00     0.074 A 
ATOM     56  C   UNL A   1      44.286  26.479  31.573  1.00  0.00     0.031 C 
ATOM     57  C   UNL A   1      43.616  27.767  33.584  1.00  0.00     0.037 A 
BRANCH  44  58
ATOM     58  C   UNL A   1      39.446  31.837  35.627  1.00  0.00     0.064 A 
ATOM     59  C   UNL A   1      39.915  33.148  35.797  1.00  0.00     0.173 A 
ATOM     60  C   UNL A   1      38.492  31.360  36.539  1.00  0.00     0.173 A 
ATOM     61  F   UNL A   1      40.835  33.649  34.957  1.00  0.00    -0.203 F 
ATOM     62  C   UNL A   1      39.477  33.935  36.859  1.00  0.00     0.198 A 
ATOM     63  C   UNL A   1      38.032  32.161  37.582  1.00  0.00     0.198 A 
ATOM     64  F   UNL A   1      38.000  30.118  36.417  1.00  0.00    -0.203 F 
ATOM     65  F   UNL A   1      39.983  35.164  37.033  1.00  0.00    -0.200 F 
ATOM     66  C   UNL A   1      38.533  33.443  37.747  1.00  0.00     0.200 A 
ATOM     67  F   UNL A   1      37.110  31.688  38.432  1.00  0.00    -0.200 F 
ATOM     68  F   UNL A   1      38.113  34.202  38.769  1.00  0.00    -0.200 F 
ENDBRANCH  44  58
BRANCH  45  69
ATOM     69  C   UNL A   1      42.350  26.382  27.835  1.00  0.00     0.064 A 
ATOM     70  C   UNL A   1      43.327  26.849  26.945  1.00  0.00     0.173 A 
ATOM     71  C   UNL A   1      41.804  25.113  27.601  1.00  0.00     0.173 A 
ATOM     72  F   UNL A   1      43.858  28.069  27.113  1.00  0.00    -0.203 F 
ATOM     73  C   UNL A   1      43.737  26.078  25.858  1.00  0.00     0.198 A 
ATOM     74  C   UNL A   1      42.231  24.334  26.529  1.00  0.00     0.198 A 
ATOM     75  F   UNL A   1      40.863  24.625  28.424  1.00  0.00    -0.203 F 
ATOM     76  F   UNL A   1      44.647  26.562  25.003  1.00  0.00    -0.200 F 
ATOM     77  C   UNL A   1      43.194  24.819  25.655  1.00  0.00     0.200 A 
ATOM     78  F   UNL A   1      41.711  23.113  26.341  1.00  0.00    -0.200 F 
ATOM     79  F   UNL A   1      43.593  24.075  24.615  1.00  0.00    -0.200 F 
ENDBRANCH  45  69
BRANCH  57  80
ATOM     80  C   UNL A   1      44.766  27.144  34.322  1.00  0.00     0.064 A 
ATOM     81  C   UNL A   1      46.025  27.761  34.381  1.00  0.00     0.173 A 
ATOM     82  C   UNL A   1      44.596  25.930  35.006  1.00  0.00     0.173 A 
ATOM     83  F   UNL A   1      46.241  28.913  33.730  1.00  0.00    -0.203 F 
ATOM     84  C   UNL A   1      47.076  27.175  35.080  1.00  0.00     0.198 A 
ATOM     85  C   UNL A   1      45.644  25.361  35.726  1.00  0.00     0.198 A 
ATOM     86  F   UNL A   1      43.411  25.302  34.986  1.00  0.00    -0.203 F 
ATOM     87  F   UNL A   1      48.282  27.761  35.088  1.00  0.00    -0.200 F 
ATOM     88  C   UNL A   1      46.884  25.980  35.757  1.00  0.00     0.200 A 
ATOM     89  F   UNL A   1      45.453  24.211  36.388  1.00  0.00    -0.200 F 
ATOM     90  F   UNL A   1      47.898  25.419  36.433  1.00  0.00    -0.200 F 
ENDBRANCH  57  80
ENDBRANCH  31  32
ENDBRANCH  23  26
ENDBRANCH  21  22
ENDBRANCH   1  21
TORSDOF 11
ENDMDL
MODEL 2
REMARK VINA RESULT:     -12.9      0.060      1.621
REMARK SMILES CC1(C)[C@H]2CC[C@]1(C)C(=O)N(CC(=O)NCCCNC(=O)c1ccc(-c3c4nc(c(-c5c(F)c(F)c(F)c(F)c5F)c5ccc([nH]5)c(-c5c(F)c(F)c(F)c(F)c5F)c5nc(c(-c6c(F)c(F)c(F)c(F)c6F)c6ccc3[nH]6)C=C5)C=C4)cc1)C2=O
REMARK SMILES IDX 17 1 16 2 15 3 13 4 14 5 12 7 11 8 1 9 2 10 4 11 7 12 3 13
REMARK SMILES IDX 5 14 85 15 6 16 9 17 8 18 86 19 10 20 18 21 19 22 20 23
REMARK SMILES IDX 21 25 22 26 23 27 84 28 24 29 83 30 25 31 26 32 27 33 77 34
REMARK SMILES IDX 28 35 82 36 76 37 78 38 29 39 81 40 75 41 74 42 30 44 62 45
REMARK SMILES IDX 42 46 61 47 43 48 46 49 60 50 79 51 44 52 45 53 59 55 80 56
REMARK SMILES IDX 47 57 31 58 32 59 40 60 33 61 34 62 38 63 41 64 35 65 36 66
REMARK SMILES IDX 39 67 37 68 63 69 64 70 72 71 65 72 66 73 70 74 73 75 67 76
REMARK SMILES IDX 68 77 71 78 69 79 48 80 49 81 57 82 50 83 51 84 55 85 58 86
REMARK SMILES IDX 52 87 53 88 56 89 54 90
REMARK H PARENT 15 6 19 24 78 43 46 54
REMARK Flexibility Score: inf
ROOT
ATOM      1  C   UNL A   1      32.220  29.751  25.420  1.00  0.00     0.042 C 
ENDROOT
BRANCH   1   2
ATOM      2  C   UNL A   1      30.934  29.822  24.579  1.00  0.00     0.117 C 
BRANCH   2   3
ATOM      3  N   UNL A   1      30.990  29.065  23.328  1.00  0.00    -0.354 N 
ATOM      4  C   UNL A   1      30.463  27.846  22.980  1.00  0.00     0.240 C 
ATOM      5  O   UNL A   1      30.654  27.477  21.816  1.00  0.00    -0.273 OA
ATOM      6  H   UNL A   1      31.495  29.509  22.610  1.00  0.00     0.163 HD
BRANCH   4   7
ATOM      7  C   UNL A   1      29.834  26.891  24.016  1.00  0.00     0.228 C 
BRANCH   7   8
ATOM      8  N   UNL A   1      30.899  25.984  24.418  1.00  0.00    -0.272 N 
ATOM      9  C   UNL A   1      31.924  23.664  26.798  1.00  0.00     0.013 C 
ATOM     10  C   UNL A   1      32.894  24.278  25.771  1.00  0.00    -0.010 C 
ATOM     11  C   UNL A   1      32.894  25.807  25.746  1.00  0.00     0.086 C 
ATOM     12  C   UNL A   1      32.480  24.053  24.273  1.00  0.00     0.053 C 
ATOM     13  C   UNL A   1      34.316  23.799  26.162  1.00  0.00     0.013 C 
ATOM     14  C   UNL A   1      33.664  26.166  24.440  1.00  0.00     0.015 C 
ATOM     15  C   UNL A   1      31.429  26.179  25.657  1.00  0.00     0.233 C 
ATOM     16  C   UNL A   1      33.520  24.922  23.532  1.00  0.00     0.018 C 
ATOM     17  C   UNL A   1      31.103  24.729  23.877  1.00  0.00     0.236 C 
ATOM     18  C   UNL A   1      32.493  22.586  23.862  1.00  0.00     0.022 C 
ATOM     19  O   UNL A   1      30.729  26.394  26.642  1.00  0.00    -0.274 OA
ATOM     20  O   UNL A   1      30.293  24.188  23.127  1.00  0.00    -0.274 OA
ENDBRANCH   7   8
ENDBRANCH   4   7
ENDBRANCH   2   3
ENDBRANCH   1   2
BRANCH   1  21
ATOM     21  C   UNL A   1      32.134  30.258  26.851  1.00  0.00     0.118 C 
BRANCH  21  22
ATOM     22  N   UNL A   1      32.362  31.688  26.931  1.00  0.00    -0.352 N 
ATOM     23  C   UNL A   1      33.355  32.449  27.499  1.00  0.00     0.251 C 
ATOM     24  H   UNL A   1      31.663  32.222  26.489  1.00  0.00     0.163 HD
ATOM     25  O   UNL A   1      33.126  33.654  27.625  1.00  0.00    -0.269 OA
BRANCH  23  26
ATOM     26  C   UNL A   1      34.678  31.931  27.958  1.00  0.00     0.039 A 
ATOM     27  C   UNL A   1      34.741  30.577  28.332  1.00  0.00     0.014 A 
ATOM     28  C   UNL A   1      35.798  32.728  28.200  1.00  0.00     0.014 A 
ATOM     29  C   UNL A   1      35.881  30.043  28.951  1.00  0.00     0.010 A 
ATOM     30  C   UNL A   1      36.968  32.178  28.753  1.00  0.00     0.010 A 
ATOM     31  C   UNL A   1      37.011  30.839  29.174  1.00  0.00    -0.014 A 
BRANCH  31  32
ATOM     32  C   UNL A   1      38.192  30.304  29.918  1.00  0.00     0.031 A 
ATOM     33  C   UNL A   1      38.442  30.705  31.352  1.00  0.00     0.074 A 
ATOM     34  C   UNL A   1      39.051  29.453  29.323  1.00  0.00     0.049 A 
ATOM     35  N   UNL A   1      39.422  30.367  32.156  1.00  0.00    -0.248 NA
ATOM     36  C   UNL A   1      37.467  31.625  31.959  1.00  0.00     0.031 C 
ATOM     37  C   UNL A   1      38.951  28.980  27.944  1.00  0.00     0.029 A 
ATOM     38  N   UNL A   1      40.179  28.832  29.807  1.00  0.00    -0.354 N 
ATOM     39  C   UNL A   1      39.193  31.045  33.347  1.00  0.00     0.074 A 
ATOM     40  C   UNL A   1      38.008  31.851  33.147  1.00  0.00     0.031 C 
ATOM     41  C   UNL A   1      39.955  28.121  27.700  1.00  0.00     0.029 A 
ATOM     42  C   UNL A   1      40.791  28.009  28.893  1.00  0.00     0.049 A 
ATOM     43  H   UNL A   1      40.516  28.965  30.722  1.00  0.00     0.167 HD
ATOM     44  C   UNL A   1      39.887  30.988  34.512  1.00  0.00     0.037 A 
ATOM     45  C   UNL A   1      41.898  27.247  29.000  1.00  0.00     0.037 A 
ATOM     46  C   UNL A   1      41.046  30.164  34.737  1.00  0.00     0.049 A 
ATOM     47  C   UNL A   1      42.662  27.211  30.296  1.00  0.00     0.074 A 
ATOM     48  C   UNL A   1      41.782  30.005  35.900  1.00  0.00     0.029 A 
ATOM     49  N   UNL A   1      41.636  29.354  33.780  1.00  0.00    -0.354 N 
ATOM     50  N   UNL A   1      42.410  27.828  31.425  1.00  0.00    -0.248 NA
ATOM     51  C   UNL A   1      43.867  26.368  30.330  1.00  0.00     0.031 C 
ATOM     52  C   UNL A   1      42.841  29.130  35.635  1.00  0.00     0.029 A 
ATOM     53  C   UNL A   1      42.739  28.709  34.320  1.00  0.00     0.049 A 
ATOM     54  H   UNL A   1      41.320  29.251  32.853  1.00  0.00     0.167 HD
ATOM     55  C   UNL A   1      43.402  27.426  32.309  1.00  0.00     0.074 A 
ATOM     56  C   UNL A   1      44.259  26.506  31.590  1.00  0.00     0.031 C 
ATOM     57  C   UNL A   1      43.584  27.788  33.603  1.00  0.00     0.037 A 
BRANCH  44  58
ATOM     58  C   UNL A   1      39.408  31.854  35.643  1.00  0.00     0.064 A 
ATOM     59  C   UNL A   1      39.876  33.165  35.817  1.00  0.00     0.173 A 
ATOM     60  C   UNL A   1      38.452  31.375  36.552  1.00  0.00     0.173 A 
ATOM     61  F   UNL A   1      40.797  33.668  34.981  1.00  0.00    -0.203 F 
ATOM     62  C   UNL A   1      39.435  33.949  36.879  1.00  0.00     0.198 A 
ATOM     63  C   UNL A   1      37.990  32.173  37.596  1.00  0.00     0.198 A 
ATOM     64  F   UNL A   1      37.962  30.133  36.426  1.00  0.00    -0.203 F 
ATOM     65  F   UNL A   1      39.940  35.178  37.058  1.00  0.00    -0.200 F 
ATOM     66  C   UNL A   1      38.490  33.455  37.764  1.00  0.00     0.200 A 
ATOM     67  F   UNL A   1      37.066  31.698  38.443  1.00  0.00    -0.200 F 
ATOM     68  F   UNL A   1      38.067  34.212  38.787  1.00  0.00    -0.200 F 
ENDBRANCH  44  58
BRANCH  45  69
ATOM     69  C   UNL A   1      42.335  26.419  27.846  1.00  0.00     0.064 A 
ATOM     70  C   UNL A   1      41.773  25.155  27.619  1.00  0.00     0.173 A 
ATOM     71  C   UNL A   1      43.314  26.871  26.950  1.00  0.00     0.173 A 
ATOM     72  F   UNL A   1      40.853  24.670  28.465  1.00  0.00    -0.203 F 
ATOM     73  C   UNL A   1      42.180  24.371  26.541  1.00  0.00     0.198 A 
ATOM     74  C   UNL A   1      43.702  26.096  25.860  1.00  0.00     0.198 A 
ATOM     75  F   UNL A   1      43.883  28.073  27.128  1.00  0.00    -0.203 F 
ATOM     76  F   UNL A   1      41.651  23.152  26.366  1.00  0.00    -0.200 F 
ATOM     77  C   UNL A   1      43.138  24.844  25.659  1.00  0.00     0.200 A 
ATOM     78  F   UNL A   1      44.622  26.561  25.005  1.00  0.00    -0.200 F 
ATOM     79  F   UNL A   1      43.524  24.094  24.619  1.00  0.00    -0.200 F 
ENDBRANCH  45  69
BRANCH  57  80
ATOM     80  C   UNL A   1      44.731  27.163  34.342  1.00  0.00     0.064 A 
ATOM     81  C   UNL A   1      44.598  25.935  35.006  1.00  0.00     0.173 A 
ATOM     82  C   UNL A   1      45.989  27.785  34.356  1.00  0.00     0.173 A 
ATOM     83  F   UNL A   1      43.411  25.309  35.035  1.00  0.00    -0.203 F 
ATOM     84  C   UNL A   1      45.676  25.363  35.676  1.00  0.00     0.198 A 
ATOM     85  C   UNL A   1      47.072  27.197  35.005  1.00  0.00     0.198 A 
ATOM     86  F   UNL A   1      46.172  28.958  33.731  1.00  0.00    -0.203 F 
ATOM     87  F   UNL A   1      45.515  24.210  36.340  1.00  0.00    -0.200 F 
ATOM     88  C   UNL A   1      46.913  25.990  35.670  1.00  0.00     0.200 A 
ATOM     89  F   UNL A   1      48.269  27.799  34.989  1.00  0.00    -0.200 F 
ATOM     90  F   UNL A   1      47.951  25.436  36.312  1.00  0.00    -0.200 F 
ENDBRANCH  57  80
ENDBRANCH  31  32
ENDBRANCH  23  26
ENDBRANCH  21  22
ENDBRANCH   1  21
TORSDOF 11
ENDMDL
MODEL 3
REMARK VINA RESULT:     -12.9      0.042      1.147
REMARK SMILES CC1(C)[C@H]2CC[C@]1(C)C(=O)N(CC(=O)NCCCNC(=O)c1ccc(-c3c4nc(c(-c5c(F)c(F)c(F)c(F)c5F)c5ccc([nH]5)c(-c5c(F)c(F)c(F)c(F)c5F)c5nc(c(-c6c(F)c(F)c(F)c(F)c6F)c6ccc3[nH]6)C=C5)C=C4)cc1)C2=O
REMARK SMILES IDX 17 1 16 2 15 3 13 4 14 5 12 7 11 8 1 9 2 10 4 11 7 12 3 13
REMARK SMILES IDX 5 14 85 15 6 16 9 17 8 18 86 19 10 20 18 21 19 22 20 23
REMARK SMILES IDX 21 25 22 26 23 27 84 28 24 29 83 30 25 31 26 32 27 33 77 34
REMARK SMILES IDX 28 35 82 36 76 37 78 38 29 39 81 40 75 41 74 42 30 44 62 45
REMARK SMILES IDX 42 46 61 47 43 48 46 49 60 50 79 51 44 52 45 53 59 55 80 56
REMARK SMILES IDX 47 57 31 58 32 59 40 60 33 61 34 62 38 63 41 64 35 65 36 66
REMARK SMILES IDX 39 67 37 68 63 69 64 70 72 71 65 72 66 73 70 74 73 75 67 76
REMARK SMILES IDX 68 77 71 78 69 79 48 80 49 81 57 82 50 83 51 84 55 85 58 86
REMARK SMILES IDX 52 87 53 88 56 89 54 90
REMARK H PARENT 15 6 19 24 78 43 46 54
REMARK Flexibility Score: inf
ROOT
ATOM      1  C   UNL A   1      32.233  29.713  25.376  1.00  0.00     0.042 C 
ENDROOT
BRANCH   1   2
ATOM      2  C   UNL A   1      30.936  29.754  24.550  1.00  0.00     0.117 C 
BRANCH   2   3
ATOM      3  N   UNL A   1      31.000  29.013  23.291  1.00  0.00    -0.354 N 
ATOM      4  C   UNL A   1      30.462  27.807  22.920  1.00  0.00     0.240 C 
ATOM      5  O   UNL A   1      30.665  27.449  21.754  1.00  0.00    -0.273 OA
ATOM      6  H   UNL A   1      31.523  29.459  22.587  1.00  0.00     0.163 HD
BRANCH   4   7
ATOM      7  C   UNL A   1      29.804  26.847  23.933  1.00  0.00     0.228 C 
BRANCH   7   8
ATOM      8  N   UNL A   1      30.862  25.952  24.378  1.00  0.00    -0.272 N 
ATOM      9  C   UNL A   1      31.846  23.699  26.837  1.00  0.00     0.013 C 
ATOM     10  C   UNL A   1      32.834  24.285  25.811  1.00  0.00    -0.010 C 
ATOM     11  C   UNL A   1      32.834  25.813  25.744  1.00  0.00     0.086 C 
ATOM     12  C   UNL A   1      32.445  24.019  24.313  1.00  0.00     0.053 C 
ATOM     13  C   UNL A   1      34.249  23.818  26.238  1.00  0.00     0.013 C 
ATOM     14  C   UNL A   1      33.626  26.137  24.442  1.00  0.00     0.015 C 
ATOM     15  C   UNL A   1      31.371  26.182  25.620  1.00  0.00     0.233 C 
ATOM     16  C   UNL A   1      33.498  24.868  23.566  1.00  0.00     0.018 C 
ATOM     17  C   UNL A   1      31.075  24.683  23.875  1.00  0.00     0.236 C 
ATOM     18  C   UNL A   1      32.466  22.541  23.942  1.00  0.00     0.022 C 
ATOM     19  O   UNL A   1      30.653  26.423  26.586  1.00  0.00    -0.274 OA
ATOM     20  O   UNL A   1      30.278  24.121  23.126  1.00  0.00    -0.274 OA
ENDBRANCH   7   8
ENDBRANCH   4   7
ENDBRANCH   2   3
ENDBRANCH   1   2
BRANCH   1  21
ATOM     21  C   UNL A   1      32.149  30.204  26.813  1.00  0.00     0.118 C 
BRANCH  21  22
ATOM     22  N   UNL A   1      32.366  31.635  26.908  1.00  0.00    -0.352 N 
ATOM     23  C   UNL A   1      33.350  32.397  27.488  1.00  0.00     0.251 C 
ATOM     24  H   UNL A   1      31.666  32.168  26.468  1.00  0.00     0.163 HD
ATOM     25  O   UNL A   1      33.113  33.599  27.626  1.00  0.00    -0.269 OA
BRANCH  23  26
ATOM     26  C   UNL A   1      34.676  31.885  27.949  1.00  0.00     0.039 A 
ATOM     27  C   UNL A   1      34.746  30.528  28.315  1.00  0.00     0.014 A 
ATOM     28  C   UNL A   1      35.790  32.687  28.199  1.00  0.00     0.014 A 
ATOM     29  C   UNL A   1      35.886  29.998  28.934  1.00  0.00     0.010 A 
ATOM     30  C   UNL A   1      36.962  32.140  28.753  1.00  0.00     0.010 A 
ATOM     31  C   UNL A   1      37.011  30.799  29.166  1.00  0.00    -0.014 A 
BRANCH  31  32
ATOM     32  C   UNL A   1      38.193  30.267  29.911  1.00  0.00     0.031 A 
ATOM     33  C   UNL A   1      38.437  30.663  31.347  1.00  0.00     0.074 A 
ATOM     34  C   UNL A   1      39.058  29.423  29.314  1.00  0.00     0.049 A 
ATOM     35  N   UNL A   1      39.417  30.325  32.152  1.00  0.00    -0.248 NA
ATOM     36  C   UNL A   1      37.456  31.575  31.956  1.00  0.00     0.031 C 
ATOM     37  C   UNL A   1      38.963  28.955  27.933  1.00  0.00     0.029 A 
ATOM     38  N   UNL A   1      40.188  28.806  29.798  1.00  0.00    -0.354 N 
ATOM     39  C   UNL A   1      39.181  30.997  33.346  1.00  0.00     0.074 A 
ATOM     40  C   UNL A   1      37.992  31.798  33.146  1.00  0.00     0.031 C 
ATOM     41  C   UNL A   1      39.972  28.103  27.687  1.00  0.00     0.029 A 
ATOM     42  C   UNL A   1      40.806  27.989  28.882  1.00  0.00     0.049 A 
ATOM     43  H   UNL A   1      40.522  28.936  30.714  1.00  0.00     0.167 HD
ATOM     44  C   UNL A   1      39.872  30.939  34.512  1.00  0.00     0.037 A 
ATOM     45  C   UNL A   1      41.916  27.233  28.989  1.00  0.00     0.037 A 
ATOM     46  C   UNL A   1      41.035  30.119  34.737  1.00  0.00     0.049 A 
ATOM     47  C   UNL A   1      42.678  27.195  30.286  1.00  0.00     0.074 A 
ATOM     48  C   UNL A   1      41.768  29.959  35.901  1.00  0.00     0.029 A 
ATOM     49  N   UNL A   1      41.632  29.316  33.778  1.00  0.00    -0.354 N 
ATOM     50  N   UNL A   1      42.419  27.805  31.417  1.00  0.00    -0.248 NA
ATOM     51  C   UNL A   1      43.887  26.358  30.320  1.00  0.00     0.031 C 
ATOM     52  C   UNL A   1      42.833  29.090  35.635  1.00  0.00     0.029 A 
ATOM     53  C   UNL A   1      42.737  28.674  34.317  1.00  0.00     0.049 A 
ATOM     54  H   UNL A   1      41.318  29.216  32.850  1.00  0.00     0.167 HD
ATOM     55  C   UNL A   1      43.411  27.404  32.302  1.00  0.00     0.074 A 
ATOM     56  C   UNL A   1      44.274  26.492  31.582  1.00  0.00     0.031 C 
ATOM     57  C   UNL A   1      43.587  27.762  33.598  1.00  0.00     0.037 A 
BRANCH  44  58
ATOM     58  C   UNL A   1      39.386  31.797  35.646  1.00  0.00     0.064 A 
ATOM     59  C   UNL A   1      38.447  31.327  36.577  1.00  0.00     0.173 A 
ATOM     60  C   UNL A   1      39.880  33.099  35.817  1.00  0.00     0.173 A 
ATOM     61  F   UNL A   1      37.936  30.092  36.453  1.00  0.00    -0.203 F 
ATOM     62  C   UNL A   1      37.994  32.140  37.612  1.00  0.00     0.198 A 
ATOM     63  C   UNL A   1      39.448  33.899  36.872  1.00  0.00     0.198 A 
ATOM     64  F   UNL A   1      40.788  33.596  34.963  1.00  0.00    -0.203 F 
ATOM     65  F   UNL A   1      37.055  31.687  38.455  1.00  0.00    -0.200 F 
ATOM     66  C   UNL A   1      38.498  33.422  37.762  1.00  0.00     0.200 A 
ATOM     67  F   UNL A   1      39.946  35.134  37.023  1.00  0.00    -0.200 F 
ATOM     68  F   UNL A   1      38.060  34.203  38.759  1.00  0.00    -0.200 F 
ENDBRANCH  44  58
BRANCH  45  69
ATOM     69  C   UNL A   1      42.360  26.412  27.832  1.00  0.00     0.064 A 
ATOM     70  C   UNL A   1      43.331  26.895  26.943  1.00  0.00     0.173 A 
ATOM     71  C   UNL A   1      41.831  25.137  27.593  1.00  0.00     0.173 A 
ATOM     72  F   UNL A   1      43.846  28.121  27.116  1.00  0.00    -0.203 F 
ATOM     73  C   UNL A   1      43.750  26.134  25.854  1.00  0.00     0.198 A 
ATOM     74  C   UNL A   1      42.268  24.368  26.517  1.00  0.00     0.198 A 
ATOM     75  F   UNL A   1      40.896  24.633  28.414  1.00  0.00    -0.203 F 
ATOM     76  F   UNL A   1      44.654  26.633  25.000  1.00  0.00    -0.200 F 
ATOM     77  C   UNL A   1      43.224  24.869  25.646  1.00  0.00     0.200 A 
ATOM     78  F   UNL A   1      41.763  23.141  26.325  1.00  0.00    -0.200 F 
ATOM     79  F   UNL A   1      43.632  24.134  24.603  1.00  0.00    -0.200 F 
ENDBRANCH  45  69
BRANCH  57  80
ATOM     80  C   UNL A   1      44.736  27.139  34.338  1.00  0.00     0.064 A 
ATOM     81  C   UNL A   1      45.992  27.760  34.406  1.00  0.00     0.173 A 
ATOM     82  C   UNL A   1      44.567  25.921  35.015  1.00  0.00     0.173 A 
ATOM     83  F   UNL A   1      46.207  28.917  33.762  1.00  0.00    -0.203 F 
ATOM     84  C   UNL A   1      47.042  27.174  35.107  1.00  0.00     0.198 A 
ATOM     85  C   UNL A   1      45.614  25.351  35.736  1.00  0.00     0.198 A 
ATOM     86  F   UNL A   1      43.385  25.288  34.985  1.00  0.00    -0.203 F 
ATOM     87  F   UNL A   1      48.246  27.765  35.124  1.00  0.00    -0.200 F 
ATOM     88  C   UNL A   1      46.851  25.975  35.776  1.00  0.00     0.200 A 
ATOM     89  F   UNL A   1      45.424  24.197  36.391  1.00  0.00    -0.200 F 
ATOM     90  F   UNL A   1      47.864  25.414  36.454  1.00  0.00    -0.200 F 
ENDBRANCH  57  80
ENDBRANCH  31  32
ENDBRANCH  23  26
ENDBRANCH  21  22
ENDBRANCH   1  21
TORSDOF 11
ENDMDL
