MODEL 1
REMARK VINA RESULT:     -13.5      0.000      0.000
REMARK SMILES CC(C)CCc1cc2c(cc1Cl)C=C(C(=O)NCCCNC(=O)c1ccc(-c3c4nc(c(-c5c(F)c(F)c(F)c(F)c5F)c5ccc([nH]5)c(-c5c(F)c(F)c(F)c(F)c5F)c5nc(c(-c6c(F)c(F)c(F)c(F)c6F)c6ccc3[nH]6)C=C5)C=C4)cc1)[C@@H](C(F)(F)F)O2
REMARK SMILES IDX 18 1 17 2 15 3 16 4 14 6 6 7 7 8 11 9 8 10 10 11 12 12 9 13
REMARK SMILES IDX 92 14 13 15 87 16 5 17 4 18 2 19 1 20 3 21 88 22 89 23 90 24
REMARK SMILES IDX 91 25 19 26 20 27 21 28 22 29 23 31 24 32 25 33 86 34 26 35
REMARK SMILES IDX 85 36 27 37 28 38 29 39 79 40 30 41 84 42 78 43 80 44 31 45
REMARK SMILES IDX 83 46 77 47 76 48 32 50 64 51 44 52 63 53 45 54 48 55 62 56
REMARK SMILES IDX 81 57 46 58 47 59 61 61 82 62 49 63 33 64 34 65 42 66 35 67
REMARK SMILES IDX 36 68 40 69 43 70 37 71 38 72 41 73 39 74 65 75 66 76 74 77
REMARK SMILES IDX 67 78 68 79 72 80 75 81 69 82 70 83 73 84 71 85 50 86 51 87
REMARK SMILES IDX 59 88 52 89 53 90 57 91 60 92 54 93 55 94 58 95 56 96
REMARK H PARENT 17 5 21 30 80 49 48 60
REMARK Flexibility Score: inf
ROOT
ATOM      1  C   UNL A   1      31.628  30.665  26.388  1.00  0.00     0.118 C 
ENDROOT
BRANCH   1   2
ATOM      2  N   UNL A   1      31.192  30.277  25.055  1.00  0.00    -0.352 N 
ATOM      3  C   UNL A   1      31.081  29.129  24.344  1.00  0.00     0.251 C 
ATOM      4  O   UNL A   1      30.633  29.259  23.201  1.00  0.00    -0.270 OA
ATOM      5  H   UNL A   1      30.901  31.056  24.528  1.00  0.00     0.163 HD
BRANCH   3   6
ATOM      6  C   UNL A   1      31.464  27.777  24.836  1.00  0.00     0.067 C 
ATOM      7  C   UNL A   1      33.857  23.627  26.394  1.00  0.00    -0.026 A 
ATOM      8  C   UNL A   1      32.599  24.193  26.638  1.00  0.00     0.052 A 
ATOM      9  C   UNL A   1      34.803  24.419  25.710  1.00  0.00     0.045 A 
ATOM     10  C   UNL A   1      32.263  25.435  26.110  1.00  0.00     0.128 A 
ATOM     11  C   UNL A   1      34.482  25.703  25.241  1.00  0.00     0.032 A 
ATOM     12  Cl  UNL A   1      36.412  23.852  25.415  1.00  0.00    -0.084 Cl
ATOM     13  C   UNL A   1      33.195  26.206  25.418  1.00  0.00     0.019 A 
ATOM     14  O   UNL A   1      30.971  25.849  26.294  1.00  0.00    -0.475 OA
ATOM     15  C   UNL A   1      32.784  27.518  24.926  1.00  0.00     0.025 C 
ATOM     16  C   UNL A   1      30.481  26.712  25.231  1.00  0.00     0.314 C 
BRANCH   7  17
ATOM     17  C   UNL A   1      34.192  22.217  26.843  1.00  0.00     0.037 C 
BRANCH  17  18
ATOM     18  C   UNL A   1      33.467  21.040  26.161  1.00  0.00     0.008 C 
BRANCH  18  19
ATOM     19  C   UNL A   1      34.115  20.500  24.865  1.00  0.00    -0.017 C 
ATOM     20  C   UNL A   1      35.638  20.429  24.956  1.00  0.00     0.007 C 
ATOM     21  C   UNL A   1      33.543  19.117  24.543  1.00  0.00     0.007 C 
ENDBRANCH  18  19
ENDBRANCH  17  18
ENDBRANCH   7  17
BRANCH  16  22
ATOM     22  C   UNL A   1      29.999  25.874  24.026  1.00  0.00     0.429 C 
ATOM     23  F   UNL A   1      30.724  26.178  22.920  1.00  0.00    -0.167 F 
ATOM     24  F   UNL A   1      30.153  24.544  24.233  1.00  0.00    -0.167 F 
ATOM     25  F   UNL A   1      28.697  26.070  23.722  1.00  0.00    -0.167 F 
ENDBRANCH  16  22
ENDBRANCH   3   6
ENDBRANCH   1   2
BRANCH   1  26
ATOM     26  C   UNL A   1      31.449  32.154  26.639  1.00  0.00     0.042 C 
BRANCH  26  27
ATOM     27  C   UNL A   1      32.680  32.791  27.272  1.00  0.00     0.118 C 
BRANCH  27  28
ATOM     28  N   UNL A   1      32.452  34.186  27.640  1.00  0.00    -0.352 N 
ATOM     29  C   UNL A   1      33.026  34.956  28.623  1.00  0.00     0.251 C 
ATOM     30  H   UNL A   1      31.779  34.652  27.094  1.00  0.00     0.163 HD
ATOM     31  O   UNL A   1      32.537  36.045  28.909  1.00  0.00    -0.269 OA
BRANCH  29  32
ATOM     32  C   UNL A   1      34.216  34.470  29.349  1.00  0.00     0.039 A 
ATOM     33  C   UNL A   1      35.489  34.631  28.804  1.00  0.00     0.014 A 
ATOM     34  C   UNL A   1      34.062  33.851  30.594  1.00  0.00     0.014 A 
ATOM     35  C   UNL A   1      36.574  34.001  29.396  1.00  0.00     0.010 A 
ATOM     36  C   UNL A   1      35.176  33.313  31.246  1.00  0.00     0.010 A 
ATOM     37  C   UNL A   1      36.433  33.337  30.625  1.00  0.00    -0.014 A 
BRANCH  37  38
ATOM     38  C   UNL A   1      37.623  32.676  31.220  1.00  0.00     0.031 A 
ATOM     39  C   UNL A   1      38.066  33.002  32.620  1.00  0.00     0.074 A 
ATOM     40  C   UNL A   1      38.246  31.708  30.520  1.00  0.00     0.049 A 
ATOM     41  N   UNL A   1      39.040  32.474  33.319  1.00  0.00    -0.248 NA
ATOM     42  C   UNL A   1      37.327  34.057  33.331  1.00  0.00     0.031 C 
ATOM     43  C   UNL A   1      37.897  31.301  29.158  1.00  0.00     0.029 A 
ATOM     44  N   UNL A   1      39.266  30.860  30.868  1.00  0.00    -0.354 N 
ATOM     45  C   UNL A   1      39.044  33.145  34.534  1.00  0.00     0.074 A 
ATOM     46  C   UNL A   1      37.994  34.138  34.474  1.00  0.00     0.031 C 
ATOM     47  C   UNL A   1      38.626  30.230  28.818  1.00  0.00     0.029 A 
ATOM     48  C   UNL A   1      39.547  29.919  29.905  1.00  0.00     0.049 A 
ATOM     49  H   UNL A   1      39.749  30.918  31.724  1.00  0.00     0.167 HD
ATOM     50  C   UNL A   1      39.843  32.941  35.609  1.00  0.00     0.037 A 
ATOM     51  C   UNL A   1      40.447  28.920  29.897  1.00  0.00     0.037 A 
ATOM     52  C   UNL A   1      40.863  31.927  35.676  1.00  0.00     0.049 A 
ATOM     53  C   UNL A   1      41.339  28.734  31.091  1.00  0.00     0.074 A 
ATOM     54  C   UNL A   1      41.711  31.627  36.729  1.00  0.00     0.029 A 
ATOM     55  N   UNL A   1      41.169  31.044  34.652  1.00  0.00    -0.354 N 
ATOM     56  N   UNL A   1      41.335  29.381  32.231  1.00  0.00    -0.248 NA
ATOM     57  C   UNL A   1      42.373  27.696  30.989  1.00  0.00     0.031 C 
ATOM     58  C   UNL A   1      42.555  30.587  36.327  1.00  0.00     0.029 A 
ATOM     59  C   UNL A   1      42.206  30.210  35.040  1.00  0.00     0.049 A 
ATOM     60  H   UNL A   1      40.716  31.013  33.778  1.00  0.00     0.167 HD
ATOM     61  C   UNL A   1      42.360  28.829  32.984  1.00  0.00     0.074 A 
ATOM     62  C   UNL A   1      42.949  27.776  32.181  1.00  0.00     0.031 C 
ATOM     63  C   UNL A   1      42.782  29.173  34.225  1.00  0.00     0.037 A 
BRANCH  50  64
ATOM     64  C   UNL A   1      39.658  33.831  36.801  1.00  0.00     0.064 A 
ATOM     65  C   UNL A   1      40.239  35.106  36.865  1.00  0.00     0.173 A 
ATOM     66  C   UNL A   1      38.834  33.431  37.866  1.00  0.00     0.173 A 
ATOM     67  F   UNL A   1      41.044  35.530  35.880  1.00  0.00    -0.203 F 
ATOM     68  C   UNL A   1      40.013  35.941  37.957  1.00  0.00     0.198 A 
ATOM     69  C   UNL A   1      38.592  34.278  38.943  1.00  0.00     0.198 A 
ATOM     70  F   UNL A   1      38.251  32.222  37.851  1.00  0.00    -0.203 F 
ATOM     71  F   UNL A   1      40.605  37.143  38.012  1.00  0.00    -0.200 F 
ATOM     72  C   UNL A   1      39.184  35.531  38.989  1.00  0.00     0.200 A 
ATOM     73  F   UNL A   1      37.782  33.883  39.935  1.00  0.00    -0.200 F 
ATOM     74  F   UNL A   1      38.959  36.341  40.033  1.00  0.00    -0.200 F 
ENDBRANCH  50  64
BRANCH  51  75
ATOM     75  C   UNL A   1      40.536  28.023  28.718  1.00  0.00     0.064 A 
ATOM     76  C   UNL A   1      39.827  26.815  28.677  1.00  0.00     0.173 A 
ATOM     77  C   UNL A   1      41.290  28.375  27.589  1.00  0.00     0.173 A 
ATOM     78  F   UNL A   1      39.105  26.426  29.740  1.00  0.00    -0.203 F 
ATOM     79  C   UNL A   1      39.868  25.994  27.552  1.00  0.00     0.198 A 
ATOM     80  C   UNL A   1      41.309  27.568  26.455  1.00  0.00     0.198 A 
ATOM     81  F   UNL A   1      41.984  29.523  27.577  1.00  0.00    -0.203 F 
ATOM     82  F   UNL A   1      39.199  24.833  27.548  1.00  0.00    -0.200 F 
ATOM     83  C   UNL A   1      40.600  26.376  26.438  1.00  0.00     0.200 A 
ATOM     84  F   UNL A   1      42.003  27.951  25.374  1.00  0.00    -0.200 F 
ATOM     85  F   UNL A   1      40.624  25.596  25.350  1.00  0.00    -0.200 F 
ENDBRANCH  51  75
BRANCH  63  86
ATOM     86  C   UNL A   1      43.936  28.406  34.796  1.00  0.00     0.064 A 
ATOM     87  C   UNL A   1      45.252  28.874  34.666  1.00  0.00     0.173 A 
ATOM     88  C   UNL A   1      43.719  27.237  35.537  1.00  0.00     0.173 A 
ATOM     89  F   UNL A   1      45.507  29.981  33.954  1.00  0.00    -0.203 F 
ATOM     90  C   UNL A   1      46.312  28.190  35.253  1.00  0.00     0.198 A 
ATOM     91  C   UNL A   1      44.778  26.569  36.142  1.00  0.00     0.198 A 
ATOM     92  F   UNL A   1      42.477  26.755  35.693  1.00  0.00    -0.203 F 
ATOM     93  F   UNL A   1      47.565  28.637  35.095  1.00  0.00    -0.200 F 
ATOM     94  C   UNL A   1      46.074  27.043  35.997  1.00  0.00     0.200 A 
ATOM     95  F   UNL A   1      44.546  25.468  36.871  1.00  0.00    -0.200 F 
ATOM     96  F   UNL A   1      47.095  26.394  36.574  1.00  0.00    -0.200 F 
ENDBRANCH  63  86
ENDBRANCH  37  38
ENDBRANCH  29  32
ENDBRANCH  27  28
ENDBRANCH  26  27
ENDBRANCH   1  26
TORSDOF 14
ENDMDL
MODEL 2
REMARK VINA RESULT:     -13.2      5.491     10.647
REMARK SMILES CC(C)CCc1cc2c(cc1Cl)C=C(C(=O)NCCCNC(=O)c1ccc(-c3c4nc(c(-c5c(F)c(F)c(F)c(F)c5F)c5ccc([nH]5)c(-c5c(F)c(F)c(F)c(F)c5F)c5nc(c(-c6c(F)c(F)c(F)c(F)c6F)c6ccc3[nH]6)C=C5)C=C4)cc1)[C@@H](C(F)(F)F)O2
REMARK SMILES IDX 18 1 17 2 15 3 16 4 14 6 6 7 7 8 11 9 8 10 10 11 12 12 9 13
REMARK SMILES IDX 92 14 13 15 87 16 5 17 4 18 2 19 1 20 3 21 88 22 89 23 90 24
REMARK SMILES IDX 91 25 19 26 20 27 21 28 22 29 23 31 24 32 25 33 86 34 26 35
REMARK SMILES IDX 85 36 27 37 28 38 29 39 79 40 30 41 84 42 78 43 80 44 31 45
REMARK SMILES IDX 83 46 77 47 76 48 32 50 64 51 44 52 63 53 45 54 48 55 62 56
REMARK SMILES IDX 81 57 46 58 47 59 61 61 82 62 49 63 33 64 34 65 42 66 35 67
REMARK SMILES IDX 36 68 40 69 43 70 37 71 38 72 41 73 39 74 65 75 66 76 74 77
REMARK SMILES IDX 67 78 68 79 72 80 75 81 69 82 70 83 73 84 71 85 50 86 51 87
REMARK SMILES IDX 59 88 52 89 53 90 57 91 60 92 54 93 55 94 58 95 56 96
REMARK H PARENT 17 5 21 30 80 49 48 60
REMARK Flexibility Score: inf
ROOT
ATOM      1  C   UNL A   1      37.049  20.749  24.774  1.00  0.00     0.118 C 
ENDROOT
BRANCH   1   2
ATOM      2  N   UNL A   1      35.677  20.346  25.048  1.00  0.00    -0.352 N 
ATOM      3  C   UNL A   1      34.446  20.902  24.958  1.00  0.00     0.251 C 
ATOM      4  O   UNL A   1      33.512  20.169  25.299  1.00  0.00    -0.270 OA
ATOM      5  H   UNL A   1      35.633  19.425  25.393  1.00  0.00     0.163 HD
BRANCH   3   6
ATOM      6  C   UNL A   1      34.164  22.291  24.502  1.00  0.00     0.067 C 
ATOM      7  C   UNL A   1      33.678  27.280  24.007  1.00  0.00    -0.026 A 
ATOM      8  C   UNL A   1      33.837  26.209  23.117  1.00  0.00     0.052 A 
ATOM      9  C   UNL A   1      33.866  27.016  25.379  1.00  0.00     0.045 A 
ATOM     10  C   UNL A   1      34.040  24.917  23.589  1.00  0.00     0.128 A 
ATOM     11  C   UNL A   1      34.144  25.721  25.846  1.00  0.00     0.032 A 
ATOM     12  Cl  UNL A   1      33.767  28.276  26.563  1.00  0.00    -0.084 Cl
ATOM     13  C   UNL A   1      34.205  24.658  24.948  1.00  0.00     0.019 A 
ATOM     14  O   UNL A   1      34.056  23.919  22.652  1.00  0.00    -0.475 OA
ATOM     15  C   UNL A   1      34.456  23.282  25.369  1.00  0.00     0.025 C 
ATOM     16  C   UNL A   1      33.588  22.639  23.160  1.00  0.00     0.314 C 
BRANCH   7  17
ATOM     17  C   UNL A   1      33.317  28.670  23.517  1.00  0.00     0.037 C 
BRANCH  17  18
ATOM     18  C   UNL A   1      32.056  28.835  22.646  1.00  0.00     0.008 C 
BRANCH  18  19
ATOM     19  C   UNL A   1      30.728  29.054  23.407  1.00  0.00    -0.017 C 
ATOM     20  C   UNL A   1      29.948  27.757  23.611  1.00  0.00     0.007 C 
ATOM     21  C   UNL A   1      31.015  29.712  24.760  1.00  0.00     0.007 C 
ENDBRANCH  18  19
ENDBRANCH  17  18
ENDBRANCH   7  17
BRANCH  16  22
ATOM     22  C   UNL A   1      32.044  22.576  23.143  1.00  0.00     0.429 C 
ATOM     23  F   UNL A   1      31.565  22.408  24.401  1.00  0.00    -0.167 F 
ATOM     24  F   UNL A   1      31.490  23.720  22.671  1.00  0.00    -0.167 F 
ATOM     25  F   UNL A   1      31.556  21.570  22.386  1.00  0.00    -0.167 F 
ENDBRANCH  16  22
ENDBRANCH   3   6
ENDBRANCH   1   2
BRANCH   1  26
ATOM     26  C   UNL A   1      38.045  19.641  25.084  1.00  0.00     0.042 C 
BRANCH  26  27
ATOM     27  C   UNL A   1      39.286  20.157  25.800  1.00  0.00     0.118 C 
BRANCH  27  28
ATOM     28  N   UNL A   1      40.334  19.143  25.890  1.00  0.00    -0.352 N 
ATOM     29  C   UNL A   1      41.685  19.270  26.103  1.00  0.00     0.251 C 
ATOM     30  H   UNL A   1      40.020  18.216  25.781  1.00  0.00     0.163 HD
ATOM     31  O   UNL A   1      42.425  18.307  25.925  1.00  0.00    -0.269 OA
BRANCH  29  32
ATOM     32  C   UNL A   1      42.253  20.565  26.527  1.00  0.00     0.039 A 
ATOM     33  C   UNL A   1      42.302  20.905  27.878  1.00  0.00     0.014 A 
ATOM     34  C   UNL A   1      42.749  21.451  25.565  1.00  0.00     0.014 A 
ATOM     35  C   UNL A   1      42.653  22.195  28.249  1.00  0.00     0.010 A 
ATOM     36  C   UNL A   1      43.209  22.713  25.953  1.00  0.00     0.010 A 
ATOM     37  C   UNL A   1      43.113  23.114  27.293  1.00  0.00    -0.014 A 
BRANCH  37  38
ATOM     38  C   UNL A   1      43.477  24.485  27.737  1.00  0.00     0.031 A 
ATOM     39  C   UNL A   1      44.905  24.955  27.696  1.00  0.00     0.074 A 
ATOM     40  C   UNL A   1      42.494  25.336  28.089  1.00  0.00     0.049 A 
ATOM     41  N   UNL A   1      45.391  26.137  27.984  1.00  0.00    -0.248 NA
ATOM     42  C   UNL A   1      45.924  23.976  27.285  1.00  0.00     0.031 C 
ATOM     43  C   UNL A   1      41.072  24.992  28.155  1.00  0.00     0.029 A 
ATOM     44  N   UNL A   1      42.528  26.669  28.409  1.00  0.00    -0.354 N 
ATOM     45  C   UNL A   1      46.766  26.036  27.811  1.00  0.00     0.074 A 
ATOM     46  C   UNL A   1      47.045  24.672  27.419  1.00  0.00     0.031 C 
ATOM     47  C   UNL A   1      40.363  26.101  28.408  1.00  0.00     0.029 A 
ATOM     48  C   UNL A   1      41.282  27.218  28.597  1.00  0.00     0.049 A 
ATOM     49  H   UNL A   1      43.363  27.183  28.494  1.00  0.00     0.167 HD
ATOM     50  C   UNL A   1      47.707  26.999  27.953  1.00  0.00     0.037 A 
ATOM     51  C   UNL A   1      40.919  28.479  28.891  1.00  0.00     0.037 A 
ATOM     52  C   UNL A   1      47.420  28.364  28.309  1.00  0.00     0.049 A 
ATOM     53  C   UNL A   1      41.985  29.520  29.070  1.00  0.00     0.074 A 
ATOM     54  C   UNL A   1      48.303  29.420  28.456  1.00  0.00     0.029 A 
ATOM     55  N   UNL A   1      46.152  28.864  28.566  1.00  0.00    -0.354 N 
ATOM     56  N   UNL A   1      43.281  29.409  28.909  1.00  0.00    -0.248 NA
ATOM     57  C   UNL A   1      41.542  30.856  29.492  1.00  0.00     0.031 C 
ATOM     58  C   UNL A   1      47.572  30.550  28.840  1.00  0.00     0.029 A 
ATOM     59  C   UNL A   1      46.230  30.209  28.890  1.00  0.00     0.049 A 
ATOM     60  H   UNL A   1      45.319  28.340  28.524  1.00  0.00     0.167 HD
ATOM     61  C   UNL A   1      43.810  30.656  29.206  1.00  0.00     0.074 A 
ATOM     62  C   UNL A   1      42.691  31.517  29.533  1.00  0.00     0.031 C 
ATOM     63  C   UNL A   1      45.106  31.047  29.218  1.00  0.00     0.037 A 
BRANCH  50  64
ATOM     64  C   UNL A   1      49.140  26.619  27.731  1.00  0.00     0.064 A 
ATOM     65  C   UNL A   1      50.003  26.346  28.802  1.00  0.00     0.173 A 
ATOM     66  C   UNL A   1      49.640  26.460  26.428  1.00  0.00     0.173 A 
ATOM     67  F   UNL A   1      49.578  26.494  30.065  1.00  0.00    -0.203 F 
ATOM     68  C   UNL A   1      51.317  25.941  28.578  1.00  0.00     0.198 A 
ATOM     69  C   UNL A   1      50.946  26.033  26.208  1.00  0.00     0.198 A 
ATOM     70  F   UNL A   1      48.854  26.704  25.369  1.00  0.00    -0.203 F 
ATOM     71  F   UNL A   1      52.134  25.717  29.617  1.00  0.00    -0.200 F 
ATOM     72  C   UNL A   1      51.785  25.777  27.283  1.00  0.00     0.200 A 
ATOM     73  F   UNL A   1      51.393  25.864  24.956  1.00  0.00    -0.200 F 
ATOM     74  F   UNL A   1      53.046  25.377  27.069  1.00  0.00    -0.200 F 
ENDBRANCH  50  64
BRANCH  51  75
ATOM     75  C   UNL A   1      39.479  28.815  29.027  1.00  0.00     0.064 A 
ATOM     76  C   UNL A   1      38.831  28.718  30.266  1.00  0.00     0.173 A 
ATOM     77  C   UNL A   1      38.733  29.284  27.935  1.00  0.00     0.173 A 
ATOM     78  F   UNL A   1      39.497  28.257  31.336  1.00  0.00    -0.203 F 
ATOM     79  C   UNL A   1      37.493  29.079  30.407  1.00  0.00     0.198 A 
ATOM     80  C   UNL A   1      37.404  29.670  28.083  1.00  0.00     0.198 A 
ATOM     81  F   UNL A   1      39.309  29.397  26.729  1.00  0.00    -0.203 F 
ATOM     82  F   UNL A   1      36.890  28.955  31.598  1.00  0.00    -0.200 F 
ATOM     83  C   UNL A   1      36.783  29.564  29.319  1.00  0.00     0.200 A 
ATOM     84  F   UNL A   1      36.729  30.156  27.033  1.00  0.00    -0.200 F 
ATOM     85  F   UNL A   1      35.503  29.930  29.460  1.00  0.00    -0.200 F 
ENDBRANCH  51  75
BRANCH  63  86
ATOM     86  C   UNL A   1      45.393  32.469  29.596  1.00  0.00     0.064 A 
ATOM     87  C   UNL A   1      45.366  33.493  28.639  1.00  0.00     0.173 A 
ATOM     88  C   UNL A   1      45.624  32.819  30.933  1.00  0.00     0.173 A 
ATOM     89  F   UNL A   1      45.162  33.203  27.345  1.00  0.00    -0.203 F 
ATOM     90  C   UNL A   1      45.571  34.819  29.009  1.00  0.00     0.198 A 
ATOM     91  C   UNL A   1      45.805  34.147  31.303  1.00  0.00     0.198 A 
ATOM     92  F   UNL A   1      45.653  31.873  31.884  1.00  0.00    -0.203 F 
ATOM     93  F   UNL A   1      45.569  35.781  28.076  1.00  0.00    -0.200 F 
ATOM     94  C   UNL A   1      45.781  35.146  30.341  1.00  0.00     0.200 A 
ATOM     95  F   UNL A   1      45.997  34.463  32.591  1.00  0.00    -0.200 F 
ATOM     96  F   UNL A   1      45.964  36.425  30.696  1.00  0.00    -0.200 F 
ENDBRANCH  63  86
ENDBRANCH  37  38
ENDBRANCH  29  32
ENDBRANCH  27  28
ENDBRANCH  26  27
ENDBRANCH   1  26
TORSDOF 14
ENDMDL
MODEL 3
REMARK VINA RESULT:     -13.2      0.556      7.226
REMARK SMILES CC(C)CCc1cc2c(cc1Cl)C=C(C(=O)NCCCNC(=O)c1ccc(-c3c4nc(c(-c5c(F)c(F)c(F)c(F)c5F)c5ccc([nH]5)c(-c5c(F)c(F)c(F)c(F)c5F)c5nc(c(-c6c(F)c(F)c(F)c(F)c6F)c6ccc3[nH]6)C=C5)C=C4)cc1)[C@@H](C(F)(F)F)O2
REMARK SMILES IDX 18 1 17 2 15 3 16 4 14 6 6 7 7 8 11 9 8 10 10 11 12 12 9 13
REMARK SMILES IDX 92 14 13 15 87 16 5 17 4 18 2 19 1 20 3 21 88 22 89 23 90 24
REMARK SMILES IDX 91 25 19 26 20 27 21 28 22 29 23 31 24 32 25 33 86 34 26 35
REMARK SMILES IDX 85 36 27 37 28 38 29 39 79 40 30 41 84 42 78 43 80 44 31 45
REMARK SMILES IDX 83 46 77 47 76 48 32 50 64 51 44 52 63 53 45 54 48 55 62 56
REMARK SMILES IDX 81 57 46 58 47 59 61 61 82 62 49 63 33 64 34 65 42 66 35 67
REMARK SMILES IDX 36 68 40 69 43 70 37 71 38 72 41 73 39 74 65 75 66 76 74 77
REMARK SMILES IDX 67 78 68 79 72 80 75 81 69 82 70 83 73 84 71 85 50 86 51 87
REMARK SMILES IDX 59 88 52 89 53 90 57 91 60 92 54 93 55 94 58 95 56 96
REMARK H PARENT 17 5 21 30 80 49 48 60
REMARK Flexibility Score: inf
ROOT
ATOM      1  C   UNL A   1      31.542  30.734  26.328  1.00  0.00     0.118 C 
ENDROOT
BRANCH   1   2
ATOM      2  N   UNL A   1      31.153  30.349  24.979  1.00  0.00    -0.352 N 
ATOM      3  C   UNL A   1      31.045  29.200  24.270  1.00  0.00     0.251 C 
ATOM      4  O   UNL A   1      30.648  29.335  23.108  1.00  0.00    -0.270 OA
ATOM      5  H   UNL A   1      30.902  31.132  24.438  1.00  0.00     0.163 HD
BRANCH   3   6
ATOM      6  C   UNL A   1      31.377  27.843  24.783  1.00  0.00     0.067 C 
ATOM      7  C   UNL A   1      33.606  23.646  26.451  1.00  0.00    -0.026 A 
ATOM      8  C   UNL A   1      32.354  24.243  26.644  1.00  0.00     0.052 A 
ATOM      9  C   UNL A   1      34.597  24.410  25.800  1.00  0.00     0.045 A 
ATOM     10  C   UNL A   1      32.069  25.489  26.097  1.00  0.00     0.128 A 
ATOM     11  C   UNL A   1      34.325  25.699  25.312  1.00  0.00     0.032 A 
ATOM     12  Cl  UNL A   1      36.201  23.802  25.569  1.00  0.00    -0.084 Cl
ATOM     13  C   UNL A   1      33.045  26.234  25.437  1.00  0.00     0.019 A 
ATOM     14  O   UNL A   1      30.782  25.936  26.230  1.00  0.00    -0.475 OA
ATOM     15  C   UNL A   1      32.686  27.552  24.923  1.00  0.00     0.025 C 
ATOM     16  C   UNL A   1      30.353  26.804  25.145  1.00  0.00     0.314 C 
BRANCH   7  17
ATOM     17  C   UNL A   1      33.890  22.230  26.919  1.00  0.00     0.037 C 
BRANCH  17  18
ATOM     18  C   UNL A   1      33.973  21.112  25.861  1.00  0.00     0.008 C 
BRANCH  18  19
ATOM     19  C   UNL A   1      32.764  20.989  24.905  1.00  0.00    -0.017 C 
ATOM     20  C   UNL A   1      32.950  21.790  23.618  1.00  0.00     0.007 C 
ATOM     21  C   UNL A   1      32.520  19.514  24.574  1.00  0.00     0.007 C 
ENDBRANCH  18  19
ENDBRANCH  17  18
ENDBRANCH   7  17
BRANCH  16  22
ATOM     22  C   UNL A   1      29.897  25.971  23.926  1.00  0.00     0.429 C 
ATOM     23  F   UNL A   1      28.613  26.272  23.604  1.00  0.00    -0.167 F 
ATOM     24  F   UNL A   1      30.640  26.228  22.823  1.00  0.00    -0.167 F 
ATOM     25  F   UNL A   1      29.960  24.638  24.133  1.00  0.00    -0.167 F 
ENDBRANCH  16  22
ENDBRANCH   3   6
ENDBRANCH   1   2
BRANCH   1  26
ATOM     26  C   UNL A   1      31.421  32.233  26.555  1.00  0.00     0.042 C 
BRANCH  26  27
ATOM     27  C   UNL A   1      32.650  32.820  27.239  1.00  0.00     0.118 C 
BRANCH  27  28
ATOM     28  N   UNL A   1      32.467  34.226  27.590  1.00  0.00    -0.352 N 
ATOM     29  C   UNL A   1      32.993  34.965  28.622  1.00  0.00     0.251 C 
ATOM     30  H   UNL A   1      31.870  34.727  26.989  1.00  0.00     0.163 HD
ATOM     31  O   UNL A   1      32.540  36.079  28.868  1.00  0.00    -0.269 OA
BRANCH  29  32
ATOM     32  C   UNL A   1      34.086  34.416  29.448  1.00  0.00     0.039 A 
ATOM     33  C   UNL A   1      35.407  34.487  29.007  1.00  0.00     0.014 A 
ATOM     34  C   UNL A   1      33.792  33.828  30.683  1.00  0.00     0.014 A 
ATOM     35  C   UNL A   1      36.398  33.799  29.692  1.00  0.00     0.010 A 
ATOM     36  C   UNL A   1      34.813  33.231  31.429  1.00  0.00     0.010 A 
ATOM     37  C   UNL A   1      36.115  33.165  30.913  1.00  0.00    -0.014 A 
BRANCH  37  38
ATOM     38  C   UNL A   1      37.208  32.440  31.610  1.00  0.00     0.031 A 
ATOM     39  C   UNL A   1      37.983  31.356  30.912  1.00  0.00     0.074 A 
ATOM     40  C   UNL A   1      37.560  32.833  32.850  1.00  0.00     0.049 A 
ATOM     41  N   UNL A   1      39.008  30.667  31.347  1.00  0.00    -0.248 NA
ATOM     42  C   UNL A   1      37.553  30.992  29.553  1.00  0.00     0.031 C 
ATOM     43  C   UNL A   1      36.886  33.880  33.621  1.00  0.00     0.029 A 
ATOM     44  N   UNL A   1      38.593  32.438  33.661  1.00  0.00    -0.354 N 
ATOM     45  C   UNL A   1      39.329  29.778  30.329  1.00  0.00     0.074 A 
ATOM     46  C   UNL A   1      38.376  29.993  29.262  1.00  0.00     0.031 C 
ATOM     47  C   UNL A   1      37.571  34.105  34.750  1.00  0.00     0.029 A 
ATOM     48  C   UNL A   1      38.688  33.170  34.821  1.00  0.00     0.049 A 
ATOM     49  H   UNL A   1      39.208  31.704  33.433  1.00  0.00     0.167 HD
ATOM     50  C   UNL A   1      40.338  28.875  30.284  1.00  0.00     0.037 A 
ATOM     51  C   UNL A   1      39.573  33.094  35.831  1.00  0.00     0.037 A 
ATOM     52  C   UNL A   1      41.305  28.690  31.334  1.00  0.00     0.049 A 
ATOM     53  C   UNL A   1      40.663  32.064  35.767  1.00  0.00     0.074 A 
ATOM     54  C   UNL A   1      42.377  27.816  31.373  1.00  0.00     0.029 A 
ATOM     55  N   UNL A   1      41.322  29.397  32.527  1.00  0.00    -0.354 N 
ATOM     56  N   UNL A   1      40.951  31.227  34.801  1.00  0.00    -0.248 NA
ATOM     57  C   UNL A   1      41.539  31.954  36.942  1.00  0.00     0.031 C 
ATOM     58  C   UNL A   1      43.020  27.968  32.606  1.00  0.00     0.029 A 
ATOM     59  C   UNL A   1      42.374  28.966  33.318  1.00  0.00     0.049 A 
ATOM     60  H   UNL A   1      40.681  30.103  32.774  1.00  0.00     0.167 HD
ATOM     61  C   UNL A   1      42.039  30.492  35.245  1.00  0.00     0.074 A 
ATOM     62  C   UNL A   1      42.378  31.000  36.560  1.00  0.00     0.031 C 
ATOM     63  C   UNL A   1      42.691  29.480  34.625  1.00  0.00     0.037 A 
BRANCH  50  64
ATOM     64  C   UNL A   1      40.450  28.008  29.066  1.00  0.00     0.064 A 
ATOM     65  C   UNL A   1      39.729  26.811  28.946  1.00  0.00     0.173 A 
ATOM     66  C   UNL A   1      41.237  28.412  27.976  1.00  0.00     0.173 A 
ATOM     67  F   UNL A   1      38.973  26.374  29.964  1.00  0.00    -0.203 F 
ATOM     68  C   UNL A   1      39.803  26.044  27.785  1.00  0.00     0.198 A 
ATOM     69  C   UNL A   1      41.290  27.656  26.809  1.00  0.00     0.198 A 
ATOM     70  F   UNL A   1      41.943  29.552  28.038  1.00  0.00    -0.203 F 
ATOM     71  F   UNL A   1      39.132  24.886  27.705  1.00  0.00    -0.200 F 
ATOM     72  C   UNL A   1      40.576  26.471  26.716  1.00  0.00     0.200 A 
ATOM     73  F   UNL A   1      42.028  28.075  25.772  1.00  0.00    -0.200 F 
ATOM     74  F   UNL A   1      40.637  25.737  25.595  1.00  0.00    -0.200 F 
ENDBRANCH  50  64
BRANCH  51  75
ATOM     75  C   UNL A   1      39.456  34.028  36.979  1.00  0.00     0.064 A 
ATOM     76  C   UNL A   1      38.747  33.667  38.132  1.00  0.00     0.173 A 
ATOM     77  C   UNL A   1      40.090  35.280  36.967  1.00  0.00     0.173 A 
ATOM     78  F   UNL A   1      38.109  32.487  38.183  1.00  0.00    -0.203 F 
ATOM     79  C   UNL A   1      38.677  34.521  39.230  1.00  0.00     0.198 A 
ATOM     80  C   UNL A   1      40.042  36.121  38.076  1.00  0.00     0.198 A 
ATOM     81  F   UNL A   1      40.784  35.670  35.888  1.00  0.00    -0.203 F 
ATOM     82  F   UNL A   1      37.973  34.161  40.312  1.00  0.00    -0.200 F 
ATOM     83  C   UNL A   1      39.333  35.742  39.206  1.00  0.00     0.200 A 
ATOM     84  F   UNL A   1      40.694  37.292  38.054  1.00  0.00    -0.200 F 
ATOM     85  F   UNL A   1      39.282  36.555  40.269  1.00  0.00    -0.200 F 
ENDBRANCH  51  75
BRANCH  63  86
ATOM     86  C   UNL A   1      43.838  28.850  35.355  1.00  0.00     0.064 A 
ATOM     87  C   UNL A   1      45.148  29.325  35.196  1.00  0.00     0.173 A 
ATOM     88  C   UNL A   1      43.618  27.814  36.272  1.00  0.00     0.173 A 
ATOM     89  F   UNL A   1      45.408  30.306  34.318  1.00  0.00    -0.203 F 
ATOM     90  C   UNL A   1      46.199  28.776  35.925  1.00  0.00     0.198 A 
ATOM     91  C   UNL A   1      44.666  27.283  37.016  1.00  0.00     0.198 A 
ATOM     92  F   UNL A   1      42.380  27.331  36.462  1.00  0.00    -0.203 F 
ATOM     93  F   UNL A   1      47.448  29.225  35.738  1.00  0.00    -0.200 F 
ATOM     94  C   UNL A   1      45.956  27.762  36.840  1.00  0.00     0.200 A 
ATOM     95  F   UNL A   1      44.429  26.313  37.909  1.00  0.00    -0.200 F 
ATOM     96  F   UNL A   1      46.967  27.245  37.552  1.00  0.00    -0.200 F 
ENDBRANCH  63  86
ENDBRANCH  37  38
ENDBRANCH  29  32
ENDBRANCH  27  28
ENDBRANCH  26  27
ENDBRANCH   1  26
TORSDOF 14
ENDMDL
