MODEL 1
REMARK VINA RESULT:     -13.9      0.000      0.000
REMARK SMILES CC(=O)O[C@@H]1CC[C@@]23C(=O)O[C@]4(CC[C@]2(O)C1)[C@H]3CC[C@]1(C)[C@H](C(=O)NCCCNC(=O)c2ccc(-c3c5nc(c(-c6c(F)c(F)c(F)c(F)c6F)c6ccc([nH]6)c(-c6c(F)c(F)c(F)c(F)c6F)c6nc(c(-c7c(F)c(F)c(F)c(F)c7F)c7ccc3[nH]7)C=C6)C=C5)cc2)CC[C@@H]14
REMARK SMILES IDX 28 1 27 2 26 3 24 4 25 5 23 7 5 8 6 9 17 10 7 11 15 12 8 13
REMARK SMILES IDX 14 14 9 15 18 16 13 17 10 18 11 19 12 20 19 21 98 22 20 23
REMARK SMILES IDX 21 24 97 25 22 26 96 27 4 28 2 29 1 30 3 31 16 32 29 34
REMARK SMILES IDX 30 35 31 36 32 38 33 39 34 40 95 41 35 42 94 43 36 44 37 45
REMARK SMILES IDX 38 46 88 47 39 48 93 49 87 50 89 51 40 52 92 53 86 54 85 55
REMARK SMILES IDX 41 57 73 58 53 59 72 60 54 61 57 62 71 63 90 64 55 65 56 66
REMARK SMILES IDX 70 68 91 69 58 70 42 71 43 72 51 73 44 74 45 75 49 76 52 77
REMARK SMILES IDX 46 78 47 79 50 80 48 81 74 82 75 83 83 84 76 85 77 86 81 87
REMARK SMILES IDX 84 88 78 89 79 90 82 91 80 92 59 93 60 94 68 95 61 96 62 97
REMARK SMILES IDX 66 98 69 99 63 100 64 101 67 102 65 103
REMARK H PARENT 26 6 16 33 30 37 89 56 57 67
REMARK Flexibility Score: inf
ROOT
ATOM      1  C   UNL A   1      37.806  19.575  24.999  1.00  0.00     0.042 C 
ENDROOT
BRANCH   1   2
ATOM      2  C   UNL A   1      36.535  20.434  25.001  1.00  0.00     0.117 C 
BRANCH   2   3
ATOM      3  N   UNL A   1      36.735  21.636  24.207  1.00  0.00    -0.356 N 
ATOM      4  C   UNL A   1      35.917  22.479  23.537  1.00  0.00     0.223 C 
ATOM      5  O   UNL A   1      36.501  23.261  22.771  1.00  0.00    -0.275 OA
ATOM      6  H   UNL A   1      37.683  21.894  24.142  1.00  0.00     0.163 HD
BRANCH   4   7
ATOM      7  C   UNL A   1      34.394  22.604  23.679  1.00  0.00     0.085 C 
ATOM      8  C   UNL A   1      30.302  29.323  22.610  1.00  0.00     0.179 C 
ATOM      9  C   UNL A   1      31.493  28.611  22.003  1.00  0.00     0.047 C 
ATOM     10  C   UNL A   1      30.547  29.408  24.132  1.00  0.00     0.081 C 
ATOM     11  C   UNL A   1      31.585  27.243  22.647  1.00  0.00     0.026 C 
ATOM     12  C   UNL A   1      31.035  28.118  24.864  1.00  0.00     0.085 C 
ATOM     13  C   UNL A   1      32.166  27.352  24.276  1.00  0.00     0.103 C 
ATOM     14  C   UNL A   1      29.921  26.965  24.908  1.00  0.00     0.041 C 
ATOM     15  C   UNL A   1      33.445  26.940  23.783  1.00  0.00     0.316 C 
ATOM     16  C   UNL A   1      32.339  26.056  25.446  1.00  0.00     0.054 C 
ATOM     17  C   UNL A   1      30.408  25.450  24.419  1.00  0.00     0.052 C 
ATOM     18  O   UNL A   1      34.466  27.535  23.462  1.00  0.00    -0.251 OA
ATOM     19  O   UNL A   1      33.086  25.608  23.499  1.00  0.00    -0.458 OA
ATOM     20  C   UNL A   1      31.995  25.110  24.400  1.00  0.00     0.120 C 
ATOM     21  C   UNL A   1      33.622  25.613  26.193  1.00  0.00     0.009 C 
ATOM     22  C   UNL A   1      32.252  23.615  24.415  1.00  0.00     0.040 C 
ATOM     23  C   UNL A   1      34.400  24.416  25.597  1.00  0.00     0.008 C 
ATOM     24  C   UNL A   1      33.668  23.224  24.938  1.00  0.00    -0.014 C 
ATOM     25  C   UNL A   1      32.210  23.130  22.935  1.00  0.00     0.009 C 
ATOM     26  C   UNL A   1      33.516  22.091  25.975  1.00  0.00     0.012 C 
ATOM     27  C   UNL A   1      33.661  23.115  22.449  1.00  0.00     0.014 C 
BRANCH   8  28
ATOM     28  O   UNL A   1      29.051  28.625  22.370  1.00  0.00    -0.462 OA
BRANCH  28  29
ATOM     29  C   UNL A   1      27.883  29.320  22.495  1.00  0.00     0.302 C 
ATOM     30  C   UNL A   1      27.931  30.597  21.706  1.00  0.00     0.139 C 
ATOM     31  O   UNL A   1      26.901  28.959  23.126  1.00  0.00    -0.253 OA
ENDBRANCH  28  29
ENDBRANCH   8  28
BRANCH  12  32
ATOM     32  O   UNL A   1      31.410  28.519  26.187  1.00  0.00    -0.389 OA
ATOM     33  H   UNL A   1      32.245  28.089  26.431  1.00  0.00     0.211 HD
ENDBRANCH  12  32
ENDBRANCH   4   7
ENDBRANCH   2   3
ENDBRANCH   1   2
BRANCH   1  34
ATOM     34  C   UNL A   1      38.973  20.183  25.753  1.00  0.00     0.118 C 
BRANCH  34  35
ATOM     35  N   UNL A   1      40.049  19.233  25.953  1.00  0.00    -0.352 N 
ATOM     36  C   UNL A   1      41.393  19.451  26.126  1.00  0.00     0.251 C 
ATOM     37  H   UNL A   1      39.774  18.287  25.968  1.00  0.00     0.163 HD
ATOM     38  O   UNL A   1      42.172  18.505  26.059  1.00  0.00    -0.269 OA
BRANCH  36  39
ATOM     39  C   UNL A   1      41.920  20.815  26.380  1.00  0.00     0.039 A 
ATOM     40  C   UNL A   1      42.217  21.182  27.696  1.00  0.00     0.014 A 
ATOM     41  C   UNL A   1      42.073  21.750  25.353  1.00  0.00     0.014 A 
ATOM     42  C   UNL A   1      42.691  22.467  27.973  1.00  0.00     0.010 A 
ATOM     43  C   UNL A   1      42.653  22.989  25.613  1.00  0.00     0.010 A 
ATOM     44  C   UNL A   1      42.935  23.376  26.930  1.00  0.00    -0.014 A 
BRANCH  44  45
ATOM     45  C   UNL A   1      43.426  24.750  27.208  1.00  0.00     0.031 A 
ATOM     46  C   UNL A   1      42.489  25.786  27.770  1.00  0.00     0.074 A 
ATOM     47  C   UNL A   1      44.701  25.079  26.922  1.00  0.00     0.049 A 
ATOM     48  N   UNL A   1      42.713  27.046  28.049  1.00  0.00    -0.248 NA
ATOM     49  C   UNL A   1      41.104  25.358  28.029  1.00  0.00     0.031 C 
ATOM     50  C   UNL A   1      45.692  24.180  26.328  1.00  0.00     0.029 A 
ATOM     51  N   UNL A   1      45.382  26.259  27.090  1.00  0.00    -0.354 N 
ATOM     52  C   UNL A   1      41.500  27.558  28.492  1.00  0.00     0.074 A 
ATOM     53  C   UNL A   1      40.527  26.496  28.385  1.00  0.00     0.031 C 
ATOM     54  C   UNL A   1      46.861  24.830  26.212  1.00  0.00     0.029 A 
ATOM     55  C   UNL A   1      46.693  26.201  26.686  1.00  0.00     0.049 A 
ATOM     56  H   UNL A   1      44.969  27.069  27.466  1.00  0.00     0.167 HD
ATOM     57  C   UNL A   1      41.227  28.795  28.975  1.00  0.00     0.037 A 
ATOM     58  C   UNL A   1      47.649  27.149  26.693  1.00  0.00     0.037 A 
ATOM     59  C   UNL A   1      42.206  29.840  29.108  1.00  0.00     0.049 A 
ATOM     60  C   UNL A   1      47.322  28.513  27.237  1.00  0.00     0.074 A 
ATOM     61  C   UNL A   1      42.049  31.108  29.640  1.00  0.00     0.029 A 
ATOM     62  N   UNL A   1      43.530  29.738  28.703  1.00  0.00    -0.354 N 
ATOM     63  N   UNL A   1      46.190  28.964  27.720  1.00  0.00    -0.248 NA
ATOM     64  C   UNL A   1      48.412  29.499  27.248  1.00  0.00     0.031 C 
ATOM     65  C   UNL A   1      43.261  31.791  29.505  1.00  0.00     0.029 A 
ATOM     66  C   UNL A   1      44.194  30.929  28.951  1.00  0.00     0.049 A 
ATOM     67  H   UNL A   1      43.936  28.938  28.299  1.00  0.00     0.167 HD
ATOM     68  C   UNL A   1      46.437  30.270  28.121  1.00  0.00     0.074 A 
ATOM     69  C   UNL A   1      47.834  30.533  27.840  1.00  0.00     0.031 C 
ATOM     70  C   UNL A   1      45.586  31.170  28.673  1.00  0.00     0.037 A 
BRANCH  57  71
ATOM     71  C   UNL A   1      39.812  29.082  29.394  1.00  0.00     0.064 A 
ATOM     72  C   UNL A   1      38.839  29.504  28.474  1.00  0.00     0.173 A 
ATOM     73  C   UNL A   1      39.415  28.902  30.727  1.00  0.00     0.173 A 
ATOM     74  F   UNL A   1      39.167  29.703  27.188  1.00  0.00    -0.203 F 
ATOM     75  C   UNL A   1      37.533  29.768  28.879  1.00  0.00     0.198 A 
ATOM     76  C   UNL A   1      38.099  29.131  31.122  1.00  0.00     0.198 A 
ATOM     77  F   UNL A   1      40.300  28.494  31.649  1.00  0.00    -0.203 F 
ATOM     78  F   UNL A   1      36.637  30.223  27.992  1.00  0.00    -0.200 F 
ATOM     79  C   UNL A   1      37.162  29.573  30.200  1.00  0.00     0.200 A 
ATOM     80  F   UNL A   1      37.738  28.928  32.397  1.00  0.00    -0.200 F 
ATOM     81  F   UNL A   1      35.903  29.818  30.586  1.00  0.00    -0.200 F 
ENDBRANCH  57  71
BRANCH  58  82
ATOM     82  C   UNL A   1      49.015  26.831  26.195  1.00  0.00     0.064 A 
ATOM     83  C   UNL A   1      49.359  27.029  24.851  1.00  0.00     0.173 A 
ATOM     84  C   UNL A   1      50.001  26.317  27.050  1.00  0.00     0.173 A 
ATOM     85  F   UNL A   1      48.446  27.500  23.988  1.00  0.00    -0.203 F 
ATOM     86  C   UNL A   1      50.627  26.704  24.375  1.00  0.00     0.198 A 
ATOM     87  C   UNL A   1      51.279  26.021  26.581  1.00  0.00     0.198 A 
ATOM     88  F   UNL A   1      49.727  26.113  28.347  1.00  0.00    -0.203 F 
ATOM     89  F   UNL A   1      50.912  26.854  23.074  1.00  0.00    -0.200 F 
ATOM     90  C   UNL A   1      51.588  26.205  25.242  1.00  0.00     0.200 A 
ATOM     91  F   UNL A   1      52.210  25.557  27.425  1.00  0.00    -0.200 F 
ATOM     92  F   UNL A   1      52.810  25.895  24.785  1.00  0.00    -0.200 F 
ENDBRANCH  58  82
BRANCH  70  93
ATOM     93  C   UNL A   1      46.151  32.510  29.050  1.00  0.00     0.064 A 
ATOM     94  C   UNL A   1      46.726  32.745  30.307  1.00  0.00     0.173 A 
ATOM     95  C   UNL A   1      46.144  33.565  28.124  1.00  0.00     0.173 A 
ATOM     96  F   UNL A   1      46.746  31.774  31.233  1.00  0.00    -0.203 F 
ATOM     97  C   UNL A   1      47.240  33.997  30.637  1.00  0.00     0.198 A 
ATOM     98  C   UNL A   1      46.692  34.804  28.444  1.00  0.00     0.198 A 
ATOM     99  F   UNL A   1      45.615  33.392  26.903  1.00  0.00    -0.203 F 
ATOM    100  F   UNL A   1      47.730  34.215  31.865  1.00  0.00    -0.200 F 
ATOM    101  C   UNL A   1      47.229  35.022  29.703  1.00  0.00     0.200 A 
ATOM    102  F   UNL A   1      46.697  35.788  27.534  1.00  0.00    -0.200 F 
ATOM    103  F   UNL A   1      47.730  36.224  30.019  1.00  0.00    -0.200 F 
ENDBRANCH  70  93
ENDBRANCH  44  45
ENDBRANCH  36  39
ENDBRANCH  34  35
ENDBRANCH   1  34
TORSDOF 13
ENDMDL
MODEL 2
REMARK VINA RESULT:     -13.9      0.111      1.079
REMARK SMILES CC(=O)O[C@@H]1CC[C@@]23C(=O)O[C@]4(CC[C@]2(O)C1)[C@H]3CC[C@]1(C)[C@H](C(=O)NCCCNC(=O)c2ccc(-c3c5nc(c(-c6c(F)c(F)c(F)c(F)c6F)c6ccc([nH]6)c(-c6c(F)c(F)c(F)c(F)c6F)c6nc(c(-c7c(F)c(F)c(F)c(F)c7F)c7ccc3[nH]7)C=C6)C=C5)cc2)CC[C@@H]14
REMARK SMILES IDX 28 1 27 2 26 3 24 4 25 5 23 7 5 8 6 9 17 10 7 11 15 12 8 13
REMARK SMILES IDX 14 14 9 15 18 16 13 17 10 18 11 19 12 20 19 21 98 22 20 23
REMARK SMILES IDX 21 24 97 25 22 26 96 27 4 28 2 29 1 30 3 31 16 32 29 34
REMARK SMILES IDX 30 35 31 36 32 38 33 39 34 40 95 41 35 42 94 43 36 44 37 45
REMARK SMILES IDX 38 46 88 47 39 48 93 49 87 50 89 51 40 52 92 53 86 54 85 55
REMARK SMILES IDX 41 57 73 58 53 59 72 60 54 61 57 62 71 63 90 64 55 65 56 66
REMARK SMILES IDX 70 68 91 69 58 70 42 71 43 72 51 73 44 74 45 75 49 76 52 77
REMARK SMILES IDX 46 78 47 79 50 80 48 81 74 82 75 83 83 84 76 85 77 86 81 87
REMARK SMILES IDX 84 88 78 89 79 90 82 91 80 92 59 93 60 94 68 95 61 96 62 97
REMARK SMILES IDX 66 98 69 99 63 100 64 101 67 102 65 103
REMARK H PARENT 26 6 16 33 30 37 89 56 57 67
REMARK Flexibility Score: inf
ROOT
ATOM      1  C   UNL A   1      37.931  19.636  25.001  1.00  0.00     0.042 C 
ENDROOT
BRANCH   1   2
ATOM      2  C   UNL A   1      36.658  20.492  24.995  1.00  0.00     0.117 C 
BRANCH   2   3
ATOM      3  N   UNL A   1      36.859  21.693  24.200  1.00  0.00    -0.356 N 
ATOM      4  C   UNL A   1      36.045  22.521  23.508  1.00  0.00     0.223 C 
ATOM      5  O   UNL A   1      36.635  23.307  22.751  1.00  0.00    -0.275 OA
ATOM      6  H   UNL A   1      37.805  21.964  24.155  1.00  0.00     0.163 HD
BRANCH   4   7
ATOM      7  C   UNL A   1      34.518  22.625  23.613  1.00  0.00     0.085 C 
ATOM      8  C   UNL A   1      30.378  29.336  22.682  1.00  0.00     0.179 C 
ATOM      9  C   UNL A   1      31.592  28.659  22.080  1.00  0.00     0.047 C 
ATOM     10  C   UNL A   1      30.583  29.367  24.212  1.00  0.00     0.081 C 
ATOM     11  C   UNL A   1      31.684  27.269  22.677  1.00  0.00     0.026 C 
ATOM     12  C   UNL A   1      31.067  28.057  24.910  1.00  0.00     0.085 C 
ATOM     13  C   UNL A   1      32.221  27.325  24.324  1.00  0.00     0.103 C 
ATOM     14  C   UNL A   1      29.965  26.891  24.882  1.00  0.00     0.041 C 
ATOM     15  C   UNL A   1      33.516  26.944  23.849  1.00  0.00     0.316 C 
ATOM     16  C   UNL A   1      32.379  25.989  25.450  1.00  0.00     0.054 C 
ATOM     17  C   UNL A   1      30.481  25.400  24.351  1.00  0.00     0.052 C 
ATOM     18  O   UNL A   1      34.539  27.561  23.577  1.00  0.00    -0.251 OA
ATOM     19  O   UNL A   1      33.181  25.620  23.508  1.00  0.00    -0.458 OA
ATOM     20  C   UNL A   1      32.072  25.077  24.362  1.00  0.00     0.120 C 
ATOM     21  C   UNL A   1      33.647  25.532  26.214  1.00  0.00     0.009 C 
ATOM     22  C   UNL A   1      32.345  23.586  24.330  1.00  0.00     0.040 C 
ATOM     23  C   UNL A   1      34.453  24.366  25.595  1.00  0.00     0.008 C 
ATOM     24  C   UNL A   1      33.752  23.191  24.875  1.00  0.00    -0.014 C 
ATOM     25  C   UNL A   1      32.347  23.155  22.833  1.00  0.00     0.009 C 
ATOM     26  C   UNL A   1      33.587  22.019  25.866  1.00  0.00     0.012 C 
ATOM     27  C   UNL A   1      33.811  23.173  22.385  1.00  0.00     0.014 C 
BRANCH   8  28
ATOM     28  O   UNL A   1      29.142  28.634  22.385  1.00  0.00    -0.462 OA
BRANCH  28  29
ATOM     29  C   UNL A   1      27.976  29.342  22.377  1.00  0.00     0.302 C 
ATOM     30  C   UNL A   1      28.028  30.452  21.366  1.00  0.00     0.139 C 
ATOM     31  O   UNL A   1      26.992  29.108  23.063  1.00  0.00    -0.253 OA
ENDBRANCH  28  29
ENDBRANCH   8  28
BRANCH  12  32
ATOM     32  O   UNL A   1      31.403  28.413  26.255  1.00  0.00    -0.389 OA
ATOM     33  H   UNL A   1      32.141  29.042  26.249  1.00  0.00     0.211 HD
ENDBRANCH  12  32
ENDBRANCH   4   7
ENDBRANCH   2   3
ENDBRANCH   1   2
BRANCH   1  34
ATOM     34  C   UNL A   1      39.018  20.137  25.931  1.00  0.00     0.118 C 
BRANCH  34  35
ATOM     35  N   UNL A   1      40.121  19.203  26.038  1.00  0.00    -0.352 N 
ATOM     36  C   UNL A   1      41.469  19.441  26.127  1.00  0.00     0.251 C 
ATOM     37  H   UNL A   1      39.863  18.252  26.048  1.00  0.00     0.163 HD
ATOM     38  O   UNL A   1      42.257  18.511  25.986  1.00  0.00    -0.269 OA
BRANCH  36  39
ATOM     39  C   UNL A   1      41.989  20.808  26.377  1.00  0.00     0.039 A 
ATOM     40  C   UNL A   1      42.285  21.180  27.692  1.00  0.00     0.014 A 
ATOM     41  C   UNL A   1      42.137  21.742  25.348  1.00  0.00     0.014 A 
ATOM     42  C   UNL A   1      42.753  22.468  27.966  1.00  0.00     0.010 A 
ATOM     43  C   UNL A   1      42.711  22.984  25.605  1.00  0.00     0.010 A 
ATOM     44  C   UNL A   1      42.991  23.376  26.921  1.00  0.00    -0.014 A 
BRANCH  44  45
ATOM     45  C   UNL A   1      43.475  24.753  27.195  1.00  0.00     0.031 A 
ATOM     46  C   UNL A   1      42.528  25.790  27.741  1.00  0.00     0.074 A 
ATOM     47  C   UNL A   1      44.753  25.084  26.922  1.00  0.00     0.049 A 
ATOM     48  N   UNL A   1      42.746  27.053  28.014  1.00  0.00    -0.248 NA
ATOM     49  C   UNL A   1      41.142  25.360  27.986  1.00  0.00     0.031 C 
ATOM     50  C   UNL A   1      45.753  24.184  26.346  1.00  0.00     0.029 A 
ATOM     51  N   UNL A   1      45.428  26.267  27.091  1.00  0.00    -0.354 N 
ATOM     52  C   UNL A   1      41.527  27.564  28.439  1.00  0.00     0.074 A 
ATOM     53  C   UNL A   1      40.557  26.498  28.328  1.00  0.00     0.031 C 
ATOM     54  C   UNL A   1      46.921  24.837  26.239  1.00  0.00     0.029 A 
ATOM     55  C   UNL A   1      46.743  26.210  26.702  1.00  0.00     0.049 A 
ATOM     56  H   UNL A   1      45.008  27.078  27.457  1.00  0.00     0.167 HD
ATOM     57  C   UNL A   1      41.244  28.803  28.911  1.00  0.00     0.037 A 
ATOM     58  C   UNL A   1      47.697  27.161  26.714  1.00  0.00     0.037 A 
ATOM     59  C   UNL A   1      42.219  29.852  29.048  1.00  0.00     0.049 A 
ATOM     60  C   UNL A   1      47.360  28.528  27.246  1.00  0.00     0.074 A 
ATOM     61  C   UNL A   1      42.052  31.123  29.570  1.00  0.00     0.029 A 
ATOM     62  N   UNL A   1      43.547  29.751  28.659  1.00  0.00    -0.354 N 
ATOM     63  N   UNL A   1      46.221  28.978  27.713  1.00  0.00    -0.248 NA
ATOM     64  C   UNL A   1      48.447  29.516  27.262  1.00  0.00     0.031 C 
ATOM     65  C   UNL A   1      43.264  31.809  29.446  1.00  0.00     0.029 A 
ATOM     66  C   UNL A   1      44.205  30.945  28.908  1.00  0.00     0.049 A 
ATOM     67  H   UNL A   1      43.961  28.949  28.266  1.00  0.00     0.167 HD
ATOM     68  C   UNL A   1      46.460  30.287  28.108  1.00  0.00     0.074 A 
ATOM     69  C   UNL A   1      47.859  30.553  27.841  1.00  0.00     0.031 C 
ATOM     70  C   UNL A   1      45.600  31.189  28.644  1.00  0.00     0.037 A 
BRANCH  57  71
ATOM     71  C   UNL A   1      39.824  29.089  29.312  1.00  0.00     0.064 A 
ATOM     72  C   UNL A   1      39.387  28.948  30.638  1.00  0.00     0.173 A 
ATOM     73  C   UNL A   1      38.895  29.543  28.363  1.00  0.00     0.173 A 
ATOM     74  F   UNL A   1      40.231  28.507  31.584  1.00  0.00    -0.203 F 
ATOM     75  C   UNL A   1      38.068  29.216  30.993  1.00  0.00     0.198 A 
ATOM     76  C   UNL A   1      37.585  29.845  28.728  1.00  0.00     0.198 A 
ATOM     77  F   UNL A   1      39.257  29.703  27.082  1.00  0.00    -0.203 F 
ATOM     78  F   UNL A   1      37.662  29.020  32.255  1.00  0.00    -0.200 F 
ATOM     79  C   UNL A   1      37.170  29.673  30.040  1.00  0.00     0.200 A 
ATOM     80  F   UNL A   1      36.723  30.301  27.809  1.00  0.00    -0.200 F 
ATOM     81  F   UNL A   1      35.903  29.940  30.385  1.00  0.00    -0.200 F 
ENDBRANCH  57  71
BRANCH  58  82
ATOM     82  C   UNL A   1      49.070  26.843  26.234  1.00  0.00     0.064 A 
ATOM     83  C   UNL A   1      49.427  27.028  24.891  1.00  0.00     0.173 A 
ATOM     84  C   UNL A   1      50.049  26.345  27.105  1.00  0.00     0.173 A 
ATOM     85  F   UNL A   1      48.520  27.484  24.014  1.00  0.00    -0.203 F 
ATOM     86  C   UNL A   1      50.701  26.703  24.433  1.00  0.00     0.198 A 
ATOM     87  C   UNL A   1      51.334  26.049  26.653  1.00  0.00     0.198 A 
ATOM     88  F   UNL A   1      49.763  26.155  28.402  1.00  0.00    -0.203 F 
ATOM     89  F   UNL A   1      50.998  26.839  23.133  1.00  0.00    -0.200 F 
ATOM     90  C   UNL A   1      51.655  26.219  25.315  1.00  0.00     0.200 A 
ATOM     91  F   UNL A   1      52.258  25.599  27.511  1.00  0.00    -0.200 F 
ATOM     92  F   UNL A   1      52.883  25.910  24.875  1.00  0.00    -0.200 F 
ENDBRANCH  58  82
BRANCH  70  93
ATOM     93  C   UNL A   1      46.157  32.532  29.019  1.00  0.00     0.064 A 
ATOM     94  C   UNL A   1      46.689  32.786  30.291  1.00  0.00     0.173 A 
ATOM     95  C   UNL A   1      46.186  33.573  28.077  1.00  0.00     0.173 A 
ATOM     96  F   UNL A   1      46.674  31.830  31.232  1.00  0.00    -0.203 F 
ATOM     97  C   UNL A   1      47.197  34.042  30.618  1.00  0.00     0.198 A 
ATOM     98  C   UNL A   1      46.727  34.815  28.395  1.00  0.00     0.198 A 
ATOM     99  F   UNL A   1      45.699  33.382  26.841  1.00  0.00    -0.203 F 
ATOM    100  F   UNL A   1      47.644  34.278  31.859  1.00  0.00    -0.200 F 
ATOM    101  C   UNL A   1      47.222  35.051  29.669  1.00  0.00     0.200 A 
ATOM    102  F   UNL A   1      46.767  35.784  27.470  1.00  0.00    -0.200 F 
ATOM    103  F   UNL A   1      47.716  36.257  29.983  1.00  0.00    -0.200 F 
ENDBRANCH  70  93
ENDBRANCH  44  45
ENDBRANCH  36  39
ENDBRANCH  34  35
ENDBRANCH   1  34
TORSDOF 13
ENDMDL
MODEL 3
REMARK VINA RESULT:     -13.8      5.444     10.935
REMARK SMILES CC(=O)O[C@@H]1CC[C@@]23C(=O)O[C@]4(CC[C@]2(O)C1)[C@H]3CC[C@]1(C)[C@H](C(=O)NCCCNC(=O)c2ccc(-c3c5nc(c(-c6c(F)c(F)c(F)c(F)c6F)c6ccc([nH]6)c(-c6c(F)c(F)c(F)c(F)c6F)c6nc(c(-c7c(F)c(F)c(F)c(F)c7F)c7ccc3[nH]7)C=C6)C=C5)cc2)CC[C@@H]14
REMARK SMILES IDX 28 1 27 2 26 3 24 4 25 5 23 7 5 8 6 9 17 10 7 11 15 12 8 13
REMARK SMILES IDX 14 14 9 15 18 16 13 17 10 18 11 19 12 20 19 21 98 22 20 23
REMARK SMILES IDX 21 24 97 25 22 26 96 27 4 28 2 29 1 30 3 31 16 32 29 34
REMARK SMILES IDX 30 35 31 36 32 38 33 39 34 40 95 41 35 42 94 43 36 44 37 45
REMARK SMILES IDX 38 46 88 47 39 48 93 49 87 50 89 51 40 52 92 53 86 54 85 55
REMARK SMILES IDX 41 57 73 58 53 59 72 60 54 61 57 62 71 63 90 64 55 65 56 66
REMARK SMILES IDX 70 68 91 69 58 70 42 71 43 72 51 73 44 74 45 75 49 76 52 77
REMARK SMILES IDX 46 78 47 79 50 80 48 81 74 82 75 83 83 84 76 85 77 86 81 87
REMARK SMILES IDX 84 88 78 89 79 90 82 91 80 92 59 93 60 94 68 95 61 96 62 97
REMARK SMILES IDX 66 98 69 99 63 100 64 101 67 102 65 103
REMARK H PARENT 26 6 16 33 30 37 89 56 57 67
REMARK Flexibility Score: inf
ROOT
ATOM      1  C   UNL A   1      31.466  32.989  26.356  1.00  0.00     0.042 C 
ENDROOT
BRANCH   1   2
ATOM      2  C   UNL A   1      31.094  31.508  26.208  1.00  0.00     0.117 C 
BRANCH   2   3
ATOM      3  N   UNL A   1      32.184  30.664  26.670  1.00  0.00    -0.356 N 
ATOM      4  C   UNL A   1      32.363  29.330  26.799  1.00  0.00     0.223 C 
ATOM      5  O   UNL A   1      33.357  29.007  27.468  1.00  0.00    -0.275 OA
ATOM      6  H   UNL A   1      32.971  31.182  26.954  1.00  0.00     0.163 HD
BRANCH   4   7
ATOM      7  C   UNL A   1      31.524  28.213  26.163  1.00  0.00     0.085 C 
ATOM      8  C   UNL A   1      33.965  20.718  25.211  1.00  0.00     0.179 C 
ATOM      9  C   UNL A   1      34.082  21.829  26.235  1.00  0.00     0.047 C 
ATOM     10  C   UNL A   1      34.392  21.306  23.849  1.00  0.00     0.081 C 
ATOM     11  C   UNL A   1      33.179  22.960  25.789  1.00  0.00     0.026 C 
ATOM     12  C   UNL A   1      33.810  22.695  23.439  1.00  0.00     0.085 C 
ATOM     13  C   UNL A   1      33.850  23.803  24.430  1.00  0.00     0.103 C 
ATOM     14  C   UNL A   1      32.232  22.650  23.149  1.00  0.00     0.041 C 
ATOM     15  C   UNL A   1      34.268  24.820  25.347  1.00  0.00     0.316 C 
ATOM     16  C   UNL A   1      33.125  25.107  23.508  1.00  0.00     0.054 C 
ATOM     17  C   UNL A   1      31.308  23.807  23.911  1.00  0.00     0.052 C 
ATOM     18  O   UNL A   1      35.320  25.069  25.921  1.00  0.00    -0.251 OA
ATOM     19  O   UNL A   1      32.983  25.324  25.625  1.00  0.00    -0.458 OA
ATOM     20  C   UNL A   1      32.040  25.143  24.472  1.00  0.00     0.120 C 
ATOM     21  C   UNL A   1      33.692  26.528  23.260  1.00  0.00     0.009 C 
ATOM     22  C   UNL A   1      31.057  26.278  24.683  1.00  0.00     0.040 C 
ATOM     23  C   UNL A   1      33.180  27.656  24.186  1.00  0.00     0.008 C 
ATOM     24  C   UNL A   1      31.717  27.691  24.684  1.00  0.00    -0.014 C 
ATOM     25  C   UNL A   1      30.456  26.102  26.109  1.00  0.00     0.009 C 
ATOM     26  C   UNL A   1      30.894  28.621  23.766  1.00  0.00     0.012 C 
ATOM     27  C   UNL A   1      31.288  26.992  27.036  1.00  0.00     0.014 C 
BRANCH   8  28
ATOM     28  O   UNL A   1      32.613  20.201  25.101  1.00  0.00    -0.462 OA
BRANCH  28  29
ATOM     29  C   UNL A   1      32.440  18.858  24.932  1.00  0.00     0.302 C 
ATOM     30  C   UNL A   1      32.380  18.503  23.473  1.00  0.00     0.139 C 
ATOM     31  O   UNL A   1      32.376  18.027  25.825  1.00  0.00    -0.253 OA
ENDBRANCH  28  29
ENDBRANCH   8  28
BRANCH  12  32
ATOM     32  O   UNL A   1      34.533  23.112  22.276  1.00  0.00    -0.389 OA
ATOM     33  H   UNL A   1      35.084  23.880  22.496  1.00  0.00     0.211 HD
ENDBRANCH  12  32
ENDBRANCH   4   7
ENDBRANCH   2   3
ENDBRANCH   1   2
BRANCH   1  34
ATOM     34  C   UNL A   1      32.448  33.279  27.473  1.00  0.00     0.118 C 
BRANCH  34  35
ATOM     35  N   UNL A   1      32.425  34.672  27.873  1.00  0.00    -0.352 N 
ATOM     36  C   UNL A   1      33.109  35.308  28.879  1.00  0.00     0.251 C 
ATOM     37  H   UNL A   1      31.829  35.249  27.343  1.00  0.00     0.163 HD
ATOM     38  O   UNL A   1      32.786  36.448  29.200  1.00  0.00    -0.269 OA
BRANCH  36  39
ATOM     39  C   UNL A   1      34.223  34.636  29.592  1.00  0.00     0.039 A 
ATOM     40  C   UNL A   1      35.493  34.646  29.008  1.00  0.00     0.014 A 
ATOM     41  C   UNL A   1      34.023  33.951  30.794  1.00  0.00     0.014 A 
ATOM     42  C   UNL A   1      36.558  34.001  29.641  1.00  0.00     0.010 A 
ATOM     43  C   UNL A   1      35.106  33.408  31.480  1.00  0.00     0.010 A 
ATOM     44  C   UNL A   1      36.379  33.394  30.894  1.00  0.00    -0.014 A 
BRANCH  44  45
ATOM     45  C   UNL A   1      37.498  32.691  31.575  1.00  0.00     0.031 A 
ATOM     46  C   UNL A   1      38.177  31.528  30.902  1.00  0.00     0.074 A 
ATOM     47  C   UNL A   1      37.879  33.073  32.810  1.00  0.00     0.049 A 
ATOM     48  N   UNL A   1      39.146  30.763  31.342  1.00  0.00    -0.248 NA
ATOM     49  C   UNL A   1      37.685  31.153  29.566  1.00  0.00     0.031 C 
ATOM     50  C   UNL A   1      37.267  34.151  33.587  1.00  0.00     0.029 A 
ATOM     51  N   UNL A   1      38.871  32.595  33.629  1.00  0.00    -0.354 N 
ATOM     52  C   UNL A   1      39.359  29.814  30.350  1.00  0.00     0.074 A 
ATOM     53  C   UNL A   1      38.380  30.054  29.315  1.00  0.00     0.031 C 
ATOM     54  C   UNL A   1      37.917  34.274  34.755  1.00  0.00     0.029 A 
ATOM     55  C   UNL A   1      38.965  33.260  34.826  1.00  0.00     0.049 A 
ATOM     56  H   UNL A   1      39.460  31.846  33.380  1.00  0.00     0.167 HD
ATOM     57  C   UNL A   1      40.307  28.847  30.291  1.00  0.00     0.037 A 
ATOM     58  C   UNL A   1      39.800  33.070  35.866  1.00  0.00     0.037 A 
ATOM     59  C   UNL A   1      41.300  28.632  31.310  1.00  0.00     0.049 A 
ATOM     60  C   UNL A   1      40.846  31.992  35.775  1.00  0.00     0.074 A 
ATOM     61  C   UNL A   1      42.341  27.720  31.322  1.00  0.00     0.029 A 
ATOM     62  N   UNL A   1      41.373  29.338  32.502  1.00  0.00    -0.354 N 
ATOM     63  N   UNL A   1      41.084  31.147  34.801  1.00  0.00    -0.248 NA
ATOM     64  C   UNL A   1      41.748  31.849  36.926  1.00  0.00     0.031 C 
ATOM     65  C   UNL A   1      43.009  27.837  32.544  1.00  0.00     0.029 A 
ATOM     66  C   UNL A   1      42.428  28.866  33.268  1.00  0.00     0.049 A 
ATOM     67  H   UNL A   1      40.766  30.066  32.765  1.00  0.00     0.167 HD
ATOM     68  C   UNL A   1      42.180  30.396  35.205  1.00  0.00     0.074 A 
ATOM     69  C   UNL A   1      42.570  30.898  36.507  1.00  0.00     0.031 C 
ATOM     70  C   UNL A   1      42.807  29.383  34.557  1.00  0.00     0.037 A 
BRANCH  57  71
ATOM     71  C   UNL A   1      40.314  27.950  29.085  1.00  0.00     0.064 A 
ATOM     72  C   UNL A   1      41.063  28.258  27.938  1.00  0.00     0.173 A 
ATOM     73  C   UNL A   1      39.588  26.749  29.087  1.00  0.00     0.173 A 
ATOM     74  F   UNL A   1      41.767  29.399  27.878  1.00  0.00    -0.203 F 
ATOM     75  C   UNL A   1      41.058  27.417  26.828  1.00  0.00     0.198 A 
ATOM     76  C   UNL A   1      39.614  25.892  27.989  1.00  0.00     0.198 A 
ATOM     77  F   UNL A   1      38.859  26.400  30.157  1.00  0.00    -0.203 F 
ATOM     78  F   UNL A   1      41.737  27.762  25.725  1.00  0.00    -0.200 F 
ATOM     79  C   UNL A   1      40.340  26.231  26.858  1.00  0.00     0.200 A 
ATOM     80  F   UNL A   1      38.932  24.739  28.025  1.00  0.00    -0.200 F 
ATOM     81  F   UNL A   1      40.344  25.418  25.793  1.00  0.00    -0.200 F 
ENDBRANCH  57  71
BRANCH  58  82
ATOM     82  C   UNL A   1      39.700  33.940  37.069  1.00  0.00     0.064 A 
ATOM     83  C   UNL A   1      38.936  33.553  38.179  1.00  0.00     0.173 A 
ATOM     84  C   UNL A   1      40.359  35.176  37.131  1.00  0.00     0.173 A 
ATOM     85  F   UNL A   1      38.270  32.388  38.161  1.00  0.00    -0.203 F 
ATOM     86  C   UNL A   1      38.815  34.378  39.294  1.00  0.00     0.198 A 
ATOM     87  C   UNL A   1      40.264  35.987  38.260  1.00  0.00     0.198 A 
ATOM     88  F   UNL A   1      41.108  35.592  36.100  1.00  0.00    -0.203 F 
ATOM     89  F   UNL A   1      38.035  34.007  40.319  1.00  0.00    -0.200 F 
ATOM     90  C   UNL A   1      39.484  35.593  39.336  1.00  0.00     0.200 A 
ATOM     91  F   UNL A   1      40.925  37.151  38.305  1.00  0.00    -0.200 F 
ATOM     92  F   UNL A   1      39.371  36.386  40.412  1.00  0.00    -0.200 F 
ENDBRANCH  58  82
BRANCH  70  93
ATOM     93  C   UNL A   1      44.009  28.778  35.226  1.00  0.00     0.064 A 
ATOM     94  C   UNL A   1      45.305  29.265  35.003  1.00  0.00     0.173 A 
ATOM     95  C   UNL A   1      43.853  27.714  36.128  1.00  0.00     0.173 A 
ATOM     96  F   UNL A   1      45.509  30.271  34.140  1.00  0.00    -0.203 F 
ATOM     97  C   UNL A   1      46.405  28.685  35.631  1.00  0.00     0.198 A 
ATOM     98  C   UNL A   1      44.951  27.162  36.782  1.00  0.00     0.198 A 
ATOM     99  F   UNL A   1      42.634  27.216  36.386  1.00  0.00    -0.203 F 
ATOM    100  F   UNL A   1      47.640  29.127  35.356  1.00  0.00    -0.200 F 
ATOM    101  C   UNL A   1      46.226  27.640  36.524  1.00  0.00     0.200 A 
ATOM    102  F   UNL A   1      44.774  26.164  37.659  1.00  0.00    -0.200 F 
ATOM    103  F   UNL A   1      47.285  27.088  37.133  1.00  0.00    -0.200 F 
ENDBRANCH  70  93
ENDBRANCH  44  45
ENDBRANCH  36  39
ENDBRANCH  34  35
ENDBRANCH   1  34
TORSDOF 13
ENDMDL
