MODEL 1
REMARK VINA RESULT:     -11.6      0.000      0.000
REMARK SMILES CCCc1nnc(SCC(=O)NCCCNC(=O)c2ccc(-c3c4nc(c(-c5c(F)c(F)c(F)c(F)c5F)c5ccc([nH]5)c(-c5c(F)c(F)c(F)c(F)c5F)c5nc(c(-c6c(F)c(F)c(F)c(F)c6F)c6ccc3[nH]6)C=C5)C=C4)cc2)n1C[C@H]1CCCO1
REMARK SMILES IDX 13 1 12 2 10 3 11 4 9 6 8 7 7 8 4 9 5 10 82 11 6 12 3 13
REMARK SMILES IDX 2 14 1 15 83 16 84 17 85 18 88 19 86 20 87 21 14 22 15 23
REMARK SMILES IDX 16 24 17 25 18 27 19 28 20 29 81 30 21 31 80 32 22 33 23 34
REMARK SMILES IDX 24 35 74 36 25 37 79 38 73 39 75 40 26 41 78 42 72 43 71 44
REMARK SMILES IDX 27 46 59 47 39 48 58 49 40 50 43 51 57 52 76 53 41 54 42 55
REMARK SMILES IDX 56 57 77 58 44 59 28 60 29 61 37 62 30 63 31 64 35 65 38 66
REMARK SMILES IDX 32 67 33 68 36 69 34 70 60 71 61 72 69 73 62 74 63 75 67 76
REMARK SMILES IDX 70 77 64 78 65 79 68 80 66 81 45 82 46 83 54 84 47 85 48 86
REMARK SMILES IDX 52 87 55 88 49 89 50 90 53 91 51 92
REMARK H PARENT 12 5 16 26 75 45 43 56
REMARK Flexibility Score: inf
ROOT
ATOM      1  C   UNL A   1      36.061  20.730  25.208  1.00  0.00     0.117 C 
ENDROOT
BRANCH   1   2
ATOM      2  N   UNL A   1      34.864  19.919  25.193  1.00  0.00    -0.355 N 
ATOM      3  C   UNL A   1      33.580  20.291  25.422  1.00  0.00     0.230 C 
ATOM      4  O   UNL A   1      32.724  19.410  25.335  1.00  0.00    -0.274 OA
ATOM      5  H   UNL A   1      34.999  18.966  24.987  1.00  0.00     0.163 HD
BRANCH   3   6
ATOM      6  C   UNL A   1      33.253  21.742  25.748  1.00  0.00     0.178 C 
BRANCH   6   7
ATOM      7  S   UNL A   1      31.505  22.082  25.645  1.00  0.00    -0.076 SA
BRANCH   7   8
ATOM      8  C   UNL A   1      31.239  23.793  25.672  1.00  0.00     0.191 A 
ATOM      9  C   UNL A   1      30.232  25.603  25.003  1.00  0.00     0.133 A 
ATOM     10  N   UNL A   1      30.061  25.504  26.307  1.00  0.00    -0.134 NA
ATOM     11  N   UNL A   1      31.201  24.686  24.628  1.00  0.00    -0.303 N 
ATOM     12  N   UNL A   1      30.687  24.361  26.723  1.00  0.00    -0.123 NA
BRANCH   9  13
ATOM     13  C   UNL A   1      29.310  26.353  24.092  1.00  0.00     0.077 C 
BRANCH  13  14
ATOM     14  C   UNL A   1      29.809  27.695  23.566  1.00  0.00     0.005 C 
ATOM     15  C   UNL A   1      30.982  28.272  24.347  1.00  0.00     0.004 C 
ENDBRANCH  13  14
ENDBRANCH   9  13
BRANCH  11  16
ATOM     16  C   UNL A   1      31.861  24.649  23.350  1.00  0.00     0.158 C 
BRANCH  16  17
ATOM     17  C   UNL A   1      33.190  25.424  23.219  1.00  0.00     0.138 C 
ATOM     18  C   UNL A   1      33.863  25.976  24.469  1.00  0.00     0.036 C 
ATOM     19  O   UNL A   1      34.168  24.516  22.669  1.00  0.00    -0.376 OA
ATOM     20  C   UNL A   1      34.782  24.872  24.946  1.00  0.00     0.031 C 
ATOM     21  C   UNL A   1      35.020  24.029  23.715  1.00  0.00     0.160 C 
ENDBRANCH  16  17
ENDBRANCH  11  16
ENDBRANCH   7   8
ENDBRANCH   6   7
ENDBRANCH   3   6
ENDBRANCH   1   2
BRANCH   1  22
ATOM     22  C   UNL A   1      37.308  19.974  24.757  1.00  0.00     0.042 C 
BRANCH  22  23
ATOM     23  C   UNL A   1      38.552  20.411  25.505  1.00  0.00     0.118 C 
BRANCH  23  24
ATOM     24  N   UNL A   1      39.534  19.332  25.613  1.00  0.00    -0.352 N 
ATOM     25  C   UNL A   1      40.871  19.431  25.918  1.00  0.00     0.251 C 
ATOM     26  H   UNL A   1      39.196  18.422  25.448  1.00  0.00     0.163 HD
ATOM     27  O   UNL A   1      41.646  18.507  25.689  1.00  0.00    -0.269 OA
BRANCH  25  28
ATOM     28  C   UNL A   1      41.352  20.676  26.527  1.00  0.00     0.039 A 
ATOM     29  C   UNL A   1      41.850  21.716  25.742  1.00  0.00     0.014 A 
ATOM     30  C   UNL A   1      41.239  20.800  27.909  1.00  0.00     0.014 A 
ATOM     31  C   UNL A   1      42.186  22.913  26.363  1.00  0.00     0.010 A 
ATOM     32  C   UNL A   1      41.398  22.027  28.488  1.00  0.00     0.010 A 
ATOM     33  C   UNL A   1      41.947  23.060  27.738  1.00  0.00    -0.014 A 
BRANCH  33  34
ATOM     34  C   UNL A   1      42.215  24.319  28.411  1.00  0.00     0.031 A 
ATOM     35  C   UNL A   1      41.199  25.382  28.194  1.00  0.00     0.074 A 
ATOM     36  C   UNL A   1      43.192  24.444  29.333  1.00  0.00     0.049 A 
ATOM     37  N   UNL A   1      41.355  26.519  27.601  1.00  0.00    -0.248 NA
ATOM     38  C   UNL A   1      39.808  25.099  28.587  1.00  0.00     0.031 C 
ATOM     39  C   UNL A   1      44.063  23.404  29.897  1.00  0.00     0.029 A 
ATOM     40  N   UNL A   1      43.544  25.543  30.048  1.00  0.00    -0.354 N 
ATOM     41  C   UNL A   1      40.132  27.176  27.699  1.00  0.00     0.074 A 
ATOM     42  C   UNL A   1      39.182  26.198  28.162  1.00  0.00     0.031 C 
ATOM     43  C   UNL A   1      44.664  23.871  31.013  1.00  0.00     0.029 A 
ATOM     44  C   UNL A   1      44.370  25.285  31.131  1.00  0.00     0.049 A 
ATOM     45  H   UNL A   1      43.237  26.449  29.816  1.00  0.00     0.167 HD
ATOM     46  C   UNL A   1      40.052  28.534  27.609  1.00  0.00     0.037 A 
ATOM     47  C   UNL A   1      44.761  26.175  32.073  1.00  0.00     0.037 A 
ATOM     48  C   UNL A   1      41.242  29.085  27.010  1.00  0.00     0.049 A 
ATOM     49  C   UNL A   1      44.562  27.531  31.500  1.00  0.00     0.074 A 
ATOM     50  C   UNL A   1      41.868  28.933  25.789  1.00  0.00     0.029 A 
ATOM     51  N   UNL A   1      42.189  29.636  27.840  1.00  0.00    -0.354 N 
ATOM     52  N   UNL A   1      45.249  28.002  30.495  1.00  0.00    -0.248 NA
ATOM     53  C   UNL A   1      43.287  28.186  31.748  1.00  0.00     0.031 C 
ATOM     54  C   UNL A   1      43.263  28.917  26.089  1.00  0.00     0.029 A 
ATOM     55  C   UNL A   1      43.407  29.131  27.459  1.00  0.00     0.049 A 
ATOM     56  H   UNL A   1      42.024  30.274  28.571  1.00  0.00     0.167 HD
ATOM     57  C   UNL A   1      44.324  28.703  29.734  1.00  0.00     0.074 A 
ATOM     58  C   UNL A   1      43.160  28.860  30.602  1.00  0.00     0.031 C 
ATOM     59  C   UNL A   1      44.480  28.838  28.383  1.00  0.00     0.037 A 
BRANCH  46  60
ATOM     60  C   UNL A   1      39.062  29.382  28.372  1.00  0.00     0.064 A 
ATOM     61  C   UNL A   1      39.093  29.381  29.780  1.00  0.00     0.173 A 
ATOM     62  C   UNL A   1      37.913  29.962  27.792  1.00  0.00     0.173 A 
ATOM     63  F   UNL A   1      40.124  28.833  30.442  1.00  0.00    -0.203 F 
ATOM     64  C   UNL A   1      38.024  29.860  30.544  1.00  0.00     0.198 A 
ATOM     65  C   UNL A   1      36.875  30.492  28.556  1.00  0.00     0.198 A 
ATOM     66  F   UNL A   1      37.691  29.940  26.472  1.00  0.00    -0.203 F 
ATOM     67  F   UNL A   1      38.045  29.724  31.876  1.00  0.00    -0.200 F 
ATOM     68  C   UNL A   1      36.914  30.412  29.931  1.00  0.00     0.200 A 
ATOM     69  F   UNL A   1      35.799  31.002  27.942  1.00  0.00    -0.200 F 
ATOM     70  F   UNL A   1      35.865  30.817  30.657  1.00  0.00    -0.200 F 
ENDBRANCH  46  60
BRANCH  47  71
ATOM     71  C   UNL A   1      44.996  25.934  33.513  1.00  0.00     0.064 A 
ATOM     72  C   UNL A   1      43.922  25.816  34.408  1.00  0.00     0.173 A 
ATOM     73  C   UNL A   1      46.262  25.540  33.991  1.00  0.00     0.173 A 
ATOM     74  F   UNL A   1      42.681  26.135  34.016  1.00  0.00    -0.203 F 
ATOM     75  C   UNL A   1      44.098  25.300  35.697  1.00  0.00     0.198 A 
ATOM     76  C   UNL A   1      46.437  25.032  35.279  1.00  0.00     0.198 A 
ATOM     77  F   UNL A   1      47.335  25.549  33.187  1.00  0.00    -0.203 F 
ATOM     78  F   UNL A   1      43.040  25.139  36.502  1.00  0.00    -0.200 F 
ATOM     79  C   UNL A   1      45.353  24.897  36.126  1.00  0.00     0.200 A 
ATOM     80  F   UNL A   1      47.650  24.613  35.669  1.00  0.00    -0.200 F 
ATOM     81  F   UNL A   1      45.510  24.342  37.336  1.00  0.00    -0.200 F 
ENDBRANCH  47  71
BRANCH  59  82
ATOM     82  C   UNL A   1      45.799  28.423  27.786  1.00  0.00     0.064 A 
ATOM     83  C   UNL A   1      46.951  29.231  27.774  1.00  0.00     0.173 A 
ATOM     84  C   UNL A   1      45.942  27.105  27.334  1.00  0.00     0.173 A 
ATOM     85  F   UNL A   1      46.931  30.467  28.282  1.00  0.00    -0.203 F 
ATOM     86  C   UNL A   1      48.169  28.758  27.288  1.00  0.00     0.198 A 
ATOM     87  C   UNL A   1      47.168  26.621  26.885  1.00  0.00     0.198 A 
ATOM     88  F   UNL A   1      44.896  26.265  27.374  1.00  0.00    -0.203 F 
ATOM     89  F   UNL A   1      49.245  29.557  27.276  1.00  0.00    -0.200 F 
ATOM     90  C   UNL A   1      48.278  27.450  26.850  1.00  0.00     0.200 A 
ATOM     91  F   UNL A   1      47.280  25.339  26.508  1.00  0.00    -0.200 F 
ATOM     92  F   UNL A   1      49.457  26.980  26.420  1.00  0.00    -0.200 F 
ENDBRANCH  59  82
ENDBRANCH  33  34
ENDBRANCH  25  28
ENDBRANCH  23  24
ENDBRANCH  22  23
ENDBRANCH   1  22
TORSDOF 16
ENDMDL
MODEL 2
REMARK VINA RESULT:     -11.5      2.771      7.439
REMARK SMILES CCCc1nnc(SCC(=O)NCCCNC(=O)c2ccc(-c3c4nc(c(-c5c(F)c(F)c(F)c(F)c5F)c5ccc([nH]5)c(-c5c(F)c(F)c(F)c(F)c5F)c5nc(c(-c6c(F)c(F)c(F)c(F)c6F)c6ccc3[nH]6)C=C5)C=C4)cc2)n1C[C@H]1CCCO1
REMARK SMILES IDX 13 1 12 2 10 3 11 4 9 6 8 7 7 8 4 9 5 10 82 11 6 12 3 13
REMARK SMILES IDX 2 14 1 15 83 16 84 17 85 18 88 19 86 20 87 21 14 22 15 23
REMARK SMILES IDX 16 24 17 25 18 27 19 28 20 29 81 30 21 31 80 32 22 33 23 34
REMARK SMILES IDX 24 35 74 36 25 37 79 38 73 39 75 40 26 41 78 42 72 43 71 44
REMARK SMILES IDX 27 46 59 47 39 48 58 49 40 50 43 51 57 52 76 53 41 54 42 55
REMARK SMILES IDX 56 57 77 58 44 59 28 60 29 61 37 62 30 63 31 64 35 65 38 66
REMARK SMILES IDX 32 67 33 68 36 69 34 70 60 71 61 72 69 73 62 74 63 75 67 76
REMARK SMILES IDX 70 77 64 78 65 79 68 80 66 81 45 82 46 83 54 84 47 85 48 86
REMARK SMILES IDX 52 87 55 88 49 89 50 90 53 91 51 92
REMARK H PARENT 12 5 16 26 75 45 43 56
REMARK Flexibility Score: inf
ROOT
ATOM      1  C   UNL A   1      36.326  21.903  25.794  1.00  0.00     0.117 C 
ENDROOT
BRANCH   1   2
ATOM      2  N   UNL A   1      35.402  20.836  25.484  1.00  0.00    -0.355 N 
ATOM      3  C   UNL A   1      34.057  20.798  25.655  1.00  0.00     0.230 C 
ATOM      4  O   UNL A   1      33.481  19.770  25.296  1.00  0.00    -0.274 OA
ATOM      5  H   UNL A   1      35.803  20.025  25.096  1.00  0.00     0.163 HD
BRANCH   3   6
ATOM      6  C   UNL A   1      33.329  21.997  26.247  1.00  0.00     0.178 C 
BRANCH   6   7
ATOM      7  S   UNL A   1      31.710  22.228  25.532  1.00  0.00    -0.076 SA
BRANCH   7   8
ATOM      8  C   UNL A   1      31.316  23.913  25.507  1.00  0.00     0.191 A 
ATOM      9  C   UNL A   1      30.115  25.608  24.855  1.00  0.00     0.133 A 
ATOM     10  N   UNL A   1      30.072  25.565  26.173  1.00  0.00    -0.134 NA
ATOM     11  N   UNL A   1      31.114  24.746  24.432  1.00  0.00    -0.303 N 
ATOM     12  N   UNL A   1      30.821  24.494  26.579  1.00  0.00    -0.123 NA
BRANCH   9  13
ATOM     13  C   UNL A   1      29.059  26.240  24.002  1.00  0.00     0.077 C 
BRANCH  13  14
ATOM     14  C   UNL A   1      29.264  27.705  23.630  1.00  0.00     0.005 C 
ATOM     15  C   UNL A   1      30.220  27.922  22.465  1.00  0.00     0.004 C 
ENDBRANCH  13  14
ENDBRANCH   9  13
BRANCH  11  16
ATOM     16  C   UNL A   1      31.655  24.690  23.100  1.00  0.00     0.158 C 
BRANCH  16  17
ATOM     17  C   UNL A   1      32.986  25.430  22.848  1.00  0.00     0.138 C 
ATOM     18  C   UNL A   1      33.570  26.319  23.938  1.00  0.00     0.036 C 
ATOM     19  O   UNL A   1      34.005  24.428  22.633  1.00  0.00    -0.376 OA
ATOM     20  C   UNL A   1      34.459  25.409  24.760  1.00  0.00     0.031 C 
ATOM     21  C   UNL A   1      34.785  24.267  23.826  1.00  0.00     0.160 C 
ENDBRANCH  16  17
ENDBRANCH  11  16
ENDBRANCH   7   8
ENDBRANCH   6   7
ENDBRANCH   3   6
ENDBRANCH   1   2
BRANCH   1  22
ATOM     22  C   UNL A   1      37.778  21.558  25.469  1.00  0.00     0.042 C 
BRANCH  22  23
ATOM     23  C   UNL A   1      38.763  22.384  26.273  1.00  0.00     0.118 C 
BRANCH  23  24
ATOM     24  N   UNL A   1      40.148  21.996  26.008  1.00  0.00    -0.352 N 
ATOM     25  C   UNL A   1      41.281  22.766  26.126  1.00  0.00     0.251 C 
ATOM     26  H   UNL A   1      40.287  21.067  25.710  1.00  0.00     0.163 HD
ATOM     27  O   UNL A   1      42.336  22.429  25.598  1.00  0.00    -0.269 OA
BRANCH  25  28
ATOM     28  C   UNL A   1      41.196  24.008  26.900  1.00  0.00     0.039 A 
ATOM     29  C   UNL A   1      41.811  24.124  28.147  1.00  0.00     0.014 A 
ATOM     30  C   UNL A   1      40.529  25.083  26.319  1.00  0.00     0.014 A 
ATOM     31  C   UNL A   1      41.794  25.359  28.784  1.00  0.00     0.010 A 
ATOM     32  C   UNL A   1      40.667  26.331  26.858  1.00  0.00     0.010 A 
ATOM     33  C   UNL A   1      41.225  26.459  28.124  1.00  0.00    -0.014 A 
BRANCH  33  34
ATOM     34  C   UNL A   1      41.252  27.783  28.722  1.00  0.00     0.031 A 
ATOM     35  C   UNL A   1      42.391  28.643  28.307  1.00  0.00     0.074 A 
ATOM     36  C   UNL A   1      40.210  28.270  29.429  1.00  0.00     0.049 A 
ATOM     37  N   UNL A   1      43.348  29.102  29.045  1.00  0.00    -0.248 NA
ATOM     38  C   UNL A   1      42.548  28.937  26.874  1.00  0.00     0.031 C 
ATOM     39  C   UNL A   1      38.886  27.673  29.646  1.00  0.00     0.029 A 
ATOM     40  N   UNL A   1      40.089  29.483  30.026  1.00  0.00    -0.354 N 
ATOM     41  C   UNL A   1      44.133  29.891  28.209  1.00  0.00     0.074 A 
ATOM     42  C   UNL A   1      43.694  29.620  26.865  1.00  0.00     0.031 C 
ATOM     43  C   UNL A   1      38.036  28.612  30.115  1.00  0.00     0.029 A 
ATOM     44  C   UNL A   1      38.796  29.810  30.406  1.00  0.00     0.049 A 
ATOM     45  H   UNL A   1      40.856  30.081  30.178  1.00  0.00     0.167 HD
ATOM     46  C   UNL A   1      44.928  30.877  28.713  1.00  0.00     0.037 A 
ATOM     47  C   UNL A   1      38.381  30.999  30.901  1.00  0.00     0.037 A 
ATOM     48  C   UNL A   1      45.148  30.695  30.126  1.00  0.00     0.049 A 
ATOM     49  C   UNL A   1      39.586  31.704  31.409  1.00  0.00     0.074 A 
ATOM     50  C   UNL A   1      45.714  29.696  30.894  1.00  0.00     0.029 A 
ATOM     51  N   UNL A   1      44.405  31.452  31.000  1.00  0.00    -0.354 N 
ATOM     52  N   UNL A   1      40.283  31.302  32.436  1.00  0.00    -0.248 NA
ATOM     53  C   UNL A   1      40.280  32.595  30.493  1.00  0.00     0.031 C 
ATOM     54  C   UNL A   1      44.886  29.608  32.053  1.00  0.00     0.029 A 
ATOM     55  C   UNL A   1      43.911  30.602  31.958  1.00  0.00     0.049 A 
ATOM     56  H   UNL A   1      44.257  32.424  30.950  1.00  0.00     0.167 HD
ATOM     57  C   UNL A   1      41.604  31.529  32.078  1.00  0.00     0.074 A 
ATOM     58  C   UNL A   1      41.534  32.412  30.915  1.00  0.00     0.031 C 
ATOM     59  C   UNL A   1      42.613  30.756  32.577  1.00  0.00     0.037 A 
BRANCH  46  60
ATOM     60  C   UNL A   1      45.215  32.183  28.011  1.00  0.00     0.064 A 
ATOM     61  C   UNL A   1      44.157  33.078  27.758  1.00  0.00     0.173 A 
ATOM     62  C   UNL A   1      46.419  32.460  27.327  1.00  0.00     0.173 A 
ATOM     63  F   UNL A   1      42.957  32.901  28.333  1.00  0.00    -0.203 F 
ATOM     64  C   UNL A   1      44.278  34.125  26.839  1.00  0.00     0.198 A 
ATOM     65  C   UNL A   1      46.553  33.538  26.455  1.00  0.00     0.198 A 
ATOM     66  F   UNL A   1      47.475  31.639  27.382  1.00  0.00    -0.203 F 
ATOM     67  F   UNL A   1      43.207  34.873  26.538  1.00  0.00    -0.200 F 
ATOM     68  C   UNL A   1      45.475  34.352  26.185  1.00  0.00     0.200 A 
ATOM     69  F   UNL A   1      47.716  33.727  25.816  1.00  0.00    -0.200 F 
ATOM     70  F   UNL A   1      45.576  35.315  25.261  1.00  0.00    -0.200 F 
ENDBRANCH  46  60
BRANCH  47  71
ATOM     71  C   UNL A   1      37.083  31.675  30.684  1.00  0.00     0.064 A 
ATOM     72  C   UNL A   1      36.131  31.755  31.712  1.00  0.00     0.173 A 
ATOM     73  C   UNL A   1      36.865  32.494  29.558  1.00  0.00     0.173 A 
ATOM     74  F   UNL A   1      36.289  31.035  32.832  1.00  0.00    -0.203 F 
ATOM     75  C   UNL A   1      35.042  32.629  31.634  1.00  0.00     0.198 A 
ATOM     76  C   UNL A   1      35.775  33.361  29.479  1.00  0.00     0.198 A 
ATOM     77  F   UNL A   1      37.757  32.541  28.558  1.00  0.00    -0.203 F 
ATOM     78  F   UNL A   1      34.190  32.727  32.662  1.00  0.00    -0.200 F 
ATOM     79  C   UNL A   1      34.873  33.440  30.523  1.00  0.00     0.200 A 
ATOM     80  F   UNL A   1      35.642  34.166  28.415  1.00  0.00    -0.200 F 
ATOM     81  F   UNL A   1      33.867  34.325  30.477  1.00  0.00    -0.200 F 
ENDBRANCH  47  71
BRANCH  59  82
ATOM     82  C   UNL A   1      42.284  29.819  33.709  1.00  0.00     0.064 A 
ATOM     83  C   UNL A   1      41.828  28.499  33.535  1.00  0.00     0.173 A 
ATOM     84  C   UNL A   1      42.574  30.225  35.018  1.00  0.00     0.173 A 
ATOM     85  F   UNL A   1      41.625  27.995  32.314  1.00  0.00    -0.203 F 
ATOM     86  C   UNL A   1      41.627  27.648  34.621  1.00  0.00     0.198 A 
ATOM     87  C   UNL A   1      42.410  29.361  36.098  1.00  0.00     0.198 A 
ATOM     88  F   UNL A   1      43.068  31.452  35.246  1.00  0.00    -0.203 F 
ATOM     89  F   UNL A   1      41.178  26.400  34.424  1.00  0.00    -0.200 F 
ATOM     90  C   UNL A   1      41.925  28.078  35.902  1.00  0.00     0.200 A 
ATOM     91  F   UNL A   1      42.746  29.767  37.331  1.00  0.00    -0.200 F 
ATOM     92  F   UNL A   1      41.770  27.249  36.944  1.00  0.00    -0.200 F 
ENDBRANCH  59  82
ENDBRANCH  33  34
ENDBRANCH  25  28
ENDBRANCH  23  24
ENDBRANCH  22  23
ENDBRANCH   1  22
TORSDOF 16
ENDMDL
MODEL 3
REMARK VINA RESULT:     -11.3      2.930      7.869
REMARK SMILES CCCc1nnc(SCC(=O)NCCCNC(=O)c2ccc(-c3c4nc(c(-c5c(F)c(F)c(F)c(F)c5F)c5ccc([nH]5)c(-c5c(F)c(F)c(F)c(F)c5F)c5nc(c(-c6c(F)c(F)c(F)c(F)c6F)c6ccc3[nH]6)C=C5)C=C4)cc2)n1C[C@H]1CCCO1
REMARK SMILES IDX 13 1 12 2 10 3 11 4 9 6 8 7 7 8 4 9 5 10 82 11 6 12 3 13
REMARK SMILES IDX 2 14 1 15 83 16 84 17 85 18 88 19 86 20 87 21 14 22 15 23
REMARK SMILES IDX 16 24 17 25 18 27 19 28 20 29 81 30 21 31 80 32 22 33 23 34
REMARK SMILES IDX 24 35 74 36 25 37 79 38 73 39 75 40 26 41 78 42 72 43 71 44
REMARK SMILES IDX 27 46 59 47 39 48 58 49 40 50 43 51 57 52 76 53 41 54 42 55
REMARK SMILES IDX 56 57 77 58 44 59 28 60 29 61 37 62 30 63 31 64 35 65 38 66
REMARK SMILES IDX 32 67 33 68 36 69 34 70 60 71 61 72 69 73 62 74 63 75 67 76
REMARK SMILES IDX 70 77 64 78 65 79 68 80 66 81 45 82 46 83 54 84 47 85 48 86
REMARK SMILES IDX 52 87 55 88 49 89 50 90 53 91 51 92
REMARK H PARENT 12 5 16 26 75 45 43 56
REMARK Flexibility Score: inf
ROOT
ATOM      1  C   UNL A   1      33.125  30.444  26.703  1.00  0.00     0.117 C 
ENDROOT
BRANCH   1   2
ATOM      2  N   UNL A   1      32.261  29.587  27.484  1.00  0.00    -0.355 N 
ATOM      3  C   UNL A   1      31.732  28.383  27.152  1.00  0.00     0.230 C 
ATOM      4  O   UNL A   1      31.030  27.833  28.002  1.00  0.00    -0.274 OA
ATOM      5  H   UNL A   1      32.026  29.922  28.379  1.00  0.00     0.163 HD
BRANCH   3   6
ATOM      6  C   UNL A   1      32.029  27.767  25.792  1.00  0.00     0.178 C 
BRANCH   6   7
ATOM      7  S   UNL A   1      33.285  26.503  25.881  1.00  0.00    -0.076 SA
BRANCH   7   8
ATOM      8  C   UNL A   1      32.541  24.941  25.936  1.00  0.00     0.191 A 
ATOM      9  C   UNL A   1      32.586  22.789  26.267  1.00  0.00     0.133 A 
ATOM     10  N   UNL A   1      31.683  23.305  27.078  1.00  0.00    -0.134 NA
ATOM     11  N   UNL A   1      32.940  23.765  25.347  1.00  0.00    -0.303 N 
ATOM     12  N   UNL A   1      31.663  24.657  26.874  1.00  0.00    -0.123 NA
BRANCH   9  13
ATOM     13  C   UNL A   1      33.299  21.497  26.518  1.00  0.00     0.077 C 
BRANCH  13  14
ATOM     14  C   UNL A   1      32.963  20.337  25.587  1.00  0.00     0.005 C 
ATOM     15  C   UNL A   1      34.163  19.770  24.841  1.00  0.00     0.004 C 
ENDBRANCH  13  14
ENDBRANCH   9  13
BRANCH  11  16
ATOM     16  C   UNL A   1      33.695  23.538  24.144  1.00  0.00     0.158 C 
BRANCH  16  17
ATOM     17  C   UNL A   1      35.152  24.049  24.119  1.00  0.00     0.138 C 
ATOM     18  C   UNL A   1      36.000  23.962  25.382  1.00  0.00     0.036 C 
ATOM     19  O   UNL A   1      35.876  23.249  23.159  1.00  0.00    -0.376 OA
ATOM     20  C   UNL A   1      36.680  22.611  25.312  1.00  0.00     0.031 C 
ATOM     21  C   UNL A   1      36.658  22.260  23.843  1.00  0.00     0.160 C 
ENDBRANCH  16  17
ENDBRANCH  11  16
ENDBRANCH   7   8
ENDBRANCH   6   7
ENDBRANCH   3   6
ENDBRANCH   1   2
BRANCH   1  22
ATOM     22  C   UNL A   1      33.621  31.665  27.475  1.00  0.00     0.042 C 
BRANCH  22  23
ATOM     23  C   UNL A   1      34.864  31.368  28.291  1.00  0.00     0.118 C 
BRANCH  23  24
ATOM     24  N   UNL A   1      34.817  31.996  29.611  1.00  0.00    -0.352 N 
ATOM     25  C   UNL A   1      35.602  31.725  30.706  1.00  0.00     0.251 C 
ATOM     26  H   UNL A   1      34.139  32.700  29.730  1.00  0.00     0.163 HD
ATOM     27  O   UNL A   1      35.277  32.097  31.830  1.00  0.00    -0.269 OA
BRANCH  25  28
ATOM     28  C   UNL A   1      36.844  30.973  30.499  1.00  0.00     0.039 A 
ATOM     29  C   UNL A   1      38.054  31.629  30.272  1.00  0.00     0.014 A 
ATOM     30  C   UNL A   1      36.778  29.585  30.594  1.00  0.00     0.014 A 
ATOM     31  C   UNL A   1      39.216  30.871  30.195  1.00  0.00     0.010 A 
ATOM     32  C   UNL A   1      37.934  28.864  30.698  1.00  0.00     0.010 A 
ATOM     33  C   UNL A   1      39.145  29.487  30.419  1.00  0.00    -0.014 A 
BRANCH  33  34
ATOM     34  C   UNL A   1      40.345  28.668  30.421  1.00  0.00     0.031 A 
ATOM     35  C   UNL A   1      40.966  28.458  31.755  1.00  0.00     0.074 A 
ATOM     36  C   UNL A   1      40.740  27.976  29.332  1.00  0.00     0.049 A 
ATOM     37  N   UNL A   1      42.128  28.852  32.159  1.00  0.00    -0.248 NA
ATOM     38  C   UNL A   1      40.149  27.830  32.806  1.00  0.00     0.031 C 
ATOM     39  C   UNL A   1      40.054  27.817  28.043  1.00  0.00     0.029 A 
ATOM     40  N   UNL A   1      41.820  27.166  29.194  1.00  0.00    -0.354 N 
ATOM     41  C   UNL A   1      42.268  28.369  33.457  1.00  0.00     0.074 A 
ATOM     42  C   UNL A   1      40.968  27.898  33.857  1.00  0.00     0.031 C 
ATOM     43  C   UNL A   1      40.608  26.793  27.357  1.00  0.00     0.029 A 
ATOM     44  C   UNL A   1      41.792  26.356  28.068  1.00  0.00     0.049 A 
ATOM     45  H   UNL A   1      42.563  27.154  29.839  1.00  0.00     0.167 HD
ATOM     46  C   UNL A   1      43.499  28.188  34.013  1.00  0.00     0.037 A 
ATOM     47  C   UNL A   1      42.672  25.376  27.762  1.00  0.00     0.037 A 
ATOM     48  C   UNL A   1      44.509  28.920  33.289  1.00  0.00     0.049 A 
ATOM     49  C   UNL A   1      43.902  25.631  28.554  1.00  0.00     0.074 A 
ATOM     50  C   UNL A   1      44.714  30.256  33.004  1.00  0.00     0.029 A 
ATOM     51  N   UNL A   1      45.294  28.232  32.396  1.00  0.00    -0.354 N 
ATOM     52  N   UNL A   1      44.686  26.657  28.367  1.00  0.00    -0.248 NA
ATOM     53  C   UNL A   1      44.007  24.994  29.858  1.00  0.00     0.031 C 
ATOM     54  C   UNL A   1      45.193  30.277  31.659  1.00  0.00     0.029 A 
ATOM     55  C   UNL A   1      45.319  28.956  31.230  1.00  0.00     0.049 A 
ATOM     56  H   UNL A   1      45.755  27.377  32.562  1.00  0.00     0.167 HD
ATOM     57  C   UNL A   1      45.057  27.056  29.643  1.00  0.00     0.074 A 
ATOM     58  C   UNL A   1      44.687  25.940  30.511  1.00  0.00     0.031 C 
ATOM     59  C   UNL A   1      45.364  28.359  29.914  1.00  0.00     0.037 A 
BRANCH  46  60
ATOM     60  C   UNL A   1      43.842  27.084  34.984  1.00  0.00     0.064 A 
ATOM     61  C   UNL A   1      44.446  27.409  36.215  1.00  0.00     0.173 A 
ATOM     62  C   UNL A   1      43.866  25.715  34.642  1.00  0.00     0.173 A 
ATOM     63  F   UNL A   1      44.506  28.683  36.633  1.00  0.00    -0.203 F 
ATOM     64  C   UNL A   1      45.086  26.447  37.002  1.00  0.00     0.198 A 
ATOM     65  C   UNL A   1      44.454  24.749  35.457  1.00  0.00     0.198 A 
ATOM     66  F   UNL A   1      43.428  25.267  33.458  1.00  0.00    -0.203 F 
ATOM     67  F   UNL A   1      45.755  26.824  38.100  1.00  0.00    -0.200 F 
ATOM     68  C   UNL A   1      45.092  25.118  36.620  1.00  0.00     0.200 A 
ATOM     69  F   UNL A   1      44.467  23.470  35.057  1.00  0.00    -0.200 F 
ATOM     70  F   UNL A   1      45.754  24.204  37.341  1.00  0.00    -0.200 F 
ENDBRANCH  46  60
BRANCH  47  71
ATOM     71  C   UNL A   1      42.406  24.091  27.079  1.00  0.00     0.064 A 
ATOM     72  C   UNL A   1      43.180  23.684  25.981  1.00  0.00     0.173 A 
ATOM     73  C   UNL A   1      41.572  23.114  27.659  1.00  0.00     0.173 A 
ATOM     74  F   UNL A   1      44.027  24.545  25.399  1.00  0.00    -0.203 F 
ATOM     75  C   UNL A   1      43.148  22.366  25.513  1.00  0.00     0.198 A 
ATOM     76  C   UNL A   1      41.536  21.802  27.186  1.00  0.00     0.198 A 
ATOM     77  F   UNL A   1      40.849  23.388  28.754  1.00  0.00    -0.203 F 
ATOM     78  F   UNL A   1      43.950  21.996  24.505  1.00  0.00    -0.200 F 
ATOM     79  C   UNL A   1      42.336  21.424  26.124  1.00  0.00     0.200 A 
ATOM     80  F   UNL A   1      40.773  20.892  27.808  1.00  0.00    -0.200 F 
ATOM     81  F   UNL A   1      42.355  20.147  25.717  1.00  0.00    -0.200 F 
ENDBRANCH  47  71
BRANCH  59  82
ATOM     82  C   UNL A   1      45.529  29.297  28.747  1.00  0.00     0.064 A 
ATOM     83  C   UNL A   1      44.479  30.037  28.173  1.00  0.00     0.173 A 
ATOM     84  C   UNL A   1      46.823  29.564  28.283  1.00  0.00     0.173 A 
ATOM     85  F   UNL A   1      43.227  29.922  28.627  1.00  0.00    -0.203 F 
ATOM     86  C   UNL A   1      44.709  30.958  27.153  1.00  0.00     0.198 A 
ATOM     87  C   UNL A   1      47.057  30.513  27.290  1.00  0.00     0.198 A 
ATOM     88  F   UNL A   1      47.875  28.934  28.829  1.00  0.00    -0.203 F 
ATOM     89  F   UNL A   1      43.685  31.637  26.616  1.00  0.00    -0.200 F 
ATOM     90  C   UNL A   1      45.999  31.201  26.717  1.00  0.00     0.200 A 
ATOM     91  F   UNL A   1      48.313  30.779  26.907  1.00  0.00    -0.200 F 
ATOM     92  F   UNL A   1      46.228  32.116  25.764  1.00  0.00    -0.200 F 
ENDBRANCH  59  82
ENDBRANCH  33  34
ENDBRANCH  25  28
ENDBRANCH  23  24
ENDBRANCH  22  23
ENDBRANCH   1  22
TORSDOF 16
ENDMDL
