MODEL 1
REMARK VINA RESULT:     -12.3      0.000      0.000
REMARK SMILES CC(C)[C@H](NC(=O)[C@H](C)NC(=O)CNC(=O)OCc1ccccc1)C(=O)NCCCNC(=O)c1ccc(-c2c3nc(c(-c4c(F)c(F)c(F)c(F)c4F)c4ccc([nH]4)c(-c4c(F)c(F)c(F)c(F)c4F)c4nc(c(-c5c(F)c(F)c(F)c(F)c5F)c5ccc2[nH]5)C=C4)C=C3)cc1
REMARK SMILES IDX 4 1 2 2 1 3 3 4 25 5 26 6 27 7 28 9 29 10 30 11 31 12 32 13
REMARK SMILES IDX 33 15 34 16 35 17 96 18 36 19 95 20 37 21 38 22 39 23 89 24
REMARK SMILES IDX 40 25 94 26 88 27 90 28 41 29 93 30 87 31 86 32 42 34 74 35
REMARK SMILES IDX 54 36 73 37 55 38 58 39 72 40 91 41 56 42 57 43 71 45 92 46
REMARK SMILES IDX 59 47 43 48 44 49 52 50 45 51 46 52 50 53 53 54 47 55 48 56
REMARK SMILES IDX 51 57 49 58 75 59 76 60 84 61 77 62 78 63 82 64 85 65 79 66
REMARK SMILES IDX 80 67 83 68 81 69 60 70 61 71 69 72 62 73 63 74 67 75 70 76
REMARK SMILES IDX 64 77 65 78 68 79 66 80 5 81 6 82 7 84 8 85 9 86 10 87 11 88
REMARK SMILES IDX 12 90 13 91 14 92 15 93 16 95 17 96 18 97 19 98 20 99 24 100
REMARK SMILES IDX 21 101 23 102 22 103
REMARK H PARENT 27 8 31 14 90 33 58 44 5 83 10 89 14 94
REMARK Flexibility Score: inf
ROOT
ATOM      1  C   UNL A   1      35.096  23.178  24.205  1.00  0.00     0.173 C 
ENDROOT
BRANCH   1   2
ATOM      2  C   UNL A   1      35.204  23.601  25.697  1.00  0.00     0.015 C 
ATOM      3  C   UNL A   1      36.551  24.138  26.178  1.00  0.00     0.010 C 
ATOM      4  C   UNL A   1      34.129  24.647  26.027  1.00  0.00     0.010 C 
ENDBRANCH   1   2
BRANCH   1   5
ATOM      5  C   UNL A   1      36.438  22.817  23.537  1.00  0.00     0.242 C 
ATOM      6  O   UNL A   1      36.937  23.566  22.691  1.00  0.00    -0.273 OA
ATOM      7  N   UNL A   1      37.166  21.726  23.902  1.00  0.00    -0.354 N 
ATOM      8  H   UNL A   1      37.913  21.517  23.296  1.00  0.00     0.163 HD
BRANCH   7   9
ATOM      9  C   UNL A   1      37.037  20.817  25.027  1.00  0.00     0.117 C 
BRANCH   9  10
ATOM     10  C   UNL A   1      38.118  19.754  25.043  1.00  0.00     0.042 C 
BRANCH  10  11
ATOM     11  C   UNL A   1      39.378  20.199  25.765  1.00  0.00     0.118 C 
BRANCH  11  12
ATOM     12  N   UNL A   1      40.339  19.114  25.941  1.00  0.00    -0.352 N 
ATOM     13  C   UNL A   1      41.698  19.158  26.137  1.00  0.00     0.251 C 
ATOM     14  H   UNL A   1      39.953  18.209  25.916  1.00  0.00     0.163 HD
ATOM     15  O   UNL A   1      42.366  18.133  26.053  1.00  0.00    -0.269 OA
BRANCH  13  16
ATOM     16  C   UNL A   1      42.350  20.448  26.426  1.00  0.00     0.039 A 
ATOM     17  C   UNL A   1      42.971  21.151  25.391  1.00  0.00     0.014 A 
ATOM     18  C   UNL A   1      42.323  20.975  27.718  1.00  0.00     0.014 A 
ATOM     19  C   UNL A   1      43.488  22.423  25.639  1.00  0.00     0.010 A 
ATOM     20  C   UNL A   1      42.730  22.282  27.935  1.00  0.00     0.010 A 
ATOM     21  C   UNL A   1      43.326  23.018  26.902  1.00  0.00    -0.014 A 
BRANCH  21  22
ATOM     22  C   UNL A   1      43.784  24.401  27.179  1.00  0.00     0.031 A 
ATOM     23  C   UNL A   1      42.798  25.428  27.666  1.00  0.00     0.074 A 
ATOM     24  C   UNL A   1      45.054  24.753  26.904  1.00  0.00     0.049 A 
ATOM     25  N   UNL A   1      42.961  26.713  27.850  1.00  0.00    -0.248 NA
ATOM     26  C   UNL A   1      41.430  24.954  27.942  1.00  0.00     0.031 C 
ATOM     27  C   UNL A   1      46.086  23.862  26.367  1.00  0.00     0.029 A 
ATOM     28  N   UNL A   1      45.694  25.961  27.025  1.00  0.00    -0.354 N 
ATOM     29  C   UNL A   1      41.719  27.199  28.232  1.00  0.00     0.074 A 
ATOM     30  C   UNL A   1      40.796  26.088  28.196  1.00  0.00     0.031 C 
ATOM     31  C   UNL A   1      47.232  24.546  26.229  1.00  0.00     0.029 A 
ATOM     32  C   UNL A   1      47.008  25.932  26.628  1.00  0.00     0.049 A 
ATOM     33  H   UNL A   1      45.251  26.773  27.364  1.00  0.00     0.167 HD
ATOM     34  C   UNL A   1      41.385  28.455  28.611  1.00  0.00     0.037 A 
ATOM     35  C   UNL A   1      47.925  26.916  26.585  1.00  0.00     0.037 A 
ATOM     36  C   UNL A   1      42.319  29.545  28.693  1.00  0.00     0.049 A 
ATOM     37  C   UNL A   1      47.533  28.298  27.033  1.00  0.00     0.074 A 
ATOM     38  C   UNL A   1      42.102  30.835  29.138  1.00  0.00     0.029 A 
ATOM     39  N   UNL A   1      43.655  29.464  28.325  1.00  0.00    -0.354 N 
ATOM     40  N   UNL A   1      46.373  28.730  27.464  1.00  0.00    -0.248 NA
ATOM     41  C   UNL A   1      48.580  29.328  26.995  1.00  0.00     0.031 C 
ATOM     42  C   UNL A   1      43.297  31.550  29.001  1.00  0.00     0.029 A 
ATOM     43  C   UNL A   1      44.270  30.690  28.517  1.00  0.00     0.049 A 
ATOM     44  H   UNL A   1      44.099  28.657  27.979  1.00  0.00     0.167 HD
ATOM     45  C   UNL A   1      46.557  30.070  27.777  1.00  0.00     0.074 A 
ATOM     46  C   UNL A   1      47.944  30.376  27.500  1.00  0.00     0.031 C 
ATOM     47  C   UNL A   1      45.657  30.968  28.248  1.00  0.00     0.037 A 
BRANCH  34  48
ATOM     48  C   UNL A   1      39.953  28.714  28.981  1.00  0.00     0.064 A 
ATOM     49  C   UNL A   1      39.026  29.194  28.043  1.00  0.00     0.173 A 
ATOM     50  C   UNL A   1      39.493  28.443  30.278  1.00  0.00     0.173 A 
ATOM     51  F   UNL A   1      39.418  29.483  26.793  1.00  0.00    -0.203 F 
ATOM     52  C   UNL A   1      37.698  29.420  28.398  1.00  0.00     0.198 A 
ATOM     53  C   UNL A   1      38.157  28.639  30.620  1.00  0.00     0.198 A 
ATOM     54  F   UNL A   1      40.336  27.978  31.213  1.00  0.00    -0.203 F 
ATOM     55  F   UNL A   1      36.844  29.926  27.498  1.00  0.00    -0.200 F 
ATOM     56  C   UNL A   1      37.264  29.134  29.683  1.00  0.00     0.200 A 
ATOM     57  F   UNL A   1      37.736  28.350  31.859  1.00  0.00    -0.200 F 
ATOM     58  F   UNL A   1      35.983  29.342  30.020  1.00  0.00    -0.200 F 
ENDBRANCH  34  48
BRANCH  35  59
ATOM     59  C   UNL A   1      49.309  26.629  26.124  1.00  0.00     0.064 A 
ATOM     60  C   UNL A   1      49.702  26.915  24.808  1.00  0.00     0.173 A 
ATOM     61  C   UNL A   1      50.262  26.053  26.977  1.00  0.00     0.173 A 
ATOM     62  F   UNL A   1      48.821  27.449  23.949  1.00  0.00    -0.203 F 
ATOM     63  C   UNL A   1      50.985  26.612  24.357  1.00  0.00     0.198 A 
ATOM     64  C   UNL A   1      51.554  25.778  26.533  1.00  0.00     0.198 A 
ATOM     65  F   UNL A   1      49.940  25.767  28.247  1.00  0.00    -0.203 F 
ATOM     66  F   UNL A   1      51.316  26.850  23.081  1.00  0.00    -0.200 F 
ATOM     67  C   UNL A   1      51.911  26.049  25.221  1.00  0.00     0.200 A 
ATOM     68  F   UNL A   1      52.451  25.248  27.376  1.00  0.00    -0.200 F 
ATOM     69  F   UNL A   1      53.145  25.758  24.786  1.00  0.00    -0.200 F 
ENDBRANCH  35  59
BRANCH  47  70
ATOM     70  C   UNL A   1      46.154  32.354  28.532  1.00  0.00     0.064 A 
ATOM     71  C   UNL A   1      46.701  32.698  29.778  1.00  0.00     0.173 A 
ATOM     72  C   UNL A   1      46.124  33.337  27.532  1.00  0.00     0.173 A 
ATOM     73  F   UNL A   1      46.738  31.798  30.771  1.00  0.00    -0.203 F 
ATOM     74  C   UNL A   1      47.178  33.984  30.017  1.00  0.00     0.198 A 
ATOM     75  C   UNL A   1      46.630  34.612  27.765  1.00  0.00     0.198 A 
ATOM     76  F   UNL A   1      45.618  33.056  26.321  1.00  0.00    -0.203 F 
ATOM     77  F   UNL A   1      47.654  34.304  31.228  1.00  0.00    -0.200 F 
ATOM     78  C   UNL A   1      47.150  34.936  29.009  1.00  0.00     0.200 A 
ATOM     79  F   UNL A   1      46.616  35.527  26.785  1.00  0.00    -0.200 F 
ATOM     80  F   UNL A   1      47.619  36.170  29.239  1.00  0.00    -0.200 F 
ENDBRANCH  47  70
ENDBRANCH  21  22
ENDBRANCH  13  16
ENDBRANCH  11  12
ENDBRANCH  10  11
ENDBRANCH   9  10
ENDBRANCH   7   9
ENDBRANCH   1   5
BRANCH   1  81
ATOM     81  N   UNL A   1      34.093  22.143  23.942  1.00  0.00    -0.342 N 
ATOM     82  C   UNL A   1      32.817  22.222  23.488  1.00  0.00     0.242 C 
ATOM     83  H   UNL A   1      34.400  21.227  24.128  1.00  0.00     0.164 HD
ATOM     84  O   UNL A   1      32.303  21.156  23.126  1.00  0.00    -0.273 OA
BRANCH  82  85
ATOM     85  C   UNL A   1      32.085  23.553  23.242  1.00  0.00     0.168 C 
ATOM     86  C   UNL A   1      30.576  23.361  23.331  1.00  0.00     0.041 C 
BRANCH  85  87
ATOM     87  N   UNL A   1      32.450  24.243  22.009  1.00  0.00    -0.343 N 
ATOM     88  C   UNL A   1      32.534  25.582  21.761  1.00  0.00     0.240 C 
ATOM     89  H   UNL A   1      32.666  23.658  21.246  1.00  0.00     0.164 HD
ATOM     90  O   UNL A   1      33.174  25.948  20.773  1.00  0.00    -0.273 OA
BRANCH  88  91
ATOM     91  C   UNL A   1      31.886  26.587  22.712  1.00  0.00     0.219 C 
BRANCH  91  92
ATOM     92  N   UNL A   1      31.339  27.682  21.930  1.00  0.00    -0.312 N 
ATOM     93  C   UNL A   1      30.403  28.575  22.348  1.00  0.00     0.407 C 
ATOM     94  H   UNL A   1      31.679  27.788  21.011  1.00  0.00     0.167 HD
ATOM     95  O   UNL A   1      29.788  29.271  21.556  1.00  0.00    -0.225 OA
BRANCH  93  96
ATOM     96  O   UNL A   1      30.240  28.558  23.693  1.00  0.00    -0.445 OA
BRANCH  96  97
ATOM     97  C   UNL A   1      30.799  29.672  24.400  1.00  0.00     0.270 C 
BRANCH  97  98
ATOM     98  C   UNL A   1      31.914  29.292  25.349  1.00  0.00    -0.011 A 
ATOM     99  C   UNL A   1      33.197  29.067  24.831  1.00  0.00     0.007 A 
ATOM    100  C   UNL A   1      31.705  29.129  26.727  1.00  0.00     0.007 A 
ATOM    101  C   UNL A   1      34.233  28.645  25.666  1.00  0.00     0.000 A 
ATOM    102  C   UNL A   1      32.736  28.689  27.555  1.00  0.00     0.000 A 
ATOM    103  C   UNL A   1      33.998  28.441  27.025  1.00  0.00     0.000 A 
ENDBRANCH  97  98
ENDBRANCH  96  97
ENDBRANCH  93  96
ENDBRANCH  91  92
ENDBRANCH  88  91
ENDBRANCH  85  87
ENDBRANCH  82  85
ENDBRANCH   1  81
TORSDOF 19
ENDMDL
MODEL 2
REMARK VINA RESULT:     -11.8      1.011      2.245
REMARK SMILES CC(C)[C@H](NC(=O)[C@H](C)NC(=O)CNC(=O)OCc1ccccc1)C(=O)NCCCNC(=O)c1ccc(-c2c3nc(c(-c4c(F)c(F)c(F)c(F)c4F)c4ccc([nH]4)c(-c4c(F)c(F)c(F)c(F)c4F)c4nc(c(-c5c(F)c(F)c(F)c(F)c5F)c5ccc2[nH]5)C=C4)C=C3)cc1
REMARK SMILES IDX 4 1 2 2 1 3 3 4 25 5 26 6 27 7 28 9 29 10 30 11 31 12 32 13
REMARK SMILES IDX 33 15 34 16 35 17 96 18 36 19 95 20 37 21 38 22 39 23 89 24
REMARK SMILES IDX 40 25 94 26 88 27 90 28 41 29 93 30 87 31 86 32 42 34 74 35
REMARK SMILES IDX 54 36 73 37 55 38 58 39 72 40 91 41 56 42 57 43 71 45 92 46
REMARK SMILES IDX 59 47 43 48 44 49 52 50 45 51 46 52 50 53 53 54 47 55 48 56
REMARK SMILES IDX 51 57 49 58 75 59 76 60 84 61 77 62 78 63 82 64 85 65 79 66
REMARK SMILES IDX 80 67 83 68 81 69 60 70 61 71 69 72 62 73 63 74 67 75 70 76
REMARK SMILES IDX 64 77 65 78 68 79 66 80 5 81 6 82 7 84 8 85 9 86 10 87 11 88
REMARK SMILES IDX 12 90 13 91 14 92 15 93 16 95 17 96 18 97 19 98 20 99 24 100
REMARK SMILES IDX 21 101 23 102 22 103
REMARK H PARENT 27 8 31 14 90 33 58 44 5 83 10 89 14 94
REMARK Flexibility Score: inf
ROOT
ATOM      1  C   UNL A   1      34.308  22.825  25.256  1.00  0.00     0.173 C 
ENDROOT
BRANCH   1   2
ATOM      2  C   UNL A   1      33.963  22.546  26.746  1.00  0.00     0.015 C 
ATOM      3  C   UNL A   1      32.827  23.358  27.366  1.00  0.00     0.010 C 
ATOM      4  C   UNL A   1      33.647  21.056  26.943  1.00  0.00     0.010 C 
ENDBRANCH   1   2
BRANCH   1   5
ATOM      5  C   UNL A   1      35.816  22.866  24.938  1.00  0.00     0.242 C 
ATOM      6  O   UNL A   1      36.429  23.938  24.953  1.00  0.00    -0.273 OA
ATOM      7  N   UNL A   1      36.548  21.740  24.718  1.00  0.00    -0.354 N 
ATOM      8  H   UNL A   1      37.453  21.907  24.368  1.00  0.00     0.163 HD
BRANCH   7   9
ATOM      9  C   UNL A   1      36.231  20.335  24.909  1.00  0.00     0.117 C 
BRANCH   9  10
ATOM     10  C   UNL A   1      37.468  19.460  24.944  1.00  0.00     0.042 C 
BRANCH  10  11
ATOM     11  C   UNL A   1      38.649  20.127  25.628  1.00  0.00     0.118 C 
BRANCH  11  12
ATOM     12  N   UNL A   1      39.787  19.228  25.792  1.00  0.00    -0.352 N 
ATOM     13  C   UNL A   1      41.098  19.505  26.095  1.00  0.00     0.251 C 
ATOM     14  H   UNL A   1      39.584  18.273  25.666  1.00  0.00     0.163 HD
ATOM     15  O   UNL A   1      41.954  18.634  25.982  1.00  0.00    -0.269 OA
BRANCH  13  16
ATOM     16  C   UNL A   1      41.472  20.862  26.534  1.00  0.00     0.039 A 
ATOM     17  C   UNL A   1      42.045  21.042  27.795  1.00  0.00     0.014 A 
ATOM     18  C   UNL A   1      41.280  21.953  25.685  1.00  0.00     0.014 A 
ATOM     19  C   UNL A   1      42.504  22.306  28.166  1.00  0.00     0.010 A 
ATOM     20  C   UNL A   1      41.841  23.179  26.006  1.00  0.00     0.010 A 
ATOM     21  C   UNL A   1      42.451  23.373  27.253  1.00  0.00    -0.014 A 
BRANCH  21  22
ATOM     22  C   UNL A   1      43.007  24.709  27.578  1.00  0.00     0.031 A 
ATOM     23  C   UNL A   1      42.115  25.760  28.180  1.00  0.00     0.074 A 
ATOM     24  C   UNL A   1      44.279  25.003  27.247  1.00  0.00     0.049 A 
ATOM     25  N   UNL A   1      42.367  27.021  28.425  1.00  0.00    -0.248 NA
ATOM     26  C   UNL A   1      40.740  25.351  28.512  1.00  0.00     0.031 C 
ATOM     27  C   UNL A   1      45.221  24.087  26.599  1.00  0.00     0.029 A 
ATOM     28  N   UNL A   1      44.997  26.163  27.395  1.00  0.00    -0.354 N 
ATOM     29  C   UNL A   1      41.181  27.554  28.908  1.00  0.00     0.074 A 
ATOM     30  C   UNL A   1      40.191  26.503  28.866  1.00  0.00     0.031 C 
ATOM     31  C   UNL A   1      46.398  24.711  26.430  1.00  0.00     0.029 A 
ATOM     32  C   UNL A   1      46.282  26.081  26.918  1.00  0.00     0.049 A 
ATOM     33  H   UNL A   1      44.625  26.977  27.805  1.00  0.00     0.167 HD
ATOM     34  C   UNL A   1      40.946  28.804  29.376  1.00  0.00     0.037 A 
ATOM     35  C   UNL A   1      47.254  27.012  26.874  1.00  0.00     0.037 A 
ATOM     36  C   UNL A   1      41.949  29.831  29.461  1.00  0.00     0.049 A 
ATOM     37  C   UNL A   1      46.973  28.385  27.421  1.00  0.00     0.074 A 
ATOM     38  C   UNL A   1      41.837  31.103  29.989  1.00  0.00     0.029 A 
ATOM     39  N   UNL A   1      43.254  29.695  29.008  1.00  0.00    -0.354 N 
ATOM     40  N   UNL A   1      45.868  28.858  27.945  1.00  0.00    -0.248 NA
ATOM     41  C   UNL A   1      48.077  29.353  27.377  1.00  0.00     0.031 C 
ATOM     42  C   UNL A   1      43.063  31.755  29.819  1.00  0.00     0.029 A 
ATOM     43  C   UNL A   1      43.953  30.870  29.230  1.00  0.00     0.049 A 
ATOM     44  H   UNL A   1      43.627  28.885  28.592  1.00  0.00     0.167 HD
ATOM     45  C   UNL A   1      46.151  30.163  28.320  1.00  0.00     0.074 A 
ATOM     46  C   UNL A   1      47.537  30.404  27.976  1.00  0.00     0.031 C 
ATOM     47  C   UNL A   1      45.337  31.083  28.893  1.00  0.00     0.037 A 
BRANCH  34  48
ATOM     48  C   UNL A   1      39.557  29.122  29.845  1.00  0.00     0.064 A 
ATOM     49  C   UNL A   1      39.141  28.841  31.155  1.00  0.00     0.173 A 
ATOM     50  C   UNL A   1      38.642  29.751  28.987  1.00  0.00     0.173 A 
ATOM     51  F   UNL A   1      39.971  28.227  32.011  1.00  0.00    -0.203 F 
ATOM     52  C   UNL A   1      37.851  29.151  31.581  1.00  0.00     0.198 A 
ATOM     53  C   UNL A   1      37.364  30.089  29.426  1.00  0.00     0.198 A 
ATOM     54  F   UNL A   1      38.990  30.046  27.725  1.00  0.00    -0.203 F 
ATOM     55  F   UNL A   1      37.461  28.827  32.821  1.00  0.00    -0.200 F 
ATOM     56  C   UNL A   1      36.968  29.783  30.718  1.00  0.00     0.200 A 
ATOM     57  F   UNL A   1      36.516  30.710  28.595  1.00  0.00    -0.200 F 
ATOM     58  F   UNL A   1      35.730  30.090  31.132  1.00  0.00    -0.200 F 
ENDBRANCH  34  48
BRANCH  35  59
ATOM     59  C   UNL A   1      48.589  26.672  26.314  1.00  0.00     0.064 A 
ATOM     60  C   UNL A   1      49.557  26.035  27.103  1.00  0.00     0.173 A 
ATOM     61  C   UNL A   1      48.931  26.986  24.991  1.00  0.00     0.173 A 
ATOM     62  F   UNL A   1      49.284  25.731  28.381  1.00  0.00    -0.203 F 
ATOM     63  C   UNL A   1      50.824  25.749  26.599  1.00  0.00     0.198 A 
ATOM     64  C   UNL A   1      50.189  26.673  24.478  1.00  0.00     0.198 A 
ATOM     65  F   UNL A   1      48.039  27.589  24.192  1.00  0.00    -0.203 F 
ATOM     66  F   UNL A   1      51.746  25.186  27.391  1.00  0.00    -0.200 F 
ATOM     67  C   UNL A   1      51.137  26.064  25.286  1.00  0.00     0.200 A 
ATOM     68  F   UNL A   1      50.482  26.965  23.204  1.00  0.00    -0.200 F 
ATOM     69  F   UNL A   1      52.356  25.788  24.801  1.00  0.00    -0.200 F 
ENDBRANCH  35  59
BRANCH  47  70
ATOM     70  C   UNL A   1      45.933  32.419  29.223  1.00  0.00     0.064 A 
ATOM     71  C   UNL A   1      45.873  33.493  28.323  1.00  0.00     0.173 A 
ATOM     72  C   UNL A   1      46.531  32.638  30.473  1.00  0.00     0.173 A 
ATOM     73  F   UNL A   1      45.325  33.329  27.110  1.00  0.00    -0.203 F 
ATOM     74  C   UNL A   1      46.412  34.733  28.656  1.00  0.00     0.198 A 
ATOM     75  C   UNL A   1      47.041  33.887  30.813  1.00  0.00     0.198 A 
ATOM     76  F   UNL A   1      46.606  31.645  31.371  1.00  0.00    -0.203 F 
ATOM     77  F   UNL A   1      46.385  35.733  27.764  1.00  0.00    -0.200 F 
ATOM     78  C   UNL A   1      46.987  34.931  29.902  1.00  0.00     0.200 A 
ATOM     79  F   UNL A   1      47.583  34.081  32.024  1.00  0.00    -0.200 F 
ATOM     80  F   UNL A   1      47.497  36.128  30.223  1.00  0.00    -0.200 F 
ENDBRANCH  47  70
ENDBRANCH  21  22
ENDBRANCH  13  16
ENDBRANCH  11  12
ENDBRANCH  10  11
ENDBRANCH   9  10
ENDBRANCH   7   9
ENDBRANCH   1   5
BRANCH   1  81
ATOM     81  N   UNL A   1      33.602  21.965  24.303  1.00  0.00    -0.342 N 
ATOM     82  C   UNL A   1      32.732  22.255  23.303  1.00  0.00     0.242 C 
ATOM     83  H   UNL A   1      33.793  21.005  24.407  1.00  0.00     0.164 HD
ATOM     84  O   UNL A   1      32.499  21.339  22.504  1.00  0.00    -0.273 OA
BRANCH  82  85
ATOM     85  C   UNL A   1      32.196  23.671  23.029  1.00  0.00     0.168 C 
ATOM     86  C   UNL A   1      30.726  23.773  23.414  1.00  0.00     0.041 C 
BRANCH  85  87
ATOM     87  N   UNL A   1      32.414  24.166  21.674  1.00  0.00    -0.343 N 
ATOM     88  C   UNL A   1      32.668  25.437  21.249  1.00  0.00     0.240 C 
ATOM     89  H   UNL A   1      32.372  23.485  20.963  1.00  0.00     0.164 HD
ATOM     90  O   UNL A   1      33.147  25.586  20.123  1.00  0.00    -0.273 OA
BRANCH  88  91
ATOM     91  C   UNL A   1      32.401  26.628  22.169  1.00  0.00     0.219 C 
BRANCH  91  92
ATOM     92  N   UNL A   1      31.080  27.157  21.875  1.00  0.00    -0.312 N 
ATOM     93  C   UNL A   1      30.527  28.274  22.417  1.00  0.00     0.407 C 
ATOM     94  H   UNL A   1      30.535  26.660  21.222  1.00  0.00     0.167 HD
ATOM     95  O   UNL A   1      29.327  28.489  22.347  1.00  0.00    -0.225 OA
BRANCH  93  96
ATOM     96  O   UNL A   1      31.445  29.055  23.037  1.00  0.00    -0.445 OA
BRANCH  96  97
ATOM     97  C   UNL A   1      31.074  29.537  24.335  1.00  0.00     0.270 C 
BRANCH  97  98
ATOM     98  C   UNL A   1      32.109  29.266  25.403  1.00  0.00    -0.011 A 
ATOM     99  C   UNL A   1      32.346  30.241  26.381  1.00  0.00     0.007 A 
ATOM    100  C   UNL A   1      32.863  28.083  25.435  1.00  0.00     0.007 A 
ATOM    101  C   UNL A   1      33.344  30.056  27.339  1.00  0.00     0.000 A 
ATOM    102  C   UNL A   1      33.872  27.908  26.381  1.00  0.00     0.000 A 
ATOM    103  C   UNL A   1      34.116  28.896  27.329  1.00  0.00     0.000 A 
ENDBRANCH  97  98
ENDBRANCH  96  97
ENDBRANCH  93  96
ENDBRANCH  91  92
ENDBRANCH  88  91
ENDBRANCH  85  87
ENDBRANCH  82  85
ENDBRANCH   1  81
TORSDOF 19
ENDMDL
MODEL 3
REMARK VINA RESULT:     -11.7      1.417      2.203
REMARK SMILES CC(C)[C@H](NC(=O)[C@H](C)NC(=O)CNC(=O)OCc1ccccc1)C(=O)NCCCNC(=O)c1ccc(-c2c3nc(c(-c4c(F)c(F)c(F)c(F)c4F)c4ccc([nH]4)c(-c4c(F)c(F)c(F)c(F)c4F)c4nc(c(-c5c(F)c(F)c(F)c(F)c5F)c5ccc2[nH]5)C=C4)C=C3)cc1
REMARK SMILES IDX 4 1 2 2 1 3 3 4 25 5 26 6 27 7 28 9 29 10 30 11 31 12 32 13
REMARK SMILES IDX 33 15 34 16 35 17 96 18 36 19 95 20 37 21 38 22 39 23 89 24
REMARK SMILES IDX 40 25 94 26 88 27 90 28 41 29 93 30 87 31 86 32 42 34 74 35
REMARK SMILES IDX 54 36 73 37 55 38 58 39 72 40 91 41 56 42 57 43 71 45 92 46
REMARK SMILES IDX 59 47 43 48 44 49 52 50 45 51 46 52 50 53 53 54 47 55 48 56
REMARK SMILES IDX 51 57 49 58 75 59 76 60 84 61 77 62 78 63 82 64 85 65 79 66
REMARK SMILES IDX 80 67 83 68 81 69 60 70 61 71 69 72 62 73 63 74 67 75 70 76
REMARK SMILES IDX 64 77 65 78 68 79 66 80 5 81 6 82 7 84 8 85 9 86 10 87 11 88
REMARK SMILES IDX 12 90 13 91 14 92 15 93 16 95 17 96 18 97 19 98 20 99 24 100
REMARK SMILES IDX 21 101 23 102 22 103
REMARK H PARENT 27 8 31 14 90 33 58 44 5 83 10 89 14 94
REMARK Flexibility Score: inf
ROOT
ATOM      1  C   UNL A   1      34.286  22.921  25.078  1.00  0.00     0.173 C 
ENDROOT
BRANCH   1   2
ATOM      2  C   UNL A   1      33.616  21.829  25.959  1.00  0.00     0.015 C 
ATOM      3  C   UNL A   1      33.414  22.148  27.439  1.00  0.00     0.010 C 
ATOM      4  C   UNL A   1      32.254  21.438  25.367  1.00  0.00     0.010 C 
ENDBRANCH   1   2
BRANCH   1   5
ATOM      5  C   UNL A   1      35.774  23.177  25.387  1.00  0.00     0.242 C 
ATOM      6  O   UNL A   1      36.155  24.298  25.740  1.00  0.00    -0.273 OA
ATOM      7  N   UNL A   1      36.705  22.185  25.373  1.00  0.00    -0.354 N 
ATOM      8  H   UNL A   1      37.636  22.501  25.426  1.00  0.00     0.163 HD
BRANCH   7   9
ATOM      9  C   UNL A   1      36.569  20.741  25.296  1.00  0.00     0.117 C 
BRANCH   9  10
ATOM     10  C   UNL A   1      37.854  20.057  24.872  1.00  0.00     0.042 C 
BRANCH  10  11
ATOM     11  C   UNL A   1      39.035  20.409  25.761  1.00  0.00     0.118 C 
BRANCH  11  12
ATOM     12  N   UNL A   1      39.976  19.304  25.910  1.00  0.00    -0.352 N 
ATOM     13  C   UNL A   1      41.340  19.319  26.075  1.00  0.00     0.251 C 
ATOM     14  H   UNL A   1      39.571  18.407  25.890  1.00  0.00     0.163 HD
ATOM     15  O   UNL A   1      41.984  18.280  25.971  1.00  0.00    -0.269 OA
BRANCH  13  16
ATOM     16  C   UNL A   1      42.026  20.593  26.355  1.00  0.00     0.039 A 
ATOM     17  C   UNL A   1      42.512  21.358  25.293  1.00  0.00     0.014 A 
ATOM     18  C   UNL A   1      42.163  21.044  27.669  1.00  0.00     0.014 A 
ATOM     19  C   UNL A   1      43.059  22.616  25.548  1.00  0.00     0.010 A 
ATOM     20  C   UNL A   1      42.596  22.338  27.909  1.00  0.00     0.010 A 
ATOM     21  C   UNL A   1      43.058  23.136  26.854  1.00  0.00    -0.014 A 
BRANCH  21  22
ATOM     22  C   UNL A   1      43.549  24.503  27.152  1.00  0.00     0.031 A 
ATOM     23  C   UNL A   1      42.593  25.541  27.672  1.00  0.00     0.074 A 
ATOM     24  C   UNL A   1      44.823  24.834  26.867  1.00  0.00     0.049 A 
ATOM     25  N   UNL A   1      42.786  26.818  27.879  1.00  0.00    -0.248 NA
ATOM     26  C   UNL A   1      41.219  25.091  27.958  1.00  0.00     0.031 C 
ATOM     27  C   UNL A   1      45.828  23.931  26.298  1.00  0.00     0.029 A 
ATOM     28  N   UNL A   1      45.490  26.025  27.003  1.00  0.00    -0.354 N 
ATOM     29  C   UNL A   1      41.560  27.323  28.289  1.00  0.00     0.074 A 
ATOM     30  C   UNL A   1      40.613  26.233  28.243  1.00  0.00     0.031 C 
ATOM     31  C   UNL A   1      46.987  24.594  26.158  1.00  0.00     0.029 A 
ATOM     32  C   UNL A   1      46.798  25.975  26.587  1.00  0.00     0.049 A 
ATOM     33  H   UNL A   1      45.070  26.839  27.363  1.00  0.00     0.167 HD
ATOM     34  C   UNL A   1      41.258  28.578  28.697  1.00  0.00     0.037 A 
ATOM     35  C   UNL A   1      47.736  26.941  26.550  1.00  0.00     0.037 A 
ATOM     36  C   UNL A   1      42.217  29.646  28.787  1.00  0.00     0.049 A 
ATOM     37  C   UNL A   1      47.380  28.321  27.031  1.00  0.00     0.074 A 
ATOM     38  C   UNL A   1      42.034  30.932  29.260  1.00  0.00     0.029 A 
ATOM     39  N   UNL A   1      43.546  29.545  28.398  1.00  0.00    -0.354 N 
ATOM     40  N   UNL A   1      46.235  28.770  27.486  1.00  0.00    -0.248 NA
ATOM     41  C   UNL A   1      48.449  29.329  26.999  1.00  0.00     0.031 C 
ATOM     42  C   UNL A   1      43.242  31.624  29.120  1.00  0.00     0.029 A 
ATOM     43  C   UNL A   1      44.190  30.753  28.606  1.00  0.00     0.049 A 
ATOM     44  H   UNL A   1      43.967  28.735  28.031  1.00  0.00     0.167 HD
ATOM     45  C   UNL A   1      46.452  30.098  27.823  1.00  0.00     0.074 A 
ATOM     46  C   UNL A   1      47.843  30.380  27.533  1.00  0.00     0.031 C 
ATOM     47  C   UNL A   1      45.579  31.006  28.323  1.00  0.00     0.037 A 
BRANCH  34  48
ATOM     48  C   UNL A   1      39.837  28.860  29.091  1.00  0.00     0.064 A 
ATOM     49  C   UNL A   1      38.892  29.316  28.160  1.00  0.00     0.173 A 
ATOM     50  C   UNL A   1      39.406  28.636  30.407  1.00  0.00     0.173 A 
ATOM     51  F   UNL A   1      39.256  29.561  26.892  1.00  0.00    -0.203 F 
ATOM     52  C   UNL A   1      37.575  29.564  28.538  1.00  0.00     0.198 A 
ATOM     53  C   UNL A   1      38.080  28.854  30.774  1.00  0.00     0.198 A 
ATOM     54  F   UNL A   1      40.269  28.196  31.336  1.00  0.00    -0.203 F 
ATOM     55  F   UNL A   1      36.703  30.047  27.642  1.00  0.00    -0.200 F 
ATOM     56  C   UNL A   1      37.169  29.324  29.841  1.00  0.00     0.200 A 
ATOM     57  F   UNL A   1      37.687  28.610  32.031  1.00  0.00    -0.200 F 
ATOM     58  F   UNL A   1      35.898  29.554  30.201  1.00  0.00    -0.200 F 
ENDBRANCH  34  48
BRANCH  35  59
ATOM     59  C   UNL A   1      49.107  26.633  26.064  1.00  0.00     0.064 A 
ATOM     60  C   UNL A   1      49.479  26.908  24.740  1.00  0.00     0.173 A 
ATOM     61  C   UNL A   1      50.068  26.049  26.903  1.00  0.00     0.173 A 
ATOM     62  F   UNL A   1      48.589  27.449  23.896  1.00  0.00    -0.203 F 
ATOM     63  C   UNL A   1      50.749  26.586  24.266  1.00  0.00     0.198 A 
ATOM     64  C   UNL A   1      51.348  25.755  26.436  1.00  0.00     0.198 A 
ATOM     65  F   UNL A   1      49.767  25.773  28.180  1.00  0.00    -0.203 F 
ATOM     66  F   UNL A   1      51.059  26.813  22.983  1.00  0.00    -0.200 F 
ATOM     67  C   UNL A   1      51.683  26.014  25.115  1.00  0.00     0.200 A 
ATOM     68  F   UNL A   1      52.254  25.217  27.263  1.00  0.00    -0.200 F 
ATOM     69  F   UNL A   1      52.905  25.706  24.659  1.00  0.00    -0.200 F 
ENDBRANCH  35  59
BRANCH  47  70
ATOM     70  C   UNL A   1      46.110  32.376  28.628  1.00  0.00     0.064 A 
ATOM     71  C   UNL A   1      46.690  32.680  29.869  1.00  0.00     0.173 A 
ATOM     72  C   UNL A   1      46.078  33.381  27.651  1.00  0.00     0.173 A 
ATOM     73  F   UNL A   1      46.730  31.756  30.840  1.00  0.00    -0.203 F 
ATOM     74  C   UNL A   1      47.198  33.950  30.126  1.00  0.00     0.198 A 
ATOM     75  C   UNL A   1      46.614  34.641  27.902  1.00  0.00     0.198 A 
ATOM     76  F   UNL A   1      45.540  33.138  26.446  1.00  0.00    -0.203 F 
ATOM     77  F   UNL A   1      47.706  34.233  31.333  1.00  0.00    -0.200 F 
ATOM     78  C   UNL A   1      47.167  34.926  29.141  1.00  0.00     0.200 A 
ATOM     79  F   UNL A   1      46.597  35.578  26.944  1.00  0.00    -0.200 F 
ATOM     80  F   UNL A   1      47.665  36.145  29.389  1.00  0.00    -0.200 F 
ENDBRANCH  47  70
ENDBRANCH  21  22
ENDBRANCH  13  16
ENDBRANCH  11  12
ENDBRANCH  10  11
ENDBRANCH   9  10
ENDBRANCH   7   9
ENDBRANCH   1   5
BRANCH   1  81
ATOM     81  N   UNL A   1      34.079  22.746  23.639  1.00  0.00    -0.342 N 
ATOM     82  C   UNL A   1      33.559  23.572  22.697  1.00  0.00     0.242 C 
ATOM     83  H   UNL A   1      34.370  21.872  23.293  1.00  0.00     0.164 HD
ATOM     84  O   UNL A   1      33.749  23.241  21.520  1.00  0.00    -0.273 OA
BRANCH  82  85
ATOM     85  C   UNL A   1      32.933  24.940  23.022  1.00  0.00     0.168 C 
ATOM     86  C   UNL A   1      32.665  25.725  21.744  1.00  0.00     0.041 C 
BRANCH  85  87
ATOM     87  N   UNL A   1      33.675  25.749  23.983  1.00  0.00    -0.343 N 
ATOM     88  C   UNL A   1      33.208  26.495  25.025  1.00  0.00     0.240 C 
ATOM     89  H   UNL A   1      34.653  25.757  23.863  1.00  0.00     0.164 HD
ATOM     90  O   UNL A   1      34.007  26.824  25.905  1.00  0.00    -0.273 OA
BRANCH  88  91
ATOM     91  C   UNL A   1      31.729  26.869  25.109  1.00  0.00     0.219 C 
BRANCH  91  92
ATOM     92  N   UNL A   1      31.618  28.209  25.658  1.00  0.00    -0.312 N 
ATOM     93  C   UNL A   1      31.401  29.349  24.949  1.00  0.00     0.407 C 
ATOM     94  H   UNL A   1      31.707  28.300  26.635  1.00  0.00     0.167 HD
ATOM     95  O   UNL A   1      31.610  30.450  25.435  1.00  0.00    -0.225 OA
BRANCH  93  96
ATOM     96  O   UNL A   1      30.975  29.098  23.688  1.00  0.00    -0.445 OA
BRANCH  96  97
ATOM     97  C   UNL A   1      29.553  29.047  23.513  1.00  0.00     0.270 C 
BRANCH  97  98
ATOM     98  C   UNL A   1      28.975  30.282  22.861  1.00  0.00    -0.011 A 
ATOM     99  C   UNL A   1      28.535  30.205  21.532  1.00  0.00     0.007 A 
ATOM    100  C   UNL A   1      28.888  31.513  23.528  1.00  0.00     0.007 A 
ATOM    101  C   UNL A   1      28.063  31.342  20.874  1.00  0.00     0.000 A 
ATOM    102  C   UNL A   1      28.435  32.652  22.864  1.00  0.00     0.000 A 
ATOM    103  C   UNL A   1      28.028  32.568  21.537  1.00  0.00     0.000 A 
ENDBRANCH  97  98
ENDBRANCH  96  97
ENDBRANCH  93  96
ENDBRANCH  91  92
ENDBRANCH  88  91
ENDBRANCH  85  87
ENDBRANCH  82  85
ENDBRANCH   1  81
TORSDOF 19
ENDMDL
