MODEL 1
REMARK VINA RESULT:     -11.7      0.000      0.000
REMARK SMILES Cc1nc(CN(C)C(=O)NCc2ccc(C(=O)NCCCNC(=O)c3ccc(-c4c5nc(c(-c6c(F)c(F)c(F)c(F)c6F)c6ccc([nH]6)c(-c6c(F)c(F)c(F)c(F)c6F)c6nc(c(-c7c(F)c(F)c(F)c(F)c7F)c7ccc4[nH]7)C=C6)C=C5)cc3)o2)n[nH]1
REMARK SMILES IDX 16 1 17 2 18 3 15 5 12 6 13 7 88 8 14 9 11 10 10 11 8 12
REMARK SMILES IDX 9 13 6 15 7 16 5 17 4 18 1 19 2 20 3 21 90 22 89 23 19 25
REMARK SMILES IDX 20 26 21 27 22 28 23 29 24 31 25 32 26 33 87 34 27 35 86 36
REMARK SMILES IDX 28 37 29 38 30 39 80 40 31 41 85 42 79 43 81 44 32 45 84 46
REMARK SMILES IDX 78 47 77 48 33 50 65 51 45 52 64 53 46 54 49 55 63 56 82 57
REMARK SMILES IDX 47 58 48 59 62 61 83 62 50 63 34 64 35 65 43 66 36 67 37 68
REMARK SMILES IDX 41 69 44 70 38 71 39 72 42 73 40 74 66 75 67 76 75 77 68 78
REMARK SMILES IDX 69 79 73 80 76 81 70 82 71 83 74 84 72 85 51 86 52 87 60 88
REMARK SMILES IDX 53 89 54 90 58 91 61 92 55 93 56 94 59 95 57 96
REMARK H PARENT 18 4 10 14 90 24 22 30 81 49 49 60
REMARK Flexibility Score: inf
ROOT
ATOM      1  C   UNL A   1      35.688  32.912  28.329  1.00  0.00     0.286 C 
ATOM      2  O   UNL A   1      36.875  33.246  28.314  1.00  0.00    -0.266 OA
ATOM      3  N   UNL A   1      34.804  33.896  28.710  1.00  0.00    -0.349 N 
ATOM      4  H   UNL A   1      35.231  34.734  29.001  1.00  0.00     0.163 HD
ENDROOT
BRANCH   1   5
ATOM      5  C   UNL A   1      35.238  31.579  27.965  1.00  0.00     0.191 A 
ATOM      6  C   UNL A   1      33.846  30.203  26.920  1.00  0.00     0.124 A 
ATOM      7  C   UNL A   1      34.776  29.408  27.553  1.00  0.00     0.048 A 
ATOM      8  O   UNL A   1      34.114  31.512  27.175  1.00  0.00    -0.454 OA
ATOM      9  C   UNL A   1      35.683  30.288  28.190  1.00  0.00     0.056 A 
BRANCH   6  10
ATOM     10  C   UNL A   1      32.689  29.933  26.028  1.00  0.00     0.193 C 
BRANCH  10  11
ATOM     11  N   UNL A   1      33.172  29.774  24.673  1.00  0.00    -0.331 N 
ATOM     12  C   UNL A   1      33.026  28.853  23.707  1.00  0.00     0.317 C 
ATOM     13  O   UNL A   1      33.887  28.896  22.824  1.00  0.00    -0.249 OA
ATOM     14  H   UNL A   1      33.745  30.523  24.392  1.00  0.00     0.165 HD
BRANCH  12  15
ATOM     15  N   UNL A   1      32.016  27.934  23.697  1.00  0.00    -0.320 N 
ATOM     16  C   UNL A   1      31.641  27.036  24.771  1.00  0.00     0.149 C 
BRANCH  15  17
ATOM     17  C   UNL A   1      31.083  28.011  22.562  1.00  0.00     0.200 C 
BRANCH  17  18
ATOM     18  C   UNL A   1      30.208  29.229  22.637  1.00  0.00     0.170 A 
ATOM     19  C   UNL A   1      28.386  31.903  21.144  1.00  0.00     0.089 C 
ATOM     20  C   UNL A   1      29.077  30.871  21.942  1.00  0.00     0.121 A 
ATOM     21  N   UNL A   1      29.598  29.743  21.518  1.00  0.00    -0.215 NA
ATOM     22  N   UNL A   1      29.308  30.988  23.281  1.00  0.00    -0.263 N 
ATOM     23  N   UNL A   1      29.985  29.931  23.761  1.00  0.00    -0.157 NA
ATOM     24  H   UNL A   1      29.015  31.753  23.829  1.00  0.00     0.192 HD
ENDBRANCH  17  18
ENDBRANCH  15  17
ENDBRANCH  12  15
ENDBRANCH  10  11
ENDBRANCH   6  10
ENDBRANCH   1   5
BRANCH   3  25
ATOM     25  C   UNL A   1      33.357  33.915  28.755  1.00  0.00     0.118 C 
BRANCH  25  26
ATOM     26  C   UNL A   1      32.803  35.336  28.664  1.00  0.00     0.042 C 
BRANCH  26  27
ATOM     27  C   UNL A   1      33.369  36.280  29.724  1.00  0.00     0.118 C 
BRANCH  27  28
ATOM     28  N   UNL A   1      32.537  36.321  30.920  1.00  0.00    -0.352 N 
ATOM     29  C   UNL A   1      32.645  35.660  32.114  1.00  0.00     0.251 C 
ATOM     30  H   UNL A   1      31.765  36.928  30.857  1.00  0.00     0.163 HD
ATOM     31  O   UNL A   1      31.695  35.682  32.893  1.00  0.00    -0.269 OA
BRANCH  29  32
ATOM     32  C   UNL A   1      33.875  34.927  32.489  1.00  0.00     0.039 A 
ATOM     33  C   UNL A   1      35.105  35.572  32.329  1.00  0.00     0.014 A 
ATOM     34  C   UNL A   1      33.842  33.593  32.907  1.00  0.00     0.014 A 
ATOM     35  C   UNL A   1      36.293  34.899  32.621  1.00  0.00     0.010 A 
ATOM     36  C   UNL A   1      35.024  32.940  33.259  1.00  0.00     0.010 A 
ATOM     37  C   UNL A   1      36.261  33.583  33.109  1.00  0.00    -0.014 A 
BRANCH  37  38
ATOM     38  C   UNL A   1      37.521  32.877  33.458  1.00  0.00     0.031 A 
ATOM     39  C   UNL A   1      38.235  33.175  34.747  1.00  0.00     0.074 A 
ATOM     40  C   UNL A   1      38.038  31.987  32.591  1.00  0.00     0.049 A 
ATOM     41  N   UNL A   1      39.346  32.663  35.215  1.00  0.00    -0.248 NA
ATOM     42  C   UNL A   1      37.637  34.201  35.614  1.00  0.00     0.031 C 
ATOM     43  C   UNL A   1      37.468  31.653  31.285  1.00  0.00     0.029 A 
ATOM     44  N   UNL A   1      39.160  31.202  32.675  1.00  0.00    -0.354 N 
ATOM     45  C   UNL A   1      39.584  33.310  36.421  1.00  0.00     0.074 A 
ATOM     46  C   UNL A   1      38.530  34.287  36.590  1.00  0.00     0.031 C 
ATOM     47  C   UNL A   1      38.227  30.711  30.703  1.00  0.00     0.029 A 
ATOM     48  C   UNL A   1      39.349  30.396  31.580  1.00  0.00     0.049 A 
ATOM     49  H   UNL A   1      39.772  31.216  33.446  1.00  0.00     0.167 HD
ATOM     50  C   UNL A   1      40.580  33.094  37.315  1.00  0.00     0.037 A 
ATOM     51  C   UNL A   1      40.317  29.497  31.317  1.00  0.00     0.037 A 
ATOM     52  C   UNL A   1      41.614  32.104  37.156  1.00  0.00     0.049 A 
ATOM     53  C   UNL A   1      41.393  29.257  32.339  1.00  0.00     0.074 A 
ATOM     54  C   UNL A   1      42.634  31.771  38.030  1.00  0.00     0.029 A 
ATOM     55  N   UNL A   1      41.757  31.285  36.045  1.00  0.00    -0.354 N 
ATOM     56  N   UNL A   1      41.569  29.827  33.506  1.00  0.00    -0.248 NA
ATOM     57  C   UNL A   1      42.397  28.235  32.013  1.00  0.00     0.031 C 
ATOM     58  C   UNL A   1      43.416  30.775  37.433  1.00  0.00     0.029 A 
ATOM     59  C   UNL A   1      42.858  30.457  36.205  1.00  0.00     0.049 A 
ATOM     60  H   UNL A   1      41.165  31.292  35.258  1.00  0.00     0.167 HD
ATOM     61  C   UNL A   1      42.686  29.221  34.062  1.00  0.00     0.074 A 
ATOM     62  C   UNL A   1      43.134  28.223  33.113  1.00  0.00     0.031 C 
ATOM     63  C   UNL A   1      43.290  29.470  35.250  1.00  0.00     0.037 A 
BRANCH  50  64
ATOM     64  C   UNL A   1      40.595  33.945  38.552  1.00  0.00     0.064 A 
ATOM     65  C   UNL A   1      39.874  33.584  39.701  1.00  0.00     0.173 A 
ATOM     66  C   UNL A   1      41.364  35.118  38.604  1.00  0.00     0.173 A 
ATOM     67  F   UNL A   1      39.114  32.479  39.702  1.00  0.00    -0.203 F 
ATOM     68  C   UNL A   1      39.898  34.380  40.844  1.00  0.00     0.198 A 
ATOM     69  C   UNL A   1      41.409  35.896  39.758  1.00  0.00     0.198 A 
ATOM     70  F   UNL A   1      42.076  35.507  37.536  1.00  0.00    -0.203 F 
ATOM     71  F   UNL A   1      39.164  34.039  41.912  1.00  0.00    -0.200 F 
ATOM     72  C   UNL A   1      40.671  35.532  40.874  1.00  0.00     0.200 A 
ATOM     73  F   UNL A   1      42.165  37.003  39.789  1.00  0.00    -0.200 F 
ATOM     74  F   UNL A   1      40.698  36.294  41.975  1.00  0.00    -0.200 F 
ENDBRANCH  50  64
BRANCH  51  75
ATOM     75  C   UNL A   1      40.285  28.728  30.048  1.00  0.00     0.064 A 
ATOM     76  C   UNL A   1      39.586  27.516  29.961  1.00  0.00     0.173 A 
ATOM     77  C   UNL A   1      40.945  29.187  28.899  1.00  0.00     0.173 A 
ATOM     78  F   UNL A   1      38.955  27.029  31.039  1.00  0.00    -0.203 F 
ATOM     79  C   UNL A   1      39.565  26.781  28.777  1.00  0.00     0.198 A 
ATOM     80  C   UNL A   1      40.902  28.464  27.709  1.00  0.00     0.198 A 
ATOM     81  F   UNL A   1      41.623  30.343  28.930  1.00  0.00    -0.203 F 
ATOM     82  F   UNL A   1      38.924  25.605  28.733  1.00  0.00    -0.200 F 
ATOM     83  C   UNL A   1      40.219  27.258  27.651  1.00  0.00     0.200 A 
ATOM     84  F   UNL A   1      41.523  28.934  26.618  1.00  0.00    -0.200 F 
ATOM     85  F   UNL A   1      40.195  26.554  26.512  1.00  0.00    -0.200 F 
ENDBRANCH  51  75
BRANCH  63  86
ATOM     86  C   UNL A   1      44.483  28.628  35.595  1.00  0.00     0.064 A 
ATOM     87  C   UNL A   1      45.783  29.014  35.233  1.00  0.00     0.173 A 
ATOM     88  C   UNL A   1      44.327  27.429  36.304  1.00  0.00     0.173 A 
ATOM     89  F   UNL A   1      45.983  30.145  34.540  1.00  0.00    -0.203 F 
ATOM     90  C   UNL A   1      46.877  28.210  35.536  1.00  0.00     0.198 A 
ATOM     91  C   UNL A   1      45.427  26.642  36.632  1.00  0.00     0.198 A 
ATOM     92  F   UNL A   1      43.106  27.019  36.679  1.00  0.00    -0.203 F 
ATOM     93  F   UNL A   1      48.103  28.568  35.130  1.00  0.00    -0.200 F 
ATOM     94  C   UNL A   1      46.700  27.026  36.238  1.00  0.00     0.200 A 
ATOM     95  F   UNL A   1      45.255  25.504  37.319  1.00  0.00    -0.200 F 
ATOM     96  F   UNL A   1      47.755  26.252  36.527  1.00  0.00    -0.200 F 
ENDBRANCH  63  86
ENDBRANCH  37  38
ENDBRANCH  29  32
ENDBRANCH  27  28
ENDBRANCH  26  27
ENDBRANCH  25  26
ENDBRANCH   3  25
TORSDOF 15
ENDMDL
MODEL 2
REMARK VINA RESULT:     -11.5      4.015      6.527
REMARK SMILES Cc1nc(CN(C)C(=O)NCc2ccc(C(=O)NCCCNC(=O)c3ccc(-c4c5nc(c(-c6c(F)c(F)c(F)c(F)c6F)c6ccc([nH]6)c(-c6c(F)c(F)c(F)c(F)c6F)c6nc(c(-c7c(F)c(F)c(F)c(F)c7F)c7ccc4[nH]7)C=C6)C=C5)cc3)o2)n[nH]1
REMARK SMILES IDX 16 1 17 2 18 3 15 5 12 6 13 7 88 8 14 9 11 10 10 11 8 12
REMARK SMILES IDX 9 13 6 15 7 16 5 17 4 18 1 19 2 20 3 21 90 22 89 23 19 25
REMARK SMILES IDX 20 26 21 27 22 28 23 29 24 31 25 32 26 33 87 34 27 35 86 36
REMARK SMILES IDX 28 37 29 38 30 39 80 40 31 41 85 42 79 43 81 44 32 45 84 46
REMARK SMILES IDX 78 47 77 48 33 50 65 51 45 52 64 53 46 54 49 55 63 56 82 57
REMARK SMILES IDX 47 58 48 59 62 61 83 62 50 63 34 64 35 65 43 66 36 67 37 68
REMARK SMILES IDX 41 69 44 70 38 71 39 72 42 73 40 74 66 75 67 76 75 77 68 78
REMARK SMILES IDX 69 79 73 80 76 81 70 82 71 83 74 84 72 85 51 86 52 87 60 88
REMARK SMILES IDX 53 89 54 90 58 91 61 92 55 93 56 94 59 95 57 96
REMARK H PARENT 18 4 10 14 90 24 22 30 81 49 49 60
REMARK Flexibility Score: inf
ROOT
ATOM      1  C   UNL A   1      33.739  27.855  22.417  1.00  0.00     0.286 C 
ATOM      2  O   UNL A   1      34.395  28.233  21.443  1.00  0.00    -0.266 OA
ATOM      3  N   UNL A   1      33.702  28.731  23.478  1.00  0.00    -0.349 N 
ATOM      4  H   UNL A   1      34.269  29.528  23.366  1.00  0.00     0.163 HD
ENDROOT
BRANCH   1   5
ATOM      5  C   UNL A   1      33.043  26.581  22.452  1.00  0.00     0.191 A 
ATOM      6  C   UNL A   1      33.002  24.382  22.753  1.00  0.00     0.124 A 
ATOM      7  C   UNL A   1      31.714  24.756  22.446  1.00  0.00     0.048 A 
ATOM      8  O   UNL A   1      33.810  25.477  22.746  1.00  0.00    -0.454 OA
ATOM      9  C   UNL A   1      31.734  26.162  22.288  1.00  0.00     0.056 A 
BRANCH   6  10
ATOM     10  C   UNL A   1      33.650  23.094  23.109  1.00  0.00     0.193 C 
BRANCH  10  11
ATOM     11  N   UNL A   1      32.681  22.253  23.778  1.00  0.00    -0.331 N 
ATOM     12  C   UNL A   1      32.596  21.659  24.979  1.00  0.00     0.317 C 
ATOM     13  O   UNL A   1      31.784  20.732  25.036  1.00  0.00    -0.249 OA
ATOM     14  H   UNL A   1      31.893  22.074  23.216  1.00  0.00     0.165 HD
BRANCH  12  15
ATOM     15  N   UNL A   1      33.349  22.036  26.054  1.00  0.00    -0.320 N 
ATOM     16  C   UNL A   1      34.786  22.221  26.094  1.00  0.00     0.149 C 
BRANCH  15  17
ATOM     17  C   UNL A   1      32.603  22.507  27.232  1.00  0.00     0.200 C 
BRANCH  17  18
ATOM     18  C   UNL A   1      31.493  23.445  26.855  1.00  0.00     0.170 A 
ATOM     19  C   UNL A   1      30.275  26.536  25.563  1.00  0.00     0.089 C 
ATOM     20  C   UNL A   1      30.583  25.205  26.124  1.00  0.00     0.121 A 
ATOM     21  N   UNL A   1      31.731  24.568  26.098  1.00  0.00    -0.215 NA
ATOM     22  N   UNL A   1      29.676  24.453  26.811  1.00  0.00    -0.263 N 
ATOM     23  N   UNL A   1      30.215  23.302  27.246  1.00  0.00    -0.157 NA
ATOM     24  H   UNL A   1      28.741  24.720  26.969  1.00  0.00     0.192 HD
ENDBRANCH  17  18
ENDBRANCH  15  17
ENDBRANCH  12  15
ENDBRANCH  10  11
ENDBRANCH   6  10
ENDBRANCH   1   5
BRANCH   3  25
ATOM     25  C   UNL A   1      32.974  28.686  24.728  1.00  0.00     0.118 C 
BRANCH  25  26
ATOM     26  C   UNL A   1      33.684  27.822  25.770  1.00  0.00     0.042 C 
BRANCH  26  27
ATOM     27  C   UNL A   1      33.449  28.286  27.208  1.00  0.00     0.118 C 
BRANCH  27  28
ATOM     28  N   UNL A   1      33.446  29.739  27.320  1.00  0.00    -0.352 N 
ATOM     29  C   UNL A   1      34.360  30.601  27.866  1.00  0.00     0.251 C 
ATOM     30  H   UNL A   1      32.651  30.175  26.939  1.00  0.00     0.163 HD
ATOM     31  O   UNL A   1      34.035  31.772  28.049  1.00  0.00    -0.269 OA
BRANCH  29  32
ATOM     32  C   UNL A   1      35.723  30.159  28.235  1.00  0.00     0.039 A 
ATOM     33  C   UNL A   1      35.938  29.692  29.535  1.00  0.00     0.014 A 
ATOM     34  C   UNL A   1      36.803  30.282  27.356  1.00  0.00     0.014 A 
ATOM     35  C   UNL A   1      37.219  29.315  29.942  1.00  0.00     0.010 A 
ATOM     36  C   UNL A   1      38.072  29.846  27.741  1.00  0.00     0.010 A 
ATOM     37  C   UNL A   1      38.294  29.369  29.041  1.00  0.00    -0.014 A 
BRANCH  37  38
ATOM     38  C   UNL A   1      39.651  28.931  29.458  1.00  0.00     0.031 A 
ATOM     39  C   UNL A   1      40.478  29.775  30.387  1.00  0.00     0.074 A 
ATOM     40  C   UNL A   1      40.150  27.780  28.968  1.00  0.00     0.049 A 
ATOM     41  N   UNL A   1      41.682  29.556  30.853  1.00  0.00    -0.248 NA
ATOM     42  C   UNL A   1      39.885  31.045  30.833  1.00  0.00     0.031 C 
ATOM     43  C   UNL A   1      39.467  26.902  28.017  1.00  0.00     0.029 A 
ATOM     44  N   UNL A   1      41.348  27.153  29.200  1.00  0.00    -0.354 N 
ATOM     45  C   UNL A   1      41.994  30.661  31.634  1.00  0.00     0.074 A 
ATOM     46  C   UNL A   1      40.874  31.573  31.541  1.00  0.00     0.031 C 
ATOM     47  C   UNL A   1      40.244  25.836  27.769  1.00  0.00     0.029 A 
ATOM     48  C   UNL A   1      41.487  25.969  28.520  1.00  0.00     0.049 A 
ATOM     49  H   UNL A   1      42.041  27.517  29.796  1.00  0.00     0.167 HD
ATOM     50  C   UNL A   1      43.105  30.886  32.378  1.00  0.00     0.037 A 
ATOM     51  C   UNL A   1      42.504  25.085  28.509  1.00  0.00     0.037 A 
ATOM     52  C   UNL A   1      44.208  29.966  32.490  1.00  0.00     0.049 A 
ATOM     53  C   UNL A   1      43.711  25.344  29.367  1.00  0.00     0.074 A 
ATOM     54  C   UNL A   1      45.352  30.076  33.260  1.00  0.00     0.029 A 
ATOM     55  N   UNL A   1      44.301  28.762  31.807  1.00  0.00    -0.354 N 
ATOM     56  N   UNL A   1      43.964  26.361  30.154  1.00  0.00    -0.248 NA
ATOM     57  C   UNL A   1      44.767  24.324  29.344  1.00  0.00     0.031 C 
ATOM     58  C   UNL A   1      46.155  28.956  33.017  1.00  0.00     0.029 A 
ATOM     59  C   UNL A   1      45.491  28.126  32.128  1.00  0.00     0.049 A 
ATOM     60  H   UNL A   1      43.623  28.410  31.185  1.00  0.00     0.167 HD
ATOM     61  C   UNL A   1      45.194  26.094  30.736  1.00  0.00     0.074 A 
ATOM     62  C   UNL A   1      45.626  24.809  30.229  1.00  0.00     0.031 C 
ATOM     63  C   UNL A   1      45.905  26.847  31.612  1.00  0.00     0.037 A 
BRANCH  50  64
ATOM     64  C   UNL A   1      43.179  32.180  33.137  1.00  0.00     0.064 A 
ATOM     65  C   UNL A   1      42.699  32.289  34.452  1.00  0.00     0.173 A 
ATOM     66  C   UNL A   1      43.766  33.315  32.558  1.00  0.00     0.173 A 
ATOM     67  F   UNL A   1      42.119  31.237  35.048  1.00  0.00    -0.203 F 
ATOM     68  C   UNL A   1      42.777  33.493  35.146  1.00  0.00     0.198 A 
ATOM     69  C   UNL A   1      43.868  34.510  33.266  1.00  0.00     0.198 A 
ATOM     70  F   UNL A   1      44.246  33.264  31.307  1.00  0.00    -0.203 F 
ATOM     71  F   UNL A   1      42.268  33.586  36.383  1.00  0.00    -0.200 F 
ATOM     72  C   UNL A   1      43.367  34.601  34.556  1.00  0.00     0.200 A 
ATOM     73  F   UNL A   1      44.449  35.577  32.699  1.00  0.00    -0.200 F 
ATOM     74  F   UNL A   1      43.446  35.758  35.227  1.00  0.00    -0.200 F 
ENDBRANCH  50  64
BRANCH  51  75
ATOM     75  C   UNL A   1      42.400  23.851  27.690  1.00  0.00     0.064 A 
ATOM     76  C   UNL A   1      42.802  23.846  26.347  1.00  0.00     0.173 A 
ATOM     77  C   UNL A   1      41.903  22.656  28.229  1.00  0.00     0.173 A 
ATOM     78  F   UNL A   1      43.267  24.971  25.784  1.00  0.00    -0.203 F 
ATOM     79  C   UNL A   1      42.693  22.696  25.568  1.00  0.00     0.198 A 
ATOM     80  C   UNL A   1      41.819  21.500  27.456  1.00  0.00     0.198 A 
ATOM     81  F   UNL A   1      41.511  22.609  29.510  1.00  0.00    -0.203 F 
ATOM     82  F   UNL A   1      43.045  22.730  24.275  1.00  0.00    -0.200 F 
ATOM     83  C   UNL A   1      42.206  21.523  26.124  1.00  0.00     0.200 A 
ATOM     84  F   UNL A   1      41.360  20.364  28.000  1.00  0.00    -0.200 F 
ATOM     85  F   UNL A   1      42.105  20.416  25.376  1.00  0.00    -0.200 F 
ENDBRANCH  51  75
BRANCH  63  86
ATOM     86  C   UNL A   1      47.210  26.282  32.091  1.00  0.00     0.064 A 
ATOM     87  C   UNL A   1      48.416  26.554  31.428  1.00  0.00     0.173 A 
ATOM     88  C   UNL A   1      47.257  25.466  33.231  1.00  0.00     0.173 A 
ATOM     89  F   UNL A   1      48.422  27.316  30.324  1.00  0.00    -0.203 F 
ATOM     90  C   UNL A   1      49.615  26.001  31.868  1.00  0.00     0.198 A 
ATOM     91  C   UNL A   1      48.461  24.938  33.685  1.00  0.00     0.198 A 
ATOM     92  F   UNL A   1      46.132  25.180  33.903  1.00  0.00    -0.203 F 
ATOM     93  F   UNL A   1      50.746  26.227  31.185  1.00  0.00    -0.200 F 
ATOM     94  C   UNL A   1      49.638  25.196  32.998  1.00  0.00     0.200 A 
ATOM     95  F   UNL A   1      48.484  24.169  34.783  1.00  0.00    -0.200 F 
ATOM     96  F   UNL A   1      50.793  24.662  33.418  1.00  0.00    -0.200 F 
ENDBRANCH  63  86
ENDBRANCH  37  38
ENDBRANCH  29  32
ENDBRANCH  27  28
ENDBRANCH  26  27
ENDBRANCH  25  26
ENDBRANCH   3  25
TORSDOF 15
ENDMDL
MODEL 3
REMARK VINA RESULT:     -11.5      3.235      6.092
REMARK SMILES Cc1nc(CN(C)C(=O)NCc2ccc(C(=O)NCCCNC(=O)c3ccc(-c4c5nc(c(-c6c(F)c(F)c(F)c(F)c6F)c6ccc([nH]6)c(-c6c(F)c(F)c(F)c(F)c6F)c6nc(c(-c7c(F)c(F)c(F)c(F)c7F)c7ccc4[nH]7)C=C6)C=C5)cc3)o2)n[nH]1
REMARK SMILES IDX 16 1 17 2 18 3 15 5 12 6 13 7 88 8 14 9 11 10 10 11 8 12
REMARK SMILES IDX 9 13 6 15 7 16 5 17 4 18 1 19 2 20 3 21 90 22 89 23 19 25
REMARK SMILES IDX 20 26 21 27 22 28 23 29 24 31 25 32 26 33 87 34 27 35 86 36
REMARK SMILES IDX 28 37 29 38 30 39 80 40 31 41 85 42 79 43 81 44 32 45 84 46
REMARK SMILES IDX 78 47 77 48 33 50 65 51 45 52 64 53 46 54 49 55 63 56 82 57
REMARK SMILES IDX 47 58 48 59 62 61 83 62 50 63 34 64 35 65 43 66 36 67 37 68
REMARK SMILES IDX 41 69 44 70 38 71 39 72 42 73 40 74 66 75 67 76 75 77 68 78
REMARK SMILES IDX 69 79 73 80 76 81 70 82 71 83 74 84 72 85 51 86 52 87 60 88
REMARK SMILES IDX 53 89 54 90 58 91 61 92 55 93 56 94 59 95 57 96
REMARK H PARENT 18 4 10 14 90 24 22 30 81 49 49 60
REMARK Flexibility Score: inf
ROOT
ATOM      1  C   UNL A   1      31.651  26.508  22.301  1.00  0.00     0.286 C 
ATOM      2  O   UNL A   1      31.037  26.328  21.247  1.00  0.00    -0.266 OA
ATOM      3  N   UNL A   1      32.815  27.233  22.188  1.00  0.00    -0.349 N 
ATOM      4  H   UNL A   1      33.063  27.461  21.263  1.00  0.00     0.163 HD
ENDROOT
BRANCH   1   5
ATOM      5  C   UNL A   1      31.187  26.001  23.581  1.00  0.00     0.191 A 
ATOM      6  C   UNL A   1      30.882  24.354  25.037  1.00  0.00     0.124 A 
ATOM      7  C   UNL A   1      30.391  25.494  25.632  1.00  0.00     0.048 A 
ATOM      8  O   UNL A   1      31.352  24.651  23.796  1.00  0.00    -0.454 OA
ATOM      9  C   UNL A   1      30.617  26.550  24.716  1.00  0.00     0.056 A 
BRANCH   6  10
ATOM     10  C   UNL A   1      31.028  22.941  25.471  1.00  0.00     0.193 C 
BRANCH  10  11
ATOM     11  N   UNL A   1      32.083  22.863  26.457  1.00  0.00    -0.331 N 
ATOM     12  C   UNL A   1      33.242  22.194  26.567  1.00  0.00     0.317 C 
ATOM     13  O   UNL A   1      33.682  22.116  27.718  1.00  0.00    -0.249 OA
ATOM     14  H   UNL A   1      31.908  23.439  27.236  1.00  0.00     0.165 HD
BRANCH  12  15
ATOM     15  N   UNL A   1      33.888  21.636  25.501  1.00  0.00    -0.320 N 
ATOM     16  C   UNL A   1      33.737  20.285  24.998  1.00  0.00     0.149 C 
BRANCH  15  17
ATOM     17  C   UNL A   1      34.653  22.561  24.651  1.00  0.00     0.200 C 
BRANCH  17  18
ATOM     18  C   UNL A   1      36.090  22.653  25.074  1.00  0.00     0.170 A 
ATOM     19  C   UNL A   1      38.832  24.355  26.588  1.00  0.00     0.089 C 
ATOM     20  C   UNL A   1      37.829  23.498  25.925  1.00  0.00     0.121 A 
ATOM     21  N   UNL A   1      36.523  23.638  25.930  1.00  0.00    -0.215 NA
ATOM     22  N   UNL A   1      38.155  22.423  25.150  1.00  0.00    -0.263 N 
ATOM     23  N   UNL A   1      37.063  21.835  24.635  1.00  0.00    -0.157 NA
ATOM     24  H   UNL A   1      39.077  22.116  24.989  1.00  0.00     0.192 HD
ENDBRANCH  17  18
ENDBRANCH  15  17
ENDBRANCH  12  15
ENDBRANCH  10  11
ENDBRANCH   6  10
ENDBRANCH   1   5
BRANCH   3  25
ATOM     25  C   UNL A   1      33.737  27.722  23.192  1.00  0.00     0.118 C 
BRANCH  25  26
ATOM     26  C   UNL A   1      33.280  29.053  23.786  1.00  0.00     0.042 C 
BRANCH  26  27
ATOM     27  C   UNL A   1      33.560  29.181  25.283  1.00  0.00     0.118 C 
BRANCH  27  28
ATOM     28  N   UNL A   1      33.099  30.456  25.819  1.00  0.00    -0.352 N 
ATOM     29  C   UNL A   1      33.496  31.165  26.921  1.00  0.00     0.251 C 
ATOM     30  H   UNL A   1      32.378  30.878  25.299  1.00  0.00     0.163 HD
ATOM     31  O   UNL A   1      32.804  32.106  27.302  1.00  0.00    -0.269 OA
BRANCH  29  32
ATOM     32  C   UNL A   1      34.735  30.829  27.658  1.00  0.00     0.039 A 
ATOM     33  C   UNL A   1      34.766  29.638  28.391  1.00  0.00     0.014 A 
ATOM     34  C   UNL A   1      35.823  31.704  27.713  1.00  0.00     0.014 A 
ATOM     35  C   UNL A   1      35.894  29.307  29.144  1.00  0.00     0.010 A 
ATOM     36  C   UNL A   1      36.976  31.345  28.414  1.00  0.00     0.010 A 
ATOM     37  C   UNL A   1      37.018  30.149  29.144  1.00  0.00    -0.014 A 
BRANCH  37  38
ATOM     38  C   UNL A   1      38.235  29.781  29.912  1.00  0.00     0.031 A 
ATOM     39  C   UNL A   1      38.467  30.330  31.292  1.00  0.00     0.074 A 
ATOM     40  C   UNL A   1      39.151  28.972  29.346  1.00  0.00     0.049 A 
ATOM     41  N   UNL A   1      39.472  30.124  32.106  1.00  0.00    -0.248 NA
ATOM     42  C   UNL A   1      37.449  31.252  31.818  1.00  0.00     0.031 C 
ATOM     43  C   UNL A   1      39.066  28.419  27.993  1.00  0.00     0.029 A 
ATOM     44  N   UNL A   1      40.333  28.477  29.834  1.00  0.00    -0.354 N 
ATOM     45  C   UNL A   1      39.213  30.897  33.231  1.00  0.00     0.074 A 
ATOM     46  C   UNL A   1      37.983  31.614  32.976  1.00  0.00     0.031 C 
ATOM     47  C   UNL A   1      40.134  27.638  27.770  1.00  0.00     0.029 A 
ATOM     48  C   UNL A   1      40.991  27.657  28.951  1.00  0.00     0.049 A 
ATOM     49  H   UNL A   1      40.677  28.688  30.732  1.00  0.00     0.167 HD
ATOM     50  C   UNL A   1      39.927  30.984  34.381  1.00  0.00     0.037 A 
ATOM     51  C   UNL A   1      42.153  26.989  29.083  1.00  0.00     0.037 A 
ATOM     52  C   UNL A   1      41.139  30.250  34.643  1.00  0.00     0.049 A 
ATOM     53  C   UNL A   1      42.909  27.080  30.379  1.00  0.00     0.074 A 
ATOM     54  C   UNL A   1      41.904  30.228  35.795  1.00  0.00     0.029 A 
ATOM     55  N   UNL A   1      41.761  29.407  33.733  1.00  0.00    -0.354 N 
ATOM     56  N   UNL A   1      42.618  27.761  31.461  1.00  0.00    -0.248 NA
ATOM     57  C   UNL A   1      44.148  26.297  30.477  1.00  0.00     0.031 C 
ATOM     58  C   UNL A   1      43.009  29.398  35.572  1.00  0.00     0.029 A 
ATOM     59  C   UNL A   1      42.910  28.870  34.295  1.00  0.00     0.049 A 
ATOM     60  H   UNL A   1      41.436  29.218  32.823  1.00  0.00     0.167 HD
ATOM     61  C   UNL A   1      43.623  27.472  32.373  1.00  0.00     0.074 A 
ATOM     62  C   UNL A   1      44.519  26.537  31.726  1.00  0.00     0.031 C 
ATOM     63  C   UNL A   1      43.791  27.941  33.634  1.00  0.00     0.037 A 
BRANCH  50  64
ATOM     64  C   UNL A   1      39.409  31.905  35.448  1.00  0.00     0.064 A 
ATOM     65  C   UNL A   1      39.760  33.263  35.481  1.00  0.00     0.173 A 
ATOM     66  C   UNL A   1      38.525  31.433  36.431  1.00  0.00     0.173 A 
ATOM     67  F   UNL A   1      40.611  33.763  34.572  1.00  0.00    -0.203 F 
ATOM     68  C   UNL A   1      39.271  34.107  36.474  1.00  0.00     0.198 A 
ATOM     69  C   UNL A   1      38.014  32.287  37.406  1.00  0.00     0.198 A 
ATOM     70  F   UNL A   1      38.151  30.145  36.442  1.00  0.00    -0.203 F 
ATOM     71  F   UNL A   1      39.659  35.390  36.513  1.00  0.00    -0.200 F 
ATOM     72  C   UNL A   1      38.393  33.621  37.432  1.00  0.00     0.200 A 
ATOM     73  F   UNL A   1      37.157  31.818  38.323  1.00  0.00    -0.200 F 
ATOM     74  F   UNL A   1      37.918  34.435  38.384  1.00  0.00    -0.200 F 
ENDBRANCH  50  64
BRANCH  51  75
ATOM     75  C   UNL A   1      42.648  26.142  27.969  1.00  0.00     0.064 A 
ATOM     76  C   UNL A   1      43.521  26.663  27.004  1.00  0.00     0.173 A 
ATOM     77  C   UNL A   1      42.264  24.799  27.846  1.00  0.00     0.173 A 
ATOM     78  F   UNL A   1      43.901  27.948  27.070  1.00  0.00    -0.203 F 
ATOM     79  C   UNL A   1      43.976  25.878  25.947  1.00  0.00     0.198 A 
ATOM     80  C   UNL A   1      42.740  24.008  26.804  1.00  0.00     0.198 A 
ATOM     81  F   UNL A   1      41.435  24.253  28.748  1.00  0.00    -0.203 F 
ATOM     82  F   UNL A   1      44.776  26.413  25.014  1.00  0.00    -0.200 F 
ATOM     83  C   UNL A   1      43.589  24.550  25.850  1.00  0.00     0.200 A 
ATOM     84  F   UNL A   1      42.376  22.721  26.720  1.00  0.00    -0.200 F 
ATOM     85  F   UNL A   1      44.030  23.794  24.836  1.00  0.00    -0.200 F 
ENDBRANCH  51  75
BRANCH  63  86
ATOM     86  C   UNL A   1      44.975  27.426  34.399  1.00  0.00     0.064 A 
ATOM     87  C   UNL A   1      46.211  28.089  34.371  1.00  0.00     0.173 A 
ATOM     88  C   UNL A   1      44.869  26.263  35.176  1.00  0.00     0.173 A 
ATOM     89  F   UNL A   1      46.367  29.196  33.631  1.00  0.00    -0.203 F 
ATOM     90  C   UNL A   1      47.308  27.584  35.063  1.00  0.00     0.198 A 
ATOM     91  C   UNL A   1      45.960  25.778  35.890  1.00  0.00     0.198 A 
ATOM     92  F   UNL A   1      43.707  25.597  35.240  1.00  0.00    -0.203 F 
ATOM     93  F   UNL A   1      48.495  28.201  34.976  1.00  0.00    -0.200 F 
ATOM     94  C   UNL A   1      47.182  26.432  35.826  1.00  0.00     0.200 A 
ATOM     95  F   UNL A   1      45.834  24.670  36.635  1.00  0.00    -0.200 F 
ATOM     96  F   UNL A   1      48.240  25.946  36.490  1.00  0.00    -0.200 F 
ENDBRANCH  63  86
ENDBRANCH  37  38
ENDBRANCH  29  32
ENDBRANCH  27  28
ENDBRANCH  26  27
ENDBRANCH  25  26
ENDBRANCH   3  25
TORSDOF 15
ENDMDL
