MODEL 1
REMARK VINA RESULT:     -13.0      0.000      0.000
REMARK SMILES [NH3+][C@H]1C=C[C@H](C(=O)N2CCCc3c(C(=O)NCCCNC(=O)c4ccc(-c5c6nc(c(-c7c(F)c(F)c(F)c(F)c7F)c7ccc([nH]7)c(-c7c(F)c(F)c(F)c(F)c7F)c7nc(c(-c8c(F)c(F)c(F)c(F)c8F)c8ccc5[nH]8)C=C7)C=C6)cc4)cccc32)C1
REMARK SMILES IDX 17 1 16 2 14 3 15 4 13 6 8 7 9 8 89 9 10 10 12 11 88 12
REMARK SMILES IDX 11 13 87 14 86 15 6 16 7 17 5 18 2 19 3 20 90 21 4 22 1 23
REMARK SMILES IDX 18 27 19 28 20 29 21 30 22 32 23 33 24 34 85 35 25 36 84 37
REMARK SMILES IDX 26 38 27 39 28 40 78 41 29 42 83 43 77 44 79 45 30 46 82 47
REMARK SMILES IDX 76 48 75 49 31 51 63 52 43 53 62 54 44 55 47 56 61 57 80 58
REMARK SMILES IDX 45 59 46 60 60 62 81 63 48 64 32 65 33 66 41 67 34 68 35 69
REMARK SMILES IDX 39 70 42 71 36 72 37 73 40 74 38 75 64 76 65 77 73 78 66 79
REMARK SMILES IDX 67 80 71 81 74 82 68 83 69 84 72 85 70 86 49 87 50 88 58 89
REMARK SMILES IDX 51 90 52 91 56 92 59 93 53 94 54 95 57 96 55 97
REMARK H PARENT 16 5 1 24 1 25 1 26 20 31 79 50 47 61
REMARK Flexibility Score: inf
ROOT
ATOM      1  C   UNL A   1      31.490  30.822  26.109  1.00  0.00     0.118 C 
ENDROOT
BRANCH   1   2
ATOM      2  N   UNL A   1      30.737  30.572  24.897  1.00  0.00    -0.352 N 
ATOM      3  C   UNL A   1      30.735  29.675  23.865  1.00  0.00     0.251 C 
ATOM      4  O   UNL A   1      29.825  29.895  23.051  1.00  0.00    -0.269 OA
ATOM      5  H   UNL A   1      30.022  31.238  24.784  1.00  0.00     0.163 HD
BRANCH   3   6
ATOM      6  C   UNL A   1      31.622  28.477  23.603  1.00  0.00     0.045 A 
ATOM      7  N   UNL A   1      32.790  24.976  24.509  1.00  0.00    -0.312 N 
ATOM      8  C   UNL A   1      31.664  24.557  25.327  1.00  0.00     0.126 C 
ATOM      9  C   UNL A   1      32.734  26.288  23.910  1.00  0.00     0.048 A 
ATOM     10  C   UNL A   1      31.210  25.672  26.233  1.00  0.00     0.027 C 
ATOM     11  C   UNL A   1      31.708  27.219  24.261  1.00  0.00    -0.011 A 
ATOM     12  C   UNL A   1      33.682  26.644  22.942  1.00  0.00     0.027 A 
ATOM     13  C   UNL A   1      30.787  26.846  25.377  1.00  0.00     0.040 C 
ATOM     14  C   UNL A   1      33.619  27.871  22.303  1.00  0.00     0.003 A 
ATOM     15  C   UNL A   1      32.598  28.760  22.619  1.00  0.00     0.014 A 
BRANCH   7  16
ATOM     16  C   UNL A   1      33.943  24.197  24.452  1.00  0.00     0.234 C 
ATOM     17  O   UNL A   1      34.955  24.475  25.106  1.00  0.00    -0.274 OA
BRANCH  16  18
ATOM     18  C   UNL A   1      33.979  22.958  23.536  1.00  0.00     0.108 C 
ATOM     19  C   UNL A   1      32.028  21.745  22.665  1.00  0.00     0.205 C 
ATOM     20  C   UNL A   1      32.713  20.990  23.752  1.00  0.00     0.033 C 
ATOM     21  C   UNL A   1      33.025  22.872  22.337  1.00  0.00     0.087 C 
ATOM     22  C   UNL A   1      33.755  21.664  24.254  1.00  0.00    -0.012 C 
BRANCH  19  23
ATOM     23  N   UNL A   1      31.715  20.910  21.524  1.00  0.00    -0.352 N 
ATOM     24  H   UNL A   1      31.532  21.500  20.712  1.00  0.00     0.345 HD
ATOM     25  H   UNL A   1      30.889  20.349  21.730  1.00  0.00     0.345 HD
ATOM     26  H   UNL A   1      32.504  20.294  21.326  1.00  0.00     0.345 HD
ENDBRANCH  19  23
ENDBRANCH  16  18
ENDBRANCH   7  16
ENDBRANCH   3   6
ENDBRANCH   1   2
BRANCH   1  27
ATOM     27  C   UNL A   1      31.386  32.293  26.519  1.00  0.00     0.042 C 
BRANCH  27  28
ATOM     28  C   UNL A   1      32.652  32.896  27.092  1.00  0.00     0.118 C 
BRANCH  28  29
ATOM     29  N   UNL A   1      32.434  34.237  27.606  1.00  0.00    -0.352 N 
ATOM     30  C   UNL A   1      33.027  34.885  28.663  1.00  0.00     0.251 C 
ATOM     31  H   UNL A   1      31.757  34.763  27.122  1.00  0.00     0.163 HD
ATOM     32  O   UNL A   1      32.546  35.943  29.060  1.00  0.00    -0.269 OA
BRANCH  30  33
ATOM     33  C   UNL A   1      34.216  34.316  29.343  1.00  0.00     0.039 A 
ATOM     34  C   UNL A   1      34.020  33.490  30.456  1.00  0.00     0.014 A 
ATOM     35  C   UNL A   1      35.517  34.612  28.928  1.00  0.00     0.014 A 
ATOM     36  C   UNL A   1      35.119  32.928  31.113  1.00  0.00     0.010 A 
ATOM     37  C   UNL A   1      36.602  33.969  29.514  1.00  0.00     0.010 A 
ATOM     38  C   UNL A   1      36.418  33.138  30.627  1.00  0.00    -0.014 A 
BRANCH  38  39
ATOM     39  C   UNL A   1      37.600  32.527  31.287  1.00  0.00     0.031 A 
ATOM     40  C   UNL A   1      38.339  31.403  30.613  1.00  0.00     0.074 A 
ATOM     41  C   UNL A   1      37.968  32.941  32.515  1.00  0.00     0.049 A 
ATOM     42  N   UNL A   1      39.345  30.689  31.051  1.00  0.00    -0.248 NA
ATOM     43  C   UNL A   1      37.865  31.007  29.277  1.00  0.00     0.031 C 
ATOM     44  C   UNL A   1      37.299  33.988  33.290  1.00  0.00     0.029 A 
ATOM     45  N   UNL A   1      38.989  32.526  33.332  1.00  0.00    -0.354 N 
ATOM     46  C   UNL A   1      39.607  29.754  30.058  1.00  0.00     0.074 A 
ATOM     47  C   UNL A   1      38.618  29.948  29.021  1.00  0.00     0.031 C 
ATOM     48  C   UNL A   1      37.943  34.151  34.456  1.00  0.00     0.029 A 
ATOM     49  C   UNL A   1      39.041  33.193  34.531  1.00  0.00     0.049 A 
ATOM     50  H   UNL A   1      39.624  31.816  33.082  1.00  0.00     0.167 HD
ATOM     51  C   UNL A   1      40.599  28.834  30.004  1.00  0.00     0.037 A 
ATOM     52  C   UNL A   1      39.876  33.042  35.576  1.00  0.00     0.037 A 
ATOM     53  C   UNL A   1      41.596  28.666  31.027  1.00  0.00     0.049 A 
ATOM     54  C   UNL A   1      40.967  32.008  35.493  1.00  0.00     0.074 A 
ATOM     55  C   UNL A   1      42.681  27.808  31.044  1.00  0.00     0.029 A 
ATOM     56  N   UNL A   1      41.626  29.373  32.221  1.00  0.00    -0.354 N 
ATOM     57  N   UNL A   1      41.249  31.178  34.518  1.00  0.00    -0.248 NA
ATOM     58  C   UNL A   1      41.860  31.895  36.654  1.00  0.00     0.031 C 
ATOM     59  C   UNL A   1      43.337  27.958  32.270  1.00  0.00     0.029 A 
ATOM     60  C   UNL A   1      42.696  28.951  32.994  1.00  0.00     0.049 A 
ATOM     61  H   UNL A   1      40.981  30.070  32.481  1.00  0.00     0.167 HD
ATOM     62  C   UNL A   1      42.364  30.464  34.934  1.00  0.00     0.074 A 
ATOM     63  C   UNL A   1      42.720  30.973  36.242  1.00  0.00     0.031 C 
ATOM     64  C   UNL A   1      43.035  29.476  34.293  1.00  0.00     0.037 A 
BRANCH  51  65
ATOM     65  C   UNL A   1      40.657  27.942  28.796  1.00  0.00     0.064 A 
ATOM     66  C   UNL A   1      41.440  28.264  27.675  1.00  0.00     0.173 A 
ATOM     67  C   UNL A   1      39.945  26.732  28.768  1.00  0.00     0.173 A 
ATOM     68  F   UNL A   1      42.131  29.413  27.643  1.00  0.00    -0.203 F 
ATOM     69  C   UNL A   1      41.480  27.428  26.562  1.00  0.00     0.198 A 
ATOM     70  C   UNL A   1      40.015  25.882  27.667  1.00  0.00     0.198 A 
ATOM     71  F   UNL A   1      39.185  26.372  29.812  1.00  0.00    -0.203 F 
ATOM     72  F   UNL A   1      42.191  27.785  25.484  1.00  0.00    -0.200 F 
ATOM     73  C   UNL A   1      40.775  26.234  26.563  1.00  0.00     0.200 A 
ATOM     74  F   UNL A   1      39.343  24.722  27.675  1.00  0.00    -0.200 F 
ATOM     75  F   UNL A   1      40.821  25.427  25.494  1.00  0.00    -0.200 F 
ENDBRANCH  51  65
BRANCH  52  76
ATOM     76  C   UNL A   1      39.728  33.904  36.779  1.00  0.00     0.064 A 
ATOM     77  C   UNL A   1      38.911  33.514  37.849  1.00  0.00     0.173 A 
ATOM     78  C   UNL A   1      40.398  35.133  36.885  1.00  0.00     0.173 A 
ATOM     79  F   UNL A   1      38.236  32.357  37.789  1.00  0.00    -0.203 F 
ATOM     80  C   UNL A   1      38.751  34.329  38.968  1.00  0.00     0.198 A 
ATOM     81  C   UNL A   1      40.261  35.932  38.017  1.00  0.00     0.198 A 
ATOM     82  F   UNL A   1      41.197  35.550  35.893  1.00  0.00    -0.203 F 
ATOM     83  F   UNL A   1      37.925  33.954  39.955  1.00  0.00    -0.200 F 
ATOM     84  C   UNL A   1      39.430  35.535  39.054  1.00  0.00     0.200 A 
ATOM     85  F   UNL A   1      40.933  37.088  38.104  1.00  0.00    -0.200 F 
ATOM     86  F   UNL A   1      39.280  36.316  40.132  1.00  0.00    -0.200 F 
ENDBRANCH  52  76
BRANCH  64  87
ATOM     87  C   UNL A   1      44.240  28.903  34.981  1.00  0.00     0.064 A 
ATOM     88  C   UNL A   1      44.148  27.780  35.816  1.00  0.00     0.173 A 
ATOM     89  C   UNL A   1      45.509  29.466  34.772  1.00  0.00     0.173 A 
ATOM     90  F   UNL A   1      42.956  27.216  36.059  1.00  0.00    -0.203 F 
ATOM     91  C   UNL A   1      45.278  27.258  36.438  1.00  0.00     0.198 A 
ATOM     92  C   UNL A   1      46.642  28.919  35.369  1.00  0.00     0.198 A 
ATOM     93  F   UNL A   1      45.653  30.536  33.977  1.00  0.00    -0.203 F 
ATOM     94  F   UNL A   1      45.159  26.215  37.274  1.00  0.00    -0.200 F 
ATOM     95  C   UNL A   1      46.524  27.821  36.208  1.00  0.00     0.200 A 
ATOM     96  F   UNL A   1      47.846  29.455  35.132  1.00  0.00    -0.200 F 
ATOM     97  F   UNL A   1      47.612  27.311  36.801  1.00  0.00    -0.200 F 
ENDBRANCH  64  87
ENDBRANCH  38  39
ENDBRANCH  30  33
ENDBRANCH  28  29
ENDBRANCH  27  28
ENDBRANCH   1  27
TORSDOF 13
ENDMDL
MODEL 2
REMARK VINA RESULT:     -13.0      0.158      1.592
REMARK SMILES [NH3+][C@H]1C=C[C@H](C(=O)N2CCCc3c(C(=O)NCCCNC(=O)c4ccc(-c5c6nc(c(-c7c(F)c(F)c(F)c(F)c7F)c7ccc([nH]7)c(-c7c(F)c(F)c(F)c(F)c7F)c7nc(c(-c8c(F)c(F)c(F)c(F)c8F)c8ccc5[nH]8)C=C7)C=C6)cc4)cccc32)C1
REMARK SMILES IDX 17 1 16 2 14 3 15 4 13 6 8 7 9 8 89 9 10 10 12 11 88 12
REMARK SMILES IDX 11 13 87 14 86 15 6 16 7 17 5 18 2 19 3 20 90 21 4 22 1 23
REMARK SMILES IDX 18 27 19 28 20 29 21 30 22 32 23 33 24 34 85 35 25 36 84 37
REMARK SMILES IDX 26 38 27 39 28 40 78 41 29 42 83 43 77 44 79 45 30 46 82 47
REMARK SMILES IDX 76 48 75 49 31 51 63 52 43 53 62 54 44 55 47 56 61 57 80 58
REMARK SMILES IDX 45 59 46 60 60 62 81 63 48 64 32 65 33 66 41 67 34 68 35 69
REMARK SMILES IDX 39 70 42 71 36 72 37 73 40 74 38 75 64 76 65 77 73 78 66 79
REMARK SMILES IDX 67 80 71 81 74 82 68 83 69 84 72 85 70 86 49 87 50 88 58 89
REMARK SMILES IDX 51 90 52 91 56 92 59 93 53 94 54 95 57 96 55 97
REMARK H PARENT 16 5 1 24 1 25 1 26 20 31 79 50 47 61
REMARK Flexibility Score: inf
ROOT
ATOM      1  C   UNL A   1      31.441  30.814  26.134  1.00  0.00     0.118 C 
ENDROOT
BRANCH   1   2
ATOM      2  N   UNL A   1      30.690  30.557  24.922  1.00  0.00    -0.352 N 
ATOM      3  C   UNL A   1      30.694  29.657  23.893  1.00  0.00     0.251 C 
ATOM      4  O   UNL A   1      29.784  29.871  23.077  1.00  0.00    -0.269 OA
ATOM      5  H   UNL A   1      29.972  31.219  24.807  1.00  0.00     0.163 HD
BRANCH   3   6
ATOM      6  C   UNL A   1      31.587  28.464  23.634  1.00  0.00     0.045 A 
ATOM      7  N   UNL A   1      32.835  25.006  24.600  1.00  0.00    -0.312 N 
ATOM      8  C   UNL A   1      31.745  24.598  25.471  1.00  0.00     0.126 C 
ATOM      9  C   UNL A   1      32.739  26.299  23.965  1.00  0.00     0.048 A 
ATOM     10  C   UNL A   1      31.309  25.735  26.359  1.00  0.00     0.027 C 
ATOM     11  C   UNL A   1      31.714  27.227  24.325  1.00  0.00    -0.011 A 
ATOM     12  C   UNL A   1      33.646  26.637  22.953  1.00  0.00     0.027 A 
ATOM     13  C   UNL A   1      30.839  26.877  25.485  1.00  0.00     0.040 C 
ATOM     14  C   UNL A   1      33.544  27.844  22.280  1.00  0.00     0.003 A 
ATOM     15  C   UNL A   1      32.523  28.728  22.607  1.00  0.00     0.014 A 
BRANCH   7  16
ATOM     16  C   UNL A   1      33.995  24.240  24.524  1.00  0.00     0.234 C 
ATOM     17  O   UNL A   1      35.016  24.532  25.159  1.00  0.00    -0.274 OA
BRANCH  16  18
ATOM     18  C   UNL A   1      34.029  22.999  23.611  1.00  0.00     0.108 C 
ATOM     19  C   UNL A   1      32.076  21.798  22.728  1.00  0.00     0.205 C 
ATOM     20  C   UNL A   1      32.747  21.041  23.822  1.00  0.00     0.033 C 
ATOM     21  C   UNL A   1      33.083  22.918  22.405  1.00  0.00     0.087 C 
ATOM     22  C   UNL A   1      33.790  21.708  24.331  1.00  0.00    -0.012 C 
BRANCH  19  23
ATOM     23  N   UNL A   1      31.765  20.963  21.588  1.00  0.00    -0.352 N 
ATOM     24  H   UNL A   1      32.118  20.019  21.752  1.00  0.00     0.345 HD
ATOM     25  H   UNL A   1      32.205  21.350  20.753  1.00  0.00     0.345 HD
ATOM     26  H   UNL A   1      30.754  20.930  21.455  1.00  0.00     0.345 HD
ENDBRANCH  19  23
ENDBRANCH  16  18
ENDBRANCH   7  16
ENDBRANCH   3   6
ENDBRANCH   1   2
BRANCH   1  27
ATOM     27  C   UNL A   1      31.383  32.298  26.504  1.00  0.00     0.042 C 
BRANCH  27  28
ATOM     28  C   UNL A   1      32.645  32.859  27.127  1.00  0.00     0.118 C 
BRANCH  28  29
ATOM     29  N   UNL A   1      32.456  34.212  27.620  1.00  0.00    -0.352 N 
ATOM     30  C   UNL A   1      33.063  34.864  28.667  1.00  0.00     0.251 C 
ATOM     31  H   UNL A   1      31.790  34.744  27.128  1.00  0.00     0.163 HD
ATOM     32  O   UNL A   1      32.604  35.937  29.047  1.00  0.00    -0.269 OA
BRANCH  30  33
ATOM     33  C   UNL A   1      34.240  34.281  29.355  1.00  0.00     0.039 A 
ATOM     34  C   UNL A   1      34.025  33.407  30.426  1.00  0.00     0.014 A 
ATOM     35  C   UNL A   1      35.548  34.610  28.989  1.00  0.00     0.014 A 
ATOM     36  C   UNL A   1      35.113  32.831  31.090  1.00  0.00     0.010 A 
ATOM     37  C   UNL A   1      36.626  33.956  29.577  1.00  0.00     0.010 A 
ATOM     38  C   UNL A   1      36.422  33.076  30.649  1.00  0.00    -0.014 A 
BRANCH  38  39
ATOM     39  C   UNL A   1      37.593  32.452  31.315  1.00  0.00     0.031 A 
ATOM     40  C   UNL A   1      38.342  31.340  30.631  1.00  0.00     0.074 A 
ATOM     41  C   UNL A   1      37.943  32.843  32.555  1.00  0.00     0.049 A 
ATOM     42  N   UNL A   1      39.340  30.616  31.072  1.00  0.00    -0.248 NA
ATOM     43  C   UNL A   1      37.887  30.968  29.281  1.00  0.00     0.031 C 
ATOM     44  C   UNL A   1      37.264  33.876  33.339  1.00  0.00     0.029 A 
ATOM     45  N   UNL A   1      38.952  32.412  33.380  1.00  0.00    -0.354 N 
ATOM     46  C   UNL A   1      39.616  29.699  30.065  1.00  0.00     0.074 A 
ATOM     47  C   UNL A   1      38.643  29.913  29.018  1.00  0.00     0.031 C 
ATOM     48  C   UNL A   1      37.891  34.018  34.518  1.00  0.00     0.029 A 
ATOM     49  C   UNL A   1      38.987  33.058  34.592  1.00  0.00     0.049 A 
ATOM     50  H   UNL A   1      39.591  31.706  33.126  1.00  0.00     0.167 HD
ATOM     51  C   UNL A   1      40.609  28.780  30.009  1.00  0.00     0.037 A 
ATOM     52  C   UNL A   1      39.806  32.887  35.646  1.00  0.00     0.037 A 
ATOM     53  C   UNL A   1      41.590  28.592  31.044  1.00  0.00     0.049 A 
ATOM     54  C   UNL A   1      40.897  31.853  35.561  1.00  0.00     0.074 A 
ATOM     55  C   UNL A   1      42.674  27.733  31.061  1.00  0.00     0.029 A 
ATOM     56  N   UNL A   1      41.602  29.277  32.251  1.00  0.00    -0.354 N 
ATOM     57  N   UNL A   1      41.193  31.040  34.575  1.00  0.00    -0.248 NA
ATOM     58  C   UNL A   1      41.773  31.718  36.732  1.00  0.00     0.031 C 
ATOM     59  C   UNL A   1      43.312  27.860  32.299  1.00  0.00     0.029 A 
ATOM     60  C   UNL A   1      42.661  28.840  33.031  1.00  0.00     0.049 A 
ATOM     61  H   UNL A   1      40.955  29.970  32.514  1.00  0.00     0.167 HD
ATOM     62  C   UNL A   1      42.302  30.318  34.994  1.00  0.00     0.074 A 
ATOM     63  C   UNL A   1      42.638  30.803  36.316  1.00  0.00     0.031 C 
ATOM     64  C   UNL A   1      42.981  29.341  34.345  1.00  0.00     0.037 A 
BRANCH  51  65
ATOM     65  C   UNL A   1      40.684  27.910  28.786  1.00  0.00     0.064 A 
ATOM     66  C   UNL A   1      39.966  26.706  28.689  1.00  0.00     0.173 A 
ATOM     67  C   UNL A   1      41.459  28.298  27.682  1.00  0.00     0.173 A 
ATOM     68  F   UNL A   1      39.219  26.281  29.720  1.00  0.00    -0.203 F 
ATOM     69  C   UNL A   1      40.049  25.910  27.550  1.00  0.00     0.198 A 
ATOM     70  C   UNL A   1      41.511  27.516  26.530  1.00  0.00     0.198 A 
ATOM     71  F   UNL A   1      42.161  29.440  27.717  1.00  0.00    -0.203 F 
ATOM     72  F   UNL A   1      39.398  24.739  27.505  1.00  0.00    -0.200 F 
ATOM     73  C   UNL A   1      40.814  26.319  26.469  1.00  0.00     0.200 A 
ATOM     74  F   UNL A   1      42.241  27.919  25.481  1.00  0.00    -0.200 F 
ATOM     75  F   UNL A   1      40.886  25.555  25.370  1.00  0.00    -0.200 F 
ENDBRANCH  51  65
BRANCH  52  76
ATOM     76  C   UNL A   1      39.641  33.726  36.862  1.00  0.00     0.064 A 
ATOM     77  C   UNL A   1      38.838  33.300  37.929  1.00  0.00     0.173 A 
ATOM     78  C   UNL A   1      40.280  34.970  36.984  1.00  0.00     0.173 A 
ATOM     79  F   UNL A   1      38.192  32.127  37.854  1.00  0.00    -0.203 F 
ATOM     80  C   UNL A   1      38.661  34.094  39.060  1.00  0.00     0.198 A 
ATOM     81  C   UNL A   1      40.127  35.749  38.129  1.00  0.00     0.198 A 
ATOM     82  F   UNL A   1      41.065  35.422  35.995  1.00  0.00    -0.203 F 
ATOM     83  F   UNL A   1      37.849  33.683  40.044  1.00  0.00    -0.200 F 
ATOM     84  C   UNL A   1      39.310  35.315  39.162  1.00  0.00     0.200 A 
ATOM     85  F   UNL A   1      40.770  36.920  38.231  1.00  0.00    -0.200 F 
ATOM     86  F   UNL A   1      39.144  36.076  40.252  1.00  0.00    -0.200 F 
ENDBRANCH  52  76
BRANCH  64  87
ATOM     87  C   UNL A   1      44.175  28.755  35.041  1.00  0.00     0.064 A 
ATOM     88  C   UNL A   1      45.458  29.302  34.893  1.00  0.00     0.173 A 
ATOM     89  C   UNL A   1      44.025  27.652  35.896  1.00  0.00     0.173 A 
ATOM     90  F   UNL A   1      45.656  30.347  34.076  1.00  0.00    -0.203 F 
ATOM     91  C   UNL A   1      46.551  28.750  35.554  1.00  0.00     0.198 A 
ATOM     92  C   UNL A   1      45.115  27.124  36.583  1.00  0.00     0.198 A 
ATOM     93  F   UNL A   1      42.818  27.095  36.078  1.00  0.00    -0.203 F 
ATOM     94  F   UNL A   1      47.777  29.257  35.358  1.00  0.00    -0.200 F 
ATOM     95  C   UNL A   1      46.377  27.668  36.404  1.00  0.00     0.200 A 
ATOM     96  F   UNL A   1      44.942  26.089  37.416  1.00  0.00    -0.200 F 
ATOM     97  F   UNL A   1      47.431  27.143  37.047  1.00  0.00    -0.200 F 
ENDBRANCH  64  87
ENDBRANCH  38  39
ENDBRANCH  30  33
ENDBRANCH  28  29
ENDBRANCH  27  28
ENDBRANCH   1  27
TORSDOF 13
ENDMDL
MODEL 3
REMARK VINA RESULT:     -13.0      5.306     10.944
REMARK SMILES [NH3+][C@H]1C=C[C@H](C(=O)N2CCCc3c(C(=O)NCCCNC(=O)c4ccc(-c5c6nc(c(-c7c(F)c(F)c(F)c(F)c7F)c7ccc([nH]7)c(-c7c(F)c(F)c(F)c(F)c7F)c7nc(c(-c8c(F)c(F)c(F)c(F)c8F)c8ccc5[nH]8)C=C7)C=C6)cc4)cccc32)C1
REMARK SMILES IDX 17 1 16 2 14 3 15 4 13 6 8 7 9 8 89 9 10 10 12 11 88 12
REMARK SMILES IDX 11 13 87 14 86 15 6 16 7 17 5 18 2 19 3 20 90 21 4 22 1 23
REMARK SMILES IDX 18 27 19 28 20 29 21 30 22 32 23 33 24 34 85 35 25 36 84 37
REMARK SMILES IDX 26 38 27 39 28 40 78 41 29 42 83 43 77 44 79 45 30 46 82 47
REMARK SMILES IDX 76 48 75 49 31 51 63 52 43 53 62 54 44 55 47 56 61 57 80 58
REMARK SMILES IDX 45 59 46 60 60 62 81 63 48 64 32 65 33 66 41 67 34 68 35 69
REMARK SMILES IDX 39 70 42 71 36 72 37 73 40 74 38 75 64 76 65 77 73 78 66 79
REMARK SMILES IDX 67 80 71 81 74 82 68 83 69 84 72 85 70 86 49 87 50 88 58 89
REMARK SMILES IDX 51 90 52 91 56 92 59 93 53 94 54 95 57 96 55 97
REMARK H PARENT 16 5 1 24 1 25 1 26 20 31 79 50 47 61
REMARK Flexibility Score: inf
ROOT
ATOM      1  C   UNL A   1      36.661  20.503  24.936  1.00  0.00     0.118 C 
ENDROOT
BRANCH   1   2
ATOM      2  N   UNL A   1      35.448  19.713  24.875  1.00  0.00    -0.352 N 
ATOM      3  C   UNL A   1      34.119  19.862  25.161  1.00  0.00     0.251 C 
ATOM      4  O   UNL A   1      33.463  18.843  24.896  1.00  0.00    -0.269 OA
ATOM      5  H   UNL A   1      35.633  18.811  24.529  1.00  0.00     0.163 HD
BRANCH   3   6
ATOM      6  C   UNL A   1      33.357  21.054  25.698  1.00  0.00     0.045 A 
ATOM      7  N   UNL A   1      31.214  24.137  25.110  1.00  0.00    -0.312 N 
ATOM      8  C   UNL A   1      30.738  23.839  23.769  1.00  0.00     0.126 C 
ATOM      9  C   UNL A   1      32.067  23.164  25.751  1.00  0.00     0.048 A 
ATOM     10  C   UNL A   1      31.844  23.273  22.917  1.00  0.00     0.027 C 
ATOM     11  C   UNL A   1      32.585  22.044  25.031  1.00  0.00    -0.011 A 
ATOM     12  C   UNL A   1      32.364  23.302  27.113  1.00  0.00     0.027 A 
ATOM     13  C   UNL A   1      32.340  21.995  23.558  1.00  0.00     0.040 C 
ATOM     14  C   UNL A   1      33.127  22.353  27.774  1.00  0.00     0.003 A 
ATOM     15  C   UNL A   1      33.598  21.245  27.079  1.00  0.00     0.014 A 
BRANCH   7  16
ATOM     16  C   UNL A   1      30.985  25.390  25.673  1.00  0.00     0.234 C 
ATOM     17  O   UNL A   1      30.090  25.581  26.505  1.00  0.00    -0.274 OA
BRANCH  16  18
ATOM     18  C   UNL A   1      31.852  26.588  25.241  1.00  0.00     0.108 C 
ATOM     19  C   UNL A   1      32.585  27.092  22.950  1.00  0.00     0.205 C 
ATOM     20  C   UNL A   1      33.698  26.558  23.786  1.00  0.00     0.033 C 
ATOM     21  C   UNL A   1      31.478  27.381  23.981  1.00  0.00     0.087 C 
ATOM     22  C   UNL A   1      33.294  26.248  25.023  1.00  0.00    -0.012 C 
BRANCH  19  23
ATOM     23  N   UNL A   1      32.976  28.260  22.190  1.00  0.00    -0.352 N 
ATOM     24  H   UNL A   1      33.645  27.987  21.469  1.00  0.00     0.345 HD
ATOM     25  H   UNL A   1      33.407  28.943  22.813  1.00  0.00     0.345 HD
ATOM     26  H   UNL A   1      32.153  28.672  21.750  1.00  0.00     0.345 HD
ENDBRANCH  19  23
ENDBRANCH  16  18
ENDBRANCH   7  16
ENDBRANCH   3   6
ENDBRANCH   1   2
BRANCH   1  27
ATOM     27  C   UNL A   1      37.894  19.600  24.988  1.00  0.00     0.042 C 
BRANCH  27  28
ATOM     28  C   UNL A   1      39.059  20.140  25.792  1.00  0.00     0.118 C 
BRANCH  28  29
ATOM     29  N   UNL A   1      40.141  19.177  25.903  1.00  0.00    -0.352 N 
ATOM     30  C   UNL A   1      41.488  19.379  26.080  1.00  0.00     0.251 C 
ATOM     31  H   UNL A   1      39.865  18.234  25.843  1.00  0.00     0.163 HD
ATOM     32  O   UNL A   1      42.257  18.432  25.936  1.00  0.00    -0.269 OA
BRANCH  30  33
ATOM     33  C   UNL A   1      42.027  20.719  26.415  1.00  0.00     0.039 A 
ATOM     34  C   UNL A   1      42.288  21.616  25.373  1.00  0.00     0.014 A 
ATOM     35  C   UNL A   1      42.314  21.093  27.730  1.00  0.00     0.014 A 
ATOM     36  C   UNL A   1      42.785  22.892  25.655  1.00  0.00     0.010 A 
ATOM     37  C   UNL A   1      42.706  22.396  28.019  1.00  0.00     0.010 A 
ATOM     38  C   UNL A   1      42.968  23.304  26.984  1.00  0.00    -0.014 A 
BRANCH  38  39
ATOM     39  C   UNL A   1      43.464  24.664  27.312  1.00  0.00     0.031 A 
ATOM     40  C   UNL A   1      42.524  25.687  27.889  1.00  0.00     0.074 A 
ATOM     41  C   UNL A   1      44.739  24.995  27.035  1.00  0.00     0.049 A 
ATOM     42  N   UNL A   1      42.739  26.947  28.175  1.00  0.00    -0.248 NA
ATOM     43  C   UNL A   1      41.144  25.245  28.152  1.00  0.00     0.031 C 
ATOM     44  C   UNL A   1      45.731  24.104  26.430  1.00  0.00     0.029 A 
ATOM     45  N   UNL A   1      45.420  26.173  27.216  1.00  0.00    -0.354 N 
ATOM     46  C   UNL A   1      41.525  27.445  28.630  1.00  0.00     0.074 A 
ATOM     47  C   UNL A   1      40.560  26.374  28.525  1.00  0.00     0.031 C 
ATOM     48  C   UNL A   1      46.898  24.758  26.316  1.00  0.00     0.029 A 
ATOM     49  C   UNL A   1      46.727  26.125  26.797  1.00  0.00     0.049 A 
ATOM     50  H   UNL A   1      45.009  26.977  27.610  1.00  0.00     0.167 HD
ATOM     51  C   UNL A   1      41.247  28.678  29.116  1.00  0.00     0.037 A 
ATOM     52  C   UNL A   1      47.676  27.079  26.794  1.00  0.00     0.037 A 
ATOM     53  C   UNL A   1      42.220  29.731  29.243  1.00  0.00     0.049 A 
ATOM     54  C   UNL A   1      47.339  28.443  27.334  1.00  0.00     0.074 A 
ATOM     55  C   UNL A   1      42.059  30.995  29.780  1.00  0.00     0.029 A 
ATOM     56  N   UNL A   1      43.538  29.638  28.823  1.00  0.00    -0.354 N 
ATOM     57  N   UNL A   1      46.206  28.882  27.828  1.00  0.00    -0.248 NA
ATOM     58  C   UNL A   1      48.415  29.443  27.323  1.00  0.00     0.031 C 
ATOM     59  C   UNL A   1      43.266  31.686  29.637  1.00  0.00     0.029 A 
ATOM     60  C   UNL A   1      44.196  30.834  29.064  1.00  0.00     0.049 A 
ATOM     61  H   UNL A   1      43.947  28.842  28.412  1.00  0.00     0.167 HD
ATOM     62  C   UNL A   1      46.439  30.196  28.211  1.00  0.00     0.074 A 
ATOM     63  C   UNL A   1      47.827  30.477  27.909  1.00  0.00     0.031 C 
ATOM     64  C   UNL A   1      45.582  31.090  28.761  1.00  0.00     0.037 A 
BRANCH  51  65
ATOM     65  C   UNL A   1      39.835  28.953  29.551  1.00  0.00     0.064 A 
ATOM     66  C   UNL A   1      38.864  29.431  28.655  1.00  0.00     0.173 A 
ATOM     67  C   UNL A   1      39.435  28.707  30.874  1.00  0.00     0.173 A 
ATOM     68  F   UNL A   1      39.194  29.694  27.381  1.00  0.00    -0.203 F 
ATOM     69  C   UNL A   1      37.561  29.683  29.074  1.00  0.00     0.198 A 
ATOM     70  C   UNL A   1      38.122  28.928  31.281  1.00  0.00     0.198 A 
ATOM     71  F   UNL A   1      40.319  28.246  31.772  1.00  0.00    -0.203 F 
ATOM     72  F   UNL A   1      36.669  30.191  28.212  1.00  0.00    -0.200 F 
ATOM     73  C   UNL A   1      37.189  29.423  30.384  1.00  0.00     0.200 A 
ATOM     74  F   UNL A   1      37.760  28.664  32.545  1.00  0.00    -0.200 F 
ATOM     75  F   UNL A   1      35.931  29.660  30.784  1.00  0.00    -0.200 F 
ENDBRANCH  51  65
BRANCH  52  76
ATOM     76  C   UNL A   1      49.039  26.773  26.284  1.00  0.00     0.064 A 
ATOM     77  C   UNL A   1      49.383  27.029  24.949  1.00  0.00     0.173 A 
ATOM     78  C   UNL A   1      50.024  26.220  27.117  1.00  0.00     0.173 A 
ATOM     79  F   UNL A   1      48.472  27.541  24.109  1.00  0.00    -0.203 F 
ATOM     80  C   UNL A   1      50.651  26.722  24.461  1.00  0.00     0.198 A 
ATOM     81  C   UNL A   1      51.301  25.942  26.634  1.00  0.00     0.198 A 
ATOM     82  F   UNL A   1      49.749  25.962  28.403  1.00  0.00    -0.203 F 
ATOM     83  F   UNL A   1      50.938  26.932  23.168  1.00  0.00    -0.200 F 
ATOM     84  C   UNL A   1      51.612  26.184  25.305  1.00  0.00     0.200 A 
ATOM     85  F   UNL A   1      52.231  25.439  27.457  1.00  0.00    -0.200 F 
ATOM     86  F   UNL A   1      52.833  25.894  24.836  1.00  0.00    -0.200 F 
ENDBRANCH  52  76
BRANCH  64  87
ATOM     87  C   UNL A   1      46.129  32.446  29.103  1.00  0.00     0.064 A 
ATOM     88  C   UNL A   1      46.734  32.707  30.341  1.00  0.00     0.173 A 
ATOM     89  C   UNL A   1      46.080  33.487  28.163  1.00  0.00     0.173 A 
ATOM     90  F   UNL A   1      46.793  31.749  31.279  1.00  0.00    -0.203 F 
ATOM     91  C   UNL A   1      47.244  33.967  30.636  1.00  0.00     0.198 A 
ATOM     92  C   UNL A   1      46.622  34.737  28.449  1.00  0.00     0.198 A 
ATOM     93  F   UNL A   1      45.519  33.288  26.961  1.00  0.00    -0.203 F 
ATOM     94  F   UNL A   1      47.771  34.209  31.845  1.00  0.00    -0.200 F 
ATOM     95  C   UNL A   1      47.196  34.978  29.688  1.00  0.00     0.200 A 
ATOM     96  F   UNL A   1      46.589  35.707  27.525  1.00  0.00    -0.200 F 
ATOM     97  F   UNL A   1      47.696  36.189  29.971  1.00  0.00    -0.200 F 
ENDBRANCH  64  87
ENDBRANCH  38  39
ENDBRANCH  30  33
ENDBRANCH  28  29
ENDBRANCH  27  28
ENDBRANCH   1  27
TORSDOF 13
ENDMDL
