MODEL 1
REMARK VINA RESULT:     -11.8      0.000      0.000
REMARK SMILES CC[C@@H]1CCC[C@@H](Oc2cncc(C(=O)NCCCNC(=O)c3ccc(-c4c5nc(c(-c6c(F)c(F)c(F)c(F)c6F)c6ccc([nH]6)c(-c6c(F)c(F)c(F)c(F)c6F)c6nc(c(-c7c(F)c(F)c(F)c(F)c7F)c7ccc4[nH]7)C=C6)C=C5)cc3)n2)C1
REMARK SMILES IDX 17 1 16 2 14 3 15 4 13 6 9 7 10 8 86 9 11 10 12 11 8 12 7 13
REMARK SMILES IDX 3 14 4 15 87 16 5 17 6 18 2 19 1 20 18 21 19 22 20 23 21 24
REMARK SMILES IDX 22 26 23 27 24 28 85 29 25 30 84 31 26 32 27 33 28 34 78 35
REMARK SMILES IDX 29 36 83 37 77 38 79 39 30 40 82 41 76 42 75 43 31 45 63 46
REMARK SMILES IDX 43 47 62 48 44 49 47 50 61 51 80 52 45 53 46 54 60 56 81 57
REMARK SMILES IDX 48 58 32 59 33 60 41 61 34 62 35 63 39 64 42 65 36 66 37 67
REMARK SMILES IDX 40 68 38 69 64 70 65 71 73 72 66 73 67 74 71 75 74 76 68 77
REMARK SMILES IDX 69 78 72 79 70 80 49 81 50 82 58 83 51 84 52 85 56 86 59 87
REMARK SMILES IDX 53 88 54 89 57 90 55 91
REMARK H PARENT 16 5 20 25 79 44 47 55
REMARK Flexibility Score: inf
ROOT
ATOM      1  C   UNL A   1      35.151  34.782  28.506  1.00  0.00     0.118 C 
ENDROOT
BRANCH   1   2
ATOM      2  N   UNL A   1      33.883  35.462  28.301  1.00  0.00    -0.351 N 
ATOM      3  C   UNL A   1      32.988  35.988  29.199  1.00  0.00     0.271 C 
ATOM      4  O   UNL A   1      31.937  36.450  28.750  1.00  0.00    -0.267 OA
ATOM      5  H   UNL A   1      33.622  35.562  27.357  1.00  0.00     0.163 HD
BRANCH   3   6
ATOM      6  C   UNL A   1      33.241  36.042  30.665  1.00  0.00     0.150 A 
ATOM      7  C   UNL A   1      33.752  35.009  32.676  1.00  0.00     0.233 A 
ATOM      8  C   UNL A   1      33.775  36.262  33.258  1.00  0.00     0.179 A 
ATOM      9  N   UNL A   1      33.456  34.896  31.361  1.00  0.00    -0.205 NA
ATOM     10  N   UNL A   1      33.546  37.424  32.589  1.00  0.00    -0.257 NA
ATOM     11  C   UNL A   1      33.282  37.284  31.274  1.00  0.00     0.145 A 
BRANCH   7  12
ATOM     12  O   UNL A   1      33.949  33.804  33.246  1.00  0.00    -0.473 OA
BRANCH  12  13
ATOM     13  C   UNL A   1      35.168  33.091  33.463  1.00  0.00     0.175 C 
ATOM     14  C   UNL A   1      36.893  33.535  31.615  1.00  0.00    -0.008 C 
ATOM     15  C   UNL A   1      37.835  34.134  32.680  1.00  0.00     0.004 C 
ATOM     16  C   UNL A   1      35.896  32.553  32.229  1.00  0.00     0.048 C 
ATOM     17  C   UNL A   1      37.205  34.574  34.005  1.00  0.00     0.004 C 
ATOM     18  C   UNL A   1      36.097  33.670  34.526  1.00  0.00     0.045 C 
BRANCH  14  19
ATOM     19  C   UNL A   1      37.737  32.930  30.470  1.00  0.00     0.000 C 
ATOM     20  C   UNL A   1      38.532  33.939  29.653  1.00  0.00     0.004 C 
ENDBRANCH  14  19
ENDBRANCH  12  13
ENDBRANCH   7  12
ENDBRANCH   3   6
ENDBRANCH   1   2
BRANCH   1  21
ATOM     21  C   UNL A   1      35.103  33.345  27.991  1.00  0.00     0.042 C 
BRANCH  21  22
ATOM     22  C   UNL A   1      34.507  32.362  28.999  1.00  0.00     0.118 C 
BRANCH  22  23
ATOM     23  N   UNL A   1      33.998  31.152  28.363  1.00  0.00    -0.352 N 
ATOM     24  C   UNL A   1      34.654  30.031  27.927  1.00  0.00     0.251 C 
ATOM     25  H   UNL A   1      33.024  31.139  28.223  1.00  0.00     0.163 HD
ATOM     26  O   UNL A   1      34.078  29.224  27.205  1.00  0.00    -0.269 OA
BRANCH  24  27
ATOM     27  C   UNL A   1      36.057  29.794  28.320  1.00  0.00     0.039 A 
ATOM     28  C   UNL A   1      36.325  29.303  29.600  1.00  0.00     0.014 A 
ATOM     29  C   UNL A   1      37.103  30.084  27.441  1.00  0.00     0.014 A 
ATOM     30  C   UNL A   1      37.642  29.036  29.974  1.00  0.00     0.010 A 
ATOM     31  C   UNL A   1      38.408  29.751  27.788  1.00  0.00     0.010 A 
ATOM     32  C   UNL A   1      38.688  29.219  29.055  1.00  0.00    -0.014 A 
BRANCH  32  33
ATOM     33  C   UNL A   1      40.079  28.827  29.390  1.00  0.00     0.031 A 
ATOM     34  C   UNL A   1      40.963  29.756  30.169  1.00  0.00     0.074 A 
ATOM     35  C   UNL A   1      40.562  27.663  28.916  1.00  0.00     0.049 A 
ATOM     36  N   UNL A   1      42.228  29.624  30.483  1.00  0.00    -0.248 NA
ATOM     37  C   UNL A   1      40.355  31.012  30.635  1.00  0.00     0.031 C 
ATOM     38  C   UNL A   1      39.810  26.703  28.105  1.00  0.00     0.029 A 
ATOM     39  N   UNL A   1      41.805  27.094  29.034  1.00  0.00    -0.354 N 
ATOM     40  C   UNL A   1      42.567  30.781  31.172  1.00  0.00     0.074 A 
ATOM     41  C   UNL A   1      41.393  31.626  31.187  1.00  0.00     0.031 C 
ATOM     42  C   UNL A   1      40.600  25.658  27.814  1.00  0.00     0.029 A 
ATOM     43  C   UNL A   1      41.923  25.893  28.381  1.00  0.00     0.049 A 
ATOM     44  H   UNL A   1      42.542  27.509  29.539  1.00  0.00     0.167 HD
ATOM     45  C   UNL A   1      43.748  31.098  31.755  1.00  0.00     0.037 A 
ATOM     46  C   UNL A   1      42.986  25.078  28.242  1.00  0.00     0.037 A 
ATOM     47  C   UNL A   1      44.907  30.244  31.749  1.00  0.00     0.049 A 
ATOM     48  C   UNL A   1      44.289  25.461  28.888  1.00  0.00     0.074 A 
ATOM     49  C   UNL A   1      46.130  30.444  32.364  1.00  0.00     0.029 A 
ATOM     50  N   UNL A   1      44.987  29.027  31.087  1.00  0.00    -0.354 N 
ATOM     51  N   UNL A   1      44.579  26.524  29.599  1.00  0.00    -0.248 NA
ATOM     52  C   UNL A   1      45.412  24.529  28.716  1.00  0.00     0.031 C 
ATOM     53  C   UNL A   1      46.966  29.372  32.035  1.00  0.00     0.029 A 
ATOM     54  C   UNL A   1      46.249  28.478  31.257  1.00  0.00     0.049 A 
ATOM     55  H   UNL A   1      44.256  28.614  30.574  1.00  0.00     0.167 HD
ATOM     56  C   UNL A   1      45.906  26.379  29.978  1.00  0.00     0.074 A 
ATOM     57  C   UNL A   1      46.359  25.115  29.434  1.00  0.00     0.031 C 
ATOM     58  C   UNL A   1      46.681  27.218  30.706  1.00  0.00     0.037 A 
BRANCH  45  59
ATOM     59  C   UNL A   1      43.847  32.424  32.451  1.00  0.00     0.064 A 
ATOM     60  C   UNL A   1      44.260  33.583  31.774  1.00  0.00     0.173 A 
ATOM     61  C   UNL A   1      43.481  32.550  33.800  1.00  0.00     0.173 A 
ATOM     62  F   UNL A   1      44.630  33.515  30.486  1.00  0.00    -0.203 F 
ATOM     63  C   UNL A   1      44.330  34.810  32.428  1.00  0.00     0.198 A 
ATOM     64  C   UNL A   1      43.523  33.785  34.443  1.00  0.00     0.198 A 
ATOM     65  F   UNL A   1      43.072  31.476  34.493  1.00  0.00    -0.203 F 
ATOM     66  F   UNL A   1      44.771  35.892  31.774  1.00  0.00    -0.200 F 
ATOM     67  C   UNL A   1      43.954  34.911  33.760  1.00  0.00     0.200 A 
ATOM     68  F   UNL A   1      43.147  33.884  35.725  1.00  0.00    -0.200 F 
ATOM     69  F   UNL A   1      44.013  36.095  34.386  1.00  0.00    -0.200 F 
ENDBRANCH  45  59
BRANCH  46  70
ATOM     70  C   UNL A   1      42.856  23.812  27.475  1.00  0.00     0.064 A 
ATOM     71  C   UNL A   1      42.381  22.644  28.087  1.00  0.00     0.173 A 
ATOM     72  C   UNL A   1      43.202  23.742  26.118  1.00  0.00     0.173 A 
ATOM     73  F   UNL A   1      42.055  22.657  29.388  1.00  0.00    -0.203 F 
ATOM     74  C   UNL A   1      42.276  21.450  27.378  1.00  0.00     0.198 A 
ATOM     75  C   UNL A   1      43.070  22.555  25.400  1.00  0.00     0.198 A 
ATOM     76  F   UNL A   1      43.656  24.832  25.482  1.00  0.00    -0.203 F 
ATOM     77  F   UNL A   1      41.863  20.338  28.000  1.00  0.00    -0.200 F 
ATOM     78  C   UNL A   1      42.615  21.408  26.034  1.00  0.00     0.200 A 
ATOM     79  F   UNL A   1      43.383  22.521  24.099  1.00  0.00    -0.200 F 
ATOM     80  F   UNL A   1      42.510  20.259  25.350  1.00  0.00    -0.200 F 
ENDBRANCH  46  70
BRANCH  58  81
ATOM     81  C   UNL A   1      48.093  26.784  30.978  1.00  0.00     0.064 A 
ATOM     82  C   UNL A   1      49.160  27.210  30.174  1.00  0.00     0.173 A 
ATOM     83  C   UNL A   1      48.384  25.957  32.074  1.00  0.00     0.173 A 
ATOM     84  F   UNL A   1      48.931  27.987  29.105  1.00  0.00    -0.203 F 
ATOM     85  C   UNL A   1      50.464  26.803  30.442  1.00  0.00     0.198 A 
ATOM     86  C   UNL A   1      49.693  25.577  32.357  1.00  0.00     0.198 A 
ATOM     87  F   UNL A   1      47.400  25.526  32.877  1.00  0.00    -0.203 F 
ATOM     88  F   UNL A   1      51.462  27.182  29.631  1.00  0.00    -0.200 F 
ATOM     89  C   UNL A   1      50.730  25.994  31.536  1.00  0.00     0.200 A 
ATOM     90  F   UNL A   1      49.950  24.807  33.423  1.00  0.00    -0.200 F 
ATOM     91  F   UNL A   1      51.987  25.608  31.795  1.00  0.00    -0.200 F 
ENDBRANCH  58  81
ENDBRANCH  32  33
ENDBRANCH  24  27
ENDBRANCH  22  23
ENDBRANCH  21  22
ENDBRANCH   1  21
TORSDOF 13
ENDMDL
MODEL 2
REMARK VINA RESULT:     -11.7      0.140      1.616
REMARK SMILES CC[C@@H]1CCC[C@@H](Oc2cncc(C(=O)NCCCNC(=O)c3ccc(-c4c5nc(c(-c6c(F)c(F)c(F)c(F)c6F)c6ccc([nH]6)c(-c6c(F)c(F)c(F)c(F)c6F)c6nc(c(-c7c(F)c(F)c(F)c(F)c7F)c7ccc4[nH]7)C=C6)C=C5)cc3)n2)C1
REMARK SMILES IDX 17 1 16 2 14 3 15 4 13 6 9 7 10 8 86 9 11 10 12 11 8 12 7 13
REMARK SMILES IDX 3 14 4 15 87 16 5 17 6 18 2 19 1 20 18 21 19 22 20 23 21 24
REMARK SMILES IDX 22 26 23 27 24 28 85 29 25 30 84 31 26 32 27 33 28 34 78 35
REMARK SMILES IDX 29 36 83 37 77 38 79 39 30 40 82 41 76 42 75 43 31 45 63 46
REMARK SMILES IDX 43 47 62 48 44 49 47 50 61 51 80 52 45 53 46 54 60 56 81 57
REMARK SMILES IDX 48 58 32 59 33 60 41 61 34 62 35 63 39 64 42 65 36 66 37 67
REMARK SMILES IDX 40 68 38 69 64 70 65 71 73 72 66 73 67 74 71 75 74 76 68 77
REMARK SMILES IDX 69 78 72 79 70 80 49 81 50 82 58 83 51 84 52 85 56 86 59 87
REMARK SMILES IDX 53 88 54 89 57 90 55 91
REMARK H PARENT 16 5 20 25 79 44 47 55
REMARK Flexibility Score: inf
ROOT
ATOM      1  C   UNL A   1      35.186  34.708  28.493  1.00  0.00     0.118 C 
ENDROOT
BRANCH   1   2
ATOM      2  N   UNL A   1      33.925  35.406  28.312  1.00  0.00    -0.351 N 
ATOM      3  C   UNL A   1      33.051  35.940  29.227  1.00  0.00     0.271 C 
ATOM      4  O   UNL A   1      32.000  36.419  28.797  1.00  0.00    -0.267 OA
ATOM      5  H   UNL A   1      33.650  35.515  27.373  1.00  0.00     0.163 HD
BRANCH   3   6
ATOM      6  C   UNL A   1      33.328  35.982  30.689  1.00  0.00     0.150 A 
ATOM      7  C   UNL A   1      33.900  34.938  32.678  1.00  0.00     0.233 A 
ATOM      8  C   UNL A   1      33.901  36.184  33.276  1.00  0.00     0.179 A 
ATOM      9  N   UNL A   1      33.585  34.833  31.366  1.00  0.00    -0.205 NA
ATOM     10  N   UNL A   1      33.631  37.347  32.626  1.00  0.00    -0.257 NA
ATOM     11  C   UNL A   1      33.347  37.217  31.313  1.00  0.00     0.145 A 
BRANCH   7  12
ATOM     12  O   UNL A   1      34.138  33.731  33.229  1.00  0.00    -0.473 OA
BRANCH  12  13
ATOM     13  C   UNL A   1      35.378  33.041  33.402  1.00  0.00     0.175 C 
ATOM     14  C   UNL A   1      37.049  33.566  31.527  1.00  0.00    -0.008 C 
ATOM     15  C   UNL A   1      38.003  34.161  32.585  1.00  0.00     0.004 C 
ATOM     16  C   UNL A   1      36.089  32.548  32.139  1.00  0.00     0.048 C 
ATOM     17  C   UNL A   1      37.393  34.556  33.934  1.00  0.00     0.004 C 
ATOM     18  C   UNL A   1      36.317  33.616  34.457  1.00  0.00     0.045 C 
BRANCH  14  19
ATOM     19  C   UNL A   1      37.880  33.007  30.350  1.00  0.00     0.000 C 
ATOM     20  C   UNL A   1      38.650  34.050  29.551  1.00  0.00     0.004 C 
ENDBRANCH  14  19
ENDBRANCH  12  13
ENDBRANCH   7  12
ENDBRANCH   3   6
ENDBRANCH   1   2
BRANCH   1  21
ATOM     21  C   UNL A   1      35.113  33.277  27.966  1.00  0.00     0.042 C 
BRANCH  21  22
ATOM     22  C   UNL A   1      34.552  32.286  28.987  1.00  0.00     0.118 C 
BRANCH  22  23
ATOM     23  N   UNL A   1      34.052  31.066  28.362  1.00  0.00    -0.352 N 
ATOM     24  C   UNL A   1      34.718  29.949  27.930  1.00  0.00     0.251 C 
ATOM     25  H   UNL A   1      33.077  31.041  28.228  1.00  0.00     0.163 HD
ATOM     26  O   UNL A   1      34.147  29.131  27.218  1.00  0.00    -0.269 OA
BRANCH  24  27
ATOM     27  C   UNL A   1      36.125  29.730  28.316  1.00  0.00     0.039 A 
ATOM     28  C   UNL A   1      36.407  29.257  29.600  1.00  0.00     0.014 A 
ATOM     29  C   UNL A   1      37.163  30.018  27.427  1.00  0.00     0.014 A 
ATOM     30  C   UNL A   1      37.729  29.007  29.969  1.00  0.00     0.010 A 
ATOM     31  C   UNL A   1      38.474  29.702  27.769  1.00  0.00     0.010 A 
ATOM     32  C   UNL A   1      38.767  29.188  29.041  1.00  0.00    -0.014 A 
BRANCH  32  33
ATOM     33  C   UNL A   1      40.164  28.814  29.370  1.00  0.00     0.031 A 
ATOM     34  C   UNL A   1      41.038  29.751  30.151  1.00  0.00     0.074 A 
ATOM     35  C   UNL A   1      40.661  27.658  28.891  1.00  0.00     0.049 A 
ATOM     36  N   UNL A   1      42.305  29.635  30.461  1.00  0.00    -0.248 NA
ATOM     37  C   UNL A   1      40.414  30.998  30.623  1.00  0.00     0.031 C 
ATOM     38  C   UNL A   1      39.919  26.691  28.078  1.00  0.00     0.029 A 
ATOM     39  N   UNL A   1      41.912  27.105  29.004  1.00  0.00    -0.354 N 
ATOM     40  C   UNL A   1      42.631  30.793  31.154  1.00  0.00     0.074 A 
ATOM     41  C   UNL A   1      41.445  31.623  31.174  1.00  0.00     0.031 C 
ATOM     42  C   UNL A   1      40.722  25.658  27.781  1.00  0.00     0.029 A 
ATOM     43  C   UNL A   1      42.044  25.907  28.346  1.00  0.00     0.049 A 
ATOM     44  H   UNL A   1      42.644  27.527  29.508  1.00  0.00     0.167 HD
ATOM     45  C   UNL A   1      43.809  31.124  31.735  1.00  0.00     0.037 A 
ATOM     46  C   UNL A   1      43.117  25.107  28.202  1.00  0.00     0.037 A 
ATOM     47  C   UNL A   1      44.979  30.286  31.723  1.00  0.00     0.049 A 
ATOM     48  C   UNL A   1      44.416  25.505  28.846  1.00  0.00     0.074 A 
ATOM     49  C   UNL A   1      46.201  30.499  32.336  1.00  0.00     0.029 A 
ATOM     50  N   UNL A   1      45.073  29.071  31.057  1.00  0.00    -0.354 N 
ATOM     51  N   UNL A   1      44.694  26.569  29.561  1.00  0.00    -0.248 NA
ATOM     52  C   UNL A   1      45.551  24.589  28.668  1.00  0.00     0.031 C 
ATOM     53  C   UNL A   1      47.050  29.440  32.001  1.00  0.00     0.029 A 
ATOM     54  C   UNL A   1      46.342  28.539  31.221  1.00  0.00     0.049 A 
ATOM     55  H   UNL A   1      44.346  28.651  30.543  1.00  0.00     0.167 HD
ATOM     56  C   UNL A   1      46.024  26.440  29.935  1.00  0.00     0.074 A 
ATOM     57  C   UNL A   1      46.492  25.184  29.386  1.00  0.00     0.031 C 
ATOM     58  C   UNL A   1      46.790  27.287  30.665  1.00  0.00     0.037 A 
BRANCH  45  59
ATOM     59  C   UNL A   1      43.892  32.449  32.436  1.00  0.00     0.064 A 
ATOM     60  C   UNL A   1      44.293  33.614  31.763  1.00  0.00     0.173 A 
ATOM     61  C   UNL A   1      43.523  32.566  33.785  1.00  0.00     0.173 A 
ATOM     62  F   UNL A   1      44.665  33.555  30.476  1.00  0.00    -0.203 F 
ATOM     63  C   UNL A   1      44.348  34.840  32.422  1.00  0.00     0.198 A 
ATOM     64  C   UNL A   1      43.550  33.799  34.432  1.00  0.00     0.198 A 
ATOM     65  F   UNL A   1      43.125  31.485  34.474  1.00  0.00    -0.203 F 
ATOM     66  F   UNL A   1      44.778  35.929  31.772  1.00  0.00    -0.200 F 
ATOM     67  C   UNL A   1      43.970  34.932  33.753  1.00  0.00     0.200 A 
ATOM     68  F   UNL A   1      43.171  33.890  35.714  1.00  0.00    -0.200 F 
ATOM     69  F   UNL A   1      44.014  36.114  34.383  1.00  0.00    -0.200 F 
ENDBRANCH  45  59
BRANCH  46  70
ATOM     70  C   UNL A   1      43.002  23.842  27.430  1.00  0.00     0.064 A 
ATOM     71  C   UNL A   1      43.381  23.785  26.082  1.00  0.00     0.173 A 
ATOM     72  C   UNL A   1      42.513  22.668  28.020  1.00  0.00     0.173 A 
ATOM     73  F   UNL A   1      43.838  24.887  25.468  1.00  0.00    -0.203 F 
ATOM     74  C   UNL A   1      43.256  22.608  25.348  1.00  0.00     0.198 A 
ATOM     75  C   UNL A   1      42.415  21.483  27.294  1.00  0.00     0.198 A 
ATOM     76  F   UNL A   1      42.142  22.668  29.309  1.00  0.00    -0.203 F 
ATOM     77  F   UNL A   1      43.583  22.593  24.048  1.00  0.00    -0.200 F 
ATOM     78  C   UNL A   1      42.779  21.456  25.956  1.00  0.00     0.200 A 
ATOM     79  F   UNL A   1      41.969  20.369  27.889  1.00  0.00    -0.200 F 
ATOM     80  F   UNL A   1      42.663  20.323  25.251  1.00  0.00    -0.200 F 
ENDBRANCH  46  70
BRANCH  58  81
ATOM     81  C   UNL A   1      48.208  26.870  30.932  1.00  0.00     0.064 A 
ATOM     82  C   UNL A   1      48.537  26.039  32.013  1.00  0.00     0.173 A 
ATOM     83  C   UNL A   1      49.243  27.282  30.079  1.00  0.00     0.173 A 
ATOM     84  F   UNL A   1      47.586  25.632  32.866  1.00  0.00    -0.203 F 
ATOM     85  C   UNL A   1      49.856  25.657  32.245  1.00  0.00     0.198 A 
ATOM     86  C   UNL A   1      50.555  26.872  30.296  1.00  0.00     0.198 A 
ATOM     87  F   UNL A   1      48.979  28.073  29.028  1.00  0.00    -0.203 F 
ATOM     88  F   UNL A   1      50.155  24.903  33.312  1.00  0.00    -0.200 F 
ATOM     89  C   UNL A   1      50.861  26.067  31.383  1.00  0.00     0.200 A 
ATOM     90  F   UNL A   1      51.524  27.258  29.454  1.00  0.00    -0.200 F 
ATOM     91  F   UNL A   1      52.129  25.693  31.605  1.00  0.00    -0.200 F 
ENDBRANCH  58  81
ENDBRANCH  32  33
ENDBRANCH  24  27
ENDBRANCH  22  23
ENDBRANCH  21  22
ENDBRANCH   1  21
TORSDOF 13
ENDMDL
MODEL 3
REMARK VINA RESULT:     -11.1      0.508      1.698
REMARK SMILES CC[C@@H]1CCC[C@@H](Oc2cncc(C(=O)NCCCNC(=O)c3ccc(-c4c5nc(c(-c6c(F)c(F)c(F)c(F)c6F)c6ccc([nH]6)c(-c6c(F)c(F)c(F)c(F)c6F)c6nc(c(-c7c(F)c(F)c(F)c(F)c7F)c7ccc4[nH]7)C=C6)C=C5)cc3)n2)C1
REMARK SMILES IDX 17 1 16 2 14 3 15 4 13 6 9 7 10 8 86 9 11 10 12 11 8 12 7 13
REMARK SMILES IDX 3 14 4 15 87 16 5 17 6 18 2 19 1 20 18 21 19 22 20 23 21 24
REMARK SMILES IDX 22 26 23 27 24 28 85 29 25 30 84 31 26 32 27 33 28 34 78 35
REMARK SMILES IDX 29 36 83 37 77 38 79 39 30 40 82 41 76 42 75 43 31 45 63 46
REMARK SMILES IDX 43 47 62 48 44 49 47 50 61 51 80 52 45 53 46 54 60 56 81 57
REMARK SMILES IDX 48 58 32 59 33 60 41 61 34 62 35 63 39 64 42 65 36 66 37 67
REMARK SMILES IDX 40 68 38 69 64 70 65 71 73 72 66 73 67 74 71 75 74 76 68 77
REMARK SMILES IDX 69 78 72 79 70 80 49 81 50 82 58 83 51 84 52 85 56 86 59 87
REMARK SMILES IDX 53 88 54 89 57 90 55 91
REMARK H PARENT 16 5 20 25 79 44 47 55
REMARK Flexibility Score: inf
ROOT
ATOM      1  C   UNL A   1      32.837  34.343  28.584  1.00  0.00     0.118 C 
ENDROOT
BRANCH   1   2
ATOM      2  N   UNL A   1      33.035  35.777  28.467  1.00  0.00    -0.351 N 
ATOM      3  C   UNL A   1      33.240  36.740  29.425  1.00  0.00     0.271 C 
ATOM      4  O   UNL A   1      33.302  37.912  29.049  1.00  0.00    -0.267 OA
ATOM      5  H   UNL A   1      33.019  36.117  27.543  1.00  0.00     0.163 HD
BRANCH   3   6
ATOM      6  C   UNL A   1      33.408  36.426  30.870  1.00  0.00     0.150 A 
ATOM      7  C   UNL A   1      33.825  34.926  32.588  1.00  0.00     0.233 A 
ATOM      8  C   UNL A   1      33.787  35.994  33.465  1.00  0.00     0.179 A 
ATOM      9  N   UNL A   1      33.608  35.144  31.270  1.00  0.00    -0.205 NA
ATOM     10  N   UNL A   1      33.571  37.285  33.094  1.00  0.00    -0.257 NA
ATOM     11  C   UNL A   1      33.386  37.477  31.771  1.00  0.00     0.145 A 
BRANCH   7  12
ATOM     12  O   UNL A   1      34.016  33.619  32.850  1.00  0.00    -0.473 OA
BRANCH  12  13
ATOM     13  C   UNL A   1      35.236  32.880  32.943  1.00  0.00     0.175 C 
ATOM     14  C   UNL A   1      36.933  33.585  31.151  1.00  0.00    -0.008 C 
ATOM     15  C   UNL A   1      37.894  34.021  32.278  1.00  0.00     0.004 C 
ATOM     16  C   UNL A   1      35.943  32.525  31.632  1.00  0.00     0.048 C 
ATOM     17  C   UNL A   1      37.286  34.266  33.662  1.00  0.00     0.004 C 
ATOM     18  C   UNL A   1      36.183  33.298  34.063  1.00  0.00     0.045 C 
BRANCH  14  19
ATOM     19  C   UNL A   1      37.758  33.150  29.918  1.00  0.00     0.000 C 
ATOM     20  C   UNL A   1      38.565  34.260  29.260  1.00  0.00     0.004 C 
ENDBRANCH  14  19
ENDBRANCH  12  13
ENDBRANCH   7  12
ENDBRANCH   3   6
ENDBRANCH   1   2
BRANCH   1  21
ATOM     21  C   UNL A   1      34.050  33.568  28.075  1.00  0.00     0.042 C 
BRANCH  21  22
ATOM     22  C   UNL A   1      34.324  32.287  28.864  1.00  0.00     0.118 C 
BRANCH  22  23
ATOM     23  N   UNL A   1      33.875  31.092  28.158  1.00  0.00    -0.352 N 
ATOM     24  C   UNL A   1      34.579  30.004  27.713  1.00  0.00     0.251 C 
ATOM     25  H   UNL A   1      32.909  31.062  27.970  1.00  0.00     0.163 HD
ATOM     26  O   UNL A   1      34.058  29.213  26.934  1.00  0.00    -0.269 OA
BRANCH  24  27
ATOM     27  C   UNL A   1      35.966  29.783  28.164  1.00  0.00     0.039 A 
ATOM     28  C   UNL A   1      36.189  29.357  29.476  1.00  0.00     0.014 A 
ATOM     29  C   UNL A   1      37.043  30.025  27.308  1.00  0.00     0.014 A 
ATOM     30  C   UNL A   1      37.492  29.106  29.908  1.00  0.00     0.010 A 
ATOM     31  C   UNL A   1      38.334  29.707  27.715  1.00  0.00     0.010 A 
ATOM     32  C   UNL A   1      38.569  29.239  29.017  1.00  0.00    -0.014 A 
BRANCH  32  33
ATOM     33  C   UNL A   1      39.946  28.861  29.417  1.00  0.00     0.031 A 
ATOM     34  C   UNL A   1      40.769  29.782  30.270  1.00  0.00     0.074 A 
ATOM     35  C   UNL A   1      40.476  27.719  28.939  1.00  0.00     0.049 A 
ATOM     36  N   UNL A   1      42.016  29.662  30.650  1.00  0.00    -0.248 NA
ATOM     37  C   UNL A   1      40.113  31.014  30.736  1.00  0.00     0.031 C 
ATOM     38  C   UNL A   1      39.787  26.771  28.060  1.00  0.00     0.029 A 
ATOM     39  N   UNL A   1      41.721  27.168  29.110  1.00  0.00    -0.354 N 
ATOM     40  C   UNL A   1      42.296  30.804  31.389  1.00  0.00     0.074 A 
ATOM     41  C   UNL A   1      41.107  31.628  31.362  1.00  0.00     0.031 C 
ATOM     42  C   UNL A   1      40.611  25.748  27.785  1.00  0.00     0.029 A 
ATOM     43  C   UNL A   1      41.896  25.988  28.431  1.00  0.00     0.049 A 
ATOM     44  H   UNL A   1      42.421  27.580  29.666  1.00  0.00     0.167 HD
ATOM     45  C   UNL A   1      43.437  31.124  32.046  1.00  0.00     0.037 A 
ATOM     46  C   UNL A   1      42.980  25.195  28.330  1.00  0.00     0.037 A 
ATOM     47  C   UNL A   1      44.610  30.290  32.081  1.00  0.00     0.049 A 
ATOM     48  C   UNL A   1      44.238  25.581  29.058  1.00  0.00     0.074 A 
ATOM     49  C   UNL A   1      45.793  30.492  32.769  1.00  0.00     0.029 A 
ATOM     50  N   UNL A   1      44.749  29.093  31.391  1.00  0.00    -0.354 N 
ATOM     51  N   UNL A   1      44.469  26.628  29.813  1.00  0.00    -0.248 NA
ATOM     52  C   UNL A   1      45.386  24.674  28.923  1.00  0.00     0.031 C 
ATOM     53  C   UNL A   1      46.665  29.444  32.457  1.00  0.00     0.029 A 
ATOM     54  C   UNL A   1      46.008  28.561  31.616  1.00  0.00     0.049 A 
ATOM     55  H   UNL A   1      44.054  28.683  30.826  1.00  0.00     0.167 HD
ATOM     56  C   UNL A   1      45.776  26.494  30.261  1.00  0.00     0.074 A 
ATOM     57  C   UNL A   1      46.281  25.254  29.709  1.00  0.00     0.031 C 
ATOM     58  C   UNL A   1      46.494  27.325  31.055  1.00  0.00     0.037 A 
BRANCH  45  59
ATOM     59  C   UNL A   1      43.473  32.431  32.783  1.00  0.00     0.064 A 
ATOM     60  C   UNL A   1      43.115  32.522  34.137  1.00  0.00     0.173 A 
ATOM     61  C   UNL A   1      43.913  33.599  32.142  1.00  0.00     0.173 A 
ATOM     62  F   UNL A   1      42.678  31.437  34.794  1.00  0.00    -0.203 F 
ATOM     63  C   UNL A   1      43.169  33.739  34.813  1.00  0.00     0.198 A 
ATOM     64  C   UNL A   1      43.995  34.808  32.829  1.00  0.00     0.198 A 
ATOM     65  F   UNL A   1      44.273  33.567  30.850  1.00  0.00    -0.203 F 
ATOM     66  F   UNL A   1      42.779  33.810  36.092  1.00  0.00    -0.200 F 
ATOM     67  C   UNL A   1      43.617  34.878  34.161  1.00  0.00     0.200 A 
ATOM     68  F   UNL A   1      44.441  35.905  32.202  1.00  0.00    -0.200 F 
ATOM     69  F   UNL A   1      43.678  36.046  34.816  1.00  0.00    -0.200 F 
ENDBRANCH  45  59
BRANCH  46  70
ATOM     70  C   UNL A   1      42.916  23.950  27.521  1.00  0.00     0.064 A 
ATOM     71  C   UNL A   1      42.539  22.733  28.103  1.00  0.00     0.173 A 
ATOM     72  C   UNL A   1      43.229  23.950  26.154  1.00  0.00     0.173 A 
ATOM     73  F   UNL A   1      42.248  22.679  29.411  1.00  0.00    -0.203 F 
ATOM     74  C   UNL A   1      42.496  21.558  27.355  1.00  0.00     0.198 A 
ATOM     75  C   UNL A   1      43.158  22.781  25.399  1.00  0.00     0.198 A 
ATOM     76  F   UNL A   1      43.590  25.090  25.547  1.00  0.00    -0.203 F 
ATOM     77  F   UNL A   1      42.177  20.400  27.947  1.00  0.00    -0.200 F 
ATOM     78  C   UNL A   1      42.801  21.585  26.002  1.00  0.00     0.200 A 
ATOM     79  F   UNL A   1      43.437  22.814  24.089  1.00  0.00    -0.200 F 
ATOM     80  F   UNL A   1      42.756  20.456  25.281  1.00  0.00    -0.200 F 
ENDBRANCH  46  70
BRANCH  58  81
ATOM     81  C   UNL A   1      47.896  26.906  31.393  1.00  0.00     0.064 A 
ATOM     82  C   UNL A   1      48.167  26.058  32.476  1.00  0.00     0.173 A 
ATOM     83  C   UNL A   1      48.975  27.334  30.606  1.00  0.00     0.173 A 
ATOM     84  F   UNL A   1      47.171  25.635  33.269  1.00  0.00    -0.203 F 
ATOM     85  C   UNL A   1      49.472  25.674  32.775  1.00  0.00     0.198 A 
ATOM     86  C   UNL A   1      50.275  26.924  30.889  1.00  0.00     0.198 A 
ATOM     87  F   UNL A   1      48.768  28.142  29.556  1.00  0.00    -0.203 F 
ATOM     88  F   UNL A   1      49.713  24.904  33.845  1.00  0.00    -0.200 F 
ATOM     89  C   UNL A   1      50.522  26.101  31.977  1.00  0.00     0.200 A 
ATOM     90  F   UNL A   1      51.287  27.326  30.108  1.00  0.00    -0.200 F 
ATOM     91  F   UNL A   1      51.777  25.726  32.263  1.00  0.00    -0.200 F 
ENDBRANCH  58  81
ENDBRANCH  32  33
ENDBRANCH  24  27
ENDBRANCH  22  23
ENDBRANCH  21  22
ENDBRANCH   1  21
TORSDOF 13
ENDMDL
