MODEL 1
REMARK VINA RESULT:     -12.0      0.000      0.000
REMARK SMILES O=C(NCCCNC(=O)[C@H]1[NH2+][C@@H]2CC[C@H]1CC2(F)F)c1ccc(-c2c3nc(c(-c4c(F)c(F)c(F)c(F)c4F)c4ccc([nH]4)c(-c4c(F)c(F)c(F)c(F)c4F)c4nc(c(-c5c(F)c(F)c(F)c(F)c5F)c5ccc2[nH]5)C=C4)C=C3)cc1
REMARK SMILES IDX 4 1 3 2 1 3 2 4 20 6 21 7 82 8 22 9 81 10 23 11 24 12 25 13
REMARK SMILES IDX 75 14 26 15 80 16 74 17 76 18 27 19 79 20 73 21 72 22 28 24
REMARK SMILES IDX 60 25 40 26 59 27 41 28 44 29 58 30 77 31 42 32 43 33 57 35
REMARK SMILES IDX 78 36 45 37 29 38 30 39 38 40 31 41 32 42 36 43 39 44 33 45
REMARK SMILES IDX 34 46 37 47 35 48 61 49 62 50 70 51 63 52 64 53 68 54 71 55
REMARK SMILES IDX 65 56 66 57 69 58 67 59 46 60 47 61 55 62 48 63 49 64 53 65
REMARK SMILES IDX 56 66 50 67 51 68 54 69 52 70 5 71 6 72 7 73 8 74 9 76 10 77
REMARK SMILES IDX 11 78 15 79 12 80 14 83 16 84 13 85 17 86 18 87 19 88
REMARK H PARENT 3 5 76 23 44 34 7 75 11 81 11 82
REMARK Flexibility Score: inf
ROOT
ATOM      1  C   UNL A   1      33.800  33.976  28.390  1.00  0.00     0.118 C 
ENDROOT
BRANCH   1   2
ATOM      2  N   UNL A   1      33.126  32.894  27.680  1.00  0.00    -0.352 N 
ATOM      3  O   UNL A   1      33.006  30.980  26.493  1.00  0.00    -0.269 OA
ATOM      4  C   UNL A   1      33.611  31.666  27.306  1.00  0.00     0.251 C 
ATOM      5  H   UNL A   1      32.189  33.070  27.434  1.00  0.00     0.163 HD
BRANCH   4   6
ATOM      6  C   UNL A   1      34.870  31.183  27.902  1.00  0.00     0.039 A 
ATOM      7  C   UNL A   1      35.945  32.062  28.053  1.00  0.00     0.014 A 
ATOM      8  C   UNL A   1      34.967  29.862  28.342  1.00  0.00     0.014 A 
ATOM      9  C   UNL A   1      37.161  31.591  28.508  1.00  0.00     0.010 A 
ATOM     10  C   UNL A   1      36.157  29.420  28.922  1.00  0.00     0.010 A 
ATOM     11  C   UNL A   1      37.260  30.283  29.005  1.00  0.00    -0.014 A 
BRANCH  11  12
ATOM     12  C   UNL A   1      38.477  29.914  29.761  1.00  0.00     0.031 A 
ATOM     13  C   UNL A   1      39.484  28.958  29.204  1.00  0.00     0.074 A 
ATOM     14  C   UNL A   1      38.645  30.480  30.973  1.00  0.00     0.049 A 
ATOM     15  N   UNL A   1      40.585  28.519  29.758  1.00  0.00    -0.248 NA
ATOM     16  C   UNL A   1      39.228  28.415  27.861  1.00  0.00     0.031 C 
ATOM     17  C   UNL A   1      37.705  31.414  31.604  1.00  0.00     0.029 A 
ATOM     18  N   UNL A   1      39.658  30.368  31.888  1.00  0.00    -0.354 N 
ATOM     19  C   UNL A   1      41.141  27.634  28.847  1.00  0.00     0.074 A 
ATOM     20  C   UNL A   1      40.254  27.586  27.705  1.00  0.00     0.031 C 
ATOM     21  C   UNL A   1      38.200  31.816  32.780  1.00  0.00     0.029 A 
ATOM     22  C   UNL A   1      39.444  31.103  33.029  1.00  0.00     0.049 A 
ATOM     23  H   UNL A   1      40.460  29.816  31.742  1.00  0.00     0.167 HD
ATOM     24  C   UNL A   1      42.291  26.929  28.970  1.00  0.00     0.037 A 
ATOM     25  C   UNL A   1      40.149  31.160  34.172  1.00  0.00     0.037 A 
ATOM     26  C   UNL A   1      43.168  27.011  30.110  1.00  0.00     0.049 A 
ATOM     27  C   UNL A   1      41.395  30.332  34.282  1.00  0.00     0.074 A 
ATOM     28  C   UNL A   1      44.394  26.395  30.298  1.00  0.00     0.029 A 
ATOM     29  N   UNL A   1      42.907  27.740  31.261  1.00  0.00    -0.354 N 
ATOM     30  N   UNL A   1      41.949  29.552  33.387  1.00  0.00    -0.248 NA
ATOM     31  C   UNL A   1      42.110  30.384  35.562  1.00  0.00     0.031 C 
ATOM     32  C   UNL A   1      44.839  26.695  31.587  1.00  0.00     0.029 A 
ATOM     33  C   UNL A   1      43.925  27.548  32.183  1.00  0.00     0.049 A 
ATOM     34  H   UNL A   1      42.116  28.310  31.402  1.00  0.00     0.167 HD
ATOM     35  C   UNL A   1      43.080  29.026  33.989  1.00  0.00     0.074 A 
ATOM     36  C   UNL A   1      43.153  29.606  35.316  1.00  0.00     0.031 C 
ATOM     37  C   UNL A   1      43.971  28.133  33.498  1.00  0.00     0.037 A 
BRANCH  24  38
ATOM     38  C   UNL A   1      42.672  25.986  27.867  1.00  0.00     0.064 A 
ATOM     39  C   UNL A   1      42.095  24.715  27.746  1.00  0.00     0.173 A 
ATOM     40  C   UNL A   1      43.550  26.408  26.856  1.00  0.00     0.173 A 
ATOM     41  F   UNL A   1      41.256  24.261  28.689  1.00  0.00    -0.203 F 
ATOM     42  C   UNL A   1      42.382  23.900  26.652  1.00  0.00     0.198 A 
ATOM     43  C   UNL A   1      43.816  25.601  25.752  1.00  0.00     0.198 A 
ATOM     44  F   UNL A   1      44.126  27.618  26.923  1.00  0.00    -0.203 F 
ATOM     45  F   UNL A   1      41.833  22.681  26.564  1.00  0.00    -0.200 F 
ATOM     46  C   UNL A   1      43.232  24.349  25.652  1.00  0.00     0.200 A 
ATOM     47  F   UNL A   1      44.625  26.044  24.780  1.00  0.00    -0.200 F 
ATOM     48  F   UNL A   1      43.487  23.574  24.588  1.00  0.00    -0.200 F 
ENDBRANCH  24  38
BRANCH  25  49
ATOM     49  C   UNL A   1      39.657  31.977  35.313  1.00  0.00     0.064 A 
ATOM     50  C   UNL A   1      38.762  31.450  36.251  1.00  0.00     0.173 A 
ATOM     51  C   UNL A   1      40.056  33.315  35.472  1.00  0.00     0.173 A 
ATOM     52  F   UNL A   1      38.339  30.183  36.135  1.00  0.00    -0.203 F 
ATOM     53  C   UNL A   1      38.256  32.238  37.283  1.00  0.00     0.198 A 
ATOM     54  C   UNL A   1      39.582  34.088  36.527  1.00  0.00     0.198 A 
ATOM     55  F   UNL A   1      40.920  33.867  34.606  1.00  0.00    -0.203 F 
ATOM     56  F   UNL A   1      37.351  31.728  38.128  1.00  0.00    -0.200 F 
ATOM     57  C   UNL A   1      38.670  33.554  37.423  1.00  0.00     0.200 A 
ATOM     58  F   UNL A   1      40.003  35.352  36.670  1.00  0.00    -0.200 F 
ATOM     59  F   UNL A   1      38.181  34.311  38.414  1.00  0.00    -0.200 F 
ENDBRANCH  25  49
BRANCH  37  60
ATOM     60  C   UNL A   1      45.104  27.740  34.400  1.00  0.00     0.064 A 
ATOM     61  C   UNL A   1      45.014  26.619  35.238  1.00  0.00     0.173 A 
ATOM     62  C   UNL A   1      46.300  28.472  34.403  1.00  0.00     0.173 A 
ATOM     63  F   UNL A   1      43.883  25.900  35.286  1.00  0.00    -0.203 F 
ATOM     64  C   UNL A   1      46.073  26.261  36.067  1.00  0.00     0.198 A 
ATOM     65  C   UNL A   1      47.369  28.090  35.207  1.00  0.00     0.198 A 
ATOM     66  F   UNL A   1      46.437  29.550  33.615  1.00  0.00    -0.203 F 
ATOM     67  F   UNL A   1      45.946  25.220  36.900  1.00  0.00    -0.200 F 
ATOM     68  C   UNL A   1      47.252  26.991  36.044  1.00  0.00     0.200 A 
ATOM     69  F   UNL A   1      48.514  28.788  35.173  1.00  0.00    -0.200 F 
ATOM     70  F   UNL A   1      48.275  26.639  36.835  1.00  0.00    -0.200 F 
ENDBRANCH  37  60
ENDBRANCH  11  12
ENDBRANCH   4   6
ENDBRANCH   1   2
BRANCH   1  71
ATOM     71  C   UNL A   1      32.863  35.138  28.653  1.00  0.00     0.042 C 
BRANCH  71  72
ATOM     72  C   UNL A   1      33.534  36.213  29.485  1.00  0.00     0.118 C 
BRANCH  72  73
ATOM     73  N   UNL A   1      32.755  36.532  30.665  1.00  0.00    -0.351 N 
ATOM     74  C   UNL A   1      32.996  36.473  31.997  1.00  0.00     0.278 C 
ATOM     75  H   UNL A   1      31.852  36.863  30.452  1.00  0.00     0.163 HD
ATOM     76  O   UNL A   1      32.042  36.780  32.723  1.00  0.00    -0.268 OA
BRANCH  74  77
ATOM     77  C   UNL A   1      34.365  36.173  32.643  1.00  0.00     0.276 C 
ATOM     78  N   UNL A   1      34.366  35.809  34.072  1.00  0.00    -0.328 N 
ATOM     79  C   UNL A   1      35.146  35.112  31.825  1.00  0.00     0.064 C 
ATOM     80  C   UNL A   1      34.930  34.453  34.296  1.00  0.00     0.253 C 
ATOM     81  H   UNL A   1      33.407  35.829  34.418  1.00  0.00     0.347 HD
ATOM     82  H   UNL A   1      34.951  36.481  34.570  1.00  0.00     0.347 HD
ATOM     83  C   UNL A   1      36.551  34.975  32.453  1.00  0.00     0.017 C 
ATOM     84  C   UNL A   1      34.435  33.745  31.919  1.00  0.00     0.094 C 
ATOM     85  C   UNL A   1      36.420  34.608  33.944  1.00  0.00     0.072 C 
ATOM     86  C   UNL A   1      34.385  33.312  33.381  1.00  0.00     0.298 C 
ATOM     87  F   UNL A   1      35.140  32.194  33.546  1.00  0.00    -0.200 F 
ATOM     88  F   UNL A   1      33.127  32.947  33.720  1.00  0.00    -0.200 F 
ENDBRANCH  74  77
ENDBRANCH  72  73
ENDBRANCH  71  72
ENDBRANCH   1  71
TORSDOF 10
ENDMDL
MODEL 2
REMARK VINA RESULT:     -11.9      3.081      5.806
REMARK SMILES O=C(NCCCNC(=O)[C@H]1[NH2+][C@@H]2CC[C@H]1CC2(F)F)c1ccc(-c2c3nc(c(-c4c(F)c(F)c(F)c(F)c4F)c4ccc([nH]4)c(-c4c(F)c(F)c(F)c(F)c4F)c4nc(c(-c5c(F)c(F)c(F)c(F)c5F)c5ccc2[nH]5)C=C4)C=C3)cc1
REMARK SMILES IDX 4 1 3 2 1 3 2 4 20 6 21 7 82 8 22 9 81 10 23 11 24 12 25 13
REMARK SMILES IDX 75 14 26 15 80 16 74 17 76 18 27 19 79 20 73 21 72 22 28 24
REMARK SMILES IDX 60 25 40 26 59 27 41 28 44 29 58 30 77 31 42 32 43 33 57 35
REMARK SMILES IDX 78 36 45 37 29 38 30 39 38 40 31 41 32 42 36 43 39 44 33 45
REMARK SMILES IDX 34 46 37 47 35 48 61 49 62 50 70 51 63 52 64 53 68 54 71 55
REMARK SMILES IDX 65 56 66 57 69 58 67 59 46 60 47 61 55 62 48 63 49 64 53 65
REMARK SMILES IDX 56 66 50 67 51 68 54 69 52 70 5 71 6 72 7 73 8 74 9 76 10 77
REMARK SMILES IDX 11 78 15 79 12 80 14 83 16 84 13 85 17 86 18 87 19 88
REMARK H PARENT 3 5 76 23 44 34 7 75 11 81 11 82
REMARK Flexibility Score: inf
ROOT
ATOM      1  C   UNL A   1      32.726  32.841  27.337  1.00  0.00     0.118 C 
ENDROOT
BRANCH   1   2
ATOM      2  N   UNL A   1      32.511  34.241  27.692  1.00  0.00    -0.352 N 
ATOM      3  O   UNL A   1      32.587  36.054  29.031  1.00  0.00    -0.269 OA
ATOM      4  C   UNL A   1      33.064  34.973  28.712  1.00  0.00     0.251 C 
ATOM      5  H   UNL A   1      31.879  34.730  27.116  1.00  0.00     0.163 HD
BRANCH   4   6
ATOM      6  C   UNL A   1      34.247  34.442  29.413  1.00  0.00     0.039 A 
ATOM      7  C   UNL A   1      34.084  33.746  30.612  1.00  0.00     0.014 A 
ATOM      8  C   UNL A   1      35.517  34.610  28.858  1.00  0.00     0.014 A 
ATOM      9  C   UNL A   1      35.192  33.341  31.331  1.00  0.00     0.010 A 
ATOM     10  C   UNL A   1      36.628  34.089  29.521  1.00  0.00     0.010 A 
ATOM     11  C   UNL A   1      36.469  33.453  30.763  1.00  0.00    -0.014 A 
BRANCH  11  12
ATOM     12  C   UNL A   1      37.589  32.739  31.416  1.00  0.00     0.031 A 
ATOM     13  C   UNL A   1      38.271  31.584  30.755  1.00  0.00     0.074 A 
ATOM     14  C   UNL A   1      37.975  33.177  32.631  1.00  0.00     0.049 A 
ATOM     15  N   UNL A   1      39.249  30.844  31.211  1.00  0.00    -0.248 NA
ATOM     16  C   UNL A   1      37.799  31.198  29.416  1.00  0.00     0.031 C 
ATOM     17  C   UNL A   1      37.355  34.291  33.360  1.00  0.00     0.029 A 
ATOM     18  N   UNL A   1      38.975  32.757  33.466  1.00  0.00    -0.354 N 
ATOM     19  C   UNL A   1      39.494  29.893  30.233  1.00  0.00     0.074 A 
ATOM     20  C   UNL A   1      38.558  30.139  29.157  1.00  0.00     0.031 C 
ATOM     21  C   UNL A   1      38.010  34.486  34.510  1.00  0.00     0.029 A 
ATOM     22  C   UNL A   1      39.034  33.462  34.643  1.00  0.00     0.049 A 
ATOM     23  H   UNL A   1      39.592  32.023  33.243  1.00  0.00     0.167 HD
ATOM     24  C   UNL A   1      40.421  28.907  30.247  1.00  0.00     0.037 A 
ATOM     25  C   UNL A   1      39.797  33.272  35.734  1.00  0.00     0.037 A 
ATOM     26  C   UNL A   1      41.356  28.696  31.323  1.00  0.00     0.049 A 
ATOM     27  C   UNL A   1      40.785  32.142  35.724  1.00  0.00     0.074 A 
ATOM     28  C   UNL A   1      42.385  27.771  31.400  1.00  0.00     0.029 A 
ATOM     29  N   UNL A   1      41.369  29.406  32.514  1.00  0.00    -0.354 N 
ATOM     30  N   UNL A   1      41.056  31.293  34.765  1.00  0.00    -0.248 NA
ATOM     31  C   UNL A   1      41.564  31.938  36.950  1.00  0.00     0.031 C 
ATOM     32  C   UNL A   1      42.972  27.877  32.663  1.00  0.00     0.029 A 
ATOM     33  C   UNL A   1      42.354  28.907  33.352  1.00  0.00     0.049 A 
ATOM     34  H   UNL A   1      40.767  30.155  32.732  1.00  0.00     0.167 HD
ATOM     35  C   UNL A   1      42.042  30.458  35.265  1.00  0.00     0.074 A 
ATOM     36  C   UNL A   1      42.347  30.928  36.602  1.00  0.00     0.031 C 
ATOM     37  C   UNL A   1      42.634  29.390  34.680  1.00  0.00     0.037 A 
BRANCH  24  38
ATOM     38  C   UNL A   1      40.472  27.955  29.088  1.00  0.00     0.064 A 
ATOM     39  C   UNL A   1      39.693  26.790  29.050  1.00  0.00     0.173 A 
ATOM     40  C   UNL A   1      41.230  28.275  27.951  1.00  0.00     0.173 A 
ATOM     41  F   UNL A   1      38.958  26.435  30.114  1.00  0.00    -0.203 F 
ATOM     42  C   UNL A   1      39.673  25.979  27.917  1.00  0.00     0.198 A 
ATOM     43  C   UNL A   1      41.189  27.476  26.811  1.00  0.00     0.198 A 
ATOM     44  F   UNL A   1      41.988  29.382  27.934  1.00  0.00    -0.203 F 
ATOM     45  F   UNL A   1      38.936  24.860  27.908  1.00  0.00    -0.200 F 
ATOM     46  C   UNL A   1      40.410  26.330  26.796  1.00  0.00     0.200 A 
ATOM     47  F   UNL A   1      41.889  27.826  25.724  1.00  0.00    -0.200 F 
ATOM     48  F   UNL A   1      40.369  25.563  25.697  1.00  0.00    -0.200 F 
ENDBRANCH  24  38
BRANCH  25  49
ATOM     49  C   UNL A   1      39.610  34.128  36.934  1.00  0.00     0.064 A 
ATOM     50  C   UNL A   1      40.238  35.375  37.042  1.00  0.00     0.173 A 
ATOM     51  C   UNL A   1      38.817  33.703  38.013  1.00  0.00     0.173 A 
ATOM     52  F   UNL A   1      41.018  35.820  36.046  1.00  0.00    -0.203 F 
ATOM     53  C   UNL A   1      40.110  36.148  38.195  1.00  0.00     0.198 A 
ATOM     54  C   UNL A   1      38.656  34.494  39.146  1.00  0.00     0.198 A 
ATOM     55  F   UNL A   1      38.185  32.520  37.959  1.00  0.00    -0.203 F 
ATOM     56  F   UNL A   1      40.774  37.306  38.298  1.00  0.00    -0.200 F 
ATOM     57  C   UNL A   1      39.316  35.709  39.244  1.00  0.00     0.200 A 
ATOM     58  F   UNL A   1      37.870  34.075  40.147  1.00  0.00    -0.200 F 
ATOM     59  F   UNL A   1      39.195  36.451  40.352  1.00  0.00    -0.200 F 
ENDBRANCH  25  49
BRANCH  37  60
ATOM     60  C   UNL A   1      43.675  28.668  35.483  1.00  0.00     0.064 A 
ATOM     61  C   UNL A   1      45.038  28.980  35.359  1.00  0.00     0.173 A 
ATOM     62  C   UNL A   1      43.306  27.678  36.404  1.00  0.00     0.173 A 
ATOM     63  F   UNL A   1      45.442  29.904  34.476  1.00  0.00    -0.203 F 
ATOM     64  C   UNL A   1      45.995  28.306  36.113  1.00  0.00     0.198 A 
ATOM     65  C   UNL A   1      44.263  27.032  37.180  1.00  0.00     0.198 A 
ATOM     66  F   UNL A   1      42.015  27.347  36.561  1.00  0.00    -0.203 F 
ATOM     67  F   UNL A   1      47.295  28.582  35.939  1.00  0.00    -0.200 F 
ATOM     68  C   UNL A   1      45.606  27.340  37.028  1.00  0.00     0.200 A 
ATOM     69  F   UNL A   1      43.884  26.109  38.076  1.00  0.00    -0.200 F 
ATOM     70  F   UNL A   1      46.528  26.700  37.760  1.00  0.00    -0.200 F 
ENDBRANCH  37  60
ENDBRANCH  11  12
ENDBRANCH   4   6
ENDBRANCH   1   2
BRANCH   1  71
ATOM     71  C   UNL A   1      31.533  32.264  26.603  1.00  0.00     0.042 C 
BRANCH  71  72
ATOM     72  C   UNL A   1      31.665  30.764  26.427  1.00  0.00     0.118 C 
BRANCH  72  73
ATOM     73  N   UNL A   1      31.213  30.344  25.115  1.00  0.00    -0.351 N 
ATOM     74  C   UNL A   1      31.254  29.172  24.436  1.00  0.00     0.278 C 
ATOM     75  H   UNL A   1      30.783  31.069  24.606  1.00  0.00     0.163 HD
ATOM     76  O   UNL A   1      30.808  29.212  23.282  1.00  0.00    -0.268 OA
BRANCH  74  77
ATOM     77  C   UNL A   1      31.694  27.815  25.024  1.00  0.00     0.276 C 
ATOM     78  N   UNL A   1      31.089  26.604  24.440  1.00  0.00    -0.328 N 
ATOM     79  C   UNL A   1      33.239  27.686  25.029  1.00  0.00     0.064 C 
ATOM     80  C   UNL A   1      32.113  25.705  23.849  1.00  0.00     0.253 C 
ATOM     81  H   UNL A   1      30.433  26.881  23.710  1.00  0.00     0.347 HD
ATOM     82  H   UNL A   1      30.615  26.095  25.186  1.00  0.00     0.347 HD
ATOM     83  C   UNL A   1      33.599  26.371  25.758  1.00  0.00     0.017 C 
ATOM     84  C   UNL A   1      33.767  27.600  23.581  1.00  0.00     0.094 C 
ATOM     85  C   UNL A   1      32.899  25.186  25.066  1.00  0.00     0.072 C 
ATOM     86  C   UNL A   1      33.165  26.370  22.907  1.00  0.00     0.298 C 
ATOM     87  F   UNL A   1      34.153  25.481  22.624  1.00  0.00    -0.200 F 
ATOM     88  F   UNL A   1      32.632  26.706  21.709  1.00  0.00    -0.200 F 
ENDBRANCH  74  77
ENDBRANCH  72  73
ENDBRANCH  71  72
ENDBRANCH   1  71
TORSDOF 10
ENDMDL
MODEL 3
REMARK VINA RESULT:     -11.9      3.100      5.573
REMARK SMILES O=C(NCCCNC(=O)[C@H]1[NH2+][C@@H]2CC[C@H]1CC2(F)F)c1ccc(-c2c3nc(c(-c4c(F)c(F)c(F)c(F)c4F)c4ccc([nH]4)c(-c4c(F)c(F)c(F)c(F)c4F)c4nc(c(-c5c(F)c(F)c(F)c(F)c5F)c5ccc2[nH]5)C=C4)C=C3)cc1
REMARK SMILES IDX 4 1 3 2 1 3 2 4 20 6 21 7 82 8 22 9 81 10 23 11 24 12 25 13
REMARK SMILES IDX 75 14 26 15 80 16 74 17 76 18 27 19 79 20 73 21 72 22 28 24
REMARK SMILES IDX 60 25 40 26 59 27 41 28 44 29 58 30 77 31 42 32 43 33 57 35
REMARK SMILES IDX 78 36 45 37 29 38 30 39 38 40 31 41 32 42 36 43 39 44 33 45
REMARK SMILES IDX 34 46 37 47 35 48 61 49 62 50 70 51 63 52 64 53 68 54 71 55
REMARK SMILES IDX 65 56 66 57 69 58 67 59 46 60 47 61 55 62 48 63 49 64 53 65
REMARK SMILES IDX 56 66 50 67 51 68 54 69 52 70 5 71 6 72 7 73 8 74 9 76 10 77
REMARK SMILES IDX 11 78 15 79 12 80 14 83 16 84 13 85 17 86 18 87 19 88
REMARK H PARENT 3 5 76 23 44 34 7 75 11 81 11 82
REMARK Flexibility Score: inf
ROOT
ATOM      1  C   UNL A   1      32.695  32.809  27.251  1.00  0.00     0.118 C 
ENDROOT
BRANCH   1   2
ATOM      2  N   UNL A   1      32.477  34.203  27.628  1.00  0.00    -0.352 N 
ATOM      3  O   UNL A   1      32.543  35.991  29.000  1.00  0.00    -0.269 OA
ATOM      4  C   UNL A   1      33.023  34.917  28.664  1.00  0.00     0.251 C 
ATOM      5  H   UNL A   1      31.847  34.700  27.058  1.00  0.00     0.163 HD
BRANCH   4   6
ATOM      6  C   UNL A   1      34.203  34.376  29.363  1.00  0.00     0.039 A 
ATOM      7  C   UNL A   1      34.032  33.637  30.536  1.00  0.00     0.014 A 
ATOM      8  C   UNL A   1      35.477  34.576  28.830  1.00  0.00     0.014 A 
ATOM      9  C   UNL A   1      35.136  33.220  31.255  1.00  0.00     0.010 A 
ATOM     10  C   UNL A   1      36.586  34.043  29.490  1.00  0.00     0.010 A 
ATOM     11  C   UNL A   1      36.419  33.365  30.708  1.00  0.00    -0.014 A 
BRANCH  11  12
ATOM     12  C   UNL A   1      37.537  32.641  31.350  1.00  0.00     0.031 A 
ATOM     13  C   UNL A   1      38.226  31.502  30.669  1.00  0.00     0.074 A 
ATOM     14  C   UNL A   1      37.916  33.055  32.576  1.00  0.00     0.049 A 
ATOM     15  N   UNL A   1      39.204  30.756  31.114  1.00  0.00    -0.248 NA
ATOM     16  C   UNL A   1      37.762  31.143  29.320  1.00  0.00     0.031 C 
ATOM     17  C   UNL A   1      37.290  34.151  33.326  1.00  0.00     0.029 A 
ATOM     18  N   UNL A   1      38.915  32.621  33.407  1.00  0.00    -0.354 N 
ATOM     19  C   UNL A   1      39.458  29.826  30.117  1.00  0.00     0.074 A 
ATOM     20  C   UNL A   1      38.526  30.091  29.043  1.00  0.00     0.031 C 
ATOM     21  C   UNL A   1      37.939  34.325  34.483  1.00  0.00     0.029 A 
ATOM     22  C   UNL A   1      38.965  33.301  34.599  1.00  0.00     0.049 A 
ATOM     23  H   UNL A   1      39.535  31.893  33.172  1.00  0.00     0.167 HD
ATOM     24  C   UNL A   1      40.388  28.843  30.116  1.00  0.00     0.037 A 
ATOM     25  C   UNL A   1      39.724  33.091  35.689  1.00  0.00     0.037 A 
ATOM     26  C   UNL A   1      41.319  28.613  31.191  1.00  0.00     0.049 A 
ATOM     27  C   UNL A   1      40.716  31.966  35.660  1.00  0.00     0.074 A 
ATOM     28  C   UNL A   1      42.350  27.691  31.253  1.00  0.00     0.029 A 
ATOM     29  N   UNL A   1      41.324  29.299  32.397  1.00  0.00    -0.354 N 
ATOM     30  N   UNL A   1      40.995  31.137  34.684  1.00  0.00    -0.248 NA
ATOM     31  C   UNL A   1      41.490  31.739  36.885  1.00  0.00     0.031 C 
ATOM     32  C   UNL A   1      42.931  27.772  32.521  1.00  0.00     0.029 A 
ATOM     33  C   UNL A   1      42.307  28.786  33.229  1.00  0.00     0.049 A 
ATOM     34  H   UNL A   1      40.718  30.041  32.627  1.00  0.00     0.167 HD
ATOM     35  C   UNL A   1      41.981  30.295  35.172  1.00  0.00     0.074 A 
ATOM     36  C   UNL A   1      42.278  30.738  36.519  1.00  0.00     0.031 C 
ATOM     37  C   UNL A   1      42.579  29.242  34.567  1.00  0.00     0.037 A 
BRANCH  24  38
ATOM     38  C   UNL A   1      40.447  27.916  28.937  1.00  0.00     0.064 A 
ATOM     39  C   UNL A   1      39.665  26.755  28.867  1.00  0.00     0.173 A 
ATOM     40  C   UNL A   1      41.219  28.257  27.815  1.00  0.00     0.173 A 
ATOM     41  F   UNL A   1      38.916  26.380  29.915  1.00  0.00    -0.203 F 
ATOM     42  C   UNL A   1      39.653  25.969  27.716  1.00  0.00     0.198 A 
ATOM     43  C   UNL A   1      41.186  27.483  26.658  1.00  0.00     0.198 A 
ATOM     44  F   UNL A   1      41.981  29.361  27.829  1.00  0.00    -0.203 F 
ATOM     45  F   UNL A   1      38.912  24.853  27.676  1.00  0.00    -0.200 F 
ATOM     46  C   UNL A   1      40.403  26.340  26.610  1.00  0.00     0.200 A 
ATOM     47  F   UNL A   1      41.899  27.852  25.586  1.00  0.00    -0.200 F 
ATOM     48  F   UNL A   1      40.371  25.596  25.495  1.00  0.00    -0.200 F 
ENDBRANCH  24  38
BRANCH  25  49
ATOM     49  C   UNL A   1      39.529  33.922  36.906  1.00  0.00     0.064 A 
ATOM     50  C   UNL A   1      38.760  33.464  37.982  1.00  0.00     0.173 A 
ATOM     51  C   UNL A   1      40.090  35.206  37.006  1.00  0.00     0.173 A 
ATOM     52  F   UNL A   1      38.191  32.250  37.930  1.00  0.00    -0.203 F 
ATOM     53  C   UNL A   1      38.528  34.270  39.095  1.00  0.00     0.198 A 
ATOM     54  C   UNL A   1      39.892  35.994  38.136  1.00  0.00     0.198 A 
ATOM     55  F   UNL A   1      40.843  35.691  36.007  1.00  0.00    -0.203 F 
ATOM     56  F   UNL A   1      37.735  33.832  40.082  1.00  0.00    -0.200 F 
ATOM     57  C   UNL A   1      39.098  35.532  39.173  1.00  0.00     0.200 A 
ATOM     58  F   UNL A   1      40.464  37.203  38.214  1.00  0.00    -0.200 F 
ATOM     59  F   UNL A   1      38.873  36.307  40.242  1.00  0.00    -0.200 F 
ENDBRANCH  25  49
BRANCH  37  60
ATOM     60  C   UNL A   1      43.619  28.506  35.360  1.00  0.00     0.064 A 
ATOM     61  C   UNL A   1      43.271  27.459  36.226  1.00  0.00     0.173 A 
ATOM     62  C   UNL A   1      44.977  28.831  35.229  1.00  0.00     0.173 A 
ATOM     63  F   UNL A   1      41.984  27.125  36.400  1.00  0.00    -0.203 F 
ATOM     64  C   UNL A   1      44.246  26.780  36.952  1.00  0.00     0.198 A 
ATOM     65  C   UNL A   1      45.950  28.127  35.931  1.00  0.00     0.198 A 
ATOM     66  F   UNL A   1      45.361  29.823  34.411  1.00  0.00    -0.203 F 
ATOM     67  F   UNL A   1      43.886  25.820  37.815  1.00  0.00    -0.200 F 
ATOM     68  C   UNL A   1      45.584  27.109  36.797  1.00  0.00     0.200 A 
ATOM     69  F   UNL A   1      47.245  28.436  35.769  1.00  0.00    -0.200 F 
ATOM     70  F   UNL A   1      46.521  26.447  37.490  1.00  0.00    -0.200 F 
ENDBRANCH  37  60
ENDBRANCH  11  12
ENDBRANCH   4   6
ENDBRANCH   1   2
BRANCH   1  71
ATOM     71  C   UNL A   1      31.506  32.242  26.502  1.00  0.00     0.042 C 
BRANCH  71  72
ATOM     72  C   UNL A   1      31.626  30.742  26.328  1.00  0.00     0.118 C 
BRANCH  72  73
ATOM     73  N   UNL A   1      31.137  30.319  25.031  1.00  0.00    -0.351 N 
ATOM     74  C   UNL A   1      31.179  29.151  24.344  1.00  0.00     0.278 C 
ATOM     75  H   UNL A   1      30.673  31.036  24.542  1.00  0.00     0.163 HD
ATOM     76  O   UNL A   1      30.691  29.188  23.206  1.00  0.00    -0.268 OA
BRANCH  74  77
ATOM     77  C   UNL A   1      31.670  27.802  24.907  1.00  0.00     0.276 C 
ATOM     78  N   UNL A   1      31.051  26.581  24.357  1.00  0.00    -0.328 N 
ATOM     79  C   UNL A   1      33.214  27.695  24.829  1.00  0.00     0.064 C 
ATOM     80  C   UNL A   1      32.055  25.696  23.712  1.00  0.00     0.253 C 
ATOM     81  H   UNL A   1      30.353  26.849  23.664  1.00  0.00     0.347 HD
ATOM     82  H   UNL A   1      30.625  26.066  25.128  1.00  0.00     0.347 HD
ATOM     83  C   UNL A   1      33.632  26.386  25.538  1.00  0.00     0.017 C 
ATOM     84  C   UNL A   1      33.664  27.614  23.355  1.00  0.00     0.094 C 
ATOM     85  C   UNL A   1      32.912  25.189  24.885  1.00  0.00     0.072 C 
ATOM     86  C   UNL A   1      33.044  26.376  22.714  1.00  0.00     0.298 C 
ATOM     87  F   UNL A   1      34.028  25.501  22.378  1.00  0.00    -0.200 F 
ATOM     88  F   UNL A   1      32.443  26.702  21.546  1.00  0.00    -0.200 F 
ENDBRANCH  74  77
ENDBRANCH  72  73
ENDBRANCH  71  72
ENDBRANCH   1  71
TORSDOF 10
ENDMDL
