MODEL 1
REMARK VINA RESULT:     -12.1      0.000      0.000
REMARK SMILES O=C(NCCCNC(=O)c1c(F)cccc1NS(=O)(=O)C(F)(F)F)c1ccc(-c2c3nc(c(-c4c(F)c(F)c(F)c(F)c4F)c4ccc([nH]4)c(-c4c(F)c(F)c(F)c(F)c4F)c4nc(c(-c5c(F)c(F)c(F)c(F)c5F)c5ccc2[nH]5)C=C4)C=C3)cc1
REMARK SMILES IDX 5 1 4 2 3 3 1 4 2 5 25 7 26 8 87 9 27 10 86 11 28 12 29 13
REMARK SMILES IDX 30 14 80 15 31 16 85 17 79 18 81 19 32 20 84 21 78 22 77 23
REMARK SMILES IDX 33 25 65 26 45 27 64 28 46 29 49 30 63 31 82 32 47 33 48 34
REMARK SMILES IDX 62 36 83 37 50 38 34 39 35 40 43 41 36 42 37 43 41 44 44 45
REMARK SMILES IDX 38 46 39 47 42 48 40 49 66 50 67 51 75 52 68 53 69 54 73 55
REMARK SMILES IDX 76 56 70 57 71 58 74 59 72 60 51 61 52 62 60 63 53 64 54 65
REMARK SMILES IDX 58 66 61 67 55 68 56 69 59 70 57 71 6 72 7 73 8 74 9 76
REMARK SMILES IDX 10 77 11 78 16 79 12 80 13 81 15 82 14 83 17 84 18 86 19 87
REMARK SMILES IDX 20 88 21 89 22 90 23 91 24 92
REMARK H PARENT 3 6 81 24 49 35 7 75 17 85
REMARK Flexibility Score: inf
ROOT
ATOM      1  C   UNL A   1      33.506  29.329  23.356  1.00  0.00     0.042 C 
ENDROOT
BRANCH   1   2
ATOM      2  C   UNL A   1      33.572  29.241  24.875  1.00  0.00     0.118 C 
BRANCH   2   3
ATOM      3  N   UNL A   1      32.890  30.347  25.533  1.00  0.00    -0.352 N 
ATOM      4  O   UNL A   1      32.336  31.768  27.188  1.00  0.00    -0.269 OA
ATOM      5  C   UNL A   1      33.151  30.972  26.727  1.00  0.00     0.251 C 
ATOM      6  H   UNL A   1      32.116  30.705  25.041  1.00  0.00     0.163 HD
BRANCH   5   7
ATOM      7  C   UNL A   1      34.393  30.681  27.477  1.00  0.00     0.039 A 
ATOM      8  C   UNL A   1      34.639  29.412  28.001  1.00  0.00     0.014 A 
ATOM      9  C   UNL A   1      35.350  31.691  27.626  1.00  0.00     0.014 A 
ATOM     10  C   UNL A   1      35.750  29.197  28.806  1.00  0.00     0.010 A 
ATOM     11  C   UNL A   1      36.522  31.443  28.350  1.00  0.00     0.010 A 
ATOM     12  C   UNL A   1      36.716  30.203  28.974  1.00  0.00    -0.014 A 
BRANCH  12  13
ATOM     13  C   UNL A   1      37.947  29.901  29.748  1.00  0.00     0.031 A 
ATOM     14  C   UNL A   1      38.143  30.429  31.140  1.00  0.00     0.074 A 
ATOM     15  C   UNL A   1      38.876  29.099  29.192  1.00  0.00     0.049 A 
ATOM     16  N   UNL A   1      39.144  30.231  31.961  1.00  0.00    -0.248 NA
ATOM     17  C   UNL A   1      37.085  31.294  31.684  1.00  0.00     0.031 C 
ATOM     18  C   UNL A   1      38.795  28.533  27.843  1.00  0.00     0.029 A 
ATOM     19  N   UNL A   1      40.051  28.598  29.691  1.00  0.00    -0.354 N 
ATOM     20  C   UNL A   1      38.846  30.954  33.108  1.00  0.00     0.074 A 
ATOM     21  C   UNL A   1      37.582  31.619  32.871  1.00  0.00     0.031 C 
ATOM     22  C   UNL A   1      39.837  27.714  27.647  1.00  0.00     0.029 A 
ATOM     23  C   UNL A   1      40.697  27.751  28.825  1.00  0.00     0.049 A 
ATOM     24  H   UNL A   1      40.397  28.824  30.585  1.00  0.00     0.167 HD
ATOM     25  C   UNL A   1      39.560  31.044  34.257  1.00  0.00     0.037 A 
ATOM     26  C   UNL A   1      41.858  27.083  28.955  1.00  0.00     0.037 A 
ATOM     27  C   UNL A   1      40.808  30.364  34.492  1.00  0.00     0.049 A 
ATOM     28  C   UNL A   1      42.640  27.224  30.229  1.00  0.00     0.074 A 
ATOM     29  C   UNL A   1      41.590  30.372  35.634  1.00  0.00     0.029 A 
ATOM     30  N   UNL A   1      41.456  29.553  33.570  1.00  0.00    -0.354 N 
ATOM     31  N   UNL A   1      42.340  27.901  31.310  1.00  0.00    -0.248 NA
ATOM     32  C   UNL A   1      43.927  26.518  30.296  1.00  0.00     0.031 C 
ATOM     33  C   UNL A   1      42.733  29.604  35.388  1.00  0.00     0.029 A 
ATOM     34  C   UNL A   1      42.639  29.075  34.111  1.00  0.00     0.049 A 
ATOM     35  H   UNL A   1      41.124  29.348  32.666  1.00  0.00     0.167 HD
ATOM     36  C   UNL A   1      43.392  27.698  32.190  1.00  0.00     0.074 A 
ATOM     37  C   UNL A   1      44.330  26.815  31.525  1.00  0.00     0.031 C 
ATOM     38  C   UNL A   1      43.563  28.201  33.436  1.00  0.00     0.037 A 
BRANCH  25  39
ATOM     39  C   UNL A   1      39.020  31.910  35.356  1.00  0.00     0.064 A 
ATOM     40  C   UNL A   1      39.339  33.276  35.406  1.00  0.00     0.173 A 
ATOM     41  C   UNL A   1      38.263  31.375  36.408  1.00  0.00     0.173 A 
ATOM     42  F   UNL A   1      40.067  33.836  34.428  1.00  0.00    -0.203 F 
ATOM     43  C   UNL A   1      38.932  34.070  36.475  1.00  0.00     0.198 A 
ATOM     44  C   UNL A   1      37.836  32.178  37.464  1.00  0.00     0.198 A 
ATOM     45  F   UNL A   1      37.923  30.078  36.404  1.00  0.00    -0.203 F 
ATOM     46  F   UNL A   1      39.277  35.365  36.516  1.00  0.00    -0.200 F 
ATOM     47  C   UNL A   1      38.180  33.521  37.502  1.00  0.00     0.200 A 
ATOM     48  F   UNL A   1      37.091  31.650  38.445  1.00  0.00    -0.200 F 
ATOM     49  F   UNL A   1      37.784  34.286  38.528  1.00  0.00    -0.200 F 
ENDBRANCH  25  39
BRANCH  26  50
ATOM     50  C   UNL A   1      42.330  26.219  27.845  1.00  0.00     0.064 A 
ATOM     51  C   UNL A   1      43.246  26.692  26.893  1.00  0.00     0.173 A 
ATOM     52  C   UNL A   1      41.835  24.919  27.684  1.00  0.00     0.173 A 
ATOM     53  F   UNL A   1      43.744  27.934  27.001  1.00  0.00    -0.203 F 
ATOM     54  C   UNL A   1      43.625  25.909  25.807  1.00  0.00     0.198 A 
ATOM     55  C   UNL A   1      42.236  24.125  26.612  1.00  0.00     0.198 A 
ATOM     56  F   UNL A   1      40.972  24.416  28.579  1.00  0.00    -0.203 F 
ATOM     57  F   UNL A   1      44.466  26.403  24.888  1.00  0.00    -0.200 F 
ATOM     58  C   UNL A   1      43.123  24.624  25.669  1.00  0.00     0.200 A 
ATOM     59  F   UNL A   1      41.765  22.876  26.493  1.00  0.00    -0.200 F 
ATOM     60  F   UNL A   1      43.492  23.867  24.627  1.00  0.00    -0.200 F 
ENDBRANCH  26  50
BRANCH  38  61
ATOM     61  C   UNL A   1      44.809  27.806  34.173  1.00  0.00     0.064 A 
ATOM     62  C   UNL A   1      44.821  26.663  34.986  1.00  0.00     0.173 A 
ATOM     63  C   UNL A   1      45.966  28.596  34.127  1.00  0.00     0.173 A 
ATOM     64  F   UNL A   1      43.735  25.879  35.068  1.00  0.00    -0.203 F 
ATOM     65  C   UNL A   1      45.945  26.332  35.737  1.00  0.00     0.198 A 
ATOM     66  C   UNL A   1      47.097  28.247  34.859  1.00  0.00     0.198 A 
ATOM     67  F   UNL A   1      46.006  29.690  33.352  1.00  0.00    -0.203 F 
ATOM     68  F   UNL A   1      45.924  25.253  36.531  1.00  0.00    -0.200 F 
ATOM     69  C   UNL A   1      47.082  27.122  35.671  1.00  0.00     0.200 A 
ATOM     70  F   UNL A   1      48.204  28.998  34.777  1.00  0.00    -0.200 F 
ATOM     71  F   UNL A   1      48.167  26.797  36.387  1.00  0.00    -0.200 F 
ENDBRANCH  38  61
ENDBRANCH  12  13
ENDBRANCH   5   7
ENDBRANCH   2   3
ENDBRANCH   1   2
BRANCH   1  72
ATOM     72  C   UNL A   1      34.121  28.130  22.646  1.00  0.00     0.118 C 
BRANCH  72  73
ATOM     73  N   UNL A   1      33.156  27.475  21.773  1.00  0.00    -0.352 N 
ATOM     74  C   UNL A   1      32.181  26.563  22.087  1.00  0.00     0.256 C 
ATOM     75  H   UNL A   1      33.212  27.722  20.821  1.00  0.00     0.163 HD
ATOM     76  O   UNL A   1      31.679  25.881  21.198  1.00  0.00    -0.269 OA
BRANCH  74  77
ATOM     77  C   UNL A   1      31.795  26.325  23.485  1.00  0.00     0.099 A 
ATOM     78  C   UNL A   1      32.679  25.649  24.332  1.00  0.00     0.138 A 
ATOM     79  C   UNL A   1      30.551  26.763  23.973  1.00  0.00     0.065 A 
ATOM     80  F   UNL A   1      33.889  25.263  23.898  1.00  0.00    -0.206 F 
ATOM     81  C   UNL A   1      32.310  25.310  25.627  1.00  0.00     0.040 A 
ATOM     82  C   UNL A   1      30.178  26.387  25.269  1.00  0.00     0.028 A 
ATOM     83  C   UNL A   1      31.051  25.667  26.092  1.00  0.00     0.005 A 
BRANCH  79  84
ATOM     84  N   UNL A   1      29.601  27.450  23.125  1.00  0.00    -0.275 N 
ATOM     85  H   UNL A   1      28.921  26.946  22.623  1.00  0.00     0.180 HD
BRANCH  84  86
ATOM     86  S   UNL A   1      29.685  29.161  23.014  1.00  0.00     0.333 S 
ATOM     87  O   UNL A   1      30.278  29.640  24.249  1.00  0.00    -0.197 OA
ATOM     88  O   UNL A   1      30.381  29.382  21.756  1.00  0.00    -0.197 OA
BRANCH  86  89
ATOM     89  C   UNL A   1      27.928  29.761  22.849  1.00  0.00     0.516 C 
ATOM     90  F   UNL A   1      27.018  28.775  23.098  1.00  0.00    -0.155 F 
ATOM     91  F   UNL A   1      27.649  30.770  23.728  1.00  0.00    -0.155 F 
ATOM     92  F   UNL A   1      27.653  30.247  21.607  1.00  0.00    -0.155 F 
ENDBRANCH  86  89
ENDBRANCH  84  86
ENDBRANCH  79  84
ENDBRANCH  74  77
ENDBRANCH  72  73
ENDBRANCH   1  72
TORSDOF 13
ENDMDL
MODEL 2
REMARK VINA RESULT:     -12.0      5.820     10.632
REMARK SMILES O=C(NCCCNC(=O)c1c(F)cccc1NS(=O)(=O)C(F)(F)F)c1ccc(-c2c3nc(c(-c4c(F)c(F)c(F)c(F)c4F)c4ccc([nH]4)c(-c4c(F)c(F)c(F)c(F)c4F)c4nc(c(-c5c(F)c(F)c(F)c(F)c5F)c5ccc2[nH]5)C=C4)C=C3)cc1
REMARK SMILES IDX 5 1 4 2 3 3 1 4 2 5 25 7 26 8 87 9 27 10 86 11 28 12 29 13
REMARK SMILES IDX 30 14 80 15 31 16 85 17 79 18 81 19 32 20 84 21 78 22 77 23
REMARK SMILES IDX 33 25 65 26 45 27 64 28 46 29 49 30 63 31 82 32 47 33 48 34
REMARK SMILES IDX 62 36 83 37 50 38 34 39 35 40 43 41 36 42 37 43 41 44 44 45
REMARK SMILES IDX 38 46 39 47 42 48 40 49 66 50 67 51 75 52 68 53 69 54 73 55
REMARK SMILES IDX 76 56 70 57 71 58 74 59 72 60 51 61 52 62 60 63 53 64 54 65
REMARK SMILES IDX 58 66 61 67 55 68 56 69 59 70 57 71 6 72 7 73 8 74 9 76
REMARK SMILES IDX 10 77 11 78 16 79 12 80 13 81 15 82 14 83 17 84 18 86 19 87
REMARK SMILES IDX 20 88 21 89 22 90 23 91 24 92
REMARK H PARENT 3 6 81 24 49 35 7 75 17 85
REMARK Flexibility Score: inf
ROOT
ATOM      1  C   UNL A   1      37.959  19.798  24.759  1.00  0.00     0.042 C 
ENDROOT
BRANCH   1   2
ATOM      2  C   UNL A   1      38.907  20.094  25.913  1.00  0.00     0.118 C 
BRANCH   2   3
ATOM      3  N   UNL A   1      40.053  19.197  25.944  1.00  0.00    -0.352 N 
ATOM      4  O   UNL A   1      42.215  18.571  25.899  1.00  0.00    -0.269 OA
ATOM      5  C   UNL A   1      41.392  19.465  26.086  1.00  0.00     0.251 C 
ATOM      6  H   UNL A   1      39.833  18.242  25.848  1.00  0.00     0.163 HD
BRANCH   5   7
ATOM      7  C   UNL A   1      41.859  20.824  26.442  1.00  0.00     0.039 A 
ATOM      8  C   UNL A   1      42.207  21.145  27.754  1.00  0.00     0.014 A 
ATOM      9  C   UNL A   1      41.987  21.785  25.434  1.00  0.00     0.014 A 
ATOM     10  C   UNL A   1      42.522  22.457  28.086  1.00  0.00     0.010 A 
ATOM     11  C   UNL A   1      42.406  23.082  25.752  1.00  0.00     0.010 A 
ATOM     12  C   UNL A   1      42.645  23.437  27.087  1.00  0.00    -0.014 A 
BRANCH  12  13
ATOM     13  C   UNL A   1      43.093  24.801  27.465  1.00  0.00     0.031 A 
ATOM     14  C   UNL A   1      44.493  25.268  27.187  1.00  0.00     0.074 A 
ATOM     15  C   UNL A   1      42.200  25.639  28.026  1.00  0.00     0.049 A 
ATOM     16  N   UNL A   1      45.033  26.438  27.425  1.00  0.00    -0.248 NA
ATOM     17  C   UNL A   1      45.412  24.301  26.568  1.00  0.00     0.031 C 
ATOM     18  C   UNL A   1      40.814  25.293  28.348  1.00  0.00     0.029 A 
ATOM     19  N   UNL A   1      42.308  26.954  28.401  1.00  0.00    -0.354 N 
ATOM     20  C   UNL A   1      46.351  26.345  26.999  1.00  0.00     0.074 A 
ATOM     21  C   UNL A   1      46.542  24.995  26.512  1.00  0.00     0.031 C 
ATOM     22  C   UNL A   1      40.184  26.381  28.810  1.00  0.00     0.029 A 
ATOM     23  C   UNL A   1      41.137  27.483  28.884  1.00  0.00     0.049 A 
ATOM     24  H   UNL A   1      43.145  27.469  28.329  1.00  0.00     0.167 HD
ATOM     25  C   UNL A   1      47.308  27.305  27.007  1.00  0.00     0.037 A 
ATOM     26  C   UNL A   1      40.858  28.716  29.347  1.00  0.00     0.037 A 
ATOM     27  C   UNL A   1      47.104  28.651  27.477  1.00  0.00     0.049 A 
ATOM     28  C   UNL A   1      41.946  29.749  29.369  1.00  0.00     0.074 A 
ATOM     29  C   UNL A   1      48.007  29.701  27.498  1.00  0.00     0.029 A 
ATOM     30  N   UNL A   1      45.916  29.135  28.006  1.00  0.00    -0.354 N 
ATOM     31  N   UNL A   1      43.184  29.651  28.952  1.00  0.00    -0.248 NA
ATOM     32  C   UNL A   1      41.603  31.060  29.936  1.00  0.00     0.031 C 
ATOM     33  C   UNL A   1      47.380  30.806  28.082  1.00  0.00     0.029 A 
ATOM     34  C   UNL A   1      46.071  30.462  28.377  1.00  0.00     0.049 A 
ATOM     35  H   UNL A   1      45.087  28.614  28.103  1.00  0.00     0.167 HD
ATOM     36  C   UNL A   1      43.767  30.886  29.195  1.00  0.00     0.074 A 
ATOM     37  C   UNL A   1      42.740  31.726  29.777  1.00  0.00     0.031 C 
ATOM     38  C   UNL A   1      45.040  31.283  28.959  1.00  0.00     0.037 A 
BRANCH  25  39
ATOM     39  C   UNL A   1      48.672  26.943  26.497  1.00  0.00     0.064 A 
ATOM     40  C   UNL A   1      48.979  27.072  25.134  1.00  0.00     0.173 A 
ATOM     41  C   UNL A   1      49.647  26.388  27.339  1.00  0.00     0.173 A 
ATOM     42  F   UNL A   1      48.078  27.591  24.285  1.00  0.00    -0.203 F 
ATOM     43  C   UNL A   1      50.204  26.644  24.629  1.00  0.00     0.198 A 
ATOM     44  C   UNL A   1      50.882  25.983  26.836  1.00  0.00     0.198 A 
ATOM     45  F   UNL A   1      49.408  26.253  28.651  1.00  0.00    -0.203 F 
ATOM     46  F   UNL A   1      50.460  26.746  23.318  1.00  0.00    -0.200 F 
ATOM     47  C   UNL A   1      51.155  26.102  25.481  1.00  0.00     0.200 A 
ATOM     48  F   UNL A   1      51.808  25.479  27.663  1.00  0.00    -0.200 F 
ATOM     49  F   UNL A   1      52.336  25.695  24.996  1.00  0.00    -0.200 F 
ENDBRANCH  25  39
BRANCH  26  50
ATOM     50  C   UNL A   1      39.484  29.025  29.814  1.00  0.00     0.064 A 
ATOM     51  C   UNL A   1      38.541  29.618  28.960  1.00  0.00     0.173 A 
ATOM     52  C   UNL A   1      39.102  28.782  31.139  1.00  0.00     0.173 A 
ATOM     53  F   UNL A   1      38.862  29.876  27.683  1.00  0.00    -0.203 F 
ATOM     54  C   UNL A   1      37.280  29.982  29.422  1.00  0.00     0.198 A 
ATOM     55  C   UNL A   1      37.829  29.121  31.594  1.00  0.00     0.198 A 
ATOM     56  F   UNL A   1      39.962  28.201  31.988  1.00  0.00    -0.203 F 
ATOM     57  F   UNL A   1      36.415  30.588  28.596  1.00  0.00    -0.200 F 
ATOM     58  C   UNL A   1      36.922  29.730  30.737  1.00  0.00     0.200 A 
ATOM     59  F   UNL A   1      37.480  28.857  32.860  1.00  0.00    -0.200 F 
ATOM     60  F   UNL A   1      35.706  30.075  31.181  1.00  0.00    -0.200 F 
ENDBRANCH  26  50
BRANCH  38  61
ATOM     61  C   UNL A   1      45.399  32.694  29.321  1.00  0.00     0.064 A 
ATOM     62  C   UNL A   1      45.231  33.731  28.391  1.00  0.00     0.173 A 
ATOM     63  C   UNL A   1      45.973  33.006  30.562  1.00  0.00     0.173 A 
ATOM     64  F   UNL A   1      44.693  33.480  27.188  1.00  0.00    -0.203 F 
ATOM     65  C   UNL A   1      45.637  35.029  28.687  1.00  0.00     0.198 A 
ATOM     66  C   UNL A   1      46.353  34.311  30.863  1.00  0.00     0.198 A 
ATOM     67  F   UNL A   1      46.140  32.050  31.487  1.00  0.00    -0.203 F 
ATOM     68  F   UNL A   1      45.495  35.999  27.773  1.00  0.00    -0.200 F 
ATOM     69  C   UNL A   1      46.193  35.319  29.923  1.00  0.00     0.200 A 
ATOM     70  F   UNL A   1      46.870  34.595  32.067  1.00  0.00    -0.200 F 
ATOM     71  F   UNL A   1      46.575  36.571  30.211  1.00  0.00    -0.200 F 
ENDBRANCH  38  61
ENDBRANCH  12  13
ENDBRANCH   5   7
ENDBRANCH   2   3
ENDBRANCH   1   2
BRANCH   1  72
ATOM     72  C   UNL A   1      36.825  20.806  24.624  1.00  0.00     0.118 C 
BRANCH  72  73
ATOM     73  N   UNL A   1      35.899  20.719  25.745  1.00  0.00    -0.352 N 
ATOM     74  C   UNL A   1      34.558  21.003  25.788  1.00  0.00     0.256 C 
ATOM     75  H   UNL A   1      36.293  20.414  26.595  1.00  0.00     0.163 HD
ATOM     76  O   UNL A   1      34.010  21.185  26.871  1.00  0.00    -0.269 OA
BRANCH  74  77
ATOM     77  C   UNL A   1      33.787  21.185  24.549  1.00  0.00     0.099 A 
ATOM     78  C   UNL A   1      33.857  22.408  23.875  1.00  0.00     0.138 A 
ATOM     79  C   UNL A   1      32.983  20.148  24.043  1.00  0.00     0.065 A 
ATOM     80  F   UNL A   1      34.654  23.394  24.316  1.00  0.00    -0.206 F 
ATOM     81  C   UNL A   1      33.064  22.658  22.763  1.00  0.00     0.040 A 
ATOM     82  C   UNL A   1      32.164  20.423  22.942  1.00  0.00     0.028 A 
ATOM     83  C   UNL A   1      32.204  21.667  22.304  1.00  0.00     0.005 A 
BRANCH  79  84
ATOM     84  N   UNL A   1      32.870  18.875  24.720  1.00  0.00    -0.275 N 
ATOM     85  H   UNL A   1      32.311  18.782  25.525  1.00  0.00     0.180 HD
BRANCH  84  86
ATOM     86  S   UNL A   1      33.730  17.529  24.090  1.00  0.00     0.333 S 
ATOM     87  O   UNL A   1      33.199  17.265  22.766  1.00  0.00    -0.197 OA
ATOM     88  O   UNL A   1      35.123  17.926  24.233  1.00  0.00    -0.197 OA
BRANCH  86  89
ATOM     89  C   UNL A   1      33.384  16.102  25.238  1.00  0.00     0.516 C 
ATOM     90  F   UNL A   1      32.636  16.476  26.317  1.00  0.00    -0.155 F 
ATOM     91  F   UNL A   1      32.687  15.105  24.616  1.00  0.00    -0.155 F 
ATOM     92  F   UNL A   1      34.521  15.532  25.725  1.00  0.00    -0.155 F 
ENDBRANCH  86  89
ENDBRANCH  84  86
ENDBRANCH  79  84
ENDBRANCH  74  77
ENDBRANCH  72  73
ENDBRANCH   1  72
TORSDOF 13
ENDMDL
MODEL 3
REMARK VINA RESULT:     -12.0      1.808      2.880
REMARK SMILES O=C(NCCCNC(=O)c1c(F)cccc1NS(=O)(=O)C(F)(F)F)c1ccc(-c2c3nc(c(-c4c(F)c(F)c(F)c(F)c4F)c4ccc([nH]4)c(-c4c(F)c(F)c(F)c(F)c4F)c4nc(c(-c5c(F)c(F)c(F)c(F)c5F)c5ccc2[nH]5)C=C4)C=C3)cc1
REMARK SMILES IDX 5 1 4 2 3 3 1 4 2 5 25 7 26 8 87 9 27 10 86 11 28 12 29 13
REMARK SMILES IDX 30 14 80 15 31 16 85 17 79 18 81 19 32 20 84 21 78 22 77 23
REMARK SMILES IDX 33 25 65 26 45 27 64 28 46 29 49 30 63 31 82 32 47 33 48 34
REMARK SMILES IDX 62 36 83 37 50 38 34 39 35 40 43 41 36 42 37 43 41 44 44 45
REMARK SMILES IDX 38 46 39 47 42 48 40 49 66 50 67 51 75 52 68 53 69 54 73 55
REMARK SMILES IDX 76 56 70 57 71 58 74 59 72 60 51 61 52 62 60 63 53 64 54 65
REMARK SMILES IDX 58 66 61 67 55 68 56 69 59 70 57 71 6 72 7 73 8 74 9 76
REMARK SMILES IDX 10 77 11 78 16 79 12 80 13 81 15 82 14 83 17 84 18 86 19 87
REMARK SMILES IDX 20 88 21 89 22 90 23 91 24 92
REMARK H PARENT 3 6 81 24 49 35 7 75 17 85
REMARK Flexibility Score: inf
ROOT
ATOM      1  C   UNL A   1      31.384  31.801  26.593  1.00  0.00     0.042 C 
ENDROOT
BRANCH   1   2
ATOM      2  C   UNL A   1      32.711  32.493  26.876  1.00  0.00     0.118 C 
BRANCH   2   3
ATOM      3  N   UNL A   1      32.542  33.830  27.427  1.00  0.00    -0.352 N 
ATOM      4  O   UNL A   1      32.744  35.521  28.898  1.00  0.00    -0.269 OA
ATOM      5  C   UNL A   1      33.169  34.446  28.481  1.00  0.00     0.251 C 
ATOM      6  H   UNL A   1      31.869  34.383  26.969  1.00  0.00     0.163 HD
BRANCH   5   7
ATOM      7  C   UNL A   1      34.340  33.820  29.136  1.00  0.00     0.039 A 
ATOM      8  C   UNL A   1      35.637  34.256  28.863  1.00  0.00     0.014 A 
ATOM      9  C   UNL A   1      34.132  32.801  30.072  1.00  0.00     0.014 A 
ATOM     10  C   UNL A   1      36.724  33.573  29.393  1.00  0.00     0.010 A 
ATOM     11  C   UNL A   1      35.226  32.182  30.687  1.00  0.00     0.010 A 
ATOM     12  C   UNL A   1      36.533  32.541  30.327  1.00  0.00    -0.014 A 
BRANCH  12  13
ATOM     13  C   UNL A   1      37.719  31.909  30.958  1.00  0.00     0.031 A 
ATOM     14  C   UNL A   1      38.114  32.226  32.372  1.00  0.00     0.074 A 
ATOM     15  C   UNL A   1      38.418  31.001  30.249  1.00  0.00     0.049 A 
ATOM     16  N   UNL A   1      39.102  31.738  33.080  1.00  0.00    -0.248 NA
ATOM     17  C   UNL A   1      37.303  33.224  33.087  1.00  0.00     0.031 C 
ATOM     18  C   UNL A   1      38.130  30.618  28.865  1.00  0.00     0.029 A 
ATOM     19  N   UNL A   1      39.489  30.218  30.594  1.00  0.00    -0.354 N 
ATOM     20  C   UNL A   1      39.040  32.374  34.312  1.00  0.00     0.074 A 
ATOM     21  C   UNL A   1      37.934  33.306  34.251  1.00  0.00     0.031 C 
ATOM     22  C   UNL A   1      38.959  29.631  28.501  1.00  0.00     0.029 A 
ATOM     23  C   UNL A   1      39.882  29.359  29.597  1.00  0.00     0.049 A 
ATOM     24  H   UNL A   1      39.934  30.267  31.471  1.00  0.00     0.167 HD
ATOM     25  C   UNL A   1      39.831  32.186  35.397  1.00  0.00     0.037 A 
ATOM     26  C   UNL A   1      40.881  28.457  29.561  1.00  0.00     0.037 A 
ATOM     27  C   UNL A   1      40.918  31.243  35.456  1.00  0.00     0.049 A 
ATOM     28  C   UNL A   1      41.757  28.291  30.769  1.00  0.00     0.074 A 
ATOM     29  C   UNL A   1      41.758  30.963  36.521  1.00  0.00     0.029 A 
ATOM     30  N   UNL A   1      41.317  30.426  34.408  1.00  0.00    -0.354 N 
ATOM     31  N   UNL A   1      41.679  28.890  31.931  1.00  0.00    -0.248 NA
ATOM     32  C   UNL A   1      42.866  27.335  30.656  1.00  0.00     0.031 C 
ATOM     33  C   UNL A   1      42.692  30.010  36.104  1.00  0.00     0.029 A 
ATOM     34  C   UNL A   1      42.404  29.658  34.795  1.00  0.00     0.049 A 
ATOM     35  H   UNL A   1      40.890  30.395  33.521  1.00  0.00     0.167 HD
ATOM     36  C   UNL A   1      42.719  28.379  32.693  1.00  0.00     0.074 A 
ATOM     37  C   UNL A   1      43.402  27.404  31.867  1.00  0.00     0.031 C 
ATOM     38  C   UNL A   1      43.075  28.694  33.961  1.00  0.00     0.037 A 
BRANCH  25  39
ATOM     39  C   UNL A   1      39.561  33.016  36.618  1.00  0.00     0.064 A 
ATOM     40  C   UNL A   1      38.577  32.627  37.539  1.00  0.00     0.173 A 
ATOM     41  C   UNL A   1      40.212  34.240  36.832  1.00  0.00     0.173 A 
ATOM     42  F   UNL A   1      37.919  31.468  37.376  1.00  0.00    -0.203 F 
ATOM     43  C   UNL A   1      38.243  33.439  38.620  1.00  0.00     0.198 A 
ATOM     44  C   UNL A   1      39.894  35.038  37.928  1.00  0.00     0.198 A 
ATOM     45  F   UNL A   1      41.167  34.653  35.987  1.00  0.00    -0.203 F 
ATOM     46  F   UNL A   1      37.277  33.060  39.468  1.00  0.00    -0.200 F 
ATOM     47  C   UNL A   1      38.903  34.642  38.815  1.00  0.00     0.200 A 
ATOM     48  F   UNL A   1      40.547  36.191  38.127  1.00  0.00    -0.200 F 
ATOM     49  F   UNL A   1      38.586  35.421  39.858  1.00  0.00    -0.200 F 
ENDBRANCH  25  39
BRANCH  26  50
ATOM     50  C   UNL A   1      41.084  27.644  28.336  1.00  0.00     0.064 A 
ATOM     51  C   UNL A   1      40.464  26.395  28.180  1.00  0.00     0.173 A 
ATOM     52  C   UNL A   1      41.945  28.077  27.320  1.00  0.00     0.173 A 
ATOM     53  F   UNL A   1      39.635  25.935  29.129  1.00  0.00    -0.203 F 
ATOM     54  C   UNL A   1      40.720  25.598  27.069  1.00  0.00     0.198 A 
ATOM     55  C   UNL A   1      42.180  27.291  26.194  1.00  0.00     0.198 A 
ATOM     56  F   UNL A   1      42.547  29.271  27.416  1.00  0.00    -0.203 F 
ATOM     57  F   UNL A   1      40.149  24.390  26.967  1.00  0.00    -0.200 F 
ATOM     58  C   UNL A   1      41.575  26.047  26.074  1.00  0.00     0.200 A 
ATOM     59  F   UNL A   1      42.990  27.737  25.225  1.00  0.00    -0.200 F 
ATOM     60  F   UNL A   1      41.818  25.283  25.001  1.00  0.00    -0.200 F 
ENDBRANCH  26  50
BRANCH  38  61
ATOM     61  C   UNL A   1      44.254  27.973  34.545  1.00  0.00     0.064 A 
ATOM     62  C   UNL A   1      44.079  26.756  35.221  1.00  0.00     0.173 A 
ATOM     63  C   UNL A   1      45.544  28.520  34.493  1.00  0.00     0.173 A 
ATOM     64  F   UNL A   1      42.862  26.197  35.303  1.00  0.00    -0.203 F 
ATOM     65  C   UNL A   1      45.152  26.120  35.837  1.00  0.00     0.198 A 
ATOM     66  C   UNL A   1      46.619  27.867  35.088  1.00  0.00     0.198 A 
ATOM     67  F   UNL A   1      45.762  29.674  33.846  1.00  0.00    -0.203 F 
ATOM     68  F   UNL A   1      44.957  24.974  36.504  1.00  0.00    -0.200 F 
ATOM     69  C   UNL A   1      46.421  26.673  35.767  1.00  0.00     0.200 A 
ATOM     70  F   UNL A   1      47.850  28.390  35.000  1.00  0.00    -0.200 F 
ATOM     71  F   UNL A   1      47.456  26.054  36.351  1.00  0.00    -0.200 F 
ENDBRANCH  38  61
ENDBRANCH  12  13
ENDBRANCH   5   7
ENDBRANCH   2   3
ENDBRANCH   1   2
BRANCH   1  72
ATOM     72  C   UNL A   1      31.521  30.316  26.283  1.00  0.00     0.118 C 
BRANCH  72  73
ATOM     73  N   UNL A   1      32.179  30.098  25.001  1.00  0.00    -0.352 N 
ATOM     74  C   UNL A   1      32.090  29.025  24.152  1.00  0.00     0.256 C 
ATOM     75  H   UNL A   1      32.773  30.825  24.702  1.00  0.00     0.163 HD
ATOM     76  O   UNL A   1      32.946  28.864  23.286  1.00  0.00    -0.269 OA
BRANCH  74  77
ATOM     77  C   UNL A   1      31.036  28.014  24.323  1.00  0.00     0.099 A 
ATOM     78  C   UNL A   1      31.178  27.042  25.317  1.00  0.00     0.138 A 
ATOM     79  C   UNL A   1      29.898  28.015  23.497  1.00  0.00     0.065 A 
ATOM     80  F   UNL A   1      32.234  27.052  26.145  1.00  0.00    -0.206 F 
ATOM     81  C   UNL A   1      30.260  26.007  25.442  1.00  0.00     0.040 A 
ATOM     82  C   UNL A   1      28.997  26.950  23.611  1.00  0.00     0.028 A 
ATOM     83  C   UNL A   1      29.174  25.953  24.577  1.00  0.00     0.005 A 
BRANCH  79  84
ATOM     84  N   UNL A   1      29.722  28.992  22.445  1.00  0.00    -0.275 N 
ATOM     85  H   UNL A   1      30.463  29.214  21.837  1.00  0.00     0.180 HD
BRANCH  84  86
ATOM     86  S   UNL A   1      28.194  29.758  22.281  1.00  0.00     0.333 S 
ATOM     87  O   UNL A   1      28.028  30.082  20.876  1.00  0.00    -0.197 OA
ATOM     88  O   UNL A   1      27.278  28.816  22.909  1.00  0.00    -0.197 OA
BRANCH  86  89
ATOM     89  C   UNL A   1      28.271  31.308  23.313  1.00  0.00     0.516 C 
ATOM     90  F   UNL A   1      28.130  32.438  22.560  1.00  0.00    -0.155 F 
ATOM     91  F   UNL A   1      27.278  31.347  24.251  1.00  0.00    -0.155 F 
ATOM     92  F   UNL A   1      29.446  31.430  23.991  1.00  0.00    -0.155 F 
ENDBRANCH  86  89
ENDBRANCH  84  86
ENDBRANCH  79  84
ENDBRANCH  74  77
ENDBRANCH  72  73
ENDBRANCH   1  72
TORSDOF 13
ENDMDL
