MODEL 1
REMARK VINA RESULT:     -15.0      0.000      0.000
REMARK SMILES COc1ccc(-c2[nH]nc3nc(-c4ccc(C(F)(F)F)cc4)cc(C(=O)NCCCNC(=O)c4ccc(-c5c6nc(c(-c7c(F)c(F)c(F)c(F)c7F)c7ccc([nH]7)c(-c7c(F)c(F)c(F)c(F)c7F)c7nc(c(-c8c(F)c(F)c(F)c(F)c8F)c8ccc5[nH]8)C=C7)C=C6)cc4)c23)cc1
REMARK SMILES IDX 29 1 28 2 27 3 25 4 26 5 24 7 7 8 8 9 97 10 9 11 10 13 11 14
REMARK SMILES IDX 23 15 12 16 6 17 3 18 4 19 99 20 5 21 98 22 2 23 1 24 13 25
REMARK SMILES IDX 14 26 22 27 15 28 21 29 16 30 17 31 18 32 19 33 20 34 30 35
REMARK SMILES IDX 31 36 32 37 33 39 34 40 35 41 96 42 36 43 95 44 37 45 38 46
REMARK SMILES IDX 39 47 89 48 40 49 94 50 88 51 90 52 41 53 93 54 87 55 86 56
REMARK SMILES IDX 42 58 74 59 54 60 73 61 55 62 58 63 72 64 91 65 56 66 57 67
REMARK SMILES IDX 71 69 92 70 59 71 43 72 44 73 52 74 45 75 46 76 50 77 53 78
REMARK SMILES IDX 47 79 48 80 51 81 49 82 75 83 76 84 84 85 77 86 78 87 82 88
REMARK SMILES IDX 85 89 79 90 80 91 83 92 81 93 60 94 61 95 69 96 62 97 63 98
REMARK SMILES IDX 67 99 70 100 64 101 65 102 68 103 66 104
REMARK H PARENT 27 6 8 12 31 38 90 57 58 68
REMARK Flexibility Score: inf
ROOT
ATOM      1  C   UNL A   1      37.142  23.586  24.997  1.00  0.00     0.042 C 
ENDROOT
BRANCH   1   2
ATOM      2  C   UNL A   1      36.089  22.525  24.641  1.00  0.00     0.118 C 
BRANCH   2   3
ATOM      3  N   UNL A   1      35.196  22.951  23.571  1.00  0.00    -0.352 N 
ATOM      4  C   UNL A   1      34.044  23.706  23.507  1.00  0.00     0.252 C 
ATOM      5  O   UNL A   1      33.683  23.975  22.368  1.00  0.00    -0.269 OA
ATOM      6  H   UNL A   1      35.484  22.625  22.688  1.00  0.00     0.163 HD
BRANCH   4   7
ATOM      7  C   UNL A   1      33.294  24.189  24.692  1.00  0.00     0.055 A 
ATOM      8  C   UNL A   1      31.787  22.242  25.370  1.00  0.00     0.075 A 
ATOM      9  N   UNL A   1      30.795  22.199  26.326  1.00  0.00    -0.275 N 
ATOM     10  C   UNL A   1      32.281  23.539  25.432  1.00  0.00     0.059 A 
ATOM     11  N   UNL A   1      30.609  23.332  27.011  1.00  0.00    -0.154 NA
ATOM     12  H   UNL A   1      30.262  21.389  26.495  1.00  0.00     0.190 HD
ATOM     13  C   UNL A   1      31.508  24.163  26.492  1.00  0.00     0.182 A 
ATOM     14  N   UNL A   1      31.679  25.453  26.881  1.00  0.00    -0.226 NA
ATOM     15  C   UNL A   1      33.497  25.463  25.232  1.00  0.00     0.043 A 
ATOM     16  C   UNL A   1      32.680  26.066  26.214  1.00  0.00     0.074 A 
BRANCH   8  17
ATOM     17  C   UNL A   1      32.098  21.027  24.626  1.00  0.00     0.001 A 
ATOM     18  C   UNL A   1      32.681  18.670  23.200  1.00  0.00     0.118 A 
ATOM     19  C   UNL A   1      32.935  18.751  24.570  1.00  0.00     0.047 A 
ATOM     20  C   UNL A   1      32.153  19.777  22.538  1.00  0.00     0.047 A 
ATOM     21  C   UNL A   1      32.652  19.921  25.281  1.00  0.00     0.014 A 
ATOM     22  C   UNL A   1      31.884  20.956  23.244  1.00  0.00     0.014 A 
BRANCH  18  23
ATOM     23  O   UNL A   1      32.956  17.455  22.635  1.00  0.00    -0.497 OA
ATOM     24  C   UNL A   1      33.849  16.613  23.354  1.00  0.00     0.278 C 
ENDBRANCH  18  23
ENDBRANCH   8  17
BRANCH  16  25
ATOM     25  C   UNL A   1      32.876  27.506  26.443  1.00  0.00     0.000 A 
ATOM     26  C   UNL A   1      31.815  28.366  26.745  1.00  0.00     0.011 A 
ATOM     27  C   UNL A   1      34.187  28.022  26.487  1.00  0.00     0.011 A 
ATOM     28  C   UNL A   1      32.064  29.690  27.134  1.00  0.00     0.014 A 
ATOM     29  C   UNL A   1      34.438  29.338  26.874  1.00  0.00     0.014 A 
ATOM     30  C   UNL A   1      33.379  30.183  27.220  1.00  0.00     0.056 A 
BRANCH  30  31
ATOM     31  C   UNL A   1      33.639  31.594  27.688  1.00  0.00     0.416 C 
ATOM     32  F   UNL A   1      34.830  32.083  27.251  1.00  0.00    -0.166 F 
ATOM     33  F   UNL A   1      32.689  32.467  27.250  1.00  0.00    -0.166 F 
ATOM     34  F   UNL A   1      33.656  31.720  29.045  1.00  0.00    -0.166 F 
ENDBRANCH  30  31
ENDBRANCH  16  25
ENDBRANCH   4   7
ENDBRANCH   2   3
ENDBRANCH   1   2
BRANCH   1  35
ATOM     35  C   UNL A   1      37.728  23.390  26.385  1.00  0.00     0.118 C 
BRANCH  35  36
ATOM     36  N   UNL A   1      38.903  22.519  26.367  1.00  0.00    -0.352 N 
ATOM     37  C   UNL A   1      40.237  22.853  26.459  1.00  0.00     0.251 C 
ATOM     38  H   UNL A   1      38.714  21.556  26.277  1.00  0.00     0.163 HD
ATOM     39  O   UNL A   1      41.109  22.057  26.138  1.00  0.00    -0.269 OA
BRANCH  37  40
ATOM     40  C   UNL A   1      40.597  24.200  26.930  1.00  0.00     0.039 A 
ATOM     41  C   UNL A   1      40.131  25.340  26.270  1.00  0.00     0.014 A 
ATOM     42  C   UNL A   1      41.357  24.305  28.088  1.00  0.00     0.014 A 
ATOM     43  C   UNL A   1      40.358  26.590  26.840  1.00  0.00     0.010 A 
ATOM     44  C   UNL A   1      41.426  25.512  28.734  1.00  0.00     0.010 A 
ATOM     45  C   UNL A   1      40.990  26.668  28.088  1.00  0.00    -0.014 A 
BRANCH  45  46
ATOM     46  C   UNL A   1      41.161  27.947  28.772  1.00  0.00     0.031 A 
ATOM     47  C   UNL A   1      42.331  28.778  28.358  1.00  0.00     0.074 A 
ATOM     48  C   UNL A   1      40.172  28.470  29.530  1.00  0.00     0.049 A 
ATOM     49  N   UNL A   1      43.271  29.276  29.096  1.00  0.00    -0.248 NA
ATOM     50  C   UNL A   1      42.505  29.051  26.922  1.00  0.00     0.031 C 
ATOM     51  C   UNL A   1      38.819  27.940  29.754  1.00  0.00     0.029 A 
ATOM     52  N   UNL A   1      40.125  29.677  30.152  1.00  0.00    -0.354 N 
ATOM     53  C   UNL A   1      44.077  30.043  28.251  1.00  0.00     0.074 A 
ATOM     54  C   UNL A   1      43.632  29.765  26.911  1.00  0.00     0.031 C 
ATOM     55  C   UNL A   1      38.024  28.918  30.233  1.00  0.00     0.029 A 
ATOM     56  C   UNL A   1      38.851  30.071  30.531  1.00  0.00     0.049 A 
ATOM     57  H   UNL A   1      40.926  30.225  30.320  1.00  0.00     0.167 HD
ATOM     58  C   UNL A   1      44.931  30.990  28.734  1.00  0.00     0.037 A 
ATOM     59  C   UNL A   1      38.487  31.274  31.028  1.00  0.00     0.037 A 
ATOM     60  C   UNL A   1      45.175  30.802  30.140  1.00  0.00     0.049 A 
ATOM     61  C   UNL A   1      39.714  31.946  31.513  1.00  0.00     0.074 A 
ATOM     62  C   UNL A   1      45.744  29.803  30.903  1.00  0.00     0.029 A 
ATOM     63  N   UNL A   1      44.501  31.605  31.026  1.00  0.00    -0.354 N 
ATOM     64  N   UNL A   1      40.415  31.538  32.536  1.00  0.00    -0.248 NA
ATOM     65  C   UNL A   1      40.412  32.828  30.591  1.00  0.00     0.031 C 
ATOM     66  C   UNL A   1      44.975  29.777  32.105  1.00  0.00     0.029 A 
ATOM     67  C   UNL A   1      44.021  30.792  32.019  1.00  0.00     0.049 A 
ATOM     68  H   UNL A   1      44.385  32.580  30.961  1.00  0.00     0.167 HD
ATOM     69  C   UNL A   1      41.735  31.761  32.173  1.00  0.00     0.074 A 
ATOM     70  C   UNL A   1      41.665  32.654  31.019  1.00  0.00     0.031 C 
ATOM     71  C   UNL A   1      42.742  30.981  32.663  1.00  0.00     0.037 A 
BRANCH  58  72
ATOM     72  C   UNL A   1      45.310  32.276  28.030  1.00  0.00     0.064 A 
ATOM     73  C   UNL A   1      44.307  33.223  27.730  1.00  0.00     0.173 A 
ATOM     74  C   UNL A   1      46.546  32.482  27.379  1.00  0.00     0.173 A 
ATOM     75  F   UNL A   1      43.088  33.127  28.281  1.00  0.00    -0.203 F 
ATOM     76  C   UNL A   1      44.499  34.238  26.787  1.00  0.00     0.198 A 
ATOM     77  C   UNL A   1      46.752  33.530  26.481  1.00  0.00     0.198 A 
ATOM     78  F   UNL A   1      47.564  31.623  27.497  1.00  0.00    -0.203 F 
ATOM     79  F   UNL A   1      43.475  35.028  26.441  1.00  0.00    -0.200 F 
ATOM     80  C   UNL A   1      45.720  34.385  26.157  1.00  0.00     0.200 A 
ATOM     81  F   UNL A   1      47.939  33.648  25.870  1.00  0.00    -0.200 F 
ATOM     82  F   UNL A   1      45.889  35.314  25.207  1.00  0.00    -0.200 F 
ENDBRANCH  58  72
BRANCH  59  83
ATOM     83  C   UNL A   1      37.191  31.962  30.870  1.00  0.00     0.064 A 
ATOM     84  C   UNL A   1      36.226  31.946  31.886  1.00  0.00     0.173 A 
ATOM     85  C   UNL A   1      36.973  32.858  29.803  1.00  0.00     0.173 A 
ATOM     86  F   UNL A   1      36.388  31.152  32.953  1.00  0.00    -0.203 F 
ATOM     87  C   UNL A   1      35.112  32.790  31.845  1.00  0.00     0.198 A 
ATOM     88  C   UNL A   1      35.858  33.693  29.760  1.00  0.00     0.198 A 
ATOM     89  F   UNL A   1      37.885  32.998  28.830  1.00  0.00    -0.203 F 
ATOM     90  F   UNL A   1      34.235  32.786  32.859  1.00  0.00    -0.200 F 
ATOM     91  C   UNL A   1      34.933  33.667  30.787  1.00  0.00     0.200 A 
ATOM     92  F   UNL A   1      35.716  34.564  28.749  1.00  0.00    -0.200 F 
ATOM     93  F   UNL A   1      33.895  34.514  30.777  1.00  0.00    -0.200 F 
ENDBRANCH  59  83
BRANCH  71  94
ATOM     94  C   UNL A   1      42.422  30.052  33.802  1.00  0.00     0.064 A 
ATOM     95  C   UNL A   1      41.926  28.748  33.630  1.00  0.00     0.173 A 
ATOM     96  C   UNL A   1      42.785  30.436  35.098  1.00  0.00     0.173 A 
ATOM     97  F   UNL A   1      41.656  28.267  32.413  1.00  0.00    -0.203 F 
ATOM     98  C   UNL A   1      41.762  27.886  34.713  1.00  0.00     0.198 A 
ATOM     99  C   UNL A   1      42.655  29.561  36.173  1.00  0.00     0.198 A 
ATOM    100  F   UNL A   1      43.321  31.648  35.315  1.00  0.00    -0.203 F 
ATOM    101  F   UNL A   1      41.280  26.649  34.521  1.00  0.00    -0.200 F 
ATOM    102  C   UNL A   1      42.136  28.291  35.983  1.00  0.00     0.200 A 
ATOM    103  F   UNL A   1      43.066  29.939  37.392  1.00  0.00    -0.200 F 
ATOM    104  F   UNL A   1      42.023  27.447  37.018  1.00  0.00    -0.200 F 
ENDBRANCH  71  94
ENDBRANCH  45  46
ENDBRANCH  37  40
ENDBRANCH  35  36
ENDBRANCH   1  35
TORSDOF 14
ENDMDL
MODEL 2
REMARK VINA RESULT:     -14.7      3.937      9.157
REMARK SMILES COc1ccc(-c2[nH]nc3nc(-c4ccc(C(F)(F)F)cc4)cc(C(=O)NCCCNC(=O)c4ccc(-c5c6nc(c(-c7c(F)c(F)c(F)c(F)c7F)c7ccc([nH]7)c(-c7c(F)c(F)c(F)c(F)c7F)c7nc(c(-c8c(F)c(F)c(F)c(F)c8F)c8ccc5[nH]8)C=C7)C=C6)cc4)c23)cc1
REMARK SMILES IDX 29 1 28 2 27 3 25 4 26 5 24 7 7 8 8 9 97 10 9 11 10 13 11 14
REMARK SMILES IDX 23 15 12 16 6 17 3 18 4 19 99 20 5 21 98 22 2 23 1 24 13 25
REMARK SMILES IDX 14 26 22 27 15 28 21 29 16 30 17 31 18 32 19 33 20 34 30 35
REMARK SMILES IDX 31 36 32 37 33 39 34 40 35 41 96 42 36 43 95 44 37 45 38 46
REMARK SMILES IDX 39 47 89 48 40 49 94 50 88 51 90 52 41 53 93 54 87 55 86 56
REMARK SMILES IDX 42 58 74 59 54 60 73 61 55 62 58 63 72 64 91 65 56 66 57 67
REMARK SMILES IDX 71 69 92 70 59 71 43 72 44 73 52 74 45 75 46 76 50 77 53 78
REMARK SMILES IDX 47 79 48 80 51 81 49 82 75 83 76 84 84 85 77 86 78 87 82 88
REMARK SMILES IDX 85 89 79 90 80 91 83 92 81 93 60 94 61 95 69 96 62 97 63 98
REMARK SMILES IDX 67 99 70 100 64 101 65 102 68 103 66 104
REMARK H PARENT 27 6 8 12 31 38 90 57 58 68
REMARK Flexibility Score: inf
ROOT
ATOM      1  C   UNL A   1      33.632  29.198  27.259  1.00  0.00     0.042 C 
ENDROOT
BRANCH   1   2
ATOM      2  C   UNL A   1      32.707  28.943  26.058  1.00  0.00     0.118 C 
BRANCH   2   3
ATOM      3  N   UNL A   1      31.811  27.812  26.265  1.00  0.00    -0.352 N 
ATOM      4  C   UNL A   1      31.751  26.519  25.791  1.00  0.00     0.252 C 
ATOM      5  O   UNL A   1      30.916  25.818  26.350  1.00  0.00    -0.269 OA
ATOM      6  H   UNL A   1      31.080  28.020  26.890  1.00  0.00     0.163 HD
BRANCH   4   7
ATOM      7  C   UNL A   1      32.623  25.981  24.718  1.00  0.00     0.055 A 
ATOM      8  C   UNL A   1      31.474  26.630  22.532  1.00  0.00     0.075 A 
ATOM      9  N   UNL A   1      31.791  26.272  21.240  1.00  0.00    -0.275 N 
ATOM     10  C   UNL A   1      32.431  26.002  23.319  1.00  0.00     0.059 A 
ATOM     11  N   UNL A   1      32.865  25.486  21.110  1.00  0.00    -0.154 NA
ATOM     12  H   UNL A   1      31.264  26.574  20.465  1.00  0.00     0.190 HD
ATOM     13  C   UNL A   1      33.280  25.313  22.362  1.00  0.00     0.182 A 
ATOM     14  N   UNL A   1      34.356  24.566  22.721  1.00  0.00    -0.226 NA
ATOM     15  C   UNL A   1      33.813  25.301  24.998  1.00  0.00     0.043 A 
ATOM     16  C   UNL A   1      34.576  24.582  24.052  1.00  0.00     0.074 A 
BRANCH   8  17
ATOM     17  C   UNL A   1      30.356  27.540  22.753  1.00  0.00     0.001 A 
ATOM     18  C   UNL A   1      28.193  29.298  23.158  1.00  0.00     0.118 A 
ATOM     19  C   UNL A   1      29.399  29.766  22.632  1.00  0.00     0.047 A 
ATOM     20  C   UNL A   1      28.076  27.952  23.500  1.00  0.00     0.047 A 
ATOM     21  C   UNL A   1      30.477  28.898  22.436  1.00  0.00     0.014 A 
ATOM     22  C   UNL A   1      29.159  27.083  23.320  1.00  0.00     0.014 A 
BRANCH  18  23
ATOM     23  O   UNL A   1      27.204  30.238  23.254  1.00  0.00    -0.497 OA
ATOM     24  C   UNL A   1      27.625  31.571  23.524  1.00  0.00     0.278 C 
ENDBRANCH  18  23
ENDBRANCH   8  17
BRANCH  16  25
ATOM     25  C   UNL A   1      35.627  23.700  24.585  1.00  0.00     0.000 A 
ATOM     26  C   UNL A   1      36.081  22.575  23.889  1.00  0.00     0.011 A 
ATOM     27  C   UNL A   1      36.292  24.064  25.773  1.00  0.00     0.011 A 
ATOM     28  C   UNL A   1      37.204  21.868  24.342  1.00  0.00     0.014 A 
ATOM     29  C   UNL A   1      37.410  23.363  26.225  1.00  0.00     0.014 A 
ATOM     30  C   UNL A   1      37.890  22.266  25.504  1.00  0.00     0.056 A 
BRANCH  30  31
ATOM     31  C   UNL A   1      39.127  21.528  25.955  1.00  0.00     0.416 C 
ATOM     32  F   UNL A   1      39.013  20.179  25.825  1.00  0.00    -0.166 F 
ATOM     33  F   UNL A   1      40.230  21.884  25.239  1.00  0.00    -0.166 F 
ATOM     34  F   UNL A   1      39.447  21.754  27.261  1.00  0.00    -0.166 F 
ENDBRANCH  30  31
ENDBRANCH  16  25
ENDBRANCH   4   7
ENDBRANCH   2   3
ENDBRANCH   1   2
BRANCH   1  35
ATOM     35  C   UNL A   1      34.486  30.443  27.089  1.00  0.00     0.118 C 
BRANCH  35  36
ATOM     36  N   UNL A   1      34.402  31.331  28.249  1.00  0.00    -0.352 N 
ATOM     37  C   UNL A   1      35.227  31.404  29.351  1.00  0.00     0.251 C 
ATOM     38  H   UNL A   1      33.648  31.965  28.241  1.00  0.00     0.163 HD
ATOM     39  O   UNL A   1      34.869  31.986  30.366  1.00  0.00    -0.269 OA
BRANCH  37  40
ATOM     40  C   UNL A   1      36.543  30.750  29.293  1.00  0.00     0.039 A 
ATOM     41  C   UNL A   1      37.704  31.490  29.056  1.00  0.00     0.014 A 
ATOM     42  C   UNL A   1      36.605  29.385  29.549  1.00  0.00     0.014 A 
ATOM     43  C   UNL A   1      38.941  30.861  29.171  1.00  0.00     0.010 A 
ATOM     44  C   UNL A   1      37.818  28.814  29.833  1.00  0.00     0.010 A 
ATOM     45  C   UNL A   1      38.992  29.522  29.582  1.00  0.00    -0.014 A 
BRANCH  45  46
ATOM     46  C   UNL A   1      40.267  28.849  29.814  1.00  0.00     0.031 A 
ATOM     47  C   UNL A   1      40.707  28.716  31.236  1.00  0.00     0.074 A 
ATOM     48  C   UNL A   1      40.873  28.146  28.833  1.00  0.00     0.049 A 
ATOM     49  N   UNL A   1      41.825  29.084  31.774  1.00  0.00    -0.248 NA
ATOM     50  C   UNL A   1      39.753  28.139  32.197  1.00  0.00     0.031 C 
ATOM     51  C   UNL A   1      40.391  27.885  27.468  1.00  0.00     0.029 A 
ATOM     52  N   UNL A   1      41.999  27.389  28.899  1.00  0.00    -0.354 N 
ATOM     53  C   UNL A   1      41.784  28.663  33.106  1.00  0.00     0.074 A 
ATOM     54  C   UNL A   1      40.440  28.203  33.340  1.00  0.00     0.031 C 
ATOM     55  C   UNL A   1      41.071  26.848  26.939  1.00  0.00     0.029 A 
ATOM     56  C   UNL A   1      42.154  26.507  27.840  1.00  0.00     0.049 A 
ATOM     57  H   UNL A   1      42.649  27.459  29.635  1.00  0.00     0.167 HD
ATOM     58  C   UNL A   1      42.913  28.556  33.863  1.00  0.00     0.037 A 
ATOM     59  C   UNL A   1      43.090  25.539  27.719  1.00  0.00     0.037 A 
ATOM     60  C   UNL A   1      44.004  29.287  33.275  1.00  0.00     0.049 A 
ATOM     61  C   UNL A   1      44.179  25.850  28.674  1.00  0.00     0.074 A 
ATOM     62  C   UNL A   1      44.242  30.616  32.987  1.00  0.00     0.029 A 
ATOM     63  N   UNL A   1      44.950  28.583  32.573  1.00  0.00    -0.354 N 
ATOM     64  N   UNL A   1      44.975  26.878  28.564  1.00  0.00    -0.248 NA
ATOM     65  C   UNL A   1      44.107  25.255  29.999  1.00  0.00     0.031 C 
ATOM     66  C   UNL A   1      44.973  30.600  31.762  1.00  0.00     0.029 A 
ATOM     67  C   UNL A   1      45.177  29.266  31.407  1.00  0.00     0.049 A 
ATOM     68  H   UNL A   1      45.385  27.745  32.854  1.00  0.00     0.167 HD
ATOM     69  C   UNL A   1      45.174  27.313  29.866  1.00  0.00     0.074 A 
ATOM     70  C   UNL A   1      44.707  26.214  30.708  1.00  0.00     0.031 C 
ATOM     71  C   UNL A   1      45.433  28.625  30.138  1.00  0.00     0.037 A 
BRANCH  58  72
ATOM     72  C   UNL A   1      43.141  27.546  34.967  1.00  0.00     0.064 A 
ATOM     73  C   UNL A   1      43.486  27.998  36.259  1.00  0.00     0.173 A 
ATOM     74  C   UNL A   1      43.327  26.164  34.744  1.00  0.00     0.173 A 
ATOM     75  F   UNL A   1      43.360  29.292  36.589  1.00  0.00    -0.203 F 
ATOM     76  C   UNL A   1      44.054  27.152  37.217  1.00  0.00     0.198 A 
ATOM     77  C   UNL A   1      43.843  25.312  35.721  1.00  0.00     0.198 A 
ATOM     78  F   UNL A   1      43.125  25.604  33.547  1.00  0.00    -0.203 F 
ATOM     79  F   UNL A   1      44.486  27.657  38.380  1.00  0.00    -0.200 F 
ATOM     80  C   UNL A   1      44.240  25.810  36.943  1.00  0.00     0.200 A 
ATOM     81  F   UNL A   1      44.028  24.016  35.432  1.00  0.00    -0.200 F 
ATOM     82  F   UNL A   1      44.843  25.011  37.832  1.00  0.00    -0.200 F 
ENDBRANCH  58  72
BRANCH  59  83
ATOM     83  C   UNL A   1      42.966  24.246  27.019  1.00  0.00     0.064 A 
ATOM     84  C   UNL A   1      43.481  24.062  25.729  1.00  0.00     0.173 A 
ATOM     85  C   UNL A   1      42.548  23.087  27.706  1.00  0.00     0.173 A 
ATOM     86  F   UNL A   1      43.938  25.111  25.032  1.00  0.00    -0.203 F 
ATOM     87  C   UNL A   1      43.587  22.788  25.162  1.00  0.00     0.198 A 
ATOM     88  C   UNL A   1      42.647  21.819  27.137  1.00  0.00     0.198 A 
ATOM     89  F   UNL A   1      42.118  23.162  28.975  1.00  0.00    -0.203 F 
ATOM     90  F   UNL A   1      44.133  22.641  23.947  1.00  0.00    -0.200 F 
ATOM     91  C   UNL A   1      43.177  21.668  25.870  1.00  0.00     0.200 A 
ATOM     92  F   UNL A   1      42.282  20.740  27.846  1.00  0.00    -0.200 F 
ATOM     93  F   UNL A   1      43.330  20.443  25.348  1.00  0.00    -0.200 F 
ENDBRANCH  59  83
BRANCH  71  94
ATOM     94  C   UNL A   1      45.759  29.532  28.984  1.00  0.00     0.064 A 
ATOM     95  C   UNL A   1      44.793  30.249  28.256  1.00  0.00     0.173 A 
ATOM     96  C   UNL A   1      47.104  29.812  28.714  1.00  0.00     0.173 A 
ATOM     97  F   UNL A   1      43.490  30.119  28.526  1.00  0.00    -0.203 F 
ATOM     98  C   UNL A   1      45.158  31.169  27.276  1.00  0.00     0.198 A 
ATOM     99  C   UNL A   1      47.468  30.759  27.760  1.00  0.00     0.198 A 
ATOM    100  F   UNL A   1      48.071  29.204  29.419  1.00  0.00    -0.203 F 
ATOM    101  F   UNL A   1      44.215  31.834  26.592  1.00  0.00    -0.200 F 
ATOM    102  C   UNL A   1      46.496  31.430  27.035  1.00  0.00     0.200 A 
ATOM    103  F   UNL A   1      48.763  31.046  27.567  1.00  0.00    -0.200 F 
ATOM    104  F   UNL A   1      46.849  32.349  26.126  1.00  0.00    -0.200 F 
ENDBRANCH  71  94
ENDBRANCH  45  46
ENDBRANCH  37  40
ENDBRANCH  35  36
ENDBRANCH   1  35
TORSDOF 14
ENDMDL
MODEL 3
REMARK VINA RESULT:     -14.5      4.343      8.589
REMARK SMILES COc1ccc(-c2[nH]nc3nc(-c4ccc(C(F)(F)F)cc4)cc(C(=O)NCCCNC(=O)c4ccc(-c5c6nc(c(-c7c(F)c(F)c(F)c(F)c7F)c7ccc([nH]7)c(-c7c(F)c(F)c(F)c(F)c7F)c7nc(c(-c8c(F)c(F)c(F)c(F)c8F)c8ccc5[nH]8)C=C7)C=C6)cc4)c23)cc1
REMARK SMILES IDX 29 1 28 2 27 3 25 4 26 5 24 7 7 8 8 9 97 10 9 11 10 13 11 14
REMARK SMILES IDX 23 15 12 16 6 17 3 18 4 19 99 20 5 21 98 22 2 23 1 24 13 25
REMARK SMILES IDX 14 26 22 27 15 28 21 29 16 30 17 31 18 32 19 33 20 34 30 35
REMARK SMILES IDX 31 36 32 37 33 39 34 40 35 41 96 42 36 43 95 44 37 45 38 46
REMARK SMILES IDX 39 47 89 48 40 49 94 50 88 51 90 52 41 53 93 54 87 55 86 56
REMARK SMILES IDX 42 58 74 59 54 60 73 61 55 62 58 63 72 64 91 65 56 66 57 67
REMARK SMILES IDX 71 69 92 70 59 71 43 72 44 73 52 74 45 75 46 76 50 77 53 78
REMARK SMILES IDX 47 79 48 80 51 81 49 82 75 83 76 84 84 85 77 86 78 87 82 88
REMARK SMILES IDX 85 89 79 90 80 91 83 92 81 93 60 94 61 95 69 96 62 97 63 98
REMARK SMILES IDX 67 99 70 100 64 101 65 102 68 103 66 104
REMARK H PARENT 27 6 8 12 31 38 90 57 58 68
REMARK Flexibility Score: inf
ROOT
ATOM      1  C   UNL A   1      33.822  29.979  27.074  1.00  0.00     0.042 C 
ENDROOT
BRANCH   1   2
ATOM      2  C   UNL A   1      33.489  29.077  25.875  1.00  0.00     0.118 C 
BRANCH   2   3
ATOM      3  N   UNL A   1      32.436  28.114  26.168  1.00  0.00    -0.352 N 
ATOM      4  C   UNL A   1      32.163  26.820  25.777  1.00  0.00     0.252 C 
ATOM      5  O   UNL A   1      31.246  26.292  26.393  1.00  0.00    -0.269 OA
ATOM      6  H   UNL A   1      31.762  28.469  26.792  1.00  0.00     0.163 HD
BRANCH   4   7
ATOM      7  C   UNL A   1      32.912  26.090  24.725  1.00  0.00     0.055 A 
ATOM      8  C   UNL A   1      31.574  26.449  22.579  1.00  0.00     0.075 A 
ATOM      9  N   UNL A   1      31.754  25.886  21.335  1.00  0.00    -0.275 N 
ATOM     10  C   UNL A   1      32.585  25.907  23.363  1.00  0.00     0.059 A 
ATOM     11  N   UNL A   1      32.789  25.046  21.229  1.00  0.00    -0.154 NA
ATOM     12  H   UNL A   1      31.162  26.089  20.574  1.00  0.00     0.190 HD
ATOM     13  C   UNL A   1      33.319  25.047  22.449  1.00  0.00     0.182 A 
ATOM     14  N   UNL A   1      34.404  24.319  22.818  1.00  0.00    -0.226 NA
ATOM     15  C   UNL A   1      34.105  25.412  24.995  1.00  0.00     0.043 A 
ATOM     16  C   UNL A   1      34.753  24.527  24.105  1.00  0.00     0.074 A 
BRANCH   8  17
ATOM     17  C   UNL A   1      30.507  27.427  22.760  1.00  0.00     0.001 A 
ATOM     18  C   UNL A   1      28.450  29.315  23.131  1.00  0.00     0.118 A 
ATOM     19  C   UNL A   1      28.265  27.981  23.501  1.00  0.00     0.047 A 
ATOM     20  C   UNL A   1      29.660  29.700  22.555  1.00  0.00     0.047 A 
ATOM     21  C   UNL A   1      29.281  27.040  23.313  1.00  0.00     0.014 A 
ATOM     22  C   UNL A   1      30.674  28.755  22.351  1.00  0.00     0.014 A 
BRANCH  18  23
ATOM     23  O   UNL A   1      27.398  30.142  23.413  1.00  0.00    -0.497 OA
ATOM     24  C   UNL A   1      27.689  31.533  23.474  1.00  0.00     0.278 C 
ENDBRANCH  18  23
ENDBRANCH   8  17
BRANCH  16  25
ATOM     25  C   UNL A   1      35.827  23.693  24.669  1.00  0.00     0.000 A 
ATOM     26  C   UNL A   1      36.230  22.493  24.075  1.00  0.00     0.011 A 
ATOM     27  C   UNL A   1      36.564  24.174  25.769  1.00  0.00     0.011 A 
ATOM     28  C   UNL A   1      37.372  21.823  24.536  1.00  0.00     0.014 A 
ATOM     29  C   UNL A   1      37.701  23.511  26.230  1.00  0.00     0.014 A 
ATOM     30  C   UNL A   1      38.129  22.335  25.605  1.00  0.00     0.056 A 
BRANCH  30  31
ATOM     31  C   UNL A   1      39.385  21.632  26.061  1.00  0.00     0.416 C 
ATOM     32  F   UNL A   1      39.660  21.845  27.376  1.00  0.00    -0.166 F 
ATOM     33  F   UNL A   1      39.307  20.281  25.905  1.00  0.00    -0.166 F 
ATOM     34  F   UNL A   1      40.499  22.018  25.377  1.00  0.00    -0.166 F 
ENDBRANCH  30  31
ENDBRANCH  16  25
ENDBRANCH   4   7
ENDBRANCH   2   3
ENDBRANCH   1   2
BRANCH   1  35
ATOM     35  C   UNL A   1      35.166  29.652  27.702  1.00  0.00     0.118 C 
BRANCH  35  36
ATOM     36  N   UNL A   1      35.256  30.121  29.084  1.00  0.00    -0.352 N 
ATOM     37  C   UNL A   1      36.207  29.833  30.041  1.00  0.00     0.251 C 
ATOM     38  H   UNL A   1      34.535  30.727  29.374  1.00  0.00     0.163 HD
ATOM     39  O   UNL A   1      35.996  30.059  31.225  1.00  0.00    -0.269 OA
BRANCH  37  40
ATOM     40  C   UNL A   1      37.477  29.226  29.615  1.00  0.00     0.039 A 
ATOM     41  C   UNL A   1      38.149  29.688  28.479  1.00  0.00     0.014 A 
ATOM     42  C   UNL A   1      38.024  28.228  30.412  1.00  0.00     0.014 A 
ATOM     43  C   UNL A   1      39.423  29.199  28.203  1.00  0.00     0.010 A 
ATOM     44  C   UNL A   1      39.338  27.881  30.239  1.00  0.00     0.010 A 
ATOM     45  C   UNL A   1      40.023  28.308  29.103  1.00  0.00    -0.014 A 
BRANCH  45  46
ATOM     46  C   UNL A   1      41.395  27.846  28.910  1.00  0.00     0.031 A 
ATOM     47  C   UNL A   1      41.569  26.516  28.250  1.00  0.00     0.074 A 
ATOM     48  C   UNL A   1      42.442  28.686  29.062  1.00  0.00     0.049 A 
ATOM     49  N   UNL A   1      42.230  25.486  28.670  1.00  0.00    -0.248 NA
ATOM     50  C   UNL A   1      40.871  26.288  26.974  1.00  0.00     0.031 C 
ATOM     51  C   UNL A   1      42.419  30.124  29.367  1.00  0.00     0.029 A 
ATOM     52  N   UNL A   1      43.761  28.453  28.833  1.00  0.00    -0.354 N 
ATOM     53  C   UNL A   1      42.158  24.526  27.657  1.00  0.00     0.074 A 
ATOM     54  C   UNL A   1      41.208  25.026  26.698  1.00  0.00     0.031 C 
ATOM     55  C   UNL A   1      43.611  30.672  29.056  1.00  0.00     0.029 A 
ATOM     56  C   UNL A   1      44.530  29.601  28.722  1.00  0.00     0.049 A 
ATOM     57  H   UNL A   1      44.138  27.547  28.752  1.00  0.00     0.167 HD
ATOM     58  C   UNL A   1      43.026  23.476  27.596  1.00  0.00     0.037 A 
ATOM     59  C   UNL A   1      45.827  29.677  28.352  1.00  0.00     0.037 A 
ATOM     60  C   UNL A   1      43.693  23.279  28.856  1.00  0.00     0.049 A 
ATOM     61  C   UNL A   1      46.416  28.327  28.508  1.00  0.00     0.074 A 
ATOM     62  C   UNL A   1      43.283  22.954  30.133  1.00  0.00     0.029 A 
ATOM     63  N   UNL A   1      44.976  23.748  28.988  1.00  0.00    -0.354 N 
ATOM     64  N   UNL A   1      46.595  27.737  29.658  1.00  0.00    -0.248 NA
ATOM     65  C   UNL A   1      46.406  27.447  27.350  1.00  0.00     0.031 C 
ATOM     66  C   UNL A   1      44.137  23.706  30.994  1.00  0.00     0.029 A 
ATOM     67  C   UNL A   1      45.043  24.400  30.191  1.00  0.00     0.049 A 
ATOM     68  H   UNL A   1      45.710  23.637  28.342  1.00  0.00     0.167 HD
ATOM     69  C   UNL A   1      46.304  26.402  29.421  1.00  0.00     0.074 A 
ATOM     70  C   UNL A   1      46.302  26.267  27.966  1.00  0.00     0.031 C 
ATOM     71  C   UNL A   1      45.816  25.600  30.412  1.00  0.00     0.037 A 
BRANCH  58  72
ATOM     72  C   UNL A   1      43.518  22.813  26.327  1.00  0.00     0.064 A 
ATOM     73  C   UNL A   1      43.350  21.420  26.164  1.00  0.00     0.173 A 
ATOM     74  C   UNL A   1      44.403  23.423  25.412  1.00  0.00     0.173 A 
ATOM     75  F   UNL A   1      42.541  20.727  26.979  1.00  0.00    -0.203 F 
ATOM     76  C   UNL A   1      44.077  20.689  25.219  1.00  0.00     0.198 A 
ATOM     77  C   UNL A   1      45.085  22.697  24.434  1.00  0.00     0.198 A 
ATOM     78  F   UNL A   1      44.728  24.717  25.494  1.00  0.00    -0.203 F 
ATOM     79  F   UNL A   1      43.980  19.353  25.193  1.00  0.00    -0.200 F 
ATOM     80  C   UNL A   1      44.950  21.327  24.360  1.00  0.00     0.200 A 
ATOM     81  F   UNL A   1      45.937  23.333  23.619  1.00  0.00    -0.200 F 
ATOM     82  F   UNL A   1      45.696  20.623  23.499  1.00  0.00    -0.200 F 
ENDBRANCH  58  72
BRANCH  59  83
ATOM     83  C   UNL A   1      46.500  30.780  27.638  1.00  0.00     0.064 A 
ATOM     84  C   UNL A   1      45.817  31.568  26.702  1.00  0.00     0.173 A 
ATOM     85  C   UNL A   1      47.771  31.237  28.044  1.00  0.00     0.173 A 
ATOM     86  F   UNL A   1      44.586  31.220  26.302  1.00  0.00    -0.203 F 
ATOM     87  C   UNL A   1      46.367  32.755  26.209  1.00  0.00     0.198 A 
ATOM     88  C   UNL A   1      48.322  32.417  27.547  1.00  0.00     0.198 A 
ATOM     89  F   UNL A   1      48.459  30.589  28.996  1.00  0.00    -0.203 F 
ATOM     90  F   UNL A   1      45.666  33.512  25.355  1.00  0.00    -0.200 F 
ATOM     91  C   UNL A   1      47.615  33.182  26.638  1.00  0.00     0.200 A 
ATOM     92  F   UNL A   1      49.513  32.838  27.997  1.00  0.00    -0.200 F 
ATOM     93  F   UNL A   1      48.117  34.347  26.208  1.00  0.00    -0.200 F 
ENDBRANCH  59  83
BRANCH  71  94
ATOM     94  C   UNL A   1      45.853  26.124  31.821  1.00  0.00     0.064 A 
ATOM     95  C   UNL A   1      44.760  26.740  32.455  1.00  0.00     0.173 A 
ATOM     96  C   UNL A   1      46.977  25.843  32.608  1.00  0.00     0.173 A 
ATOM     97  F   UNL A   1      43.612  26.945  31.803  1.00  0.00    -0.203 F 
ATOM     98  C   UNL A   1      44.808  27.095  33.802  1.00  0.00     0.198 A 
ATOM     99  C   UNL A   1      47.010  26.166  33.962  1.00  0.00     0.198 A 
ATOM    100  F   UNL A   1      48.028  25.202  32.074  1.00  0.00    -0.203 F 
ATOM    101  F   UNL A   1      43.752  27.689  34.379  1.00  0.00    -0.200 F 
ATOM    102  C   UNL A   1      45.930  26.800  34.556  1.00  0.00     0.200 A 
ATOM    103  F   UNL A   1      48.077  25.832  34.701  1.00  0.00    -0.200 F 
ATOM    104  F   UNL A   1      45.960  27.099  35.862  1.00  0.00    -0.200 F 
ENDBRANCH  71  94
ENDBRANCH  45  46
ENDBRANCH  37  40
ENDBRANCH  35  36
ENDBRANCH   1  35
TORSDOF 14
ENDMDL
