MODEL 1
REMARK VINA RESULT:     -13.5      0.000      0.000
REMARK SMILES CC(C)(C)c1cc2c(cc1Cl)C=C(C(=O)NCCCNC(=O)c1ccc(-c3c4nc(c(-c5c(F)c(F)c(F)c(F)c5F)c5ccc([nH]5)c(-c5c(F)c(F)c(F)c(F)c5F)c5nc(c(-c6c(F)c(F)c(F)c(F)c6F)c6ccc3[nH]6)C=C5)C=C4)cc1)[C@H](C(F)(F)F)O2
REMARK SMILES IDX 18 1 17 2 16 3 14 4 15 5 13 7 5 8 6 9 10 10 7 11 9 12 11 13
REMARK SMILES IDX 8 14 91 15 12 16 86 17 2 18 1 19 3 20 4 21 87 22 88 23 89 24
REMARK SMILES IDX 90 25 19 26 20 27 21 28 22 30 23 31 24 32 85 33 25 34 84 35
REMARK SMILES IDX 26 36 27 37 28 38 78 39 29 40 83 41 77 42 79 43 30 44 82 45
REMARK SMILES IDX 76 46 75 47 31 49 63 50 43 51 62 52 44 53 47 54 61 55 80 56
REMARK SMILES IDX 45 57 46 58 60 60 81 61 48 62 32 63 33 64 41 65 34 66 35 67
REMARK SMILES IDX 39 68 42 69 36 70 37 71 40 72 38 73 64 74 65 75 73 76 66 77
REMARK SMILES IDX 67 78 71 79 74 80 68 81 69 82 72 83 70 84 49 85 50 86 58 87
REMARK SMILES IDX 51 88 52 89 56 90 59 91 53 92 54 93 57 94 55 95
REMARK H PARENT 16 6 20 29 79 48 47 59
REMARK Flexibility Score: inf
ROOT
ATOM      1  C   UNL A   1      31.462  32.319  26.609  1.00  0.00     0.042 C 
ENDROOT
BRANCH   1   2
ATOM      2  C   UNL A   1      31.632  30.838  26.298  1.00  0.00     0.118 C 
BRANCH   2   3
ATOM      3  N   UNL A   1      31.075  30.501  24.999  1.00  0.00    -0.352 N 
ATOM      4  C   UNL A   1      31.049  29.431  24.173  1.00  0.00     0.251 C 
ATOM      5  O   UNL A   1      30.404  29.592  23.132  1.00  0.00    -0.270 OA
ATOM      6  H   UNL A   1      30.580  31.260  24.614  1.00  0.00     0.163 HD
BRANCH   4   7
ATOM      7  C   UNL A   1      31.717  28.124  24.433  1.00  0.00     0.067 C 
ATOM      8  C   UNL A   1      32.749  23.388  25.975  1.00  0.00    -0.020 A 
ATOM      9  C   UNL A   1      33.485  24.476  25.458  1.00  0.00     0.053 A 
ATOM     10  C   UNL A   1      31.359  23.603  26.131  1.00  0.00     0.045 A 
ATOM     11  C   UNL A   1      32.890  25.697  25.143  1.00  0.00     0.128 A 
ATOM     12  C   UNL A   1      30.771  24.849  25.839  1.00  0.00     0.032 A 
ATOM     13  Cl  UNL A   1      30.239  22.388  26.642  1.00  0.00    -0.084 Cl
ATOM     14  C   UNL A   1      31.537  25.903  25.351  1.00  0.00     0.019 A 
ATOM     15  O   UNL A   1      33.726  26.663  24.667  1.00  0.00    -0.475 OA
ATOM     16  C   UNL A   1      30.968  27.216  25.086  1.00  0.00     0.025 C 
ATOM     17  C   UNL A   1      33.096  27.760  23.957  1.00  0.00     0.314 C 
BRANCH   8  18
ATOM     18  C   UNL A   1      33.492  22.068  26.296  1.00  0.00    -0.012 C 
ATOM     19  C   UNL A   1      34.990  22.087  25.870  1.00  0.00     0.016 C 
ATOM     20  C   UNL A   1      32.833  20.912  25.518  1.00  0.00     0.016 C 
ATOM     21  C   UNL A   1      33.519  21.755  27.809  1.00  0.00     0.016 C 
ENDBRANCH   8  18
BRANCH  17  22
ATOM     22  C   UNL A   1      33.184  27.528  22.438  1.00  0.00     0.429 C 
ATOM     23  F   UNL A   1      33.989  26.465  22.177  1.00  0.00    -0.167 F 
ATOM     24  F   UNL A   1      31.984  27.267  21.875  1.00  0.00    -0.167 F 
ATOM     25  F   UNL A   1      33.709  28.584  21.776  1.00  0.00    -0.167 F 
ENDBRANCH  17  22
ENDBRANCH   4   7
ENDBRANCH   2   3
ENDBRANCH   1   2
BRANCH   1  26
ATOM     26  C   UNL A   1      32.686  32.908  27.296  1.00  0.00     0.118 C 
BRANCH  26  27
ATOM     27  N   UNL A   1      32.475  34.297  27.690  1.00  0.00    -0.352 N 
ATOM     28  C   UNL A   1      33.035  35.023  28.713  1.00  0.00     0.251 C 
ATOM     29  H   UNL A   1      31.830  34.791  27.135  1.00  0.00     0.163 HD
ATOM     30  O   UNL A   1      32.542  36.101  29.037  1.00  0.00    -0.269 OA
BRANCH  28  31
ATOM     31  C   UNL A   1      34.211  34.501  29.438  1.00  0.00     0.039 A 
ATOM     32  C   UNL A   1      35.493  34.666  28.917  1.00  0.00     0.014 A 
ATOM     33  C   UNL A   1      34.035  33.836  30.655  1.00  0.00     0.014 A 
ATOM     34  C   UNL A   1      36.562  33.991  29.489  1.00  0.00     0.010 A 
ATOM     35  C   UNL A   1      35.135  33.263  31.299  1.00  0.00     0.010 A 
ATOM     36  C   UNL A   1      36.400  33.287  30.692  1.00  0.00    -0.014 A 
BRANCH  36  37
ATOM     37  C   UNL A   1      37.572  32.594  31.290  1.00  0.00     0.031 A 
ATOM     38  C   UNL A   1      38.045  32.936  32.677  1.00  0.00     0.074 A 
ATOM     39  C   UNL A   1      38.172  31.606  30.596  1.00  0.00     0.049 A 
ATOM     40  N   UNL A   1      39.046  32.433  33.355  1.00  0.00    -0.248 NA
ATOM     41  C   UNL A   1      37.303  33.981  33.400  1.00  0.00     0.031 C 
ATOM     42  C   UNL A   1      37.792  31.172  29.250  1.00  0.00     0.029 A 
ATOM     43  N   UNL A   1      39.204  30.768  30.933  1.00  0.00    -0.354 N 
ATOM     44  C   UNL A   1      39.066  33.110  34.567  1.00  0.00     0.074 A 
ATOM     45  C   UNL A   1      37.999  34.086  34.523  1.00  0.00     0.031 C 
ATOM     46  C   UNL A   1      38.533  30.112  28.902  1.00  0.00     0.029 A 
ATOM     47  C   UNL A   1      39.497  29.842  29.962  1.00  0.00     0.049 A 
ATOM     48  H   UNL A   1      39.689  30.826  31.788  1.00  0.00     0.167 HD
ATOM     49  C   UNL A   1      39.888  32.920  35.626  1.00  0.00     0.037 A 
ATOM     50  C   UNL A   1      40.451  28.893  29.915  1.00  0.00     0.037 A 
ATOM     51  C   UNL A   1      40.930  31.926  35.673  1.00  0.00     0.049 A 
ATOM     52  C   UNL A   1      41.387  28.746  31.081  1.00  0.00     0.074 A 
ATOM     53  C   UNL A   1      41.803  31.644  36.709  1.00  0.00     0.029 A 
ATOM     54  N   UNL A   1      41.236  31.051  34.642  1.00  0.00    -0.354 N 
ATOM     55  N   UNL A   1      41.392  29.390  32.221  1.00  0.00    -0.248 NA
ATOM     56  C   UNL A   1      42.457  27.749  30.948  1.00  0.00     0.031 C 
ATOM     57  C   UNL A   1      42.672  30.635  36.286  1.00  0.00     0.029 A 
ATOM     58  C   UNL A   1      42.305  30.246  35.008  1.00  0.00     0.049 A 
ATOM     59  H   UNL A   1      40.765  31.006  33.778  1.00  0.00     0.167 HD
ATOM     60  C   UNL A   1      42.452  28.870  32.949  1.00  0.00     0.074 A 
ATOM     61  C   UNL A   1      43.054  27.837  32.129  1.00  0.00     0.031 C 
ATOM     62  C   UNL A   1      42.891  29.221  34.182  1.00  0.00     0.037 A 
BRANCH  49  63
ATOM     63  C   UNL A   1      39.709  33.805  36.828  1.00  0.00     0.064 A 
ATOM     64  C   UNL A   1      40.294  35.078  36.900  1.00  0.00     0.173 A 
ATOM     65  C   UNL A   1      38.876  33.406  37.886  1.00  0.00     0.173 A 
ATOM     66  F   UNL A   1      41.107  35.503  35.922  1.00  0.00    -0.203 F 
ATOM     67  C   UNL A   1      40.064  35.912  37.991  1.00  0.00     0.198 A 
ATOM     68  C   UNL A   1      38.623  34.255  38.960  1.00  0.00     0.198 A 
ATOM     69  F   UNL A   1      38.285  32.202  37.864  1.00  0.00    -0.203 F 
ATOM     70  F   UNL A   1      40.659  37.110  38.053  1.00  0.00    -0.200 F 
ATOM     71  C   UNL A   1      39.219  35.505  39.014  1.00  0.00     0.200 A 
ATOM     72  F   UNL A   1      37.794  33.866  39.939  1.00  0.00    -0.200 F 
ATOM     73  F   UNL A   1      38.983  36.319  40.053  1.00  0.00    -0.200 F 
ENDBRANCH  49  63
BRANCH  50  74
ATOM     74  C   UNL A   1      40.560  28.018  28.719  1.00  0.00     0.064 A 
ATOM     75  C   UNL A   1      39.877  26.797  28.654  1.00  0.00     0.173 A 
ATOM     76  C   UNL A   1      41.322  28.400  27.603  1.00  0.00     0.173 A 
ATOM     77  F   UNL A   1      39.152  26.379  29.702  1.00  0.00    -0.203 F 
ATOM     78  C   UNL A   1      39.955  25.988  27.522  1.00  0.00     0.198 A 
ATOM     79  C   UNL A   1      41.372  27.607  26.459  1.00  0.00     0.198 A 
ATOM     80  F   UNL A   1      41.992  29.562  27.612  1.00  0.00    -0.203 F 
ATOM     81  F   UNL A   1      39.318  24.810  27.499  1.00  0.00    -0.200 F 
ATOM     82  C   UNL A   1      40.693  26.399  26.422  1.00  0.00     0.200 A 
ATOM     83  F   UNL A   1      42.068  28.019  25.391  1.00  0.00    -0.200 F 
ATOM     84  F   UNL A   1      40.752  25.630  25.326  1.00  0.00    -0.200 F 
ENDBRANCH  50  74
BRANCH  62  85
ATOM     85  C   UNL A   1      44.071  28.477  34.736  1.00  0.00     0.064 A 
ATOM     86  C   UNL A   1      45.378  28.966  34.591  1.00  0.00     0.173 A 
ATOM     87  C   UNL A   1      43.886  27.303  35.483  1.00  0.00     0.173 A 
ATOM     88  F   UNL A   1      45.608  30.076  33.874  1.00  0.00    -0.203 F 
ATOM     89  C   UNL A   1      46.457  28.299  35.162  1.00  0.00     0.198 A 
ATOM     90  C   UNL A   1      44.965  26.657  36.079  1.00  0.00     0.198 A 
ATOM     91  F   UNL A   1      42.656  26.799  35.657  1.00  0.00    -0.203 F 
ATOM     92  F   UNL A   1      47.701  28.764  34.980  1.00  0.00    -0.200 F 
ATOM     93  C   UNL A   1      46.250  27.153  35.915  1.00  0.00     0.200 A 
ATOM     94  F   UNL A   1      44.760  25.560  36.822  1.00  0.00    -0.200 F 
ATOM     95  F   UNL A   1      47.289  26.523  36.481  1.00  0.00    -0.200 F 
ENDBRANCH  62  85
ENDBRANCH  36  37
ENDBRANCH  28  31
ENDBRANCH  26  27
ENDBRANCH   1  26
TORSDOF 12
ENDMDL
MODEL 2
REMARK VINA RESULT:     -13.5      0.102      1.119
REMARK SMILES CC(C)(C)c1cc2c(cc1Cl)C=C(C(=O)NCCCNC(=O)c1ccc(-c3c4nc(c(-c5c(F)c(F)c(F)c(F)c5F)c5ccc([nH]5)c(-c5c(F)c(F)c(F)c(F)c5F)c5nc(c(-c6c(F)c(F)c(F)c(F)c6F)c6ccc3[nH]6)C=C5)C=C4)cc1)[C@H](C(F)(F)F)O2
REMARK SMILES IDX 18 1 17 2 16 3 14 4 15 5 13 7 5 8 6 9 10 10 7 11 9 12 11 13
REMARK SMILES IDX 8 14 91 15 12 16 86 17 2 18 1 19 3 20 4 21 87 22 88 23 89 24
REMARK SMILES IDX 90 25 19 26 20 27 21 28 22 30 23 31 24 32 85 33 25 34 84 35
REMARK SMILES IDX 26 36 27 37 28 38 78 39 29 40 83 41 77 42 79 43 30 44 82 45
REMARK SMILES IDX 76 46 75 47 31 49 63 50 43 51 62 52 44 53 47 54 61 55 80 56
REMARK SMILES IDX 45 57 46 58 60 60 81 61 48 62 32 63 33 64 41 65 34 66 35 67
REMARK SMILES IDX 39 68 42 69 36 70 37 71 40 72 38 73 64 74 65 75 73 76 66 77
REMARK SMILES IDX 67 78 71 79 74 80 68 81 69 82 72 83 70 84 49 85 50 86 58 87
REMARK SMILES IDX 51 88 52 89 56 90 59 91 53 92 54 93 57 94 55 95
REMARK H PARENT 16 6 20 29 79 48 47 59
REMARK Flexibility Score: inf
ROOT
ATOM      1  C   UNL A   1      31.462  32.309  26.600  1.00  0.00     0.042 C 
ENDROOT
BRANCH   1   2
ATOM      2  C   UNL A   1      31.629  30.828  26.292  1.00  0.00     0.118 C 
BRANCH   2   3
ATOM      3  N   UNL A   1      31.073  30.490  24.992  1.00  0.00    -0.352 N 
ATOM      4  C   UNL A   1      31.060  29.425  24.159  1.00  0.00     0.251 C 
ATOM      5  O   UNL A   1      30.410  29.583  23.121  1.00  0.00    -0.270 OA
ATOM      6  H   UNL A   1      30.566  31.245  24.613  1.00  0.00     0.163 HD
BRANCH   4   7
ATOM      7  C   UNL A   1      31.747  28.126  24.409  1.00  0.00     0.067 C 
ATOM      8  C   UNL A   1      32.850  23.395  25.914  1.00  0.00    -0.020 A 
ATOM      9  C   UNL A   1      33.569  24.497  25.406  1.00  0.00     0.053 A 
ATOM     10  C   UNL A   1      31.456  23.587  26.071  1.00  0.00     0.045 A 
ATOM     11  C   UNL A   1      32.957  25.711  25.100  1.00  0.00     0.128 A 
ATOM     12  C   UNL A   1      30.850  24.827  25.790  1.00  0.00     0.032 A 
ATOM     13  Cl  UNL A   1      30.354  22.352  26.573  1.00  0.00    -0.084 Cl
ATOM     14  C   UNL A   1      31.600  25.896  25.309  1.00  0.00     0.019 A 
ATOM     15  O   UNL A   1      33.778  26.694  24.632  1.00  0.00    -0.475 OA
ATOM     16  C   UNL A   1      31.012  27.202  25.055  1.00  0.00     0.025 C 
ATOM     17  C   UNL A   1      33.132  27.787  23.930  1.00  0.00     0.314 C 
BRANCH   8  18
ATOM     18  C   UNL A   1      33.612  22.083  26.225  1.00  0.00    -0.012 C 
ATOM     19  C   UNL A   1      35.119  22.143  25.840  1.00  0.00     0.016 C 
ATOM     20  C   UNL A   1      32.998  20.932  25.405  1.00  0.00     0.016 C 
ATOM     21  C   UNL A   1      33.606  21.736  27.731  1.00  0.00     0.016 C 
ENDBRANCH   8  18
BRANCH  17  22
ATOM     22  C   UNL A   1      33.224  27.567  22.410  1.00  0.00     0.429 C 
ATOM     23  F   UNL A   1      34.031  26.508  22.141  1.00  0.00    -0.167 F 
ATOM     24  F   UNL A   1      32.025  27.310  21.842  1.00  0.00    -0.167 F 
ATOM     25  F   UNL A   1      33.748  28.630  21.758  1.00  0.00    -0.167 F 
ENDBRANCH  17  22
ENDBRANCH   4   7
ENDBRANCH   2   3
ENDBRANCH   1   2
BRANCH   1  26
ATOM     26  C   UNL A   1      32.681  32.892  27.301  1.00  0.00     0.118 C 
BRANCH  26  27
ATOM     27  N   UNL A   1      32.473  34.284  27.689  1.00  0.00    -0.352 N 
ATOM     28  C   UNL A   1      33.037  35.013  28.707  1.00  0.00     0.251 C 
ATOM     29  H   UNL A   1      31.827  34.776  27.134  1.00  0.00     0.163 HD
ATOM     30  O   UNL A   1      32.547  36.093  29.028  1.00  0.00    -0.269 OA
BRANCH  28  31
ATOM     31  C   UNL A   1      34.215  34.493  29.431  1.00  0.00     0.039 A 
ATOM     32  C   UNL A   1      35.496  34.652  28.905  1.00  0.00     0.014 A 
ATOM     33  C   UNL A   1      34.042  33.835  30.653  1.00  0.00     0.014 A 
ATOM     34  C   UNL A   1      36.565  33.978  29.476  1.00  0.00     0.010 A 
ATOM     35  C   UNL A   1      35.143  33.262  31.295  1.00  0.00     0.010 A 
ATOM     36  C   UNL A   1      36.406  33.281  30.684  1.00  0.00    -0.014 A 
BRANCH  36  37
ATOM     37  C   UNL A   1      37.578  32.589  31.281  1.00  0.00     0.031 A 
ATOM     38  C   UNL A   1      38.054  32.934  32.667  1.00  0.00     0.074 A 
ATOM     39  C   UNL A   1      38.177  31.598  30.589  1.00  0.00     0.049 A 
ATOM     40  N   UNL A   1      39.057  32.433  33.343  1.00  0.00    -0.248 NA
ATOM     41  C   UNL A   1      37.315  33.982  33.387  1.00  0.00     0.031 C 
ATOM     42  C   UNL A   1      37.793  31.161  29.245  1.00  0.00     0.029 A 
ATOM     43  N   UNL A   1      39.209  30.761  30.927  1.00  0.00    -0.354 N 
ATOM     44  C   UNL A   1      39.080  33.113  34.554  1.00  0.00     0.074 A 
ATOM     45  C   UNL A   1      38.014  34.090  34.509  1.00  0.00     0.031 C 
ATOM     46  C   UNL A   1      38.532  30.099  28.899  1.00  0.00     0.029 A 
ATOM     47  C   UNL A   1      39.499  29.831  29.957  1.00  0.00     0.049 A 
ATOM     48  H   UNL A   1      39.695  30.820  31.780  1.00  0.00     0.167 HD
ATOM     49  C   UNL A   1      39.904  32.926  35.612  1.00  0.00     0.037 A 
ATOM     50  C   UNL A   1      40.452  28.881  29.912  1.00  0.00     0.037 A 
ATOM     51  C   UNL A   1      40.945  31.931  35.660  1.00  0.00     0.049 A 
ATOM     52  C   UNL A   1      41.390  28.737  31.076  1.00  0.00     0.074 A 
ATOM     53  C   UNL A   1      41.820  31.651  36.695  1.00  0.00     0.029 A 
ATOM     54  N   UNL A   1      41.249  31.052  34.630  1.00  0.00    -0.354 N 
ATOM     55  N   UNL A   1      41.398  29.384  32.214  1.00  0.00    -0.248 NA
ATOM     56  C   UNL A   1      42.459  27.738  30.943  1.00  0.00     0.031 C 
ATOM     57  C   UNL A   1      42.688  30.640  36.273  1.00  0.00     0.029 A 
ATOM     58  C   UNL A   1      42.317  30.248  34.997  1.00  0.00     0.049 A 
ATOM     59  H   UNL A   1      40.776  31.006  33.768  1.00  0.00     0.167 HD
ATOM     60  C   UNL A   1      42.459  28.865  32.941  1.00  0.00     0.074 A 
ATOM     61  C   UNL A   1      43.058  27.830  32.123  1.00  0.00     0.031 C 
ATOM     62  C   UNL A   1      42.901  29.220  34.172  1.00  0.00     0.037 A 
BRANCH  49  63
ATOM     63  C   UNL A   1      39.729  33.814  36.811  1.00  0.00     0.064 A 
ATOM     64  C   UNL A   1      40.313  35.088  36.877  1.00  0.00     0.173 A 
ATOM     65  C   UNL A   1      38.899  33.418  37.873  1.00  0.00     0.173 A 
ATOM     66  F   UNL A   1      41.122  35.510  35.895  1.00  0.00    -0.203 F 
ATOM     67  C   UNL A   1      40.085  35.925  37.966  1.00  0.00     0.198 A 
ATOM     68  C   UNL A   1      38.649  34.270  38.945  1.00  0.00     0.198 A 
ATOM     69  F   UNL A   1      38.309  32.213  37.857  1.00  0.00    -0.203 F 
ATOM     70  F   UNL A   1      40.680  37.124  38.023  1.00  0.00    -0.200 F 
ATOM     71  C   UNL A   1      39.245  35.521  38.993  1.00  0.00     0.200 A 
ATOM     72  F   UNL A   1      37.823  33.884  39.929  1.00  0.00    -0.200 F 
ATOM     73  F   UNL A   1      39.011  36.337  40.031  1.00  0.00    -0.200 F 
ENDBRANCH  49  63
BRANCH  50  74
ATOM     74  C   UNL A   1      40.557  28.003  28.718  1.00  0.00     0.064 A 
ATOM     75  C   UNL A   1      39.879  26.779  28.660  1.00  0.00     0.173 A 
ATOM     76  C   UNL A   1      41.312  28.384  27.596  1.00  0.00     0.173 A 
ATOM     77  F   UNL A   1      39.161  26.361  29.714  1.00  0.00    -0.203 F 
ATOM     78  C   UNL A   1      39.953  25.967  27.530  1.00  0.00     0.198 A 
ATOM     79  C   UNL A   1      41.358  27.587  26.454  1.00  0.00     0.198 A 
ATOM     80  F   UNL A   1      41.978  29.548  27.597  1.00  0.00    -0.203 F 
ATOM     81  F   UNL A   1      39.321  24.785  27.515  1.00  0.00    -0.200 F 
ATOM     82  C   UNL A   1      40.684  26.377  26.425  1.00  0.00     0.200 A 
ATOM     83  F   UNL A   1      42.047  27.998  25.382  1.00  0.00    -0.200 F 
ATOM     84  F   UNL A   1      40.740  25.604  25.332  1.00  0.00    -0.200 F 
ENDBRANCH  50  74
BRANCH  62  85
ATOM     85  C   UNL A   1      44.081  28.477  34.726  1.00  0.00     0.064 A 
ATOM     86  C   UNL A   1      43.924  27.271  35.424  1.00  0.00     0.173 A 
ATOM     87  C   UNL A   1      45.387  28.935  34.490  1.00  0.00     0.173 A 
ATOM     88  F   UNL A   1      42.697  26.797  35.688  1.00  0.00    -0.203 F 
ATOM     89  C   UNL A   1      45.030  26.558  35.879  1.00  0.00     0.198 A 
ATOM     90  C   UNL A   1      46.491  28.204  34.918  1.00  0.00     0.198 A 
ATOM     91  F   UNL A   1      45.591  30.079  33.820  1.00  0.00    -0.203 F 
ATOM     92  F   UNL A   1      44.856  25.427  36.577  1.00  0.00    -0.200 F 
ATOM     93  C   UNL A   1      46.312  27.018  35.615  1.00  0.00     0.200 A 
ATOM     94  F   UNL A   1      47.728  28.641  34.647  1.00  0.00    -0.200 F 
ATOM     95  F   UNL A   1      47.376  26.321  36.037  1.00  0.00    -0.200 F 
ENDBRANCH  62  85
ENDBRANCH  36  37
ENDBRANCH  28  31
ENDBRANCH  26  27
ENDBRANCH   1  26
TORSDOF 12
ENDMDL
MODEL 3
REMARK VINA RESULT:     -13.5      0.500      1.337
REMARK SMILES CC(C)(C)c1cc2c(cc1Cl)C=C(C(=O)NCCCNC(=O)c1ccc(-c3c4nc(c(-c5c(F)c(F)c(F)c(F)c5F)c5ccc([nH]5)c(-c5c(F)c(F)c(F)c(F)c5F)c5nc(c(-c6c(F)c(F)c(F)c(F)c6F)c6ccc3[nH]6)C=C5)C=C4)cc1)[C@H](C(F)(F)F)O2
REMARK SMILES IDX 18 1 17 2 16 3 14 4 15 5 13 7 5 8 6 9 10 10 7 11 9 12 11 13
REMARK SMILES IDX 8 14 91 15 12 16 86 17 2 18 1 19 3 20 4 21 87 22 88 23 89 24
REMARK SMILES IDX 90 25 19 26 20 27 21 28 22 30 23 31 24 32 85 33 25 34 84 35
REMARK SMILES IDX 26 36 27 37 28 38 78 39 29 40 83 41 77 42 79 43 30 44 82 45
REMARK SMILES IDX 76 46 75 47 31 49 63 50 43 51 62 52 44 53 47 54 61 55 80 56
REMARK SMILES IDX 45 57 46 58 60 60 81 61 48 62 32 63 33 64 41 65 34 66 35 67
REMARK SMILES IDX 39 68 42 69 36 70 37 71 40 72 38 73 64 74 65 75 73 76 66 77
REMARK SMILES IDX 67 78 71 79 74 80 68 81 69 82 72 83 70 84 49 85 50 86 58 87
REMARK SMILES IDX 51 88 52 89 56 90 59 91 53 92 54 93 57 94 55 95
REMARK H PARENT 16 6 20 29 79 48 47 59
REMARK Flexibility Score: inf
ROOT
ATOM      1  C   UNL A   1      31.453  32.554  26.613  1.00  0.00     0.042 C 
ENDROOT
BRANCH   1   2
ATOM      2  C   UNL A   1      31.557  31.046  26.437  1.00  0.00     0.118 C 
BRANCH   2   3
ATOM      3  N   UNL A   1      30.929  30.611  25.200  1.00  0.00    -0.352 N 
ATOM      4  C   UNL A   1      30.979  29.537  24.380  1.00  0.00     0.251 C 
ATOM      5  O   UNL A   1      30.218  29.587  23.409  1.00  0.00    -0.270 OA
ATOM      6  H   UNL A   1      30.293  31.285  24.866  1.00  0.00     0.163 HD
BRANCH   4   7
ATOM      7  C   UNL A   1      31.854  28.345  24.572  1.00  0.00     0.067 C 
ATOM      8  C   UNL A   1      33.596  23.687  25.637  1.00  0.00    -0.020 A 
ATOM      9  C   UNL A   1      34.162  24.955  25.386  1.00  0.00     0.053 A 
ATOM     10  C   UNL A   1      32.183  23.624  25.598  1.00  0.00     0.045 A 
ATOM     11  C   UNL A   1      33.383  26.085  25.141  1.00  0.00     0.128 A 
ATOM     12  C   UNL A   1      31.402  24.776  25.381  1.00  0.00     0.032 A 
ATOM     13  Cl  UNL A   1      31.270  22.165  25.767  1.00  0.00    -0.084 Cl
ATOM     14  C   UNL A   1      32.000  26.012  25.158  1.00  0.00     0.019 A 
ATOM     15  O   UNL A   1      34.065  27.246  24.930  1.00  0.00    -0.475 OA
ATOM     16  C   UNL A   1      31.221  27.228  24.977  1.00  0.00     0.025 C 
ATOM     17  C   UNL A   1      33.327  28.311  24.276  1.00  0.00     0.314 C 
BRANCH   8  18
ATOM     18  C   UNL A   1      34.539  22.486  25.898  1.00  0.00    -0.012 C 
ATOM     19  C   UNL A   1      34.210  21.723  27.215  1.00  0.00     0.016 C 
ATOM     20  C   UNL A   1      35.986  22.996  26.039  1.00  0.00     0.016 C 
ATOM     21  C   UNL A   1      34.449  21.411  24.790  1.00  0.00     0.016 C 
ENDBRANCH   8  18
BRANCH  17  22
ATOM     22  C   UNL A   1      33.657  28.337  22.773  1.00  0.00     0.429 C 
ATOM     23  F   UNL A   1      33.358  27.137  22.211  1.00  0.00    -0.167 F 
ATOM     24  F   UNL A   1      32.961  29.278  22.098  1.00  0.00    -0.167 F 
ATOM     25  F   UNL A   1      34.967  28.565  22.528  1.00  0.00    -0.167 F 
ENDBRANCH  17  22
ENDBRANCH   4   7
ENDBRANCH   2   3
ENDBRANCH   1   2
BRANCH   1  26
ATOM     26  C   UNL A   1      32.669  33.136  27.321  1.00  0.00     0.118 C 
BRANCH  26  27
ATOM     27  N   UNL A   1      32.445  34.514  27.746  1.00  0.00    -0.352 N 
ATOM     28  C   UNL A   1      32.987  35.218  28.793  1.00  0.00     0.251 C 
ATOM     29  H   UNL A   1      31.805  35.019  27.194  1.00  0.00     0.163 HD
ATOM     30  O   UNL A   1      32.485  36.285  29.136  1.00  0.00    -0.269 OA
BRANCH  28  31
ATOM     31  C   UNL A   1      34.156  34.684  29.522  1.00  0.00     0.039 A 
ATOM     32  C   UNL A   1      35.434  34.778  28.972  1.00  0.00     0.014 A 
ATOM     33  C   UNL A   1      33.977  34.081  30.770  1.00  0.00     0.014 A 
ATOM     34  C   UNL A   1      36.487  34.089  29.557  1.00  0.00     0.010 A 
ATOM     35  C   UNL A   1      35.067  33.496  31.421  1.00  0.00     0.010 A 
ATOM     36  C   UNL A   1      36.321  33.445  30.793  1.00  0.00    -0.014 A 
BRANCH  36  37
ATOM     37  C   UNL A   1      37.477  32.735  31.401  1.00  0.00     0.031 A 
ATOM     38  C   UNL A   1      37.960  33.091  32.782  1.00  0.00     0.074 A 
ATOM     39  C   UNL A   1      38.053  31.722  30.725  1.00  0.00     0.049 A 
ATOM     40  N   UNL A   1      38.950  32.576  33.468  1.00  0.00    -0.248 NA
ATOM     41  C   UNL A   1      37.243  34.166  33.487  1.00  0.00     0.031 C 
ATOM     42  C   UNL A   1      37.661  31.273  29.387  1.00  0.00     0.029 A 
ATOM     43  N   UNL A   1      39.066  30.866  31.076  1.00  0.00    -0.354 N 
ATOM     44  C   UNL A   1      38.987  33.274  34.668  1.00  0.00     0.074 A 
ATOM     45  C   UNL A   1      37.944  34.274  34.607  1.00  0.00     0.031 C 
ATOM     46  C   UNL A   1      38.376  30.190  29.058  1.00  0.00     0.029 A 
ATOM     47  C   UNL A   1      39.336  29.916  30.121  1.00  0.00     0.049 A 
ATOM     48  H   UNL A   1      39.553  30.927  31.929  1.00  0.00     0.167 HD
ATOM     49  C   UNL A   1      39.806  33.084  35.730  1.00  0.00     0.037 A 
ATOM     50  C   UNL A   1      40.267  28.944  30.090  1.00  0.00     0.037 A 
ATOM     51  C   UNL A   1      40.824  32.066  35.793  1.00  0.00     0.049 A 
ATOM     52  C   UNL A   1      41.200  28.795  31.257  1.00  0.00     0.074 A 
ATOM     53  C   UNL A   1      41.692  31.782  36.833  1.00  0.00     0.029 A 
ATOM     54  N   UNL A   1      41.109  31.166  34.777  1.00  0.00    -0.354 N 
ATOM     55  N   UNL A   1      41.222  29.459  32.386  1.00  0.00    -0.248 NA
ATOM     56  C   UNL A   1      42.246  27.771  31.141  1.00  0.00     0.031 C 
ATOM     57  C   UNL A   1      42.537  30.746  36.427  1.00  0.00     0.029 A 
ATOM     58  C   UNL A   1      42.159  30.343  35.157  1.00  0.00     0.049 A 
ATOM     59  H   UNL A   1      40.636  31.117  33.915  1.00  0.00     0.167 HD
ATOM     60  C   UNL A   1      42.270  28.927  33.122  1.00  0.00     0.074 A 
ATOM     61  C   UNL A   1      42.847  27.866  32.320  1.00  0.00     0.031 C 
ATOM     62  C   UNL A   1      42.719  29.290  34.348  1.00  0.00     0.037 A 
BRANCH  49  63
ATOM     63  C   UNL A   1      39.650  33.993  36.916  1.00  0.00     0.064 A 
ATOM     64  C   UNL A   1      38.875  33.629  38.027  1.00  0.00     0.173 A 
ATOM     65  C   UNL A   1      40.350  35.209  36.974  1.00  0.00     0.173 A 
ATOM     66  F   UNL A   1      38.179  32.483  38.017  1.00  0.00    -0.203 F 
ATOM     67  C   UNL A   1      38.795  34.454  39.146  1.00  0.00     0.198 A 
ATOM     68  C   UNL A   1      40.292  36.017  38.107  1.00  0.00     0.198 A 
ATOM     69  F   UNL A   1      41.111  35.603  35.942  1.00  0.00    -0.203 F 
ATOM     70  F   UNL A   1      38.022  34.102  40.182  1.00  0.00    -0.200 F 
ATOM     71  C   UNL A   1      39.512  35.641  39.190  1.00  0.00     0.200 A 
ATOM     72  F   UNL A   1      40.998  37.155  38.155  1.00  0.00    -0.200 F 
ATOM     73  F   UNL A   1      39.449  36.423  40.277  1.00  0.00    -0.200 F 
ENDBRANCH  49  63
BRANCH  50  74
ATOM     74  C   UNL A   1      40.353  28.046  28.910  1.00  0.00     0.064 A 
ATOM     75  C   UNL A   1      39.667  26.825  28.880  1.00  0.00     0.173 A 
ATOM     76  C   UNL A   1      41.097  28.404  27.774  1.00  0.00     0.173 A 
ATOM     77  F   UNL A   1      38.958  26.429  29.948  1.00  0.00    -0.203 F 
ATOM     78  C   UNL A   1      39.723  25.994  27.762  1.00  0.00     0.198 A 
ATOM     79  C   UNL A   1      41.126  27.589  26.644  1.00  0.00     0.198 A 
ATOM     80  F   UNL A   1      41.770  29.563  27.748  1.00  0.00    -0.203 F 
ATOM     81  F   UNL A   1      39.084  24.817  27.773  1.00  0.00    -0.200 F 
ATOM     82  C   UNL A   1      40.443  26.382  26.642  1.00  0.00     0.200 A 
ATOM     83  F   UNL A   1      41.805  27.977  25.558  1.00  0.00    -0.200 F 
ATOM     84  F   UNL A   1      40.482  25.591  25.561  1.00  0.00    -0.200 F 
ENDBRANCH  50  74
BRANCH  62  85
ATOM     85  C   UNL A   1      43.882  28.528  34.914  1.00  0.00     0.064 A 
ATOM     86  C   UNL A   1      45.200  28.977  34.749  1.00  0.00     0.173 A 
ATOM     87  C   UNL A   1      43.670  27.379  35.692  1.00  0.00     0.173 A 
ATOM     88  F   UNL A   1      45.457  30.061  34.002  1.00  0.00    -0.203 F 
ATOM     89  C   UNL A   1      46.266  28.296  35.331  1.00  0.00     0.198 A 
ATOM     90  C   UNL A   1      44.735  26.719  36.299  1.00  0.00     0.198 A 
ATOM     91  F   UNL A   1      42.428  26.914  35.887  1.00  0.00    -0.203 F 
ATOM     92  F   UNL A   1      47.520  28.721  35.129  1.00  0.00    -0.200 F 
ATOM     93  C   UNL A   1      46.032  27.175  36.115  1.00  0.00     0.200 A 
ATOM     94  F   UNL A   1      44.505  25.648  37.071  1.00  0.00    -0.200 F 
ATOM     95  F   UNL A   1      47.057  26.532  36.690  1.00  0.00    -0.200 F 
ENDBRANCH  62  85
ENDBRANCH  36  37
ENDBRANCH  28  31
ENDBRANCH  26  27
ENDBRANCH   1  26
TORSDOF 12
ENDMDL
