MODEL 1
REMARK VINA RESULT:     -12.1      0.000      0.000
REMARK SMILES CCCCCNC(=O)Oc1cccc(-c2ccc([C@@H](C)C(=O)NCCCNC(=O)c3ccc(-c4c5nc(c(-c6c(F)c(F)c(F)c(F)c6F)c6ccc([nH]6)c(-c6c(F)c(F)c(F)c(F)c6F)c6nc(c(-c7c(F)c(F)c(F)c(F)c7F)c7ccc4[nH]7)C=C6)C=C5)cc3)cc2F)c1
REMARK SMILES IDX 19 1 20 2 18 3 15 4 16 5 94 6 17 7 93 8 95 9 14 10 10 11
REMARK SMILES IDX 11 12 96 13 12 14 13 15 9 16 7 17 6 18 8 20 5 21 4 22 3 23
REMARK SMILES IDX 2 24 1 25 21 26 22 27 23 28 24 30 25 31 26 32 27 33 28 34
REMARK SMILES IDX 29 36 30 37 31 38 92 39 32 40 91 41 33 42 34 43 35 44 85 45
REMARK SMILES IDX 36 46 90 47 84 48 86 49 37 50 89 51 83 52 82 53 38 55 70 56
REMARK SMILES IDX 50 57 69 58 51 59 54 60 68 61 87 62 52 63 53 64 67 66 88 67
REMARK SMILES IDX 55 68 39 69 40 70 48 71 41 72 42 73 46 74 49 75 43 76 44 77
REMARK SMILES IDX 47 78 45 79 71 80 72 81 80 82 73 83 74 84 78 85 81 86 75 87
REMARK SMILES IDX 76 88 79 89 77 90 56 91 57 92 65 93 58 94 59 95 63 96 66 97
REMARK SMILES IDX 60 98 61 99 64 100 62 101
REMARK H PARENT 6 19 23 29 27 35 86 54 54 65
REMARK Flexibility Score: inf
ROOT
ATOM      1  C   UNL A   1      31.034  24.680  25.373  1.00  0.00     0.105 C 
ATOM      2  C   UNL A   1      31.163  24.221  23.922  1.00  0.00     0.023 C 
ENDROOT
BRANCH   1   3
ATOM      3  C   UNL A   1      31.776  25.958  25.731  1.00  0.00    -0.033 A 
ATOM      4  C   UNL A   1      33.208  28.269  26.628  1.00  0.00     0.018 A 
ATOM      5  C   UNL A   1      33.730  27.411  25.648  1.00  0.00     0.012 A 
ATOM      6  C   UNL A   1      31.923  27.965  27.104  1.00  0.00     0.131 A 
ATOM      7  C   UNL A   1      33.016  26.298  25.184  1.00  0.00     0.005 A 
ATOM      8  C   UNL A   1      31.228  26.827  26.684  1.00  0.00     0.044 A 
ATOM      9  F   UNL A   1      31.316  28.766  27.993  1.00  0.00    -0.206 F 
BRANCH   4  10
ATOM     10  C   UNL A   1      34.004  29.405  27.145  1.00  0.00    -0.012 A 
ATOM     11  C   UNL A   1      34.173  31.716  27.895  1.00  0.00     0.133 A 
ATOM     12  C   UNL A   1      35.519  31.556  28.207  1.00  0.00     0.047 A 
ATOM     13  C   UNL A   1      33.423  30.665  27.364  1.00  0.00     0.056 A 
ATOM     14  C   UNL A   1      36.117  30.320  27.999  1.00  0.00     0.004 A 
ATOM     15  C   UNL A   1      35.370  29.260  27.469  1.00  0.00     0.009 A 
BRANCH  11  16
ATOM     16  O   UNL A   1      33.634  33.005  28.015  1.00  0.00    -0.410 OA
BRANCH  16  17
ATOM     17  C   UNL A   1      34.501  34.082  27.897  1.00  0.00     0.412 C 
ATOM     18  N   UNL A   1      34.062  35.195  28.561  1.00  0.00    -0.321 N 
ATOM     19  H   UNL A   1      34.629  35.997  28.502  1.00  0.00     0.167 HD
ATOM     20  O   UNL A   1      35.554  34.097  27.269  1.00  0.00    -0.224 OA
BRANCH  18  21
ATOM     21  C   UNL A   1      32.847  35.314  29.341  1.00  0.00     0.119 C 
BRANCH  21  22
ATOM     22  C   UNL A   1      33.134  35.649  30.804  1.00  0.00     0.021 C 
BRANCH  22  23
ATOM     23  C   UNL A   1      33.278  37.144  31.110  1.00  0.00     0.002 C 
BRANCH  23  24
ATOM     24  C   UNL A   1      33.813  37.487  32.503  1.00  0.00    -0.003 C 
ATOM     25  C   UNL A   1      34.400  36.295  33.240  1.00  0.00     0.004 C 
ENDBRANCH  23  24
ENDBRANCH  22  23
ENDBRANCH  21  22
ENDBRANCH  18  21
ENDBRANCH  16  17
ENDBRANCH  11  16
ENDBRANCH   4  10
ENDBRANCH   1   3
BRANCH   1  26
ATOM     26  C   UNL A   1      31.207  23.565  26.416  1.00  0.00     0.227 C 
ATOM     27  O   UNL A   1      30.308  23.347  27.239  1.00  0.00    -0.274 OA
ATOM     28  N   UNL A   1      32.308  22.772  26.509  1.00  0.00    -0.356 N 
ATOM     29  H   UNL A   1      32.240  22.072  27.200  1.00  0.00     0.163 HD
BRANCH  28  30
ATOM     30  C   UNL A   1      33.562  22.763  25.784  1.00  0.00     0.117 C 
BRANCH  30  31
ATOM     31  C   UNL A   1      34.760  22.496  26.692  1.00  0.00     0.042 C 
BRANCH  31  32
ATOM     32  C   UNL A   1      36.089  23.003  26.145  1.00  0.00     0.118 C 
BRANCH  32  33
ATOM     33  N   UNL A   1      37.082  21.943  26.042  1.00  0.00    -0.352 N 
ATOM     34  C   UNL A   1      38.450  21.972  26.125  1.00  0.00     0.251 C 
ATOM     35  H   UNL A   1      36.704  21.048  25.887  1.00  0.00     0.163 HD
ATOM     36  O   UNL A   1      39.076  20.966  25.793  1.00  0.00    -0.269 OA
BRANCH  34  37
ATOM     37  C   UNL A   1      39.191  23.167  26.593  1.00  0.00     0.039 A 
ATOM     38  C   UNL A   1      38.975  24.378  25.925  1.00  0.00     0.014 A 
ATOM     39  C   UNL A   1      40.152  23.109  27.607  1.00  0.00     0.014 A 
ATOM     40  C   UNL A   1      39.691  25.521  26.288  1.00  0.00     0.010 A 
ATOM     41  C   UNL A   1      40.805  24.270  28.027  1.00  0.00     0.010 A 
ATOM     42  C   UNL A   1      40.599  25.485  27.358  1.00  0.00    -0.014 A 
BRANCH  42  43
ATOM     43  C   UNL A   1      41.338  26.711  27.758  1.00  0.00     0.031 A 
ATOM     44  C   UNL A   1      42.764  26.927  27.323  1.00  0.00     0.074 A 
ATOM     45  C   UNL A   1      40.724  27.627  28.533  1.00  0.00     0.049 A 
ATOM     46  N   UNL A   1      43.548  27.955  27.540  1.00  0.00    -0.248 NA
ATOM     47  C   UNL A   1      43.406  25.841  26.565  1.00  0.00     0.031 C 
ATOM     48  C   UNL A   1      39.373  27.500  29.080  1.00  0.00     0.029 A 
ATOM     49  N   UNL A   1      41.154  28.848  28.990  1.00  0.00    -0.354 N 
ATOM     50  C   UNL A   1      44.772  27.630  26.967  1.00  0.00     0.074 A 
ATOM     51  C   UNL A   1      44.644  26.293  26.430  1.00  0.00     0.031 C 
ATOM     52  C   UNL A   1      39.071  28.611  29.772  1.00  0.00     0.029 A 
ATOM     53  C   UNL A   1      40.214  29.517  29.738  1.00  0.00     0.049 A 
ATOM     54  H   UNL A   1      42.050  29.210  28.803  1.00  0.00     0.167 HD
ATOM     55  C   UNL A   1      45.892  28.387  26.878  1.00  0.00     0.037 A 
ATOM     56  C   UNL A   1      40.267  30.728  30.323  1.00  0.00     0.037 A 
ATOM     57  C   UNL A   1      46.000  29.734  27.374  1.00  0.00     0.049 A 
ATOM     58  C   UNL A   1      41.508  31.565  30.159  1.00  0.00     0.074 A 
ATOM     59  C   UNL A   1      47.059  30.618  27.247  1.00  0.00     0.029 A 
ATOM     60  N   UNL A   1      45.016  30.391  28.095  1.00  0.00    -0.354 N 
ATOM     61  N   UNL A   1      42.617  31.288  29.519  1.00  0.00    -0.248 NA
ATOM     62  C   UNL A   1      41.494  32.894  30.787  1.00  0.00     0.031 C 
ATOM     63  C   UNL A   1      46.734  31.792  27.932  1.00  0.00     0.029 A 
ATOM     64  C   UNL A   1      45.452  31.660  28.441  1.00  0.00     0.049 A 
ATOM     65  H   UNL A   1      44.136  30.013  28.326  1.00  0.00     0.167 HD
ATOM     66  C   UNL A   1      43.420  32.413  29.644  1.00  0.00     0.074 A 
ATOM     67  C   UNL A   1      42.658  33.388  30.395  1.00  0.00     0.031 C 
ATOM     68  C   UNL A   1      44.679  32.620  29.186  1.00  0.00     0.037 A 
BRANCH  55  69
ATOM     69  C   UNL A   1      47.097  27.788  26.211  1.00  0.00     0.064 A 
ATOM     70  C   UNL A   1      48.074  27.092  26.938  1.00  0.00     0.173 A 
ATOM     71  C   UNL A   1      47.236  27.845  24.815  1.00  0.00     0.173 A 
ATOM     72  F   UNL A   1      47.993  27.016  28.275  1.00  0.00    -0.203 F 
ATOM     73  C   UNL A   1      49.152  26.488  26.296  1.00  0.00     0.198 A 
ATOM     74  C   UNL A   1      48.300  27.216  24.174  1.00  0.00     0.198 A 
ATOM     75  F   UNL A   1      46.326  28.492  24.071  1.00  0.00    -0.203 F 
ATOM     76  F   UNL A   1      50.090  25.857  27.015  1.00  0.00    -0.200 F 
ATOM     77  C   UNL A   1      49.259  26.543  24.915  1.00  0.00     0.200 A 
ATOM     78  F   UNL A   1      48.394  27.257  22.837  1.00  0.00    -0.200 F 
ATOM     79  F   UNL A   1      50.288  25.945  24.297  1.00  0.00    -0.200 F 
ENDBRANCH  55  69
BRANCH  56  80
ATOM     80  C   UNL A   1      39.103  31.242  31.093  1.00  0.00     0.064 A 
ATOM     81  C   UNL A   1      38.847  30.799  32.400  1.00  0.00     0.173 A 
ATOM     82  C   UNL A   1      38.203  32.158  30.529  1.00  0.00     0.173 A 
ATOM     83  F   UNL A   1      39.667  29.908  32.977  1.00  0.00    -0.203 F 
ATOM     84  C   UNL A   1      37.716  31.220  33.095  1.00  0.00     0.198 A 
ATOM     85  C   UNL A   1      37.090  32.604  31.238  1.00  0.00     0.198 A 
ATOM     86  F   UNL A   1      38.405  32.619  29.286  1.00  0.00    -0.203 F 
ATOM     87  F   UNL A   1      37.461  30.728  34.315  1.00  0.00    -0.200 F 
ATOM     88  C   UNL A   1      36.841  32.125  32.516  1.00  0.00     0.200 A 
ATOM     89  F   UNL A   1      36.255  33.491  30.682  1.00  0.00    -0.200 F 
ATOM     90  F   UNL A   1      35.749  32.526  33.183  1.00  0.00    -0.200 F 
ENDBRANCH  56  80
BRANCH  68  91
ATOM     91  C   UNL A   1      45.292  33.963  29.462  1.00  0.00     0.064 A 
ATOM     92  C   UNL A   1      46.047  34.203  30.619  1.00  0.00     0.173 A 
ATOM     93  C   UNL A   1      45.121  35.022  28.558  1.00  0.00     0.173 A 
ATOM     94  F   UNL A   1      46.228  33.226  31.523  1.00  0.00    -0.203 F 
ATOM     95  C   UNL A   1      46.570  35.465  30.884  1.00  0.00     0.198 A 
ATOM     96  C   UNL A   1      45.675  36.274  28.808  1.00  0.00     0.198 A 
ATOM     97  F   UNL A   1      44.415  34.843  27.431  1.00  0.00    -0.203 F 
ATOM     98  F   UNL A   1      47.230  35.689  32.029  1.00  0.00    -0.200 F 
ATOM     99  C   UNL A   1      46.388  36.498  29.976  1.00  0.00     0.200 A 
ATOM    100  F   UNL A   1      45.510  37.267  27.923  1.00  0.00    -0.200 F 
ATOM    101  F   UNL A   1      46.888  37.714  30.235  1.00  0.00    -0.200 F 
ENDBRANCH  68  91
ENDBRANCH  42  43
ENDBRANCH  34  37
ENDBRANCH  32  33
ENDBRANCH  31  32
ENDBRANCH  30  31
ENDBRANCH  28  30
ENDBRANCH   1  26
TORSDOF 18
ENDMDL
MODEL 2
REMARK VINA RESULT:     -12.0      2.915      4.922
REMARK SMILES CCCCCNC(=O)Oc1cccc(-c2ccc([C@@H](C)C(=O)NCCCNC(=O)c3ccc(-c4c5nc(c(-c6c(F)c(F)c(F)c(F)c6F)c6ccc([nH]6)c(-c6c(F)c(F)c(F)c(F)c6F)c6nc(c(-c7c(F)c(F)c(F)c(F)c7F)c7ccc4[nH]7)C=C6)C=C5)cc3)cc2F)c1
REMARK SMILES IDX 19 1 20 2 18 3 15 4 16 5 94 6 17 7 93 8 95 9 14 10 10 11
REMARK SMILES IDX 11 12 96 13 12 14 13 15 9 16 7 17 6 18 8 20 5 21 4 22 3 23
REMARK SMILES IDX 2 24 1 25 21 26 22 27 23 28 24 30 25 31 26 32 27 33 28 34
REMARK SMILES IDX 29 36 30 37 31 38 92 39 32 40 91 41 33 42 34 43 35 44 85 45
REMARK SMILES IDX 36 46 90 47 84 48 86 49 37 50 89 51 83 52 82 53 38 55 70 56
REMARK SMILES IDX 50 57 69 58 51 59 54 60 68 61 87 62 52 63 53 64 67 66 88 67
REMARK SMILES IDX 55 68 39 69 40 70 48 71 41 72 42 73 46 74 49 75 43 76 44 77
REMARK SMILES IDX 47 78 45 79 71 80 72 81 80 82 73 83 74 84 78 85 81 86 75 87
REMARK SMILES IDX 76 88 79 89 77 90 56 91 57 92 65 93 58 94 59 95 63 96 66 97
REMARK SMILES IDX 60 98 61 99 64 100 62 101
REMARK H PARENT 6 19 23 29 27 35 86 54 54 65
REMARK Flexibility Score: inf
ROOT
ATOM      1  C   UNL A   1      32.524  20.648  25.349  1.00  0.00     0.105 C 
ATOM      2  C   UNL A   1      32.712  19.573  24.281  1.00  0.00     0.023 C 
ENDROOT
BRANCH   1   3
ATOM      3  C   UNL A   1      31.942  21.967  24.865  1.00  0.00    -0.033 A 
ATOM      4  C   UNL A   1      31.006  24.563  24.103  1.00  0.00     0.018 A 
ATOM      5  C   UNL A   1      31.686  23.728  23.202  1.00  0.00     0.012 A 
ATOM      6  C   UNL A   1      30.762  24.035  25.380  1.00  0.00     0.131 A 
ATOM      7  C   UNL A   1      32.115  22.444  23.563  1.00  0.00     0.005 A 
ATOM      8  C   UNL A   1      31.235  22.777  25.764  1.00  0.00     0.044 A 
ATOM      9  F   UNL A   1      30.062  24.734  26.286  1.00  0.00    -0.206 F 
BRANCH   4  10
ATOM     10  C   UNL A   1      30.614  25.937  23.716  1.00  0.00    -0.012 A 
ATOM     11  C   UNL A   1      31.177  28.150  22.869  1.00  0.00     0.133 A 
ATOM     12  C   UNL A   1      29.844  28.544  22.905  1.00  0.00     0.047 A 
ATOM     13  C   UNL A   1      31.565  26.872  23.275  1.00  0.00     0.056 A 
ATOM     14  C   UNL A   1      28.885  27.638  23.338  1.00  0.00     0.004 A 
ATOM     15  C   UNL A   1      29.266  26.354  23.744  1.00  0.00     0.009 A 
BRANCH  11  16
ATOM     16  O   UNL A   1      32.127  29.125  22.532  1.00  0.00    -0.410 OA
BRANCH  16  17
ATOM     17  C   UNL A   1      33.467  28.775  22.602  1.00  0.00     0.412 C 
ATOM     18  N   UNL A   1      34.033  29.072  23.811  1.00  0.00    -0.321 N 
ATOM     19  H   UNL A   1      34.988  28.858  23.917  1.00  0.00     0.167 HD
ATOM     20  O   UNL A   1      34.128  28.261  21.706  1.00  0.00    -0.224 OA
BRANCH  18  21
ATOM     21  C   UNL A   1      33.371  29.671  24.953  1.00  0.00     0.119 C 
BRANCH  21  22
ATOM     22  C   UNL A   1      33.792  29.018  26.268  1.00  0.00     0.021 C 
BRANCH  22  23
ATOM     23  C   UNL A   1      33.559  27.504  26.345  1.00  0.00     0.002 C 
BRANCH  23  24
ATOM     24  C   UNL A   1      32.203  27.070  26.907  1.00  0.00    -0.003 C 
ATOM     25  C   UNL A   1      31.419  28.202  27.550  1.00  0.00     0.004 C 
ENDBRANCH  23  24
ENDBRANCH  22  23
ENDBRANCH  21  22
ENDBRANCH  18  21
ENDBRANCH  16  17
ENDBRANCH  11  16
ENDBRANCH   4  10
ENDBRANCH   1   3
BRANCH   1  26
ATOM     26  C   UNL A   1      33.719  20.824  26.299  1.00  0.00     0.227 C 
ATOM     27  O   UNL A   1      33.571  20.648  27.515  1.00  0.00    -0.274 OA
ATOM     28  N   UNL A   1      34.971  21.170  25.894  1.00  0.00    -0.356 N 
ATOM     29  H   UNL A   1      35.635  21.192  26.622  1.00  0.00     0.163 HD
BRANCH  28  30
ATOM     30  C   UNL A   1      35.510  21.514  24.594  1.00  0.00     0.117 C 
BRANCH  30  31
ATOM     31  C   UNL A   1      35.682  23.020  24.413  1.00  0.00     0.042 C 
BRANCH  31  32
ATOM     32  C   UNL A   1      36.747  23.643  25.307  1.00  0.00     0.118 C 
BRANCH  32  33
ATOM     33  N   UNL A   1      37.858  22.734  25.554  1.00  0.00    -0.352 N 
ATOM     34  C   UNL A   1      39.098  22.946  26.098  1.00  0.00     0.251 C 
ATOM     35  H   UNL A   1      37.687  21.804  25.283  1.00  0.00     0.163 HD
ATOM     36  O   UNL A   1      39.937  22.051  26.005  1.00  0.00    -0.269 OA
BRANCH  34  37
ATOM     37  C   UNL A   1      39.458  24.209  26.785  1.00  0.00     0.039 A 
ATOM     38  C   UNL A   1      40.197  25.158  26.070  1.00  0.00     0.014 A 
ATOM     39  C   UNL A   1      39.166  24.444  28.132  1.00  0.00     0.014 A 
ATOM     40  C   UNL A   1      40.612  26.340  26.689  1.00  0.00     0.010 A 
ATOM     41  C   UNL A   1      39.507  25.662  28.725  1.00  0.00     0.010 A 
ATOM     42  C   UNL A   1      40.253  26.615  28.017  1.00  0.00    -0.014 A 
BRANCH  42  43
ATOM     43  C   UNL A   1      40.674  27.886  28.662  1.00  0.00     0.031 A 
ATOM     44  C   UNL A   1      42.105  28.100  29.082  1.00  0.00     0.074 A 
ATOM     45  C   UNL A   1      39.756  28.847  28.885  1.00  0.00     0.049 A 
ATOM     46  N   UNL A   1      42.661  29.160  29.616  1.00  0.00    -0.248 NA
ATOM     47  C   UNL A   1      43.032  26.971  28.902  1.00  0.00     0.031 C 
ATOM     48  C   UNL A   1      38.327  28.733  28.593  1.00  0.00     0.029 A 
ATOM     49  N   UNL A   1      39.888  30.111  29.405  1.00  0.00    -0.354 N 
ATOM     50  C   UNL A   1      43.987  28.818  29.853  1.00  0.00     0.074 A 
ATOM     51  C   UNL A   1      44.147  27.440  29.445  1.00  0.00     0.031 C 
ATOM     52  C   UNL A   1      37.719  29.889  28.907  1.00  0.00     0.029 A 
ATOM     53  C   UNL A   1      38.709  30.816  29.444  1.00  0.00     0.049 A 
ATOM     54  H   UNL A   1      40.745  30.477  29.721  1.00  0.00     0.167 HD
ATOM     55  C   UNL A   1      44.985  29.592  30.344  1.00  0.00     0.037 A 
ATOM     56  C   UNL A   1      38.458  32.071  29.860  1.00  0.00     0.037 A 
ATOM     57  C   UNL A   1      44.833  30.977  30.706  1.00  0.00     0.049 A 
ATOM     58  C   UNL A   1      39.600  32.921  30.350  1.00  0.00     0.074 A 
ATOM     59  C   UNL A   1      45.804  31.872  31.121  1.00  0.00     0.029 A 
ATOM     60  N   UNL A   1      43.631  31.667  30.698  1.00  0.00    -0.354 N 
ATOM     61  N   UNL A   1      40.869  32.619  30.463  1.00  0.00    -0.248 NA
ATOM     62  C   UNL A   1      39.271  34.296  30.754  1.00  0.00     0.031 C 
ATOM     63  C   UNL A   1      45.183  33.090  31.411  1.00  0.00     0.029 A 
ATOM     64  C   UNL A   1      43.832  32.970  31.126  1.00  0.00     0.049 A 
ATOM     65  H   UNL A   1      42.763  31.288  30.428  1.00  0.00     0.167 HD
ATOM     66  C   UNL A   1      41.495  33.770  30.925  1.00  0.00     0.074 A 
ATOM     67  C   UNL A   1      40.469  34.784  31.041  1.00  0.00     0.031 C 
ATOM     68  C   UNL A   1      42.800  33.968  31.232  1.00  0.00     0.037 A 
BRANCH  55  69
ATOM     69  C   UNL A   1      46.342  28.969  30.514  1.00  0.00     0.064 A 
ATOM     70  C   UNL A   1      47.296  28.988  29.486  1.00  0.00     0.173 A 
ATOM     71  C   UNL A   1      46.717  28.416  31.748  1.00  0.00     0.173 A 
ATOM     72  F   UNL A   1      46.985  29.497  28.285  1.00  0.00    -0.203 F 
ATOM     73  C   UNL A   1      48.571  28.463  29.682  1.00  0.00     0.198 A 
ATOM     74  C   UNL A   1      48.002  27.917  31.949  1.00  0.00     0.198 A 
ATOM     75  F   UNL A   1      45.845  28.379  32.766  1.00  0.00    -0.203 F 
ATOM     76  F   UNL A   1      49.455  28.462  28.675  1.00  0.00    -0.200 F 
ATOM     77  C   UNL A   1      48.926  27.936  30.915  1.00  0.00     0.200 A 
ATOM     78  F   UNL A   1      48.348  27.422  33.146  1.00  0.00    -0.200 F 
ATOM     79  F   UNL A   1      50.159  27.449  31.107  1.00  0.00    -0.200 F 
ENDBRANCH  55  69
BRANCH  56  80
ATOM     80  C   UNL A   1      37.076  32.619  29.804  1.00  0.00     0.064 A 
ATOM     81  C   UNL A   1      36.189  32.454  30.879  1.00  0.00     0.173 A 
ATOM     82  C   UNL A   1      36.601  33.285  28.665  1.00  0.00     0.173 A 
ATOM     83  F   UNL A   1      36.588  31.806  31.983  1.00  0.00    -0.203 F 
ATOM     84  C   UNL A   1      34.871  32.897  30.800  1.00  0.00     0.198 A 
ATOM     85  C   UNL A   1      35.292  33.758  28.601  1.00  0.00     0.198 A 
ATOM     86  F   UNL A   1      37.409  33.476  27.613  1.00  0.00    -0.203 F 
ATOM     87  F   UNL A   1      34.027  32.667  31.815  1.00  0.00    -0.200 F 
ATOM     88  C   UNL A   1      34.425  33.553  29.664  1.00  0.00     0.200 A 
ATOM     89  F   UNL A   1      34.869  34.405  27.507  1.00  0.00    -0.200 F 
ATOM     90  F   UNL A   1      33.155  33.975  29.585  1.00  0.00    -0.200 F 
ENDBRANCH  56  80
BRANCH  68  91
ATOM     91  C   UNL A   1      43.189  35.343  31.695  1.00  0.00     0.064 A 
ATOM     92  C   UNL A   1      43.703  36.300  30.807  1.00  0.00     0.173 A 
ATOM     93  C   UNL A   1      43.046  35.706  33.042  1.00  0.00     0.173 A 
ATOM     94  F   UNL A   1      43.873  35.997  29.510  1.00  0.00    -0.203 F 
ATOM     95  C   UNL A   1      44.102  37.554  31.259  1.00  0.00     0.198 A 
ATOM     96  C   UNL A   1      43.412  36.974  33.485  1.00  0.00     0.198 A 
ATOM     97  F   UNL A   1      42.550  34.832  33.930  1.00  0.00    -0.203 F 
ATOM     98  F   UNL A   1      44.654  38.428  30.406  1.00  0.00    -0.200 F 
ATOM     99  C   UNL A   1      43.952  37.892  32.597  1.00  0.00     0.200 A 
ATOM    100  F   UNL A   1      43.254  37.304  34.774  1.00  0.00    -0.200 F 
ATOM    101  F   UNL A   1      44.341  39.098  33.031  1.00  0.00    -0.200 F 
ENDBRANCH  68  91
ENDBRANCH  42  43
ENDBRANCH  34  37
ENDBRANCH  32  33
ENDBRANCH  31  32
ENDBRANCH  30  31
ENDBRANCH  28  30
ENDBRANCH   1  26
TORSDOF 18
ENDMDL
MODEL 3
REMARK VINA RESULT:     -12.0      2.507      4.398
REMARK SMILES CCCCCNC(=O)Oc1cccc(-c2ccc([C@@H](C)C(=O)NCCCNC(=O)c3ccc(-c4c5nc(c(-c6c(F)c(F)c(F)c(F)c6F)c6ccc([nH]6)c(-c6c(F)c(F)c(F)c(F)c6F)c6nc(c(-c7c(F)c(F)c(F)c(F)c7F)c7ccc4[nH]7)C=C6)C=C5)cc3)cc2F)c1
REMARK SMILES IDX 19 1 20 2 18 3 15 4 16 5 94 6 17 7 93 8 95 9 14 10 10 11
REMARK SMILES IDX 11 12 96 13 12 14 13 15 9 16 7 17 6 18 8 20 5 21 4 22 3 23
REMARK SMILES IDX 2 24 1 25 21 26 22 27 23 28 24 30 25 31 26 32 27 33 28 34
REMARK SMILES IDX 29 36 30 37 31 38 92 39 32 40 91 41 33 42 34 43 35 44 85 45
REMARK SMILES IDX 36 46 90 47 84 48 86 49 37 50 89 51 83 52 82 53 38 55 70 56
REMARK SMILES IDX 50 57 69 58 51 59 54 60 68 61 87 62 52 63 53 64 67 66 88 67
REMARK SMILES IDX 55 68 39 69 40 70 48 71 41 72 42 73 46 74 49 75 43 76 44 77
REMARK SMILES IDX 47 78 45 79 71 80 72 81 80 82 73 83 74 84 78 85 81 86 75 87
REMARK SMILES IDX 76 88 79 89 77 90 56 91 57 92 65 93 58 94 59 95 63 96 66 97
REMARK SMILES IDX 60 98 61 99 64 100 62 101
REMARK H PARENT 6 19 23 29 27 35 86 54 54 65
REMARK Flexibility Score: inf
ROOT
ATOM      1  C   UNL A   1      32.517  20.545  25.329  1.00  0.00     0.105 C 
ATOM      2  C   UNL A   1      32.833  19.532  24.231  1.00  0.00     0.023 C 
ENDROOT
BRANCH   1   3
ATOM      3  C   UNL A   1      31.936  21.870  24.860  1.00  0.00    -0.033 A 
ATOM      4  C   UNL A   1      31.006  24.474  24.120  1.00  0.00     0.018 A 
ATOM      5  C   UNL A   1      31.649  23.630  23.201  1.00  0.00     0.012 A 
ATOM      6  C   UNL A   1      30.793  23.951  25.405  1.00  0.00     0.131 A 
ATOM      7  C   UNL A   1      32.075  22.343  23.553  1.00  0.00     0.005 A 
ATOM      8  C   UNL A   1      31.263  22.688  25.777  1.00  0.00     0.044 A 
ATOM      9  F   UNL A   1      30.127  24.659  26.329  1.00  0.00    -0.206 F 
BRANCH   4  10
ATOM     10  C   UNL A   1      30.616  25.852  23.742  1.00  0.00    -0.012 A 
ATOM     11  C   UNL A   1      31.176  28.053  22.863  1.00  0.00     0.133 A 
ATOM     12  C   UNL A   1      29.851  28.466  22.949  1.00  0.00     0.047 A 
ATOM     13  C   UNL A   1      31.563  26.771  23.260  1.00  0.00     0.056 A 
ATOM     14  C   UNL A   1      28.897  27.574  23.423  1.00  0.00     0.004 A 
ATOM     15  C   UNL A   1      29.277  26.287  23.820  1.00  0.00     0.009 A 
BRANCH  11  16
ATOM     16  O   UNL A   1      32.125  29.014  22.485  1.00  0.00    -0.410 OA
BRANCH  16  17
ATOM     17  C   UNL A   1      33.461  28.644  22.500  1.00  0.00     0.412 C 
ATOM     18  N   UNL A   1      34.070  28.892  23.700  1.00  0.00    -0.321 N 
ATOM     19  H   UNL A   1      35.024  28.663  23.768  1.00  0.00     0.167 HD
ATOM     20  O   UNL A   1      34.087  28.154  21.567  1.00  0.00    -0.224 OA
BRANCH  18  21
ATOM     21  C   UNL A   1      33.452  29.459  24.882  1.00  0.00     0.119 C 
BRANCH  21  22
ATOM     22  C   UNL A   1      33.984  28.828  26.167  1.00  0.00     0.021 C 
BRANCH  22  23
ATOM     23  C   UNL A   1      33.540  27.381  26.411  1.00  0.00     0.002 C 
BRANCH  23  24
ATOM     24  C   UNL A   1      32.075  27.195  26.814  1.00  0.00    -0.003 C 
ATOM     25  C   UNL A   1      31.482  28.400  27.525  1.00  0.00     0.004 C 
ENDBRANCH  23  24
ENDBRANCH  22  23
ENDBRANCH  21  22
ENDBRANCH  18  21
ENDBRANCH  16  17
ENDBRANCH  11  16
ENDBRANCH   4  10
ENDBRANCH   1   3
BRANCH   1  26
ATOM     26  C   UNL A   1      33.618  20.708  26.388  1.00  0.00     0.227 C 
ATOM     27  O   UNL A   1      33.357  20.518  27.583  1.00  0.00    -0.274 OA
ATOM     28  N   UNL A   1      34.903  21.055  26.106  1.00  0.00    -0.356 N 
ATOM     29  H   UNL A   1      35.497  21.067  26.893  1.00  0.00     0.163 HD
BRANCH  28  30
ATOM     30  C   UNL A   1      35.562  21.412  24.867  1.00  0.00     0.117 C 
BRANCH  30  31
ATOM     31  C   UNL A   1      35.628  22.922  24.654  1.00  0.00     0.042 C 
BRANCH  31  32
ATOM     32  C   UNL A   1      36.807  23.602  25.341  1.00  0.00     0.118 C 
BRANCH  32  33
ATOM     33  N   UNL A   1      37.812  22.646  25.783  1.00  0.00    -0.352 N 
ATOM     34  C   UNL A   1      39.028  22.825  26.390  1.00  0.00     0.251 C 
ATOM     35  H   UNL A   1      37.576  21.705  25.618  1.00  0.00     0.163 HD
ATOM     36  O   UNL A   1      39.787  21.860  26.473  1.00  0.00    -0.269 OA
BRANCH  34  37
ATOM     37  C   UNL A   1      39.455  24.133  26.941  1.00  0.00     0.039 A 
ATOM     38  C   UNL A   1      40.082  25.037  26.075  1.00  0.00     0.014 A 
ATOM     39  C   UNL A   1      39.334  24.456  28.295  1.00  0.00     0.014 A 
ATOM     40  C   UNL A   1      40.557  26.259  26.556  1.00  0.00     0.010 A 
ATOM     41  C   UNL A   1      39.731  25.713  28.758  1.00  0.00     0.010 A 
ATOM     42  C   UNL A   1      40.367  26.620  27.899  1.00  0.00    -0.014 A 
BRANCH  42  43
ATOM     43  C   UNL A   1      40.849  27.935  28.399  1.00  0.00     0.031 A 
ATOM     44  C   UNL A   1      42.321  28.252  28.437  1.00  0.00     0.074 A 
ATOM     45  C   UNL A   1      39.953  28.842  28.838  1.00  0.00     0.049 A 
ATOM     46  N   UNL A   1      42.919  29.360  28.799  1.00  0.00    -0.248 NA
ATOM     47  C   UNL A   1      43.247  27.180  28.040  1.00  0.00     0.031 C 
ATOM     48  C   UNL A   1      38.508  28.628  28.922  1.00  0.00     0.029 A 
ATOM     49  N   UNL A   1      40.125  30.126  29.291  1.00  0.00    -0.354 N 
ATOM     50  C   UNL A   1      44.282  29.111  28.693  1.00  0.00     0.074 A 
ATOM     51  C   UNL A   1      44.428  27.734  28.275  1.00  0.00     0.031 C 
ATOM     52  C   UNL A   1      37.921  29.751  29.366  1.00  0.00     0.029 A 
ATOM     53  C   UNL A   1      38.949  30.755  29.622  1.00  0.00     0.049 A 
ATOM     54  H   UNL A   1      41.007  30.555  29.374  1.00  0.00     0.167 HD
ATOM     55  C   UNL A   1      45.316  29.960  28.904  1.00  0.00     0.037 A 
ATOM     56  C   UNL A   1      38.725  32.004  30.072  1.00  0.00     0.037 A 
ATOM     57  C   UNL A   1      45.166  31.343  29.276  1.00  0.00     0.049 A 
ATOM     58  C   UNL A   1      39.892  32.938  30.244  1.00  0.00     0.074 A 
ATOM     59  C   UNL A   1      46.146  32.310  29.418  1.00  0.00     0.029 A 
ATOM     60  N   UNL A   1      43.957  31.955  29.567  1.00  0.00    -0.354 N 
ATOM     61  N   UNL A   1      41.167  32.722  30.033  1.00  0.00    -0.248 NA
ATOM     62  C   UNL A   1      39.583  34.300  30.702  1.00  0.00     0.031 C 
ATOM     63  C   UNL A   1      45.537  33.494  29.843  1.00  0.00     0.029 A 
ATOM     64  C   UNL A   1      44.170  33.280  29.913  1.00  0.00     0.049 A 
ATOM     65  H   UNL A   1      43.077  31.514  29.532  1.00  0.00     0.167 HD
ATOM     66  C   UNL A   1      41.808  33.923  30.306  1.00  0.00     0.074 A 
ATOM     67  C   UNL A   1      40.778  34.872  30.668  1.00  0.00     0.031 C 
ATOM     68  C   UNL A   1      43.132  34.213  30.267  1.00  0.00     0.037 A 
BRANCH  55  69
ATOM     69  C   UNL A   1      46.711  29.431  28.729  1.00  0.00     0.064 A 
ATOM     70  C   UNL A   1      47.451  28.930  29.811  1.00  0.00     0.173 A 
ATOM     71  C   UNL A   1      47.285  29.352  27.450  1.00  0.00     0.173 A 
ATOM     72  F   UNL A   1      46.952  28.989  31.055  1.00  0.00    -0.203 F 
ATOM     73  C   UNL A   1      48.718  28.384  29.621  1.00  0.00     0.198 A 
ATOM     74  C   UNL A   1      48.540  28.781  27.261  1.00  0.00     0.198 A 
ATOM     75  F   UNL A   1      46.618  29.811  26.381  1.00  0.00    -0.203 F 
ATOM     76  F   UNL A   1      49.419  27.942  30.674  1.00  0.00    -0.200 F 
ATOM     77  C   UNL A   1      49.258  28.302  28.347  1.00  0.00     0.200 A 
ATOM     78  F   UNL A   1      49.054  28.688  26.026  1.00  0.00    -0.200 F 
ATOM     79  F   UNL A   1      50.470  27.759  28.164  1.00  0.00    -0.200 F 
ENDBRANCH  55  69
BRANCH  56  80
ATOM     80  C   UNL A   1      37.340  32.460  30.365  1.00  0.00     0.064 A 
ATOM     81  C   UNL A   1      36.586  33.148  29.402  1.00  0.00     0.173 A 
ATOM     82  C   UNL A   1      36.755  32.252  31.622  1.00  0.00     0.173 A 
ATOM     83  F   UNL A   1      37.109  33.390  28.190  1.00  0.00    -0.203 F 
ATOM     84  C   UNL A   1      35.319  33.644  29.698  1.00  0.00     0.198 A 
ATOM     85  C   UNL A   1      35.473  32.719  31.906  1.00  0.00     0.198 A 
ATOM     86  F   UNL A   1      37.429  31.595  32.577  1.00  0.00    -0.203 F 
ATOM     87  F   UNL A   1      34.649  34.355  28.781  1.00  0.00    -0.200 F 
ATOM     88  C   UNL A   1      34.761  33.425  30.948  1.00  0.00     0.200 A 
ATOM     89  F   UNL A   1      34.931  32.493  33.110  1.00  0.00    -0.200 F 
ATOM     90  F   UNL A   1      33.544  33.908  31.235  1.00  0.00    -0.200 F 
ENDBRANCH  56  80
BRANCH  68  91
ATOM     91  C   UNL A   1      43.529  35.623  30.598  1.00  0.00     0.064 A 
ATOM     92  C   UNL A   1      43.874  36.003  31.904  1.00  0.00     0.173 A 
ATOM     93  C   UNL A   1      43.564  36.605  29.597  1.00  0.00     0.173 A 
ATOM     94  F   UNL A   1      43.842  35.103  32.901  1.00  0.00    -0.203 F 
ATOM     95  C   UNL A   1      44.196  37.323  32.204  1.00  0.00     0.198 A 
ATOM     96  C   UNL A   1      43.921  37.917  29.894  1.00  0.00     0.198 A 
ATOM     97  F   UNL A   1      43.253  36.293  28.331  1.00  0.00    -0.203 F 
ATOM     98  F   UNL A   1      44.455  37.677  33.471  1.00  0.00    -0.200 F 
ATOM     99  C   UNL A   1      44.223  38.278  31.198  1.00  0.00     0.200 A 
ATOM    100  F   UNL A   1      43.961  38.836  28.919  1.00  0.00    -0.200 F 
ATOM    101  F   UNL A   1      44.528  39.550  31.490  1.00  0.00    -0.200 F 
ENDBRANCH  68  91
ENDBRANCH  42  43
ENDBRANCH  34  37
ENDBRANCH  32  33
ENDBRANCH  31  32
ENDBRANCH  30  31
ENDBRANCH  28  30
ENDBRANCH   1  26
TORSDOF 18
ENDMDL
