MODEL 1
REMARK VINA RESULT:     -11.2      0.000      0.000
REMARK SMILES CCC[NH2+][C@]1(C(=O)NCCCNC(=O)c2ccc(-c3c4nc(c(-c5c(F)c(F)c(F)c(F)c5F)c5ccc([nH]5)c(-c5c(F)c(F)c(F)c(F)c5F)c5nc(c(-c6c(F)c(F)c(F)c(F)c6F)c6ccc3[nH]6)C=C5)C=C4)cc2)CC[C@@H](Sc2nnc(C)n2C)C1
REMARK SMILES IDX 9 1 8 2 6 3 7 4 5 6 78 7 89 8 79 9 80 10 4 11 3 14 2 15 1 16
REMARK SMILES IDX 81 17 82 18 83 19 87 20 84 21 85 22 88 23 86 24 10 25 11 26
REMARK SMILES IDX 12 27 13 28 14 30 15 31 16 32 77 33 17 34 76 35 18 36 19 37
REMARK SMILES IDX 20 38 70 39 21 40 75 41 69 42 71 43 22 44 74 45 68 46 67 47
REMARK SMILES IDX 23 49 55 50 35 51 54 52 36 53 39 54 53 55 72 56 37 57 38 58
REMARK SMILES IDX 52 60 73 61 40 62 24 63 25 64 33 65 26 66 27 67 31 68 34 69
REMARK SMILES IDX 28 70 29 71 32 72 30 73 56 74 57 75 65 76 58 77 59 78 63 79
REMARK SMILES IDX 66 80 60 81 61 82 64 83 62 84 41 85 42 86 50 87 43 88 44 89
REMARK SMILES IDX 48 90 51 91 45 92 46 93 49 94 47 95
REMARK H PARENT 8 5 4 12 4 13 12 29 71 48 39 59
REMARK Flexibility Score: inf
ROOT
ATOM      1  C   UNL A   1      31.523  30.800  26.685  1.00  0.00     0.118 C 
ENDROOT
BRANCH   1   2
ATOM      2  N   UNL A   1      31.700  30.273  25.347  1.00  0.00    -0.351 N 
ATOM      3  C   UNL A   1      32.065  29.066  24.853  1.00  0.00     0.281 C 
ATOM      4  O   UNL A   1      32.163  29.045  23.614  1.00  0.00    -0.268 OA
ATOM      5  H   UNL A   1      31.517  30.937  24.644  1.00  0.00     0.163 HD
BRANCH   3   6
ATOM      6  C   UNL A   1      32.394  27.775  25.679  1.00  0.00     0.176 C 
ATOM      7  C   UNL A   1      31.040  27.155  26.133  1.00  0.00     0.080 C 
ATOM      8  C   UNL A   1      32.864  26.689  24.685  1.00  0.00     0.094 C 
ATOM      9  C   UNL A   1      31.248  25.639  26.189  1.00  0.00     0.022 C 
ATOM     10  C   UNL A   1      32.452  25.350  25.292  1.00  0.00     0.062 C 
BRANCH   6  11
ATOM     11  N   UNL A   1      33.247  28.003  26.866  1.00  0.00    -0.334 N 
ATOM     12  H   UNL A   1      32.725  28.602  27.505  1.00  0.00     0.347 HD
ATOM     13  H   UNL A   1      33.459  27.067  27.214  1.00  0.00     0.347 HD
BRANCH  11  14
ATOM     14  C   UNL A   1      34.551  28.622  26.658  1.00  0.00     0.261 C 
BRANCH  14  15
ATOM     15  C   UNL A   1      34.990  29.453  27.868  1.00  0.00     0.058 C 
ATOM     16  C   UNL A   1      35.349  30.890  27.528  1.00  0.00     0.010 C 
ENDBRANCH  14  15
ENDBRANCH  11  14
ENDBRANCH   6  11
BRANCH  10  17
ATOM     17  S   UNL A   1      32.266  24.037  24.040  1.00  0.00    -0.082 SA
BRANCH  17  18
ATOM     18  C   UNL A   1      33.896  23.559  23.725  1.00  0.00     0.191 A 
ATOM     19  N   UNL A   1      34.587  23.900  22.665  1.00  0.00    -0.123 NA
ATOM     20  N   UNL A   1      34.642  22.727  24.512  1.00  0.00    -0.309 N 
ATOM     21  N   UNL A   1      35.826  23.316  22.766  1.00  0.00    -0.135 NA
ATOM     22  C   UNL A   1      35.863  22.625  23.886  1.00  0.00     0.130 A 
ATOM     23  C   UNL A   1      34.296  22.092  25.758  1.00  0.00     0.154 C 
ATOM     24  C   UNL A   1      37.015  21.857  24.409  1.00  0.00     0.090 C 
ENDBRANCH  17  18
ENDBRANCH  10  17
ENDBRANCH   3   6
ENDBRANCH   1   2
BRANCH   1  25
ATOM     25  C   UNL A   1      31.430  32.324  26.705  1.00  0.00     0.042 C 
BRANCH  25  26
ATOM     26  C   UNL A   1      32.739  33.048  27.012  1.00  0.00     0.118 C 
BRANCH  26  27
ATOM     27  N   UNL A   1      32.552  34.265  27.782  1.00  0.00    -0.352 N 
ATOM     28  C   UNL A   1      33.164  34.717  28.924  1.00  0.00     0.251 C 
ATOM     29  H   UNL A   1      31.866  34.871  27.421  1.00  0.00     0.163 HD
ATOM     30  O   UNL A   1      32.716  35.721  29.473  1.00  0.00    -0.269 OA
BRANCH  28  31
ATOM     31  C   UNL A   1      34.331  34.026  29.526  1.00  0.00     0.039 A 
ATOM     32  C   UNL A   1      35.609  34.414  29.107  1.00  0.00     0.014 A 
ATOM     33  C   UNL A   1      34.201  32.965  30.429  1.00  0.00     0.014 A 
ATOM     34  C   UNL A   1      36.744  33.777  29.618  1.00  0.00     0.010 A 
ATOM     35  C   UNL A   1      35.336  32.380  30.997  1.00  0.00     0.010 A 
ATOM     36  C   UNL A   1      36.620  32.770  30.589  1.00  0.00    -0.014 A 
BRANCH  36  37
ATOM     37  C   UNL A   1      37.835  32.133  31.166  1.00  0.00     0.031 A 
ATOM     38  C   UNL A   1      38.301  32.472  32.555  1.00  0.00     0.074 A 
ATOM     39  C   UNL A   1      38.530  31.247  30.428  1.00  0.00     0.049 A 
ATOM     40  N   UNL A   1      39.303  31.971  33.237  1.00  0.00    -0.248 NA
ATOM     41  C   UNL A   1      37.563  33.526  33.265  1.00  0.00     0.031 C 
ATOM     42  C   UNL A   1      38.221  30.872  29.048  1.00  0.00     0.029 A 
ATOM     43  N   UNL A   1      39.633  30.491  30.739  1.00  0.00    -0.354 N 
ATOM     44  C   UNL A   1      39.316  32.652  34.448  1.00  0.00     0.074 A 
ATOM     45  C   UNL A   1      38.260  33.640  34.385  1.00  0.00     0.031 C 
ATOM     46  C   UNL A   1      39.082  29.924  28.646  1.00  0.00     0.029 A 
ATOM     47  C   UNL A   1      40.017  29.640  29.731  1.00  0.00     0.049 A 
ATOM     48  H   UNL A   1      40.104  30.553  31.601  1.00  0.00     0.167 HD
ATOM     49  C   UNL A   1      40.117  32.456  35.524  1.00  0.00     0.037 A 
ATOM     50  C   UNL A   1      40.998  28.719  29.693  1.00  0.00     0.037 A 
ATOM     51  C   UNL A   1      41.156  31.461  35.597  1.00  0.00     0.049 A 
ATOM     52  C   UNL A   1      41.856  28.501  30.908  1.00  0.00     0.074 A 
ATOM     53  C   UNL A   1      41.986  31.152  36.661  1.00  0.00     0.029 A 
ATOM     54  N   UNL A   1      41.508  30.610  34.559  1.00  0.00    -0.354 N 
ATOM     55  N   UNL A   1      41.812  29.100  32.072  1.00  0.00    -0.248 NA
ATOM     56  C   UNL A   1      42.892  27.463  30.804  1.00  0.00     0.031 C 
ATOM     57  C   UNL A   1      42.864  30.139  36.256  1.00  0.00     0.029 A 
ATOM     58  C   UNL A   1      42.552  29.787  34.953  1.00  0.00     0.049 A 
ATOM     59  H   UNL A   1      41.079  30.593  33.673  1.00  0.00     0.167 HD
ATOM     60  C   UNL A   1      42.793  28.500  32.848  1.00  0.00     0.074 A 
ATOM     61  C   UNL A   1      43.405  27.476  32.026  1.00  0.00     0.031 C 
ATOM     62  C   UNL A   1      43.154  28.772  34.125  1.00  0.00     0.037 A 
BRANCH  49  63
ATOM     63  C   UNL A   1      39.892  33.339  36.717  1.00  0.00     0.064 A 
ATOM     64  C   UNL A   1      38.902  33.049  37.669  1.00  0.00     0.173 A 
ATOM     65  C   UNL A   1      40.683  34.481  36.922  1.00  0.00     0.173 A 
ATOM     66  F   UNL A   1      38.110  31.977  37.514  1.00  0.00    -0.203 F 
ATOM     67  C   UNL A   1      38.687  33.888  38.761  1.00  0.00     0.198 A 
ATOM     68  C   UNL A   1      40.485  35.300  38.032  1.00  0.00     0.198 A 
ATOM     69  F   UNL A   1      41.647  34.801  36.047  1.00  0.00    -0.203 F 
ATOM     70  F   UNL A   1      37.698  33.620  39.624  1.00  0.00    -0.200 F 
ATOM     71  C   UNL A   1      39.482  35.009  38.943  1.00  0.00     0.200 A 
ATOM     72  F   UNL A   1      41.260  36.378  38.212  1.00  0.00    -0.200 F 
ATOM     73  F   UNL A   1      39.273  35.815  39.993  1.00  0.00    -0.200 F 
ENDBRANCH  49  63
BRANCH  50  74
ATOM     74  C   UNL A   1      41.174  27.884  28.478  1.00  0.00     0.064 A 
ATOM     75  C   UNL A   1      40.447  26.697  28.316  1.00  0.00     0.173 A 
ATOM     76  C   UNL A   1      42.055  28.258  27.454  1.00  0.00     0.173 A 
ATOM     77  F   UNL A   1      39.607  26.290  29.279  1.00  0.00    -0.203 F 
ATOM     78  C   UNL A   1      40.603  25.907  27.179  1.00  0.00     0.198 A 
ATOM     79  C   UNL A   1      42.193  27.480  26.306  1.00  0.00     0.198 A 
ATOM     80  F   UNL A   1      42.769  29.389  27.561  1.00  0.00    -0.203 F 
ATOM     81  F   UNL A   1      39.921  24.760  27.064  1.00  0.00    -0.200 F 
ATOM     82  C   UNL A   1      41.471  26.303  26.173  1.00  0.00     0.200 A 
ATOM     83  F   UNL A   1      43.022  27.871  25.330  1.00  0.00    -0.200 F 
ATOM     84  F   UNL A   1      41.615  25.547  25.075  1.00  0.00    -0.200 F 
ENDBRANCH  50  74
BRANCH  62  85
ATOM     85  C   UNL A   1      44.246  27.931  34.718  1.00  0.00     0.064 A 
ATOM     86  C   UNL A   1      43.973  26.711  35.353  1.00  0.00     0.173 A 
ATOM     87  C   UNL A   1      45.584  28.349  34.645  1.00  0.00     0.173 A 
ATOM     88  F   UNL A   1      42.708  26.277  35.463  1.00  0.00    -0.203 F 
ATOM     89  C   UNL A   1      44.994  25.957  35.925  1.00  0.00     0.198 A 
ATOM     90  C   UNL A   1      46.606  27.578  35.193  1.00  0.00     0.198 A 
ATOM     91  F   UNL A   1      45.900  29.504  34.043  1.00  0.00    -0.203 F 
ATOM     92  F   UNL A   1      44.702  24.823  36.577  1.00  0.00    -0.200 F 
ATOM     93  C   UNL A   1      46.309  26.389  35.842  1.00  0.00     0.200 A 
ATOM     94  F   UNL A   1      47.878  27.992  35.103  1.00  0.00    -0.200 F 
ATOM     95  F   UNL A   1      47.290  25.664  36.397  1.00  0.00    -0.200 F 
ENDBRANCH  62  85
ENDBRANCH  36  37
ENDBRANCH  28  31
ENDBRANCH  26  27
ENDBRANCH  25  26
ENDBRANCH   1  25
TORSDOF 15
ENDMDL
MODEL 2
REMARK VINA RESULT:     -11.1      2.228      3.637
REMARK SMILES CCC[NH2+][C@]1(C(=O)NCCCNC(=O)c2ccc(-c3c4nc(c(-c5c(F)c(F)c(F)c(F)c5F)c5ccc([nH]5)c(-c5c(F)c(F)c(F)c(F)c5F)c5nc(c(-c6c(F)c(F)c(F)c(F)c6F)c6ccc3[nH]6)C=C5)C=C4)cc2)CC[C@@H](Sc2nnc(C)n2C)C1
REMARK SMILES IDX 9 1 8 2 6 3 7 4 5 6 78 7 89 8 79 9 80 10 4 11 3 14 2 15 1 16
REMARK SMILES IDX 81 17 82 18 83 19 87 20 84 21 85 22 88 23 86 24 10 25 11 26
REMARK SMILES IDX 12 27 13 28 14 30 15 31 16 32 77 33 17 34 76 35 18 36 19 37
REMARK SMILES IDX 20 38 70 39 21 40 75 41 69 42 71 43 22 44 74 45 68 46 67 47
REMARK SMILES IDX 23 49 55 50 35 51 54 52 36 53 39 54 53 55 72 56 37 57 38 58
REMARK SMILES IDX 52 60 73 61 40 62 24 63 25 64 33 65 26 66 27 67 31 68 34 69
REMARK SMILES IDX 28 70 29 71 32 72 30 73 56 74 57 75 65 76 58 77 59 78 63 79
REMARK SMILES IDX 66 80 60 81 61 82 64 83 62 84 41 85 42 86 50 87 43 88 44 89
REMARK SMILES IDX 48 90 51 91 45 92 46 93 49 94 47 95
REMARK H PARENT 8 5 4 12 4 13 12 29 71 48 39 59
REMARK Flexibility Score: inf
ROOT
ATOM      1  C   UNL A   1      32.072  28.058  23.096  1.00  0.00     0.118 C 
ENDROOT
BRANCH   1   2
ATOM      2  N   UNL A   1      32.506  27.215  21.999  1.00  0.00    -0.351 N 
ATOM      3  C   UNL A   1      32.923  25.929  21.909  1.00  0.00     0.281 C 
ATOM      4  O   UNL A   1      33.276  25.601  20.764  1.00  0.00    -0.268 OA
ATOM      5  H   UNL A   1      32.498  27.679  21.131  1.00  0.00     0.163 HD
BRANCH   3   6
ATOM      6  C   UNL A   1      33.024  24.893  23.081  1.00  0.00     0.176 C 
ATOM      7  C   UNL A   1      31.597  24.727  23.681  1.00  0.00     0.080 C 
ATOM      8  C   UNL A   1      33.212  23.493  22.454  1.00  0.00     0.094 C 
ATOM      9  C   UNL A   1      31.496  23.284  24.181  1.00  0.00     0.022 C 
ATOM     10  C   UNL A   1      32.569  22.503  23.421  1.00  0.00     0.062 C 
BRANCH   6  11
ATOM     11  N   UNL A   1      33.965  25.270  24.158  1.00  0.00    -0.334 N 
ATOM     12  H   UNL A   1      34.234  26.241  24.001  1.00  0.00     0.347 HD
ATOM     13  H   UNL A   1      33.454  25.088  25.022  1.00  0.00     0.347 HD
BRANCH  11  14
ATOM     14  C   UNL A   1      35.195  24.495  24.290  1.00  0.00     0.261 C 
BRANCH  14  15
ATOM     15  C   UNL A   1      35.325  23.859  25.678  1.00  0.00     0.058 C 
ATOM     16  C   UNL A   1      36.761  23.707  26.150  1.00  0.00     0.010 C 
ENDBRANCH  14  15
ENDBRANCH  11  14
ENDBRANCH   6  11
BRANCH  10  17
ATOM     17  S   UNL A   1      32.057  20.954  22.606  1.00  0.00    -0.082 SA
BRANCH  17  18
ATOM     18  C   UNL A   1      32.292  19.766  23.837  1.00  0.00     0.191 A 
ATOM     19  N   UNL A   1      32.296  20.010  25.125  1.00  0.00    -0.123 NA
ATOM     20  N   UNL A   1      32.554  18.442  23.619  1.00  0.00    -0.309 N 
ATOM     21  N   UNL A   1      32.529  18.823  25.776  1.00  0.00    -0.135 NA
ATOM     22  C   UNL A   1      32.666  17.877  24.869  1.00  0.00     0.130 A 
ATOM     23  C   UNL A   1      32.665  17.724  22.375  1.00  0.00     0.154 C 
ATOM     24  C   UNL A   1      32.901  16.439  25.125  1.00  0.00     0.090 C 
ENDBRANCH  17  18
ENDBRANCH  10  17
ENDBRANCH   3   6
ENDBRANCH   1   2
BRANCH   1  25
ATOM     25  C   UNL A   1      33.209  28.900  23.670  1.00  0.00     0.042 C 
BRANCH  25  26
ATOM     26  C   UNL A   1      33.267  28.954  25.195  1.00  0.00     0.118 C 
BRANCH  26  27
ATOM     27  N   UNL A   1      32.835  30.230  25.738  1.00  0.00    -0.352 N 
ATOM     28  C   UNL A   1      33.300  30.968  26.797  1.00  0.00     0.251 C 
ATOM     29  H   UNL A   1      32.074  30.635  25.264  1.00  0.00     0.163 HD
ATOM     30  O   UNL A   1      32.659  31.954  27.154  1.00  0.00    -0.269 OA
BRANCH  28  31
ATOM     31  C   UNL A   1      34.537  30.606  27.534  1.00  0.00     0.039 A 
ATOM     32  C   UNL A   1      35.512  31.596  27.702  1.00  0.00     0.014 A 
ATOM     33  C   UNL A   1      34.792  29.310  27.996  1.00  0.00     0.014 A 
ATOM     34  C   UNL A   1      36.710  31.303  28.361  1.00  0.00     0.010 A 
ATOM     35  C   UNL A   1      35.955  29.037  28.722  1.00  0.00     0.010 A 
ATOM     36  C   UNL A   1      36.932  30.026  28.902  1.00  0.00    -0.014 A 
BRANCH  36  37
ATOM     37  C   UNL A   1      38.187  29.737  29.648  1.00  0.00     0.031 A 
ATOM     38  C   UNL A   1      38.416  30.298  31.025  1.00  0.00     0.074 A 
ATOM     39  C   UNL A   1      39.134  28.970  29.076  1.00  0.00     0.049 A 
ATOM     40  N   UNL A   1      39.423  30.102  31.841  1.00  0.00    -0.248 NA
ATOM     41  C   UNL A   1      37.394  31.215  31.546  1.00  0.00     0.031 C 
ATOM     42  C   UNL A   1      39.064  28.412  27.725  1.00  0.00     0.029 A 
ATOM     43  N   UNL A   1      40.335  28.516  29.562  1.00  0.00    -0.354 N 
ATOM     44  C   UNL A   1      39.158  30.875  32.964  1.00  0.00     0.074 A 
ATOM     45  C   UNL A   1      37.925  31.586  32.702  1.00  0.00     0.031 C 
ATOM     46  C   UNL A   1      40.150  27.652  27.507  1.00  0.00     0.029 A 
ATOM     47  C   UNL A   1      41.002  27.688  28.693  1.00  0.00     0.049 A 
ATOM     48  H   UNL A   1      40.686  28.761  30.449  1.00  0.00     0.167 HD
ATOM     49  C   UNL A   1      39.860  30.965  34.120  1.00  0.00     0.037 A 
ATOM     50  C   UNL A   1      42.158  27.015  28.841  1.00  0.00     0.037 A 
ATOM     51  C   UNL A   1      41.077  30.243  34.392  1.00  0.00     0.049 A 
ATOM     52  C   UNL A   1      42.907  27.108  30.142  1.00  0.00     0.074 A 
ATOM     53  C   UNL A   1      41.835  30.229  35.551  1.00  0.00     0.029 A 
ATOM     54  N   UNL A   1      41.716  29.405  33.490  1.00  0.00    -0.354 N 
ATOM     55  N   UNL A   1      42.608  27.785  31.222  1.00  0.00    -0.248 NA
ATOM     56  C   UNL A   1      44.149  26.329  30.243  1.00  0.00     0.031 C 
ATOM     57  C   UNL A   1      42.951  29.410  35.338  1.00  0.00     0.029 A 
ATOM     58  C   UNL A   1      42.866  28.880  34.060  1.00  0.00     0.049 A 
ATOM     59  H   UNL A   1      41.399  29.210  32.578  1.00  0.00     0.167 HD
ATOM     60  C   UNL A   1      43.606  27.497  32.142  1.00  0.00     0.074 A 
ATOM     61  C   UNL A   1      44.512  26.568  31.495  1.00  0.00     0.031 C 
ATOM     62  C   UNL A   1      43.760  27.959  33.407  1.00  0.00     0.037 A 
BRANCH  49  63
ATOM     63  C   UNL A   1      39.321  31.878  35.183  1.00  0.00     0.064 A 
ATOM     64  C   UNL A   1      39.611  33.251  35.188  1.00  0.00     0.173 A 
ATOM     65  C   UNL A   1      38.492  31.379  36.201  1.00  0.00     0.173 A 
ATOM     66  F   UNL A   1      40.408  33.775  34.245  1.00  0.00    -0.203 F 
ATOM     67  C   UNL A   1      39.123  34.084  36.192  1.00  0.00     0.198 A 
ATOM     68  C   UNL A   1      37.981  32.222  37.186  1.00  0.00     0.198 A 
ATOM     69  F   UNL A   1      38.178  30.076  36.240  1.00  0.00    -0.203 F 
ATOM     70  F   UNL A   1      39.461  35.381  36.207  1.00  0.00    -0.200 F 
ATOM     71  C   UNL A   1      38.305  33.570  37.186  1.00  0.00     0.200 A 
ATOM     72  F   UNL A   1      37.183  31.726  38.141  1.00  0.00    -0.200 F 
ATOM     73  F   UNL A   1      37.837  34.373  38.152  1.00  0.00    -0.200 F 
ENDBRANCH  49  63
BRANCH  50  74
ATOM     74  C   UNL A   1      42.642  26.135  27.747  1.00  0.00     0.064 A 
ATOM     75  C   UNL A   1      42.154  24.828  27.613  1.00  0.00     0.173 A 
ATOM     76  C   UNL A   1      43.584  26.583  26.811  1.00  0.00     0.173 A 
ATOM     77  F   UNL A   1      41.266  24.351  28.498  1.00  0.00    -0.203 F 
ATOM     78  C   UNL A   1      42.599  23.995  26.589  1.00  0.00     0.198 A 
ATOM     79  C   UNL A   1      44.011  25.757  25.772  1.00  0.00     0.198 A 
ATOM     80  F   UNL A   1      44.076  27.828  26.894  1.00  0.00    -0.203 F 
ATOM     81  F   UNL A   1      42.142  22.739  26.503  1.00  0.00    -0.200 F 
ATOM     82  C   UNL A   1      43.523  24.463  25.666  1.00  0.00     0.200 A 
ATOM     83  F   UNL A   1      44.893  26.216  24.875  1.00  0.00    -0.200 F 
ATOM     84  F   UNL A   1      43.945  23.665  24.675  1.00  0.00    -0.200 F 
ENDBRANCH  50  74
BRANCH  62  85
ATOM     85  C   UNL A   1      44.938  27.446  34.180  1.00  0.00     0.064 A 
ATOM     86  C   UNL A   1      46.173  28.112  34.170  1.00  0.00     0.173 A 
ATOM     87  C   UNL A   1      44.831  26.275  34.947  1.00  0.00     0.173 A 
ATOM     88  F   UNL A   1      46.331  29.226  33.439  1.00  0.00    -0.203 F 
ATOM     89  C   UNL A   1      47.266  27.607  34.868  1.00  0.00     0.198 A 
ATOM     90  C   UNL A   1      45.918  25.788  35.667  1.00  0.00     0.198 A 
ATOM     91  F   UNL A   1      43.672  25.603  34.996  1.00  0.00    -0.203 F 
ATOM     92  F   UNL A   1      48.450  28.229  34.796  1.00  0.00    -0.200 F 
ATOM     93  C   UNL A   1      47.137  26.447  35.619  1.00  0.00     0.200 A 
ATOM     94  F   UNL A   1      45.790  24.672  36.400  1.00  0.00    -0.200 F 
ATOM     95  F   UNL A   1      48.191  25.960  36.287  1.00  0.00    -0.200 F 
ENDBRANCH  62  85
ENDBRANCH  36  37
ENDBRANCH  28  31
ENDBRANCH  26  27
ENDBRANCH  25  26
ENDBRANCH   1  25
TORSDOF 15
ENDMDL
MODEL 3
REMARK VINA RESULT:     -11.0      2.277      3.723
REMARK SMILES CCC[NH2+][C@]1(C(=O)NCCCNC(=O)c2ccc(-c3c4nc(c(-c5c(F)c(F)c(F)c(F)c5F)c5ccc([nH]5)c(-c5c(F)c(F)c(F)c(F)c5F)c5nc(c(-c6c(F)c(F)c(F)c(F)c6F)c6ccc3[nH]6)C=C5)C=C4)cc2)CC[C@@H](Sc2nnc(C)n2C)C1
REMARK SMILES IDX 9 1 8 2 6 3 7 4 5 6 78 7 89 8 79 9 80 10 4 11 3 14 2 15 1 16
REMARK SMILES IDX 81 17 82 18 83 19 87 20 84 21 85 22 88 23 86 24 10 25 11 26
REMARK SMILES IDX 12 27 13 28 14 30 15 31 16 32 77 33 17 34 76 35 18 36 19 37
REMARK SMILES IDX 20 38 70 39 21 40 75 41 69 42 71 43 22 44 74 45 68 46 67 47
REMARK SMILES IDX 23 49 55 50 35 51 54 52 36 53 39 54 53 55 72 56 37 57 38 58
REMARK SMILES IDX 52 60 73 61 40 62 24 63 25 64 33 65 26 66 27 67 31 68 34 69
REMARK SMILES IDX 28 70 29 71 32 72 30 73 56 74 57 75 65 76 58 77 59 78 63 79
REMARK SMILES IDX 66 80 60 81 61 82 64 83 62 84 41 85 42 86 50 87 43 88 44 89
REMARK SMILES IDX 48 90 51 91 45 92 46 93 49 94 47 95
REMARK H PARENT 8 5 4 12 4 13 12 29 71 48 39 59
REMARK Flexibility Score: inf
ROOT
ATOM      1  C   UNL A   1      33.024  26.601  25.473  1.00  0.00     0.118 C 
ENDROOT
BRANCH   1   2
ATOM      2  N   UNL A   1      32.461  25.543  26.286  1.00  0.00    -0.351 N 
ATOM      3  C   UNL A   1      32.631  24.200  26.331  1.00  0.00     0.281 C 
ATOM      4  O   UNL A   1      31.891  23.632  27.153  1.00  0.00    -0.268 OA
ATOM      5  H   UNL A   1      31.812  25.871  26.950  1.00  0.00     0.163 HD
BRANCH   3   6
ATOM      6  C   UNL A   1      33.607  23.348  25.448  1.00  0.00     0.176 C 
ATOM      7  C   UNL A   1      34.023  22.102  26.283  1.00  0.00     0.080 C 
ATOM      8  C   UNL A   1      32.767  22.662  24.348  1.00  0.00     0.094 C 
ATOM      9  C   UNL A   1      34.249  20.961  25.287  1.00  0.00     0.022 C 
ATOM     10  C   UNL A   1      33.476  21.350  24.026  1.00  0.00     0.062 C 
BRANCH   6  11
ATOM     11  N   UNL A   1      34.823  24.065  25.006  1.00  0.00    -0.334 N 
ATOM     12  H   UNL A   1      35.026  23.761  24.053  1.00  0.00     0.347 HD
ATOM     13  H   UNL A   1      34.592  25.053  25.113  1.00  0.00     0.347 HD
BRANCH  11  14
ATOM     14  C   UNL A   1      36.041  23.886  25.788  1.00  0.00     0.261 C 
BRANCH  14  15
ATOM     15  C   UNL A   1      37.202  23.370  24.929  1.00  0.00     0.058 C 
ATOM     16  C   UNL A   1      36.789  22.951  23.528  1.00  0.00     0.010 C 
ENDBRANCH  14  15
ENDBRANCH  11  14
ENDBRANCH   6  11
BRANCH  10  17
ATOM     17  S   UNL A   1      32.355  20.100  23.314  1.00  0.00    -0.082 SA
BRANCH  17  18
ATOM     18  C   UNL A   1      32.546  18.751  24.375  1.00  0.00     0.191 A 
ATOM     19  N   UNL A   1      32.153  18.717  25.626  1.00  0.00    -0.123 NA
ATOM     20  N   UNL A   1      33.175  17.579  24.059  1.00  0.00    -0.309 N 
ATOM     21  N   UNL A   1      32.492  17.490  26.140  1.00  0.00    -0.135 NA
ATOM     22  C   UNL A   1      33.091  16.799  25.191  1.00  0.00     0.130 A 
ATOM     23  C   UNL A   1      33.780  17.170  22.818  1.00  0.00     0.154 C 
ATOM     24  C   UNL A   1      33.599  15.414  25.298  1.00  0.00     0.090 C 
ENDBRANCH  17  18
ENDBRANCH  10  17
ENDBRANCH   3   6
ENDBRANCH   1   2
BRANCH   1  25
ATOM     25  C   UNL A   1      32.415  27.966  25.786  1.00  0.00     0.042 C 
BRANCH  25  26
ATOM     26  C   UNL A   1      33.245  29.165  25.332  1.00  0.00     0.118 C 
BRANCH  26  27
ATOM     27  N   UNL A   1      32.758  30.428  25.858  1.00  0.00    -0.352 N 
ATOM     28  C   UNL A   1      33.208  31.214  26.888  1.00  0.00     0.251 C 
ATOM     29  H   UNL A   1      31.966  30.782  25.392  1.00  0.00     0.163 HD
ATOM     30  O   UNL A   1      32.524  32.173  27.239  1.00  0.00    -0.269 OA
BRANCH  28  31
ATOM     31  C   UNL A   1      34.478  30.935  27.604  1.00  0.00     0.039 A 
ATOM     32  C   UNL A   1      34.637  29.672  28.186  1.00  0.00     0.014 A 
ATOM     33  C   UNL A   1      35.477  31.898  27.779  1.00  0.00     0.014 A 
ATOM     34  C   UNL A   1      35.800  29.364  28.898  1.00  0.00     0.010 A 
ATOM     35  C   UNL A   1      36.672  31.565  28.424  1.00  0.00     0.010 A 
ATOM     36  C   UNL A   1      36.841  30.299  29.002  1.00  0.00    -0.014 A 
BRANCH  36  37
ATOM     37  C   UNL A   1      38.098  29.945  29.717  1.00  0.00     0.031 A 
ATOM     38  C   UNL A   1      38.381  30.477  31.095  1.00  0.00     0.074 A 
ATOM     39  C   UNL A   1      38.997  29.144  29.114  1.00  0.00     0.049 A 
ATOM     40  N   UNL A   1      39.395  30.226  31.887  1.00  0.00    -0.248 NA
ATOM     41  C   UNL A   1      37.411  31.431  31.650  1.00  0.00     0.031 C 
ATOM     42  C   UNL A   1      38.875  28.608  27.759  1.00  0.00     0.029 A 
ATOM     43  N   UNL A   1      40.187  28.632  29.569  1.00  0.00    -0.354 N 
ATOM     44  C   UNL A   1      39.188  30.995  33.025  1.00  0.00     0.074 A 
ATOM     45  C   UNL A   1      37.982  31.763  32.798  1.00  0.00     0.031 C 
ATOM     46  C   UNL A   1      39.921  27.804  27.508  1.00  0.00     0.029 A 
ATOM     47  C   UNL A   1      40.798  27.786  28.675  1.00  0.00     0.049 A 
ATOM     48  H   UNL A   1      40.568  28.850  30.451  1.00  0.00     0.167 HD
ATOM     49  C   UNL A   1      39.918  31.039  34.166  1.00  0.00     0.037 A 
ATOM     50  C   UNL A   1      41.927  27.061  28.790  1.00  0.00     0.037 A 
ATOM     51  C   UNL A   1      41.107  30.261  34.403  1.00  0.00     0.049 A 
ATOM     52  C   UNL A   1      42.706  27.105  30.075  1.00  0.00     0.074 A 
ATOM     53  C   UNL A   1      41.889  30.198  35.544  1.00  0.00     0.029 A 
ATOM     54  N   UNL A   1      41.690  29.407  33.477  1.00  0.00    -0.354 N 
ATOM     55  N   UNL A   1      42.460  27.780  31.171  1.00  0.00    -0.248 NA
ATOM     56  C   UNL A   1      43.915  26.271  30.140  1.00  0.00     0.031 C 
ATOM     57  C   UNL A   1      42.962  29.333  35.297  1.00  0.00     0.029 A 
ATOM     58  C   UNL A   1      42.827  28.825  34.016  1.00  0.00     0.049 A 
ATOM     59  H   UNL A   1      41.345  29.239  32.570  1.00  0.00     0.167 HD
ATOM     60  C   UNL A   1      43.465  27.435  32.064  1.00  0.00     0.074 A 
ATOM     61  C   UNL A   1      44.314  26.477  31.387  1.00  0.00     0.031 C 
ATOM     62  C   UNL A   1      43.665  27.874  33.331  1.00  0.00     0.037 A 
BRANCH  49  63
ATOM     63  C   UNL A   1      39.442  31.960  35.252  1.00  0.00     0.064 A 
ATOM     64  C   UNL A   1      38.543  31.528  36.239  1.00  0.00     0.173 A 
ATOM     65  C   UNL A   1      39.900  33.285  35.317  1.00  0.00     0.173 A 
ATOM     66  F   UNL A   1      38.066  30.275  36.216  1.00  0.00    -0.203 F 
ATOM     67  C   UNL A   1      38.092  32.399  37.229  1.00  0.00     0.198 A 
ATOM     68  C   UNL A   1      39.470  34.144  36.326  1.00  0.00     0.198 A 
ATOM     69  F   UNL A   1      40.765  33.748  34.402  1.00  0.00    -0.203 F 
ATOM     70  F   UNL A   1      37.189  31.979  38.126  1.00  0.00    -0.200 F 
ATOM     71  C   UNL A   1      38.559  33.703  37.274  1.00  0.00     0.200 A 
ATOM     72  F   UNL A   1      39.929  35.402  36.375  1.00  0.00    -0.200 F 
ATOM     73  F   UNL A   1      38.122  34.539  38.226  1.00  0.00    -0.200 F 
ENDBRANCH  49  63
BRANCH  50  74
ATOM     74  C   UNL A   1      42.348  26.176  27.675  1.00  0.00     0.064 A 
ATOM     75  C   UNL A   1      43.327  26.593  26.763  1.00  0.00     0.173 A 
ATOM     76  C   UNL A   1      41.797  24.898  27.508  1.00  0.00     0.173 A 
ATOM     77  F   UNL A   1      43.867  27.816  26.873  1.00  0.00    -0.203 F 
ATOM     78  C   UNL A   1      43.731  25.770  25.715  1.00  0.00     0.198 A 
ATOM     79  C   UNL A   1      42.219  24.066  26.473  1.00  0.00     0.198 A 
ATOM     80  F   UNL A   1      40.862  24.453  28.359  1.00  0.00    -0.203 F 
ATOM     81  F   UNL A   1      44.643  26.205  24.836  1.00  0.00    -0.200 F 
ATOM     82  C   UNL A   1      43.181  24.504  25.575  1.00  0.00     0.200 A 
ATOM     83  F   UNL A   1      41.696  22.839  26.348  1.00  0.00    -0.200 F 
ATOM     84  F   UNL A   1      43.576  23.708  24.571  1.00  0.00    -0.200 F 
ENDBRANCH  50  74
BRANCH  62  85
ATOM     85  C   UNL A   1      44.836  27.299  34.073  1.00  0.00     0.064 A 
ATOM     86  C   UNL A   1      44.717  26.136  34.849  1.00  0.00     0.173 A 
ATOM     87  C   UNL A   1      46.094  27.916  34.003  1.00  0.00     0.173 A 
ATOM     88  F   UNL A   1      43.531  25.519  34.961  1.00  0.00    -0.203 F 
ATOM     89  C   UNL A   1      45.805  25.633  35.556  1.00  0.00     0.198 A 
ATOM     90  C   UNL A   1      47.188  27.393  34.688  1.00  0.00     0.198 A 
ATOM     91  F   UNL A   1      46.263  29.026  33.270  1.00  0.00    -0.203 F 
ATOM     92  F   UNL A   1      45.654  24.554  36.336  1.00  0.00    -0.200 F 
ATOM     93  C   UNL A   1      47.040  26.259  35.472  1.00  0.00     0.200 A 
ATOM     94  F   UNL A   1      48.383  27.994  34.599  1.00  0.00    -0.200 F 
ATOM     95  F   UNL A   1      48.085  25.776  36.157  1.00  0.00    -0.200 F 
ENDBRANCH  62  85
ENDBRANCH  36  37
ENDBRANCH  28  31
ENDBRANCH  26  27
ENDBRANCH  25  26
ENDBRANCH   1  25
TORSDOF 15
ENDMDL
