MODEL 1
REMARK VINA RESULT:     -13.1      0.000      0.000
REMARK SMILES CCc1cc2c(C)cc(=O)oc2cc1O[C@H](C)C(=O)NCCCNC(=O)c1ccc(-c2c3nc(c(-c4c(F)c(F)c(F)c(F)c4F)c4ccc([nH]4)c(-c4c(F)c(F)c(F)c(F)c4F)c4nc(c(-c5c(F)c(F)c(F)c(F)c5F)c5ccc2[nH]5)C=C4)C=C3)cc1
REMARK SMILES IDX 21 1 20 2 18 3 19 4 16 6 17 7 15 8 14 9 3 10 4 11 5 12 13 13
REMARK SMILES IDX 6 14 12 15 7 16 8 17 11 18 9 19 10 20 2 21 1 22 22 23 23 24
REMARK SMILES IDX 24 25 25 26 26 28 27 29 28 30 89 31 29 32 88 33 30 34 31 35
REMARK SMILES IDX 32 36 82 37 33 38 87 39 81 40 83 41 34 42 86 43 80 44 79 45
REMARK SMILES IDX 35 47 67 48 47 49 66 50 48 51 51 52 65 53 84 54 49 55 50 56
REMARK SMILES IDX 64 58 85 59 52 60 36 61 37 62 45 63 38 64 39 65 43 66 46 67
REMARK SMILES IDX 40 68 41 69 44 70 42 71 68 72 69 73 77 74 70 75 71 76 75 77
REMARK SMILES IDX 78 78 72 79 73 80 76 81 74 82 53 83 54 84 62 85 55 86 56 87
REMARK SMILES IDX 60 88 63 89 57 90 58 91 61 92 59 93
REMARK H PARENT 20 5 24 27 83 46 51 57
REMARK Flexibility Score: inf
ROOT
ATOM      1  C   UNL A   1      32.258  30.430  26.020  1.00  0.00     0.118 C 
ENDROOT
BRANCH   1   2
ATOM      2  N   UNL A   1      31.792  29.252  26.730  1.00  0.00    -0.353 N 
ATOM      3  C   UNL A   1      32.186  27.956  26.618  1.00  0.00     0.260 C 
ATOM      4  O   UNL A   1      31.744  27.161  27.454  1.00  0.00    -0.271 OA
ATOM      5  H   UNL A   1      31.083  29.418  27.393  1.00  0.00     0.163 HD
BRANCH   3   6
ATOM      6  C   UNL A   1      33.127  27.478  25.492  1.00  0.00     0.258 C 
ATOM      7  C   UNL A   1      33.886  26.248  26.021  1.00  0.00     0.064 C 
BRANCH   6   8
ATOM      8  O   UNL A   1      32.788  27.214  24.143  1.00  0.00    -0.480 OA
BRANCH   8   9
ATOM      9  C   UNL A   1      31.616  27.505  23.523  1.00  0.00     0.127 A 
ATOM     10  C   UNL A   1      30.536  26.654  23.823  1.00  0.00    -0.005 A 
ATOM     11  C   UNL A   1      29.216  27.113  23.587  1.00  0.00     0.019 A 
ATOM     12  C   UNL A   1      28.967  28.356  23.003  1.00  0.00     0.021 A 
ATOM     13  C   UNL A   1      31.379  28.613  22.722  1.00  0.00     0.094 A 
ATOM     14  C   UNL A   1      27.637  28.972  22.904  1.00  0.00    -0.033 A 
ATOM     15  C   UNL A   1      30.067  29.052  22.519  1.00  0.00     0.142 A 
ATOM     16  C   UNL A   1      26.441  28.290  23.503  1.00  0.00     0.045 C 
ATOM     17  C   UNL A   1      27.534  30.176  22.320  1.00  0.00     0.098 A 
ATOM     18  O   UNL A   1      29.922  30.297  21.876  1.00  0.00    -0.423 OA
ATOM     19  C   UNL A   1      28.677  30.891  21.729  1.00  0.00     0.336 A 
ATOM     20  O   UNL A   1      28.533  31.952  21.133  1.00  0.00    -0.246 OA
BRANCH  10  21
ATOM     21  C   UNL A   1      30.662  25.235  24.355  1.00  0.00     0.036 C 
ATOM     22  C   UNL A   1      30.660  24.064  23.380  1.00  0.00     0.009 C 
ENDBRANCH  10  21
ENDBRANCH   8   9
ENDBRANCH   6   8
ENDBRANCH   3   6
ENDBRANCH   1   2
BRANCH   1  23
ATOM     23  C   UNL A   1      31.749  31.709  26.654  1.00  0.00     0.042 C 
BRANCH  23  24
ATOM     24  C   UNL A   1      32.801  32.411  27.506  1.00  0.00     0.118 C 
BRANCH  24  25
ATOM     25  N   UNL A   1      32.581  33.851  27.599  1.00  0.00    -0.352 N 
ATOM     26  C   UNL A   1      33.054  34.747  28.523  1.00  0.00     0.251 C 
ATOM     27  H   UNL A   1      32.009  34.235  26.896  1.00  0.00     0.163 HD
ATOM     28  O   UNL A   1      32.493  35.832  28.683  1.00  0.00    -0.269 OA
BRANCH  26  29
ATOM     29  C   UNL A   1      34.214  34.386  29.359  1.00  0.00     0.039 A 
ATOM     30  C   UNL A   1      34.002  33.882  30.643  1.00  0.00     0.014 A 
ATOM     31  C   UNL A   1      35.510  34.505  28.853  1.00  0.00     0.014 A 
ATOM     32  C   UNL A   1      35.083  33.393  31.371  1.00  0.00     0.010 A 
ATOM     33  C   UNL A   1      36.561  33.896  29.517  1.00  0.00     0.010 A 
ATOM     34  C   UNL A   1      36.357  33.333  30.783  1.00  0.00    -0.014 A 
BRANCH  34  35
ATOM     35  C   UNL A   1      37.491  32.669  31.465  1.00  0.00     0.031 A 
ATOM     36  C   UNL A   1      38.197  31.523  30.797  1.00  0.00     0.074 A 
ATOM     37  C   UNL A   1      37.810  33.045  32.719  1.00  0.00     0.049 A 
ATOM     38  N   UNL A   1      39.151  30.757  31.259  1.00  0.00    -0.248 NA
ATOM     39  C   UNL A   1      37.737  31.156  29.448  1.00  0.00     0.031 C 
ATOM     40  C   UNL A   1      37.127  34.089  33.489  1.00  0.00     0.029 A 
ATOM     41  N   UNL A   1      38.784  32.594  33.570  1.00  0.00    -0.354 N 
ATOM     42  C   UNL A   1      39.385  29.811  30.271  1.00  0.00     0.074 A 
ATOM     43  C   UNL A   1      38.426  30.050  29.216  1.00  0.00     0.031 C 
ATOM     44  C   UNL A   1      37.732  34.230  34.677  1.00  0.00     0.029 A 
ATOM     45  C   UNL A   1      38.815  33.259  34.772  1.00  0.00     0.049 A 
ATOM     46  H   UNL A   1      39.404  31.864  33.341  1.00  0.00     0.167 HD
ATOM     47  C   UNL A   1      40.338  28.851  30.234  1.00  0.00     0.037 A 
ATOM     48  C   UNL A   1      39.632  33.099  35.829  1.00  0.00     0.037 A 
ATOM     49  C   UNL A   1      41.308  28.656  31.278  1.00  0.00     0.049 A 
ATOM     50  C   UNL A   1      40.710  32.053  35.745  1.00  0.00     0.074 A 
ATOM     51  C   UNL A   1      42.362  27.764  31.325  1.00  0.00     0.029 A 
ATOM     52  N   UNL A   1      41.339  29.377  32.465  1.00  0.00    -0.354 N 
ATOM     53  N   UNL A   1      40.974  31.214  34.772  1.00  0.00    -0.248 NA
ATOM     54  C   UNL A   1      41.608  31.936  36.900  1.00  0.00     0.031 C 
ATOM     55  C   UNL A   1      43.006  27.916  32.557  1.00  0.00     0.029 A 
ATOM     56  C   UNL A   1      42.385  28.938  33.258  1.00  0.00     0.049 A 
ATOM     57  H   UNL A   1      40.709  30.095  32.705  1.00  0.00     0.167 HD
ATOM     58  C   UNL A   1      42.078  30.484  35.185  1.00  0.00     0.074 A 
ATOM     59  C   UNL A   1      42.449  31.000  36.489  1.00  0.00     0.031 C 
ATOM     60  C   UNL A   1      42.726  29.475  34.552  1.00  0.00     0.037 A 
BRANCH  47  61
ATOM     61  C   UNL A   1      40.377  27.956  29.027  1.00  0.00     0.064 A 
ATOM     62  C   UNL A   1      41.134  28.284  27.890  1.00  0.00     0.173 A 
ATOM     63  C   UNL A   1      39.656  26.753  29.006  1.00  0.00     0.173 A 
ATOM     64  F   UNL A   1      41.832  29.429  27.851  1.00  0.00    -0.203 F 
ATOM     65  C   UNL A   1      41.136  27.462  26.767  1.00  0.00     0.198 A 
ATOM     66  C   UNL A   1      39.688  25.916  27.892  1.00  0.00     0.198 A 
ATOM     67  F   UNL A   1      38.916  26.388  30.064  1.00  0.00    -0.203 F 
ATOM     68  F   UNL A   1      41.818  27.829  25.672  1.00  0.00    -0.200 F 
ATOM     69  C   UNL A   1      40.419  26.276  26.770  1.00  0.00     0.200 A 
ATOM     70  F   UNL A   1      39.004  24.764  27.902  1.00  0.00    -0.200 F 
ATOM     71  F   UNL A   1      40.425  25.483  25.689  1.00  0.00    -0.200 F 
ENDBRANCH  47  61
BRANCH  48  72
ATOM     72  C   UNL A   1      39.490  33.973  37.024  1.00  0.00     0.064 A 
ATOM     73  C   UNL A   1      38.767  33.546  38.146  1.00  0.00     0.173 A 
ATOM     74  C   UNL A   1      40.081  35.245  37.077  1.00  0.00     0.173 A 
ATOM     75  F   UNL A   1      38.172  32.344  38.141  1.00  0.00    -0.203 F 
ATOM     76  C   UNL A   1      38.620  34.364  39.265  1.00  0.00     0.198 A 
ATOM     77  C   UNL A   1      39.959  36.050  38.208  1.00  0.00     0.198 A 
ATOM     78  F   UNL A   1      40.795  35.699  36.036  1.00  0.00    -0.203 F 
ATOM     79  F   UNL A   1      37.886  33.946  40.306  1.00  0.00    -0.200 F 
ATOM     80  C   UNL A   1      39.222  35.612  39.298  1.00  0.00     0.200 A 
ATOM     81  F   UNL A   1      40.557  37.248  38.244  1.00  0.00    -0.200 F 
ATOM     82  F   UNL A   1      39.086  36.396  40.376  1.00  0.00    -0.200 F 
ENDBRANCH  48  72
BRANCH  60  83
ATOM     83  C   UNL A   1      43.910  28.884  35.256  1.00  0.00     0.064 A 
ATOM     84  C   UNL A   1      45.208  29.364  35.038  1.00  0.00     0.173 A 
ATOM     85  C   UNL A   1      43.738  27.843  36.182  1.00  0.00     0.173 A 
ATOM     86  F   UNL A   1      45.424  30.347  34.150  1.00  0.00    -0.203 F 
ATOM     87  C   UNL A   1      46.297  28.803  35.697  1.00  0.00     0.198 A 
ATOM     88  C   UNL A   1      44.825  27.308  36.865  1.00  0.00     0.198 A 
ATOM     89  F   UNL A   1      42.514  27.355  36.431  1.00  0.00    -0.203 F 
ATOM     90  F   UNL A   1      47.536  29.240  35.431  1.00  0.00    -0.200 F 
ATOM     91  C   UNL A   1      46.105  27.781  36.614  1.00  0.00     0.200 A 
ATOM     92  F   UNL A   1      44.635  26.331  37.762  1.00  0.00    -0.200 F 
ATOM     93  F   UNL A   1      47.154  27.245  37.252  1.00  0.00    -0.200 F 
ENDBRANCH  60  83
ENDBRANCH  34  35
ENDBRANCH  26  29
ENDBRANCH  24  25
ENDBRANCH  23  24
ENDBRANCH   1  23
TORSDOF 13
ENDMDL
MODEL 2
REMARK VINA RESULT:     -13.0      6.332     11.772
REMARK SMILES CCc1cc2c(C)cc(=O)oc2cc1O[C@H](C)C(=O)NCCCNC(=O)c1ccc(-c2c3nc(c(-c4c(F)c(F)c(F)c(F)c4F)c4ccc([nH]4)c(-c4c(F)c(F)c(F)c(F)c4F)c4nc(c(-c5c(F)c(F)c(F)c(F)c5F)c5ccc2[nH]5)C=C4)C=C3)cc1
REMARK SMILES IDX 21 1 20 2 18 3 19 4 16 6 17 7 15 8 14 9 3 10 4 11 5 12 13 13
REMARK SMILES IDX 6 14 12 15 7 16 8 17 11 18 9 19 10 20 2 21 1 22 22 23 23 24
REMARK SMILES IDX 24 25 25 26 26 28 27 29 28 30 89 31 29 32 88 33 30 34 31 35
REMARK SMILES IDX 32 36 82 37 33 38 87 39 81 40 83 41 34 42 86 43 80 44 79 45
REMARK SMILES IDX 35 47 67 48 47 49 66 50 48 51 51 52 65 53 84 54 49 55 50 56
REMARK SMILES IDX 64 58 85 59 52 60 36 61 37 62 45 63 38 64 39 65 43 66 46 67
REMARK SMILES IDX 40 68 41 69 44 70 42 71 68 72 69 73 77 74 70 75 71 76 75 77
REMARK SMILES IDX 78 78 72 79 73 80 76 81 74 82 53 83 54 84 62 85 55 86 56 87
REMARK SMILES IDX 60 88 63 89 57 90 58 91 61 92 59 93
REMARK H PARENT 20 5 24 27 83 46 51 57
REMARK Flexibility Score: inf
ROOT
ATOM      1  C   UNL A   1      36.844  21.079  25.267  1.00  0.00     0.118 C 
ENDROOT
BRANCH   1   2
ATOM      2  N   UNL A   1      36.574  21.938  24.129  1.00  0.00    -0.353 N 
ATOM      3  C   UNL A   1      35.837  23.079  24.055  1.00  0.00     0.260 C 
ATOM      4  O   UNL A   1      35.893  23.715  22.998  1.00  0.00    -0.271 OA
ATOM      5  H   UNL A   1      36.986  21.651  23.281  1.00  0.00     0.163 HD
BRANCH   3   6
ATOM      6  C   UNL A   1      34.951  23.560  25.223  1.00  0.00     0.258 C 
ATOM      7  C   UNL A   1      34.850  25.093  25.119  1.00  0.00     0.064 C 
BRANCH   6   8
ATOM      8  O   UNL A   1      33.669  23.080  25.585  1.00  0.00    -0.480 OA
BRANCH   8   9
ATOM      9  C   UNL A   1      33.085  21.925  25.175  1.00  0.00     0.127 A 
ATOM     10  C   UNL A   1      32.507  21.952  23.892  1.00  0.00    -0.005 A 
ATOM     11  C   UNL A   1      32.274  20.726  23.220  1.00  0.00     0.019 A 
ATOM     12  C   UNL A   1      32.539  19.497  23.826  1.00  0.00     0.021 A 
ATOM     13  C   UNL A   1      33.108  20.719  25.862  1.00  0.00     0.094 A 
ATOM     14  C   UNL A   1      32.501  18.205  23.128  1.00  0.00    -0.033 A 
ATOM     15  C   UNL A   1      32.889  19.524  25.170  1.00  0.00     0.142 A 
ATOM     16  C   UNL A   1      32.222  18.149  21.654  1.00  0.00     0.045 C 
ATOM     17  C   UNL A   1      32.780  17.094  23.828  1.00  0.00     0.098 A 
ATOM     18  O   UNL A   1      33.138  18.338  25.887  1.00  0.00    -0.423 OA
ATOM     19  C   UNL A   1      33.073  17.097  25.271  1.00  0.00     0.336 A 
ATOM     20  O   UNL A   1      33.244  16.056  25.894  1.00  0.00    -0.246 OA
BRANCH  10  21
ATOM     21  C   UNL A   1      32.064  23.208  23.159  1.00  0.00     0.036 C 
ATOM     22  C   UNL A   1      30.840  23.971  23.648  1.00  0.00     0.009 C 
ENDBRANCH  10  21
ENDBRANCH   8   9
ENDBRANCH   6   8
ENDBRANCH   3   6
ENDBRANCH   1   2
BRANCH   1  23
ATOM     23  C   UNL A   1      37.999  20.134  24.999  1.00  0.00     0.042 C 
BRANCH  23  24
ATOM     24  C   UNL A   1      39.260  20.501  25.774  1.00  0.00     0.118 C 
BRANCH  24  25
ATOM     25  N   UNL A   1      40.139  19.357  25.993  1.00  0.00    -0.352 N 
ATOM     26  C   UNL A   1      41.506  19.315  26.099  1.00  0.00     0.251 C 
ATOM     27  H   UNL A   1      39.684  18.487  26.077  1.00  0.00     0.163 HD
ATOM     28  O   UNL A   1      42.113  18.259  25.913  1.00  0.00    -0.269 OA
BRANCH  26  29
ATOM     29  C   UNL A   1      42.251  20.552  26.394  1.00  0.00     0.039 A 
ATOM     30  C   UNL A   1      42.848  21.257  25.348  1.00  0.00     0.014 A 
ATOM     31  C   UNL A   1      42.319  21.037  27.702  1.00  0.00     0.014 A 
ATOM     32  C   UNL A   1      43.413  22.505  25.601  1.00  0.00     0.010 A 
ATOM     33  C   UNL A   1      42.756  22.331  27.928  1.00  0.00     0.010 A 
ATOM     34  C   UNL A   1      43.307  23.078  26.879  1.00  0.00    -0.014 A 
BRANCH  34  35
ATOM     35  C   UNL A   1      43.748  24.467  27.139  1.00  0.00     0.031 A 
ATOM     36  C   UNL A   1      42.768  25.476  27.668  1.00  0.00     0.074 A 
ATOM     37  C   UNL A   1      45.004  24.826  26.809  1.00  0.00     0.049 A 
ATOM     38  N   UNL A   1      42.932  26.756  27.880  1.00  0.00    -0.248 NA
ATOM     39  C   UNL A   1      41.405  24.994  27.947  1.00  0.00     0.031 C 
ATOM     40  C   UNL A   1      46.007  23.942  26.208  1.00  0.00     0.029 A 
ATOM     41  N   UNL A   1      45.653  26.027  26.925  1.00  0.00    -0.354 N 
ATOM     42  C   UNL A   1      41.695  27.229  28.294  1.00  0.00     0.074 A 
ATOM     43  C   UNL A   1      40.771  26.119  28.232  1.00  0.00     0.031 C 
ATOM     44  C   UNL A   1      47.156  24.616  26.052  1.00  0.00     0.029 A 
ATOM     45  C   UNL A   1      46.959  25.989  26.500  1.00  0.00     0.049 A 
ATOM     46  H   UNL A   1      45.225  26.839  27.281  1.00  0.00     0.167 HD
ATOM     47  C   UNL A   1      41.369  28.472  28.719  1.00  0.00     0.037 A 
ATOM     48  C   UNL A   1      47.891  26.960  26.479  1.00  0.00     0.037 A 
ATOM     49  C   UNL A   1      42.314  29.552  28.810  1.00  0.00     0.049 A 
ATOM     50  C   UNL A   1      47.515  28.321  26.997  1.00  0.00     0.074 A 
ATOM     51  C   UNL A   1      42.121  30.834  29.289  1.00  0.00     0.029 A 
ATOM     52  N   UNL A   1      43.642  29.468  28.412  1.00  0.00    -0.354 N 
ATOM     53  N   UNL A   1      46.361  28.739  27.461  1.00  0.00    -0.248 NA
ATOM     54  C   UNL A   1      48.569  29.342  26.997  1.00  0.00     0.031 C 
ATOM     55  C   UNL A   1      43.320  31.538  29.143  1.00  0.00     0.029 A 
ATOM     56  C   UNL A   1      44.276  30.681  28.620  1.00  0.00     0.049 A 
ATOM     57  H   UNL A   1      44.069  28.663  28.038  1.00  0.00     0.167 HD
ATOM     58  C   UNL A   1      46.554  30.063  27.827  1.00  0.00     0.074 A 
ATOM     59  C   UNL A   1      47.945  30.368  27.554  1.00  0.00     0.031 C 
ATOM     60  C   UNL A   1      45.664  30.950  28.336  1.00  0.00     0.037 A 
BRANCH  47  61
ATOM     61  C   UNL A   1      39.942  28.716  29.124  1.00  0.00     0.064 A 
ATOM     62  C   UNL A   1      39.496  28.480  30.434  1.00  0.00     0.173 A 
ATOM     63  C   UNL A   1      39.008  29.199  28.194  1.00  0.00     0.173 A 
ATOM     64  F   UNL A   1      40.343  28.005  31.361  1.00  0.00    -0.203 F 
ATOM     65  C   UNL A   1      38.164  28.680  30.788  1.00  0.00     0.198 A 
ATOM     66  C   UNL A   1      37.684  29.431  28.560  1.00  0.00     0.198 A 
ATOM     67  F   UNL A   1      39.378  29.444  26.928  1.00  0.00    -0.203 F 
ATOM     68  F   UNL A   1      37.751  28.388  32.029  1.00  0.00    -0.200 F 
ATOM     69  C   UNL A   1      37.261  29.161  29.853  1.00  0.00     0.200 A 
ATOM     70  F   UNL A   1      36.815  29.908  27.659  1.00  0.00    -0.200 F 
ATOM     71  F   UNL A   1      35.980  29.358  30.196  1.00  0.00    -0.200 F 
ENDBRANCH  47  61
BRANCH  48  72
ATOM     72  C   UNL A   1      49.267  26.666  25.997  1.00  0.00     0.064 A 
ATOM     73  C   UNL A   1      49.654  26.987  24.688  1.00  0.00     0.173 A 
ATOM     74  C   UNL A   1      50.226  26.072  26.831  1.00  0.00     0.173 A 
ATOM     75  F   UNL A   1      48.771  27.545  23.847  1.00  0.00    -0.203 F 
ATOM     76  C   UNL A   1      50.938  26.705  24.225  1.00  0.00     0.198 A 
ATOM     77  C   UNL A   1      51.519  25.818  26.376  1.00  0.00     0.198 A 
ATOM     78  F   UNL A   1      49.913  25.756  28.096  1.00  0.00    -0.203 F 
ATOM     79  F   UNL A   1      51.266  26.983  22.955  1.00  0.00    -0.200 F 
ATOM     80  C   UNL A   1      51.872  26.127  25.071  1.00  0.00     0.200 A 
ATOM     81  F   UNL A   1      52.424  25.276  27.203  1.00  0.00    -0.200 F 
ATOM     82  F   UNL A   1      53.108  25.861  24.628  1.00  0.00    -0.200 F 
ENDBRANCH  48  72
BRANCH  60  83
ATOM     83  C   UNL A   1      46.180  32.323  28.648  1.00  0.00     0.064 A 
ATOM     84  C   UNL A   1      46.732  32.633  29.898  1.00  0.00     0.173 A 
ATOM     85  C   UNL A   1      46.147  33.331  27.672  1.00  0.00     0.173 A 
ATOM     86  F   UNL A   1      46.770  31.706  30.868  1.00  0.00    -0.203 F 
ATOM     87  C   UNL A   1      47.204  33.913  30.172  1.00  0.00     0.198 A 
ATOM     88  C   UNL A   1      46.652  34.599  27.939  1.00  0.00     0.198 A 
ATOM     89  F   UNL A   1      45.636  33.081  26.457  1.00  0.00    -0.203 F 
ATOM     90  F   UNL A   1      47.676  34.203  31.393  1.00  0.00    -0.200 F 
ATOM     91  C   UNL A   1      47.170  34.892  29.191  1.00  0.00     0.200 A 
ATOM     92  F   UNL A   1      46.632  35.540  26.984  1.00  0.00    -0.200 F 
ATOM     93  F   UNL A   1      47.630  36.123  29.455  1.00  0.00    -0.200 F 
ENDBRANCH  60  83
ENDBRANCH  34  35
ENDBRANCH  26  29
ENDBRANCH  24  25
ENDBRANCH  23  24
ENDBRANCH   1  23
TORSDOF 13
ENDMDL
MODEL 3
REMARK VINA RESULT:     -12.9      1.567      8.041
REMARK SMILES CCc1cc2c(C)cc(=O)oc2cc1O[C@H](C)C(=O)NCCCNC(=O)c1ccc(-c2c3nc(c(-c4c(F)c(F)c(F)c(F)c4F)c4ccc([nH]4)c(-c4c(F)c(F)c(F)c(F)c4F)c4nc(c(-c5c(F)c(F)c(F)c(F)c5F)c5ccc2[nH]5)C=C4)C=C3)cc1
REMARK SMILES IDX 21 1 20 2 18 3 19 4 16 6 17 7 15 8 14 9 3 10 4 11 5 12 13 13
REMARK SMILES IDX 6 14 12 15 7 16 8 17 11 18 9 19 10 20 2 21 1 22 22 23 23 24
REMARK SMILES IDX 24 25 25 26 26 28 27 29 28 30 89 31 29 32 88 33 30 34 31 35
REMARK SMILES IDX 32 36 82 37 33 38 87 39 81 40 83 41 34 42 86 43 80 44 79 45
REMARK SMILES IDX 35 47 67 48 47 49 66 50 48 51 51 52 65 53 84 54 49 55 50 56
REMARK SMILES IDX 64 58 85 59 52 60 36 61 37 62 45 63 38 64 39 65 43 66 46 67
REMARK SMILES IDX 40 68 41 69 44 70 42 71 68 72 69 73 77 74 70 75 71 76 75 77
REMARK SMILES IDX 78 78 72 79 73 80 76 81 74 82 53 83 54 84 62 85 55 86 56 87
REMARK SMILES IDX 60 88 63 89 57 90 58 91 61 92 59 93
REMARK H PARENT 20 5 24 27 83 46 51 57
REMARK Flexibility Score: inf
ROOT
ATOM      1  C   UNL A   1      31.742  30.815  26.211  1.00  0.00     0.118 C 
ENDROOT
BRANCH   1   2
ATOM      2  N   UNL A   1      31.042  30.657  24.949  1.00  0.00    -0.353 N 
ATOM      3  C   UNL A   1      30.662  29.523  24.301  1.00  0.00     0.260 C 
ATOM      4  O   UNL A   1      29.934  29.659  23.313  1.00  0.00    -0.271 OA
ATOM      5  H   UNL A   1      30.808  31.498  24.493  1.00  0.00     0.163 HD
BRANCH   3   6
ATOM      6  C   UNL A   1      31.126  28.123  24.755  1.00  0.00     0.258 C 
ATOM      7  C   UNL A   1      30.296  27.089  23.973  1.00  0.00     0.064 C 
BRANCH   6   8
ATOM      8  O   UNL A   1      32.454  27.635  24.816  1.00  0.00    -0.480 OA
BRANCH   8   9
ATOM      9  C   UNL A   1      32.858  26.348  24.665  1.00  0.00     0.127 A 
ATOM     10  C   UNL A   1      33.553  26.059  23.476  1.00  0.00    -0.005 A 
ATOM     11  C   UNL A   1      34.369  24.902  23.424  1.00  0.00     0.019 A 
ATOM     12  C   UNL A   1      34.446  24.011  24.495  1.00  0.00     0.021 A 
ATOM     13  C   UNL A   1      32.736  25.345  25.617  1.00  0.00     0.094 A 
ATOM     14  C   UNL A   1      35.407  22.903  24.584  1.00  0.00    -0.033 A 
ATOM     15  C   UNL A   1      33.565  24.222  25.548  1.00  0.00     0.142 A 
ATOM     16  C   UNL A   1      36.435  22.707  23.509  1.00  0.00     0.045 C 
ATOM     17  C   UNL A   1      35.376  22.119  25.673  1.00  0.00     0.098 A 
ATOM     18  O   UNL A   1      33.531  23.358  26.661  1.00  0.00    -0.423 OA
ATOM     19  C   UNL A   1      34.398  22.279  26.761  1.00  0.00     0.336 A 
ATOM     20  O   UNL A   1      34.347  21.495  27.701  1.00  0.00    -0.246 OA
BRANCH  10  21
ATOM     21  C   UNL A   1      33.475  26.877  22.196  1.00  0.00     0.036 C 
ATOM     22  C   UNL A   1      34.057  28.285  22.168  1.00  0.00     0.009 C 
ENDBRANCH  10  21
ENDBRANCH   8   9
ENDBRANCH   6   8
ENDBRANCH   3   6
ENDBRANCH   1   2
BRANCH   1  23
ATOM     23  C   UNL A   1      31.463  32.164  26.845  1.00  0.00     0.042 C 
BRANCH  23  24
ATOM     24  C   UNL A   1      32.715  32.829  27.406  1.00  0.00     0.118 C 
BRANCH  24  25
ATOM     25  N   UNL A   1      32.536  34.258  27.643  1.00  0.00    -0.352 N 
ATOM     26  C   UNL A   1      33.047  35.046  28.642  1.00  0.00     0.251 C 
ATOM     27  H   UNL A   1      31.964  34.724  26.991  1.00  0.00     0.163 HD
ATOM     28  O   UNL A   1      32.519  36.125  28.916  1.00  0.00    -0.269 OA
BRANCH  26  29
ATOM     29  C   UNL A   1      34.209  34.576  29.417  1.00  0.00     0.039 A 
ATOM     30  C   UNL A   1      34.006  34.003  30.674  1.00  0.00     0.014 A 
ATOM     31  C   UNL A   1      35.495  34.661  28.880  1.00  0.00     0.014 A 
ATOM     32  C   UNL A   1      35.080  33.415  31.338  1.00  0.00     0.010 A 
ATOM     33  C   UNL A   1      36.531  33.959  29.473  1.00  0.00     0.010 A 
ATOM     34  C   UNL A   1      36.333  33.329  30.708  1.00  0.00    -0.014 A 
BRANCH  34  35
ATOM     35  C   UNL A   1      37.448  32.566  31.313  1.00  0.00     0.031 A 
ATOM     36  C   UNL A   1      37.937  32.921  32.689  1.00  0.00     0.074 A 
ATOM     37  C   UNL A   1      38.068  31.622  30.578  1.00  0.00     0.049 A 
ATOM     38  N   UNL A   1      38.950  32.434  33.357  1.00  0.00    -0.248 NA
ATOM     39  C   UNL A   1      37.225  34.003  33.387  1.00  0.00     0.031 C 
ATOM     40  C   UNL A   1      37.725  31.262  29.199  1.00  0.00     0.029 A 
ATOM     41  N   UNL A   1      39.117  30.795  30.881  1.00  0.00    -0.354 N 
ATOM     42  C   UNL A   1      39.006  33.164  34.536  1.00  0.00     0.074 A 
ATOM     43  C   UNL A   1      37.976  34.175  34.463  1.00  0.00     0.031 C 
ATOM     44  C   UNL A   1      38.515  30.258  28.793  1.00  0.00     0.029 A 
ATOM     45  C   UNL A   1      39.449  29.932  29.865  1.00  0.00     0.049 A 
ATOM     46  H   UNL A   1      39.588  30.816  31.745  1.00  0.00     0.167 HD
ATOM     47  C   UNL A   1      39.824  32.982  35.600  1.00  0.00     0.037 A 
ATOM     48  C   UNL A   1      40.402  28.984  29.810  1.00  0.00     0.037 A 
ATOM     49  C   UNL A   1      40.817  31.945  35.669  1.00  0.00     0.049 A 
ATOM     50  C   UNL A   1      41.269  28.774  31.021  1.00  0.00     0.074 A 
ATOM     51  C   UNL A   1      41.657  31.618  36.716  1.00  0.00     0.029 A 
ATOM     52  N   UNL A   1      41.098  31.058  34.637  1.00  0.00    -0.354 N 
ATOM     53  N   UNL A   1      41.263  29.419  32.164  1.00  0.00    -0.248 NA
ATOM     54  C   UNL A   1      42.269  27.703  30.939  1.00  0.00     0.031 C 
ATOM     55  C   UNL A   1      42.475  30.561  36.304  1.00  0.00     0.029 A 
ATOM     56  C   UNL A   1      42.110  30.195  35.017  1.00  0.00     0.049 A 
ATOM     57  H   UNL A   1      40.643  31.046  33.763  1.00  0.00     0.167 HD
ATOM     58  C   UNL A   1      42.240  28.820  32.945  1.00  0.00     0.074 A 
ATOM     59  C   UNL A   1      42.801  27.744  32.152  1.00  0.00     0.031 C 
ATOM     60  C   UNL A   1      42.645  29.133  34.201  1.00  0.00     0.037 A 
BRANCH  47  61
ATOM     61  C   UNL A   1      39.666  33.918  36.766  1.00  0.00     0.064 A 
ATOM     62  C   UNL A   1      40.311  35.164  36.805  1.00  0.00     0.173 A 
ATOM     63  C   UNL A   1      38.852  33.570  37.855  1.00  0.00     0.173 A 
ATOM     64  F   UNL A   1      41.112  35.542  35.797  1.00  0.00    -0.203 F 
ATOM     65  C   UNL A   1      40.181  36.008  37.905  1.00  0.00     0.198 A 
ATOM     66  C   UNL A   1      38.696  34.432  38.939  1.00  0.00     0.198 A 
ATOM     67  F   UNL A   1      38.209  32.393  37.871  1.00  0.00    -0.203 F 
ATOM     68  F   UNL A   1      40.858  37.164  37.944  1.00  0.00    -0.200 F 
ATOM     69  C   UNL A   1      39.369  35.644  38.968  1.00  0.00     0.200 A 
ATOM     70  F   UNL A   1      37.901  34.085  39.959  1.00  0.00    -0.200 F 
ATOM     71  F   UNL A   1      39.240  36.459  40.024  1.00  0.00    -0.200 F 
ENDBRANCH  47  61
BRANCH  48  72
ATOM     72  C   UNL A   1      40.550  28.141  28.594  1.00  0.00     0.064 A 
ATOM     73  C   UNL A   1      39.873  26.919  28.479  1.00  0.00     0.173 A 
ATOM     74  C   UNL A   1      41.357  28.540  27.518  1.00  0.00     0.173 A 
ATOM     75  F   UNL A   1      39.099  26.486  29.485  1.00  0.00    -0.203 F 
ATOM     76  C   UNL A   1      40.016  26.118  27.347  1.00  0.00     0.198 A 
ATOM     77  C   UNL A   1      41.475  27.753  26.374  1.00  0.00     0.198 A 
ATOM     78  F   UNL A   1      42.018  29.706  27.570  1.00  0.00    -0.203 F 
ATOM     79  F   UNL A   1      39.390  24.934  27.284  1.00  0.00    -0.200 F 
ATOM     80  C   UNL A   1      40.811  26.538  26.292  1.00  0.00     0.200 A 
ATOM     81  F   UNL A   1      42.231  28.172  25.349  1.00  0.00    -0.200 F 
ATOM     82  F   UNL A   1      40.943  25.772  25.202  1.00  0.00    -0.200 F 
ENDBRANCH  48  72
BRANCH  60  83
ATOM     83  C   UNL A   1      43.729  28.283  34.793  1.00  0.00     0.064 A 
ATOM     84  C   UNL A   1      45.081  28.635  34.680  1.00  0.00     0.173 A 
ATOM     85  C   UNL A   1      43.408  27.118  35.506  1.00  0.00     0.173 A 
ATOM     86  F   UNL A   1      45.439  29.732  33.994  1.00  0.00    -0.203 F 
ATOM     87  C   UNL A   1      46.076  27.834  35.232  1.00  0.00     0.198 A 
ATOM     88  C   UNL A   1      44.402  26.339  36.086  1.00  0.00     0.198 A 
ATOM     89  F   UNL A   1      42.127  26.744  35.648  1.00  0.00    -0.203 F 
ATOM     90  F   UNL A   1      47.365  28.159  35.065  1.00  0.00    -0.200 F 
ATOM     91  C   UNL A   1      45.736  26.692  35.941  1.00  0.00     0.200 A 
ATOM     92  F   UNL A   1      44.071  25.243  36.783  1.00  0.00    -0.200 F 
ATOM     93  F   UNL A   1      46.694  25.924  36.477  1.00  0.00    -0.200 F 
ENDBRANCH  60  83
ENDBRANCH  34  35
ENDBRANCH  26  29
ENDBRANCH  24  25
ENDBRANCH  23  24
ENDBRANCH   1  23
TORSDOF 13
ENDMDL
