MODEL 1
REMARK VINA RESULT:     -12.2      0.000      0.000
REMARK SMILES O=C(Cc1ccn[nH]1)NC[C@H]1CCCC[C@H]1C(=O)NCCCNC(=O)c1ccc(-c2c3nc(c(-c4c(F)c(F)c(F)c(F)c4F)c4ccc([nH]4)c(-c4c(F)c(F)c(F)c(F)c4F)c4nc(c(-c5c(F)c(F)c(F)c(F)c5F)c5ccc2[nH]5)C=C4)C=C3)cc1
REMARK SMILES IDX 20 1 19 2 17 3 18 4 16 6 11 7 12 8 13 9 15 10 14 11 10 12
REMARK SMILES IDX 9 13 1 14 2 15 3 17 4 18 5 19 8 20 6 21 7 22 21 24 22 25
REMARK SMILES IDX 23 26 24 27 25 29 26 30 27 31 88 32 28 33 87 34 29 35 30 36
REMARK SMILES IDX 31 37 81 38 32 39 86 40 80 41 82 42 33 43 85 44 79 45 78 46
REMARK SMILES IDX 34 48 66 49 46 50 65 51 47 52 50 53 64 54 83 55 48 56 49 57
REMARK SMILES IDX 63 59 84 60 51 61 35 62 36 63 44 64 37 65 38 66 42 67 45 68
REMARK SMILES IDX 39 69 40 70 43 71 41 72 67 73 68 74 76 75 69 76 70 77 74 78
REMARK SMILES IDX 77 79 71 80 72 81 75 82 73 83 52 84 53 85 61 86 54 87 55 88
REMARK SMILES IDX 59 89 62 90 56 91 57 92 60 93 58 94
REMARK H PARENT 19 5 9 16 8 23 23 28 82 47 50 58
REMARK Flexibility Score: inf
ROOT
ATOM      1  C   UNL A   1      31.342  30.406  25.861  1.00  0.00     0.117 C 
ENDROOT
BRANCH   1   2
ATOM      2  N   UNL A   1      32.352  29.916  24.929  1.00  0.00    -0.356 N 
ATOM      3  C   UNL A   1      32.897  28.714  24.587  1.00  0.00     0.223 C 
ATOM      4  O   UNL A   1      33.675  28.694  23.625  1.00  0.00    -0.275 OA
ATOM      5  H   UNL A   1      32.746  30.651  24.404  1.00  0.00     0.163 HD
BRANCH   3   6
ATOM      6  C   UNL A   1      32.630  27.404  25.323  1.00  0.00     0.083 C 
ATOM      7  C   UNL A   1      31.303  26.666  24.929  1.00  0.00     0.021 C 
ATOM      8  C   UNL A   1      31.402  25.129  25.093  1.00  0.00     0.006 C 
ATOM      9  C   UNL A   1      32.770  24.553  24.766  1.00  0.00     0.000 C 
ATOM     10  C   UNL A   1      33.940  26.620  25.526  1.00  0.00     0.014 C 
ATOM     11  C   UNL A   1      33.795  25.124  25.724  1.00  0.00     0.001 C 
BRANCH   7  12
ATOM     12  C   UNL A   1      30.681  27.015  23.560  1.00  0.00     0.120 C 
BRANCH  12  13
ATOM     13  N   UNL A   1      29.474  27.840  23.544  1.00  0.00    -0.355 N 
ATOM     14  O   UNL A   1      30.300  29.748  22.529  1.00  0.00    -0.275 OA
ATOM     15  C   UNL A   1      29.360  29.051  22.892  1.00  0.00     0.226 C 
ATOM     16  H   UNL A   1      28.687  27.507  24.032  1.00  0.00     0.163 HD
BRANCH  15  17
ATOM     17  C   UNL A   1      27.964  29.471  22.494  1.00  0.00     0.155 C 
BRANCH  17  18
ATOM     18  C   UNL A   1      27.992  30.846  21.906  1.00  0.00     0.044 A 
ATOM     19  C   UNL A   1      27.946  31.327  20.612  1.00  0.00     0.045 A 
ATOM     20  N   UNL A   1      28.084  31.957  22.700  1.00  0.00    -0.282 N 
ATOM     21  C   UNL A   1      27.932  32.726  20.743  1.00  0.00     0.135 A 
ATOM     22  N   UNL A   1      28.012  33.111  22.018  1.00  0.00    -0.184 NA
ATOM     23  H   UNL A   1      28.194  31.915  23.677  1.00  0.00     0.190 HD
ENDBRANCH  17  18
ENDBRANCH  15  17
ENDBRANCH  12  13
ENDBRANCH   7  12
ENDBRANCH   3   6
ENDBRANCH   1   2
BRANCH   1  24
ATOM     24  C   UNL A   1      31.343  31.909  26.226  1.00  0.00     0.042 C 
BRANCH  24  25
ATOM     25  C   UNL A   1      32.490  32.510  27.038  1.00  0.00     0.118 C 
BRANCH  25  26
ATOM     26  N   UNL A   1      32.244  33.850  27.523  1.00  0.00    -0.352 N 
ATOM     27  C   UNL A   1      32.996  34.586  28.408  1.00  0.00     0.251 C 
ATOM     28  H   UNL A   1      31.435  34.292  27.175  1.00  0.00     0.163 HD
ATOM     29  O   UNL A   1      32.644  35.719  28.722  1.00  0.00    -0.269 OA
BRANCH  27  30
ATOM     30  C   UNL A   1      34.215  34.009  29.031  1.00  0.00     0.039 A 
ATOM     31  C   UNL A   1      34.055  33.023  30.009  1.00  0.00     0.014 A 
ATOM     32  C   UNL A   1      35.497  34.455  28.707  1.00  0.00     0.014 A 
ATOM     33  C   UNL A   1      35.175  32.457  30.631  1.00  0.00     0.010 A 
ATOM     34  C   UNL A   1      36.614  33.860  29.311  1.00  0.00     0.010 A 
ATOM     35  C   UNL A   1      36.477  32.847  30.274  1.00  0.00    -0.014 A 
BRANCH  35  36
ATOM     36  C   UNL A   1      37.672  32.191  30.894  1.00  0.00     0.031 A 
ATOM     37  C   UNL A   1      38.148  32.567  32.277  1.00  0.00     0.074 A 
ATOM     38  C   UNL A   1      38.360  31.253  30.208  1.00  0.00     0.049 A 
ATOM     39  N   UNL A   1      39.127  32.056  32.987  1.00  0.00    -0.248 NA
ATOM     40  C   UNL A   1      37.445  33.670  32.946  1.00  0.00     0.031 C 
ATOM     41  C   UNL A   1      38.070  30.826  28.839  1.00  0.00     0.029 A 
ATOM     42  N   UNL A   1      39.442  30.481  30.570  1.00  0.00    -0.354 N 
ATOM     43  C   UNL A   1      39.160  32.779  34.173  1.00  0.00     0.074 A 
ATOM     44  C   UNL A   1      38.142  33.801  34.065  1.00  0.00     0.031 C 
ATOM     45  C   UNL A   1      38.920  29.846  28.493  1.00  0.00     0.029 A 
ATOM     46  C   UNL A   1      39.841  29.593  29.599  1.00  0.00     0.049 A 
ATOM     47  H   UNL A   1      39.889  30.559  31.443  1.00  0.00     0.167 HD
ATOM     48  C   UNL A   1      39.944  32.597  35.266  1.00  0.00     0.037 A 
ATOM     49  C   UNL A   1      40.828  28.674  29.594  1.00  0.00     0.037 A 
ATOM     50  C   UNL A   1      40.953  31.575  35.392  1.00  0.00     0.049 A 
ATOM     51  C   UNL A   1      41.690  28.494  30.818  1.00  0.00     0.074 A 
ATOM     52  C   UNL A   1      41.742  31.273  36.490  1.00  0.00     0.029 A 
ATOM     53  N   UNL A   1      41.324  30.700  34.384  1.00  0.00    -0.354 N 
ATOM     54  N   UNL A   1      41.634  29.114  31.970  1.00  0.00    -0.248 NA
ATOM     55  C   UNL A   1      42.747  27.473  30.740  1.00  0.00     0.031 C 
ATOM     56  C   UNL A   1      42.631  30.256  36.127  1.00  0.00     0.029 A 
ATOM     57  C   UNL A   1      42.350  29.877  34.825  1.00  0.00     0.049 A 
ATOM     58  H   UNL A   1      40.919  30.667  33.487  1.00  0.00     0.167 HD
ATOM     59  C   UNL A   1      42.621  28.539  32.762  1.00  0.00     0.074 A 
ATOM     60  C   UNL A   1      43.249  27.508  31.966  1.00  0.00     0.031 C 
ATOM     61  C   UNL A   1      42.971  28.843  34.036  1.00  0.00     0.037 A 
BRANCH  48  62
ATOM     62  C   UNL A   1      39.739  33.524  36.434  1.00  0.00     0.064 A 
ATOM     63  C   UNL A   1      40.370  34.777  36.499  1.00  0.00     0.173 A 
ATOM     64  C   UNL A   1      38.861  33.181  37.474  1.00  0.00     0.173 A 
ATOM     65  F   UNL A   1      41.218  35.156  35.532  1.00  0.00    -0.203 F 
ATOM     66  C   UNL A   1      40.160  35.631  37.578  1.00  0.00     0.198 A 
ATOM     67  C   UNL A   1      38.625  34.053  38.534  1.00  0.00     0.198 A 
ATOM     68  F   UNL A   1      38.217  32.004  37.456  1.00  0.00    -0.203 F 
ATOM     69  F   UNL A   1      40.815  36.799  37.643  1.00  0.00    -0.200 F 
ATOM     70  C   UNL A   1      39.282  35.273  38.591  1.00  0.00     0.200 A 
ATOM     71  F   UNL A   1      37.761  33.715  39.501  1.00  0.00    -0.200 F 
ATOM     72  F   UNL A   1      39.074  36.102  39.622  1.00  0.00    -0.200 F 
ENDBRANCH  48  62
BRANCH  49  73
ATOM     73  C   UNL A   1      41.047  27.822  28.393  1.00  0.00     0.064 A 
ATOM     74  C   UNL A   1      41.900  28.234  27.359  1.00  0.00     0.173 A 
ATOM     75  C   UNL A   1      40.388  26.593  28.240  1.00  0.00     0.173 A 
ATOM     76  F   UNL A   1      42.535  29.413  27.444  1.00  0.00    -0.203 F 
ATOM     77  C   UNL A   1      42.065  27.465  26.209  1.00  0.00     0.198 A 
ATOM     78  C   UNL A   1      40.581  25.808  27.105  1.00  0.00     0.198 A 
ATOM     79  F   UNL A   1      39.564  26.148  29.200  1.00  0.00    -0.203 F 
ATOM     80  F   UNL A   1      42.842  27.911  25.212  1.00  0.00    -0.200 F 
ATOM     81  C   UNL A   1      41.410  26.249  26.086  1.00  0.00     0.200 A 
ATOM     82  F   UNL A   1      39.958  24.626  26.997  1.00  0.00    -0.200 F 
ATOM     83  F   UNL A   1      41.570  25.508  24.981  1.00  0.00    -0.200 F 
ENDBRANCH  49  73
BRANCH  61  84
ATOM     84  C   UNL A   1      44.060  28.025  34.676  1.00  0.00     0.064 A 
ATOM     85  C   UNL A   1      43.789  26.820  35.342  1.00  0.00     0.173 A 
ATOM     86  C   UNL A   1      45.400  28.436  34.587  1.00  0.00     0.173 A 
ATOM     87  F   UNL A   1      42.526  26.388  35.470  1.00  0.00    -0.203 F 
ATOM     88  C   UNL A   1      44.814  26.072  35.917  1.00  0.00     0.198 A 
ATOM     89  C   UNL A   1      46.425  27.668  35.133  1.00  0.00     0.198 A 
ATOM     90  F   UNL A   1      45.718  29.575  33.957  1.00  0.00    -0.203 F 
ATOM     91  F   UNL A   1      44.525  24.952  36.593  1.00  0.00    -0.200 F 
ATOM     92  C   UNL A   1      46.131  26.492  35.805  1.00  0.00     0.200 A 
ATOM     93  F   UNL A   1      47.699  28.067  35.008  1.00  0.00    -0.200 F 
ATOM     94  F   UNL A   1      47.116  25.765  36.351  1.00  0.00    -0.200 F 
ENDBRANCH  61  84
ENDBRANCH  35  36
ENDBRANCH  27  30
ENDBRANCH  25  26
ENDBRANCH  24  25
ENDBRANCH   1  24
TORSDOF 14
ENDMDL
MODEL 2
REMARK VINA RESULT:     -12.2      0.132      1.607
REMARK SMILES O=C(Cc1ccn[nH]1)NC[C@H]1CCCC[C@H]1C(=O)NCCCNC(=O)c1ccc(-c2c3nc(c(-c4c(F)c(F)c(F)c(F)c4F)c4ccc([nH]4)c(-c4c(F)c(F)c(F)c(F)c4F)c4nc(c(-c5c(F)c(F)c(F)c(F)c5F)c5ccc2[nH]5)C=C4)C=C3)cc1
REMARK SMILES IDX 20 1 19 2 17 3 18 4 16 6 11 7 12 8 13 9 15 10 14 11 10 12
REMARK SMILES IDX 9 13 1 14 2 15 3 17 4 18 5 19 8 20 6 21 7 22 21 24 22 25
REMARK SMILES IDX 23 26 24 27 25 29 26 30 27 31 88 32 28 33 87 34 29 35 30 36
REMARK SMILES IDX 31 37 81 38 32 39 86 40 80 41 82 42 33 43 85 44 79 45 78 46
REMARK SMILES IDX 34 48 66 49 46 50 65 51 47 52 50 53 64 54 83 55 48 56 49 57
REMARK SMILES IDX 63 59 84 60 51 61 35 62 36 63 44 64 37 65 38 66 42 67 45 68
REMARK SMILES IDX 39 69 40 70 43 71 41 72 67 73 68 74 76 75 69 76 70 77 74 78
REMARK SMILES IDX 77 79 71 80 72 81 75 82 73 83 52 84 53 85 61 86 54 87 55 88
REMARK SMILES IDX 59 89 62 90 56 91 57 92 60 93 58 94
REMARK H PARENT 19 5 9 16 8 23 23 28 82 47 50 58
REMARK Flexibility Score: inf
ROOT
ATOM      1  C   UNL A   1      31.400  30.326  25.928  1.00  0.00     0.117 C 
ENDROOT
BRANCH   1   2
ATOM      2  N   UNL A   1      32.385  29.858  24.959  1.00  0.00    -0.356 N 
ATOM      3  C   UNL A   1      32.916  28.663  24.571  1.00  0.00     0.223 C 
ATOM      4  O   UNL A   1      33.671  28.667  23.591  1.00  0.00    -0.275 OA
ATOM      5  H   UNL A   1      32.770  30.606  24.446  1.00  0.00     0.163 HD
BRANCH   3   6
ATOM      6  C   UNL A   1      32.659  27.334  25.276  1.00  0.00     0.083 C 
ATOM      7  C   UNL A   1      31.340  26.594  24.862  1.00  0.00     0.021 C 
ATOM      8  C   UNL A   1      31.453  25.054  24.991  1.00  0.00     0.006 C 
ATOM      9  C   UNL A   1      32.827  24.498  24.653  1.00  0.00     0.000 C 
ATOM     10  C   UNL A   1      33.976  26.558  25.463  1.00  0.00     0.014 C 
ATOM     11  C   UNL A   1      33.844  25.057  25.626  1.00  0.00     0.001 C 
BRANCH   7  12
ATOM     12  C   UNL A   1      30.717  26.969  23.500  1.00  0.00     0.120 C 
BRANCH  12  13
ATOM     13  N   UNL A   1      29.498  27.776  23.501  1.00  0.00    -0.355 N 
ATOM     14  O   UNL A   1      30.322  29.755  22.630  1.00  0.00    -0.275 OA
ATOM     15  C   UNL A   1      29.383  29.023  22.922  1.00  0.00     0.226 C 
ATOM     16  H   UNL A   1      28.704  27.403  23.945  1.00  0.00     0.163 HD
BRANCH  15  17
ATOM     17  C   UNL A   1      27.992  29.448  22.511  1.00  0.00     0.155 C 
BRANCH  17  18
ATOM     18  C   UNL A   1      28.032  30.817  21.911  1.00  0.00     0.044 A 
ATOM     19  C   UNL A   1      28.029  31.284  20.610  1.00  0.00     0.045 A 
ATOM     20  N   UNL A   1      28.087  31.937  22.695  1.00  0.00    -0.282 N 
ATOM     21  C   UNL A   1      28.001  32.684  20.726  1.00  0.00     0.135 A 
ATOM     22  N   UNL A   1      28.032  33.083  21.999  1.00  0.00    -0.184 NA
ATOM     23  H   UNL A   1      28.162  31.906  23.676  1.00  0.00     0.190 HD
ENDBRANCH  17  18
ENDBRANCH  15  17
ENDBRANCH  12  13
ENDBRANCH   7  12
ENDBRANCH   3   6
ENDBRANCH   1   2
BRANCH   1  24
ATOM     24  C   UNL A   1      31.358  31.834  26.267  1.00  0.00     0.042 C 
BRANCH  24  25
ATOM     25  C   UNL A   1      32.547  32.510  26.950  1.00  0.00     0.118 C 
BRANCH  25  26
ATOM     26  N   UNL A   1      32.267  33.829  27.474  1.00  0.00    -0.352 N 
ATOM     27  C   UNL A   1      32.986  34.544  28.403  1.00  0.00     0.251 C 
ATOM     28  H   UNL A   1      31.461  34.270  27.121  1.00  0.00     0.163 HD
ATOM     29  O   UNL A   1      32.608  35.661  28.746  1.00  0.00    -0.269 OA
BRANCH  27  30
ATOM     30  C   UNL A   1      34.197  33.964  29.037  1.00  0.00     0.039 A 
ATOM     31  C   UNL A   1      34.028  32.953  29.986  1.00  0.00     0.014 A 
ATOM     32  C   UNL A   1      35.482  34.431  28.750  1.00  0.00     0.014 A 
ATOM     33  C   UNL A   1      35.141  32.383  30.617  1.00  0.00     0.010 A 
ATOM     34  C   UNL A   1      36.592  33.833  29.362  1.00  0.00     0.010 A 
ATOM     35  C   UNL A   1      36.446  32.795  30.297  1.00  0.00    -0.014 A 
BRANCH  35  36
ATOM     36  C   UNL A   1      37.635  32.135  30.925  1.00  0.00     0.031 A 
ATOM     37  C   UNL A   1      38.094  32.501  32.316  1.00  0.00     0.074 A 
ATOM     38  C   UNL A   1      38.332  31.205  30.240  1.00  0.00     0.049 A 
ATOM     39  N   UNL A   1      39.066  31.985  33.034  1.00  0.00    -0.248 NA
ATOM     40  C   UNL A   1      37.382  33.597  32.987  1.00  0.00     0.031 C 
ATOM     41  C   UNL A   1      38.059  30.788  28.864  1.00  0.00     0.029 A 
ATOM     42  N   UNL A   1      39.412  30.432  30.607  1.00  0.00    -0.354 N 
ATOM     43  C   UNL A   1      39.084  32.698  34.226  1.00  0.00     0.074 A 
ATOM     44  C   UNL A   1      38.066  33.720  34.115  1.00  0.00     0.031 C 
ATOM     45  C   UNL A   1      38.915  29.813  28.520  1.00  0.00     0.029 A 
ATOM     46  C   UNL A   1      39.823  29.552  29.634  1.00  0.00     0.049 A 
ATOM     47  H   UNL A   1      39.848  30.503  31.486  1.00  0.00     0.167 HD
ATOM     48  C   UNL A   1      39.856  32.509  35.326  1.00  0.00     0.037 A 
ATOM     49  C   UNL A   1      40.812  28.635  29.632  1.00  0.00     0.037 A 
ATOM     50  C   UNL A   1      40.865  31.488  35.456  1.00  0.00     0.049 A 
ATOM     51  C   UNL A   1      41.660  28.446  30.865  1.00  0.00     0.074 A 
ATOM     52  C   UNL A   1      41.641  31.178  36.560  1.00  0.00     0.029 A 
ATOM     53  N   UNL A   1      41.249  30.622  34.444  1.00  0.00    -0.354 N 
ATOM     54  N   UNL A   1      41.589  29.056  32.022  1.00  0.00    -0.248 NA
ATOM     55  C   UNL A   1      42.720  27.428  30.791  1.00  0.00     0.031 C 
ATOM     56  C   UNL A   1      42.536  30.165  36.199  1.00  0.00     0.029 A 
ATOM     57  C   UNL A   1      42.271  29.796  34.891  1.00  0.00     0.049 A 
ATOM     58  H   UNL A   1      40.854  30.595  33.542  1.00  0.00     0.167 HD
ATOM     59  C   UNL A   1      42.568  28.476  32.820  1.00  0.00     0.074 A 
ATOM     60  C   UNL A   1      43.207  27.453  32.023  1.00  0.00     0.031 C 
ATOM     61  C   UNL A   1      42.903  28.771  34.100  1.00  0.00     0.037 A 
BRANCH  48  62
ATOM     62  C   UNL A   1      39.635  33.425  36.499  1.00  0.00     0.064 A 
ATOM     63  C   UNL A   1      38.784  33.072  37.560  1.00  0.00     0.173 A 
ATOM     64  C   UNL A   1      40.320  34.647  36.593  1.00  0.00     0.173 A 
ATOM     65  F   UNL A   1      38.104  31.917  37.523  1.00  0.00    -0.203 F 
ATOM     66  C   UNL A   1      38.600  33.922  38.646  1.00  0.00     0.198 A 
ATOM     67  C   UNL A   1      40.162  35.478  37.699  1.00  0.00     0.198 A 
ATOM     68  F   UNL A   1      41.160  35.028  35.618  1.00  0.00    -0.203 F 
ATOM     69  F   UNL A   1      37.742  33.586  39.620  1.00  0.00    -0.200 F 
ATOM     70  C   UNL A   1      39.294  35.121  38.720  1.00  0.00     0.200 A 
ATOM     71  F   UNL A   1      40.849  36.626  37.778  1.00  0.00    -0.200 F 
ATOM     72  F   UNL A   1      39.123  35.932  39.772  1.00  0.00    -0.200 F 
ENDBRANCH  48  62
BRANCH  49  73
ATOM     73  C   UNL A   1      41.046  27.793  28.427  1.00  0.00     0.064 A 
ATOM     74  C   UNL A   1      41.925  28.206  27.416  1.00  0.00     0.173 A 
ATOM     75  C   UNL A   1      40.376  26.574  28.247  1.00  0.00     0.173 A 
ATOM     76  F   UNL A   1      42.571  29.377  27.527  1.00  0.00    -0.203 F 
ATOM     77  C   UNL A   1      42.105  27.447  26.261  1.00  0.00     0.198 A 
ATOM     78  C   UNL A   1      40.584  25.799  27.107  1.00  0.00     0.198 A 
ATOM     79  F   UNL A   1      39.527  26.128  29.185  1.00  0.00    -0.203 F 
ATOM     80  F   UNL A   1      42.908  27.896  25.285  1.00  0.00    -0.200 F 
ATOM     81  C   UNL A   1      41.440  26.241  26.111  1.00  0.00     0.200 A 
ATOM     82  F   UNL A   1      39.950  24.625  26.974  1.00  0.00    -0.200 F 
ATOM     83  F   UNL A   1      41.614  25.510  25.002  1.00  0.00    -0.200 F 
ENDBRANCH  49  73
BRANCH  61  84
ATOM     84  C   UNL A   1      43.986  27.949  34.746  1.00  0.00     0.064 A 
ATOM     85  C   UNL A   1      45.325  28.369  34.765  1.00  0.00     0.173 A 
ATOM     86  C   UNL A   1      43.671  26.741  35.390  1.00  0.00     0.173 A 
ATOM     87  F   UNL A   1      45.685  29.508  34.153  1.00  0.00    -0.203 F 
ATOM     88  C   UNL A   1      46.310  27.599  35.378  1.00  0.00     0.198 A 
ATOM     89  C   UNL A   1      44.653  25.992  36.032  1.00  0.00     0.198 A 
ATOM     90  F   UNL A   1      42.407  26.294  35.409  1.00  0.00    -0.203 F 
ATOM     91  F   UNL A   1      47.590  27.995  35.337  1.00  0.00    -0.200 F 
ATOM     92  C   UNL A   1      45.973  26.416  36.018  1.00  0.00     0.200 A 
ATOM     93  F   UNL A   1      44.321  24.857  36.664  1.00  0.00    -0.200 F 
ATOM     94  F   UNL A   1      46.921  25.682  36.617  1.00  0.00    -0.200 F 
ENDBRANCH  61  84
ENDBRANCH  35  36
ENDBRANCH  27  30
ENDBRANCH  25  26
ENDBRANCH  24  25
ENDBRANCH   1  24
TORSDOF 14
ENDMDL
MODEL 3
REMARK VINA RESULT:     -12.2      1.776      2.866
REMARK SMILES O=C(Cc1ccn[nH]1)NC[C@H]1CCCC[C@H]1C(=O)NCCCNC(=O)c1ccc(-c2c3nc(c(-c4c(F)c(F)c(F)c(F)c4F)c4ccc([nH]4)c(-c4c(F)c(F)c(F)c(F)c4F)c4nc(c(-c5c(F)c(F)c(F)c(F)c5F)c5ccc2[nH]5)C=C4)C=C3)cc1
REMARK SMILES IDX 20 1 19 2 17 3 18 4 16 6 11 7 12 8 13 9 15 10 14 11 10 12
REMARK SMILES IDX 9 13 1 14 2 15 3 17 4 18 5 19 8 20 6 21 7 22 21 24 22 25
REMARK SMILES IDX 23 26 24 27 25 29 26 30 27 31 88 32 28 33 87 34 29 35 30 36
REMARK SMILES IDX 31 37 81 38 32 39 86 40 80 41 82 42 33 43 85 44 79 45 78 46
REMARK SMILES IDX 34 48 66 49 46 50 65 51 47 52 50 53 64 54 83 55 48 56 49 57
REMARK SMILES IDX 63 59 84 60 51 61 35 62 36 63 44 64 37 65 38 66 42 67 45 68
REMARK SMILES IDX 39 69 40 70 43 71 41 72 67 73 68 74 76 75 69 76 70 77 74 78
REMARK SMILES IDX 77 79 71 80 72 81 75 82 73 83 52 84 53 85 61 86 54 87 55 88
REMARK SMILES IDX 59 89 62 90 56 91 57 92 60 93 58 94
REMARK H PARENT 19 5 9 16 8 23 23 28 82 47 50 58
REMARK Flexibility Score: inf
ROOT
ATOM      1  C   UNL A   1      33.855  28.811  22.902  1.00  0.00     0.117 C 
ENDROOT
BRANCH   1   2
ATOM      2  N   UNL A   1      33.667  27.724  21.949  1.00  0.00    -0.356 N 
ATOM      3  C   UNL A   1      33.431  26.381  21.998  1.00  0.00     0.223 C 
ATOM      4  O   UNL A   1      33.202  25.803  20.927  1.00  0.00    -0.275 OA
ATOM      5  H   UNL A   1      33.724  28.045  21.019  1.00  0.00     0.163 HD
BRANCH   3   6
ATOM      6  C   UNL A   1      33.453  25.546  23.275  1.00  0.00     0.083 C 
ATOM      7  C   UNL A   1      32.076  25.400  24.011  1.00  0.00     0.021 C 
ATOM      8  C   UNL A   1      31.954  24.069  24.793  1.00  0.00     0.006 C 
ATOM      9  C   UNL A   1      32.637  22.887  24.124  1.00  0.00     0.000 C 
ATOM     10  C   UNL A   1      34.396  24.338  23.115  1.00  0.00     0.014 C 
ATOM     11  C   UNL A   1      34.124  23.159  24.027  1.00  0.00     0.001 C 
BRANCH   7  12
ATOM     12  C   UNL A   1      30.800  25.646  23.177  1.00  0.00     0.120 C 
BRANCH  12  13
ATOM     13  N   UNL A   1      29.904  26.723  23.594  1.00  0.00    -0.355 N 
ATOM     14  O   UNL A   1      30.268  28.238  21.884  1.00  0.00    -0.275 OA
ATOM     15  C   UNL A   1      29.605  27.834  22.832  1.00  0.00     0.226 C 
ATOM     16  H   UNL A   1      29.483  26.650  24.481  1.00  0.00     0.163 HD
BRANCH  15  17
ATOM     17  C   UNL A   1      28.289  28.517  23.126  1.00  0.00     0.155 C 
BRANCH  17  18
ATOM     18  C   UNL A   1      28.296  29.903  22.562  1.00  0.00     0.044 A 
ATOM     19  C   UNL A   1      28.640  31.137  23.079  1.00  0.00     0.045 A 
ATOM     20  N   UNL A   1      27.899  30.148  21.276  1.00  0.00    -0.282 N 
ATOM     21  C   UNL A   1      28.494  32.034  22.007  1.00  0.00     0.135 A 
ATOM     22  N   UNL A   1      28.046  31.430  20.905  1.00  0.00    -0.184 NA
ATOM     23  H   UNL A   1      27.539  29.453  20.680  1.00  0.00     0.190 HD
ENDBRANCH  17  18
ENDBRANCH  15  17
ENDBRANCH  12  13
ENDBRANCH   7  12
ENDBRANCH   3   6
ENDBRANCH   1   2
BRANCH   1  24
ATOM     24  C   UNL A   1      32.779  29.032  23.991  1.00  0.00     0.042 C 
BRANCH  24  25
ATOM     25  C   UNL A   1      33.184  29.324  25.435  1.00  0.00     0.118 C 
BRANCH  25  26
ATOM     26  N   UNL A   1      32.688  30.579  25.955  1.00  0.00    -0.352 N 
ATOM     27  C   UNL A   1      33.239  31.372  26.934  1.00  0.00     0.251 C 
ATOM     28  H   UNL A   1      31.849  30.909  25.557  1.00  0.00     0.163 HD
ATOM     29  O   UNL A   1      32.686  32.417  27.265  1.00  0.00    -0.269 OA
BRANCH  27  30
ATOM     30  C   UNL A   1      34.480  30.957  27.636  1.00  0.00     0.039 A 
ATOM     31  C   UNL A   1      35.507  31.895  27.774  1.00  0.00     0.014 A 
ATOM     32  C   UNL A   1      34.667  29.658  28.112  1.00  0.00     0.014 A 
ATOM     33  C   UNL A   1      36.700  31.546  28.421  1.00  0.00     0.010 A 
ATOM     34  C   UNL A   1      35.850  29.327  28.786  1.00  0.00     0.010 A 
ATOM     35  C   UNL A   1      36.883  30.262  28.962  1.00  0.00    -0.014 A 
BRANCH  35  36
ATOM     36  C   UNL A   1      38.133  29.916  29.711  1.00  0.00     0.031 A 
ATOM     37  C   UNL A   1      38.403  30.466  31.090  1.00  0.00     0.074 A 
ATOM     38  C   UNL A   1      39.057  29.109  29.145  1.00  0.00     0.049 A 
ATOM     39  N   UNL A   1      39.406  30.219  31.902  1.00  0.00    -0.248 NA
ATOM     40  C   UNL A   1      37.431  31.429  31.626  1.00  0.00     0.031 C 
ATOM     41  C   UNL A   1      38.977  28.550  27.795  1.00  0.00     0.029 A 
ATOM     42  N   UNL A   1      40.243  28.611  29.637  1.00  0.00    -0.354 N 
ATOM     43  C   UNL A   1      39.188  31.000  33.030  1.00  0.00     0.074 A 
ATOM     44  C   UNL A   1      37.991  31.772  32.777  1.00  0.00     0.031 C 
ATOM     45  C   UNL A   1      40.040  27.758  27.583  1.00  0.00     0.029 A 
ATOM     46  C   UNL A   1      40.898  27.774  28.765  1.00  0.00     0.049 A 
ATOM     47  H   UNL A   1      40.590  28.833  30.531  1.00  0.00     0.167 HD
ATOM     48  C   UNL A   1      39.899  31.055  34.185  1.00  0.00     0.037 A 
ATOM     49  C   UNL A   1      42.053  27.090  28.896  1.00  0.00     0.037 A 
ATOM     50  C   UNL A   1      41.086  30.283  34.456  1.00  0.00     0.049 A 
ATOM     51  C   UNL A   1      42.830  27.171  30.186  1.00  0.00     0.074 A 
ATOM     52  C   UNL A   1      41.827  30.222  35.625  1.00  0.00     0.029 A 
ATOM     53  N   UNL A   1      41.714  29.451  33.544  1.00  0.00    -0.354 N 
ATOM     54  N   UNL A   1      42.549  27.830  31.283  1.00  0.00    -0.248 NA
ATOM     55  C   UNL A   1      44.080  26.399  30.258  1.00  0.00     0.031 C 
ATOM     56  C   UNL A   1      42.936  29.401  35.401  1.00  0.00     0.029 A 
ATOM     57  C   UNL A   1      42.850  28.895  34.115  1.00  0.00     0.049 A 
ATOM     58  H   UNL A   1      41.401  29.279  32.626  1.00  0.00     0.167 HD
ATOM     59  C   UNL A   1      43.566  27.528  32.181  1.00  0.00     0.074 A 
ATOM     60  C   UNL A   1      44.460  26.612  31.509  1.00  0.00     0.031 C 
ATOM     61  C   UNL A   1      43.737  27.975  33.450  1.00  0.00     0.037 A 
BRANCH  48  62
ATOM     62  C   UNL A   1      39.407  31.982  35.264  1.00  0.00     0.064 A 
ATOM     63  C   UNL A   1      38.571  31.531  36.298  1.00  0.00     0.173 A 
ATOM     64  C   UNL A   1      39.818  33.324  35.296  1.00  0.00     0.173 A 
ATOM     65  F   UNL A   1      38.148  30.258  36.317  1.00  0.00    -0.203 F 
ATOM     66  C   UNL A   1      38.135  32.395  37.298  1.00  0.00     0.198 A 
ATOM     67  C   UNL A   1      39.409  34.177  36.319  1.00  0.00     0.198 A 
ATOM     68  F   UNL A   1      40.631  33.807  34.344  1.00  0.00    -0.203 F 
ATOM     69  F   UNL A   1      37.294  31.953  38.244  1.00  0.00    -0.200 F 
ATOM     70  C   UNL A   1      38.560  33.716  37.313  1.00  0.00     0.200 A 
ATOM     71  F   UNL A   1      39.837  35.447  36.343  1.00  0.00    -0.200 F 
ATOM     72  F   UNL A   1      38.147  34.543  38.282  1.00  0.00    -0.200 F 
ENDBRANCH  48  62
BRANCH  49  73
ATOM     73  C   UNL A   1      42.545  26.236  27.780  1.00  0.00     0.064 A 
ATOM     74  C   UNL A   1      43.501  26.712  26.872  1.00  0.00     0.173 A 
ATOM     75  C   UNL A   1      42.050  24.939  27.581  1.00  0.00     0.173 A 
ATOM     76  F   UNL A   1      43.989  27.955  27.003  1.00  0.00    -0.203 F 
ATOM     77  C   UNL A   1      43.924  25.936  25.794  1.00  0.00     0.198 A 
ATOM     78  C   UNL A   1      42.498  24.151  26.522  1.00  0.00     0.198 A 
ATOM     79  F   UNL A   1      41.136  24.431  28.421  1.00  0.00    -0.203 F 
ATOM     80  F   UNL A   1      44.797  26.439  24.910  1.00  0.00    -0.200 F 
ATOM     81  C   UNL A   1      43.427  24.653  25.624  1.00  0.00     0.200 A 
ATOM     82  F   UNL A   1      42.027  22.905  26.371  1.00  0.00    -0.200 F 
ATOM     83  F   UNL A   1      43.834  23.906  24.589  1.00  0.00    -0.200 F 
ENDBRANCH  49  73
BRANCH  61  84
ATOM     84  C   UNL A   1      44.917  27.449  34.222  1.00  0.00     0.064 A 
ATOM     85  C   UNL A   1      46.142  28.131  34.262  1.00  0.00     0.173 A 
ATOM     86  C   UNL A   1      44.805  26.263  34.966  1.00  0.00     0.173 A 
ATOM     87  F   UNL A   1      46.309  29.262  33.558  1.00  0.00    -0.203 F 
ATOM     88  C   UNL A   1      47.218  27.633  34.993  1.00  0.00     0.198 A 
ATOM     89  C   UNL A   1      45.872  25.786  35.723  1.00  0.00     0.198 A 
ATOM     90  F   UNL A   1      43.656  25.572  34.970  1.00  0.00    -0.203 F 
ATOM     91  F   UNL A   1      48.394  28.275  34.972  1.00  0.00    -0.200 F 
ATOM     92  C   UNL A   1      47.080  26.466  35.729  1.00  0.00     0.200 A 
ATOM     93  F   UNL A   1      45.730  24.667  36.447  1.00  0.00    -0.200 F 
ATOM     94  F   UNL A   1      48.113  25.994  36.440  1.00  0.00    -0.200 F 
ENDBRANCH  61  84
ENDBRANCH  35  36
ENDBRANCH  27  30
ENDBRANCH  25  26
ENDBRANCH  24  25
ENDBRANCH   1  24
TORSDOF 14
ENDMDL
