MODEL 1
REMARK VINA RESULT:     -13.9      0.000      0.000
REMARK SMILES Cc1c(NC(=O)c2ccc(Br)cc2N)cccc1C(=O)NCCCNC(=O)c1ccc(-c2c3nc(c(-c4c(F)c(F)c(F)c(F)c4F)c4ccc([nH]4)c(-c4c(F)c(F)c(F)c(F)c4F)c4nc(c(-c5c(F)c(F)c(F)c(F)c5F)c5ccc2[nH]5)C=C4)C=C3)cc1
REMARK SMILES IDX 22 1 21 2 19 3 20 4 18 6 1 7 2 8 3 9 15 10 17 11 16 12 4 13
REMARK SMILES IDX 5 14 6 16 7 17 8 18 13 19 9 20 12 21 10 22 11 23 14 24 23 27
REMARK SMILES IDX 24 28 25 29 26 30 27 32 28 33 29 34 90 35 30 36 89 37 31 38
REMARK SMILES IDX 32 39 33 40 83 41 34 42 88 43 82 44 84 45 35 46 87 47 81 48
REMARK SMILES IDX 80 49 36 51 68 52 48 53 67 54 49 55 52 56 66 57 85 58 50 59
REMARK SMILES IDX 51 60 65 62 86 63 53 64 37 65 38 66 46 67 39 68 40 69 44 70
REMARK SMILES IDX 47 71 41 72 42 73 45 74 43 75 69 76 70 77 78 78 71 79 72 80
REMARK SMILES IDX 76 81 79 82 73 83 74 84 77 85 75 86 54 87 55 88 63 89 56 90
REMARK SMILES IDX 57 91 61 92 64 93 58 94 59 95 62 96 60 97
REMARK H PARENT 21 5 4 15 14 25 14 26 25 31 84 50 52 61
REMARK Flexibility Score: inf
ROOT
ATOM      1  C   UNL A   1      33.226  29.738  25.834  1.00  0.00     0.118 C 
ENDROOT
BRANCH   1   2
ATOM      2  N   UNL A   1      32.021  30.043  25.073  1.00  0.00    -0.352 N 
ATOM      3  C   UNL A   1      31.040  29.329  24.431  1.00  0.00     0.251 C 
ATOM      4  O   UNL A   1      30.178  30.029  23.887  1.00  0.00    -0.269 OA
ATOM      5  H   UNL A   1      31.873  31.014  25.000  1.00  0.00     0.163 HD
BRANCH   3   6
ATOM      6  C   UNL A   1      30.873  27.834  24.349  1.00  0.00     0.044 A 
ATOM      7  C   UNL A   1      31.028  27.239  26.829  1.00  0.00     0.047 C 
ATOM      8  C   UNL A   1      30.809  26.890  25.393  1.00  0.00    -0.015 A 
ATOM      9  C   UNL A   1      30.718  25.504  25.100  1.00  0.00     0.045 A 
ATOM     10  C   UNL A   1      30.818  25.034  23.796  1.00  0.00     0.026 A 
ATOM     11  C   UNL A   1      30.945  27.324  23.033  1.00  0.00     0.014 A 
ATOM     12  C   UNL A   1      30.940  25.950  22.759  1.00  0.00     0.003 A 
BRANCH   9  13
ATOM     13  N   UNL A   1      30.522  24.636  26.183  1.00  0.00    -0.322 N 
ATOM     14  C   UNL A   1      31.267  23.594  26.672  1.00  0.00     0.257 C 
ATOM     15  H   UNL A   1      29.694  24.805  26.687  1.00  0.00     0.170 HD
ATOM     16  O   UNL A   1      30.811  22.958  27.625  1.00  0.00    -0.269 OA
BRANCH  14  17
ATOM     17  C   UNL A   1      32.608  23.233  26.152  1.00  0.00     0.063 A 
ATOM     18  C   UNL A   1      33.522  24.302  26.125  1.00  0.00     0.017 A 
ATOM     19  C   UNL A   1      32.978  21.975  25.627  1.00  0.00     0.045 A 
ATOM     20  C   UNL A   1      34.809  24.126  25.628  1.00  0.00     0.016 A 
ATOM     21  C   UNL A   1      34.289  21.815  25.152  1.00  0.00     0.042 A 
ATOM     22  C   UNL A   1      35.193  22.878  25.159  1.00  0.00     0.020 A 
ATOM     23  Br  UNL A   1      36.938  22.625  24.480  1.00  0.00    -0.051 Br
BRANCH  19  24
ATOM     24  N   UNL A   1      32.091  20.932  25.378  1.00  0.00    -0.398 N 
ATOM     25  H   UNL A   1      31.385  20.720  26.030  1.00  0.00     0.156 HD
ATOM     26  H   UNL A   1      32.170  20.405  24.550  1.00  0.00     0.156 HD
ENDBRANCH  19  24
ENDBRANCH  14  17
ENDBRANCH   9  13
ENDBRANCH   3   6
ENDBRANCH   1   2
BRANCH   1  27
ATOM     27  C   UNL A   1      33.463  30.786  26.927  1.00  0.00     0.042 C 
BRANCH  27  28
ATOM     28  C   UNL A   1      34.069  30.299  28.224  1.00  0.00     0.118 C 
BRANCH  28  29
ATOM     29  N   UNL A   1      35.000  31.254  28.827  1.00  0.00    -0.352 N 
ATOM     30  C   UNL A   1      36.321  31.038  29.207  1.00  0.00     0.251 C 
ATOM     31  H   UNL A   1      34.648  32.161  28.981  1.00  0.00     0.163 HD
ATOM     32  O   UNL A   1      37.015  31.917  29.655  1.00  0.00    -0.269 OA
BRANCH  30  33
ATOM     33  C   UNL A   1      36.872  29.696  28.907  1.00  0.00     0.039 A 
ATOM     34  C   UNL A   1      37.324  28.968  30.009  1.00  0.00     0.014 A 
ATOM     35  C   UNL A   1      37.355  29.451  27.625  1.00  0.00     0.014 A 
ATOM     36  C   UNL A   1      38.480  28.210  29.876  1.00  0.00     0.010 A 
ATOM     37  C   UNL A   1      38.560  28.783  27.517  1.00  0.00     0.010 A 
ATOM     38  C   UNL A   1      39.161  28.236  28.659  1.00  0.00    -0.014 A 
BRANCH  38  39
ATOM     39  C   UNL A   1      40.531  27.755  28.519  1.00  0.00     0.031 A 
ATOM     40  C   UNL A   1      40.751  26.333  28.200  1.00  0.00     0.074 A 
ATOM     41  C   UNL A   1      41.598  28.570  28.687  1.00  0.00     0.049 A 
ATOM     42  N   UNL A   1      41.803  25.669  28.540  1.00  0.00    -0.248 NA
ATOM     43  C   UNL A   1      39.754  25.527  27.510  1.00  0.00     0.031 C 
ATOM     44  C   UNL A   1      42.995  28.252  28.397  1.00  0.00     0.029 A 
ATOM     45  N   UNL A   1      41.657  29.805  29.355  1.00  0.00    -0.354 N 
ATOM     46  C   UNL A   1      41.747  24.447  27.917  1.00  0.00     0.074 A 
ATOM     47  C   UNL A   1      40.426  24.386  27.335  1.00  0.00     0.031 C 
ATOM     48  C   UNL A   1      43.784  29.050  29.133  1.00  0.00     0.029 A 
ATOM     49  C   UNL A   1      42.925  29.835  29.996  1.00  0.00     0.049 A 
ATOM     50  H   UNL A   1      40.964  30.504  29.375  1.00  0.00     0.167 HD
ATOM     51  C   UNL A   1      42.870  23.673  27.868  1.00  0.00     0.037 A 
ATOM     52  C   UNL A   1      43.032  29.934  31.353  1.00  0.00     0.037 A 
ATOM     53  C   UNL A   1      43.978  24.285  28.604  1.00  0.00     0.049 A 
ATOM     54  C   UNL A   1      43.670  28.734  32.019  1.00  0.00     0.074 A 
ATOM     55  C   UNL A   1      45.086  25.033  28.240  1.00  0.00     0.029 A 
ATOM     56  N   UNL A   1      43.872  24.417  29.978  1.00  0.00    -0.354 N 
ATOM     57  N   UNL A   1      44.135  27.695  31.385  1.00  0.00    -0.248 NA
ATOM     58  C   UNL A   1      43.711  28.568  33.472  1.00  0.00     0.031 C 
ATOM     59  C   UNL A   1      45.651  25.602  29.418  1.00  0.00     0.029 A 
ATOM     60  C   UNL A   1      44.889  25.197  30.498  1.00  0.00     0.049 A 
ATOM     61  H   UNL A   1      43.159  24.006  30.519  1.00  0.00     0.167 HD
ATOM     62  C   UNL A   1      44.460  26.721  32.293  1.00  0.00     0.074 A 
ATOM     63  C   UNL A   1      44.170  27.312  33.585  1.00  0.00     0.031 C 
ATOM     64  C   UNL A   1      44.895  25.478  31.925  1.00  0.00     0.037 A 
BRANCH  51  65
ATOM     65  C   UNL A   1      43.030  22.487  26.943  1.00  0.00     0.064 A 
ATOM     66  C   UNL A   1      42.292  21.304  27.155  1.00  0.00     0.173 A 
ATOM     67  C   UNL A   1      43.932  22.428  25.863  1.00  0.00     0.173 A 
ATOM     68  F   UNL A   1      41.304  21.247  28.057  1.00  0.00    -0.203 F 
ATOM     69  C   UNL A   1      42.542  20.126  26.445  1.00  0.00     0.198 A 
ATOM     70  C   UNL A   1      44.232  21.235  25.199  1.00  0.00     0.198 A 
ATOM     71  F   UNL A   1      44.502  23.533  25.369  1.00  0.00    -0.203 F 
ATOM     72  F   UNL A   1      41.812  19.031  26.698  1.00  0.00    -0.200 F 
ATOM     73  C   UNL A   1      43.546  20.078  25.501  1.00  0.00     0.200 A 
ATOM     74  F   UNL A   1      45.190  21.219  24.261  1.00  0.00    -0.200 F 
ATOM     75  F   UNL A   1      43.826  18.934  24.861  1.00  0.00    -0.200 F 
ENDBRANCH  51  65
BRANCH  52  76
ATOM     76  C   UNL A   1      41.945  30.766  31.930  1.00  0.00     0.064 A 
ATOM     77  C   UNL A   1      42.053  32.163  31.776  1.00  0.00     0.173 A 
ATOM     78  C   UNL A   1      40.675  30.230  32.162  1.00  0.00     0.173 A 
ATOM     79  F   UNL A   1      43.255  32.726  31.580  1.00  0.00    -0.203 F 
ATOM     80  C   UNL A   1      40.918  32.954  31.640  1.00  0.00     0.198 A 
ATOM     81  C   UNL A   1      39.543  31.037  32.070  1.00  0.00     0.198 A 
ATOM     82  F   UNL A   1      40.512  28.910  32.329  1.00  0.00    -0.203 F 
ATOM     83  F   UNL A   1      41.040  34.245  31.296  1.00  0.00    -0.200 F 
ATOM     84  C   UNL A   1      39.663  32.380  31.745  1.00  0.00     0.200 A 
ATOM     85  F   UNL A   1      38.328  30.485  32.189  1.00  0.00    -0.200 F 
ATOM     86  F   UNL A   1      38.571  33.110  31.476  1.00  0.00    -0.200 F 
ENDBRANCH  52  76
BRANCH  64  87
ATOM     87  C   UNL A   1      45.327  24.424  32.911  1.00  0.00     0.064 A 
ATOM     88  C   UNL A   1      44.513  23.329  33.251  1.00  0.00     0.173 A 
ATOM     89  C   UNL A   1      46.541  24.523  33.626  1.00  0.00     0.173 A 
ATOM     90  F   UNL A   1      43.283  23.196  32.735  1.00  0.00    -0.203 F 
ATOM     91  C   UNL A   1      44.931  22.348  34.154  1.00  0.00     0.198 A 
ATOM     92  C   UNL A   1      46.930  23.576  34.571  1.00  0.00     0.198 A 
ATOM     93  F   UNL A   1      47.399  25.531  33.420  1.00  0.00    -0.203 F 
ATOM     94  F   UNL A   1      44.153  21.281  34.382  1.00  0.00    -0.200 F 
ATOM     95  C   UNL A   1      46.139  22.473  34.815  1.00  0.00     0.200 A 
ATOM     96  F   UNL A   1      48.085  23.734  35.234  1.00  0.00    -0.200 F 
ATOM     97  F   UNL A   1      46.534  21.537  35.688  1.00  0.00    -0.200 F 
ENDBRANCH  64  87
ENDBRANCH  38  39
ENDBRANCH  30  33
ENDBRANCH  28  29
ENDBRANCH  27  28
ENDBRANCH   1  27
TORSDOF 13
ENDMDL
MODEL 2
REMARK VINA RESULT:     -13.8      3.553     10.021
REMARK SMILES Cc1c(NC(=O)c2ccc(Br)cc2N)cccc1C(=O)NCCCNC(=O)c1ccc(-c2c3nc(c(-c4c(F)c(F)c(F)c(F)c4F)c4ccc([nH]4)c(-c4c(F)c(F)c(F)c(F)c4F)c4nc(c(-c5c(F)c(F)c(F)c(F)c5F)c5ccc2[nH]5)C=C4)C=C3)cc1
REMARK SMILES IDX 22 1 21 2 19 3 20 4 18 6 1 7 2 8 3 9 15 10 17 11 16 12 4 13
REMARK SMILES IDX 5 14 6 16 7 17 8 18 13 19 9 20 12 21 10 22 11 23 14 24 23 27
REMARK SMILES IDX 24 28 25 29 26 30 27 32 28 33 29 34 90 35 30 36 89 37 31 38
REMARK SMILES IDX 32 39 33 40 83 41 34 42 88 43 82 44 84 45 35 46 87 47 81 48
REMARK SMILES IDX 80 49 36 51 68 52 48 53 67 54 49 55 52 56 66 57 85 58 50 59
REMARK SMILES IDX 51 60 65 62 86 63 53 64 37 65 38 66 46 67 39 68 40 69 44 70
REMARK SMILES IDX 47 71 41 72 42 73 45 74 43 75 69 76 70 77 78 78 71 79 72 80
REMARK SMILES IDX 76 81 79 82 73 83 74 84 77 85 75 86 54 87 55 88 63 89 56 90
REMARK SMILES IDX 57 91 61 92 64 93 58 94 59 95 62 96 60 97
REMARK H PARENT 21 5 4 15 14 25 14 26 25 31 84 50 52 61
REMARK Flexibility Score: inf
ROOT
ATOM      1  C   UNL A   1      37.394  22.132  25.128  1.00  0.00     0.118 C 
ENDROOT
BRANCH   1   2
ATOM      2  N   UNL A   1      36.612  20.922  24.911  1.00  0.00    -0.352 N 
ATOM      3  C   UNL A   1      35.309  20.532  25.096  1.00  0.00     0.251 C 
ATOM      4  O   UNL A   1      35.079  19.362  24.767  1.00  0.00    -0.269 OA
ATOM      5  H   UNL A   1      37.160  20.197  24.534  1.00  0.00     0.163 HD
BRANCH   3   6
ATOM      6  C   UNL A   1      34.149  21.351  25.599  1.00  0.00     0.044 A 
ATOM      7  C   UNL A   1      33.320  22.340  23.394  1.00  0.00     0.047 C 
ATOM      8  C   UNL A   1      33.219  22.117  24.868  1.00  0.00    -0.015 A 
ATOM      9  C   UNL A   1      32.232  22.881  25.544  1.00  0.00     0.045 A 
ATOM     10  C   UNL A   1      32.233  22.998  26.928  1.00  0.00     0.026 A 
ATOM     11  C   UNL A   1      34.105  21.472  27.007  1.00  0.00     0.014 A 
ATOM     12  C   UNL A   1      33.180  22.295  27.662  1.00  0.00     0.003 A 
BRANCH   9  13
ATOM     13  N   UNL A   1      31.260  23.507  24.752  1.00  0.00    -0.322 N 
ATOM     14  C   UNL A   1      30.950  24.828  24.550  1.00  0.00     0.257 C 
ATOM     15  H   UNL A   1      30.693  22.882  24.245  1.00  0.00     0.170 HD
ATOM     16  O   UNL A   1      29.986  25.088  23.825  1.00  0.00    -0.269 OA
BRANCH  14  17
ATOM     17  C   UNL A   1      31.743  25.949  25.109  1.00  0.00     0.063 A 
ATOM     18  C   UNL A   1      31.140  26.587  26.208  1.00  0.00     0.017 A 
ATOM     19  C   UNL A   1      32.955  26.446  24.582  1.00  0.00     0.045 A 
ATOM     20  C   UNL A   1      31.746  27.682  26.817  1.00  0.00     0.016 A 
ATOM     21  C   UNL A   1      33.560  27.536  25.227  1.00  0.00     0.042 A 
ATOM     22  C   UNL A   1      32.964  28.140  26.334  1.00  0.00     0.020 A 
ATOM     23  Br  UNL A   1      33.799  29.626  27.151  1.00  0.00    -0.051 Br
BRANCH  19  24
ATOM     24  N   UNL A   1      33.506  26.055  23.365  1.00  0.00    -0.398 N 
ATOM     25  H   UNL A   1      33.000  26.187  22.531  1.00  0.00     0.156 HD
ATOM     26  H   UNL A   1      34.401  25.645  23.339  1.00  0.00     0.156 HD
ENDBRANCH  19  24
ENDBRANCH  14  17
ENDBRANCH   9  13
ENDBRANCH   3   6
ENDBRANCH   1   2
BRANCH   1  27
ATOM     27  C   UNL A   1      38.746  21.802  25.772  1.00  0.00     0.042 C 
BRANCH  27  28
ATOM     28  C   UNL A   1      39.324  22.830  26.719  1.00  0.00     0.118 C 
BRANCH  28  29
ATOM     29  N   UNL A   1      40.738  23.117  26.474  1.00  0.00    -0.352 N 
ATOM     30  C   UNL A   1      41.347  24.359  26.327  1.00  0.00     0.251 C 
ATOM     31  H   UNL A   1      41.332  22.334  26.405  1.00  0.00     0.163 HD
ATOM     32  O   UNL A   1      42.537  24.481  26.173  1.00  0.00    -0.269 OA
BRANCH  30  33
ATOM     33  C   UNL A   1      40.467  25.539  26.504  1.00  0.00     0.039 A 
ATOM     34  C   UNL A   1      40.985  26.752  26.050  1.00  0.00     0.014 A 
ATOM     35  C   UNL A   1      39.484  25.488  27.488  1.00  0.00     0.014 A 
ATOM     36  C   UNL A   1      40.745  27.898  26.798  1.00  0.00     0.010 A 
ATOM     37  C   UNL A   1      39.330  26.604  28.289  1.00  0.00     0.010 A 
ATOM     38  C   UNL A   1      40.027  27.783  27.988  1.00  0.00    -0.014 A 
BRANCH  38  39
ATOM     39  C   UNL A   1      40.004  28.839  28.993  1.00  0.00     0.031 A 
ATOM     40  C   UNL A   1      38.957  29.872  28.910  1.00  0.00     0.074 A 
ATOM     41  C   UNL A   1      40.922  28.904  29.986  1.00  0.00     0.049 A 
ATOM     42  N   UNL A   1      39.090  31.076  29.351  1.00  0.00    -0.248 NA
ATOM     43  C   UNL A   1      37.677  29.632  28.257  1.00  0.00     0.031 C 
ATOM     44  C   UNL A   1      40.897  29.796  31.143  1.00  0.00     0.029 A 
ATOM     45  N   UNL A   1      42.190  28.302  30.043  1.00  0.00    -0.354 N 
ATOM     46  C   UNL A   1      37.864  31.689  29.275  1.00  0.00     0.074 A 
ATOM     47  C   UNL A   1      37.032  30.768  28.535  1.00  0.00     0.031 C 
ATOM     48  C   UNL A   1      42.148  29.945  31.604  1.00  0.00     0.029 A 
ATOM     49  C   UNL A   1      43.032  29.239  30.700  1.00  0.00     0.049 A 
ATOM     50  H   UNL A   1      42.443  27.414  29.700  1.00  0.00     0.167 HD
ATOM     51  C   UNL A   1      37.662  32.858  29.949  1.00  0.00     0.037 A 
ATOM     52  C   UNL A   1      44.127  29.767  30.080  1.00  0.00     0.037 A 
ATOM     53  C   UNL A   1      38.886  33.320  30.605  1.00  0.00     0.049 A 
ATOM     54  C   UNL A   1      44.059  31.262  29.858  1.00  0.00     0.074 A 
ATOM     55  C   UNL A   1      39.380  33.245  31.898  1.00  0.00     0.029 A 
ATOM     56  N   UNL A   1      39.955  33.712  29.819  1.00  0.00    -0.354 N 
ATOM     57  N   UNL A   1      43.081  32.026  30.253  1.00  0.00    -0.248 NA
ATOM     58  C   UNL A   1      45.045  31.985  29.054  1.00  0.00     0.031 C 
ATOM     59  C   UNL A   1      40.757  33.613  31.875  1.00  0.00     0.029 A 
ATOM     60  C   UNL A   1      41.099  33.915  30.570  1.00  0.00     0.049 A 
ATOM     61  H   UNL A   1      39.908  33.832  28.842  1.00  0.00     0.167 HD
ATOM     62  C   UNL A   1      43.244  33.280  29.722  1.00  0.00     0.074 A 
ATOM     63  C   UNL A   1      44.484  33.202  28.973  1.00  0.00     0.031 C 
ATOM     64  C   UNL A   1      42.330  34.282  29.888  1.00  0.00     0.037 A 
BRANCH  51  65
ATOM     65  C   UNL A   1      36.293  33.443  30.218  1.00  0.00     0.064 A 
ATOM     66  C   UNL A   1      35.519  33.976  29.166  1.00  0.00     0.173 A 
ATOM     67  C   UNL A   1      35.708  33.563  31.493  1.00  0.00     0.173 A 
ATOM     68  F   UNL A   1      35.878  33.824  27.886  1.00  0.00    -0.203 F 
ATOM     69  C   UNL A   1      34.340  34.693  29.391  1.00  0.00     0.198 A 
ATOM     70  C   UNL A   1      34.566  34.336  31.727  1.00  0.00     0.198 A 
ATOM     71  F   UNL A   1      36.179  32.881  32.544  1.00  0.00    -0.203 F 
ATOM     72  F   UNL A   1      33.652  35.182  28.349  1.00  0.00    -0.200 F 
ATOM     73  C   UNL A   1      33.889  34.914  30.675  1.00  0.00     0.200 A 
ATOM     74  F   UNL A   1      34.127  34.511  32.982  1.00  0.00    -0.200 F 
ATOM     75  F   UNL A   1      32.791  35.650  30.895  1.00  0.00    -0.200 F 
ENDBRANCH  51  65
BRANCH  52  76
ATOM     76  C   UNL A   1      44.766  28.785  29.165  1.00  0.00     0.064 A 
ATOM     77  C   UNL A   1      45.485  27.728  29.757  1.00  0.00     0.173 A 
ATOM     78  C   UNL A   1      44.297  28.608  27.861  1.00  0.00     0.173 A 
ATOM     79  F   UNL A   1      45.979  27.863  30.998  1.00  0.00    -0.203 F 
ATOM     80  C   UNL A   1      45.538  26.477  29.154  1.00  0.00     0.198 A 
ATOM     81  C   UNL A   1      44.394  27.363  27.241  1.00  0.00     0.198 A 
ATOM     82  F   UNL A   1      43.617  29.583  27.241  1.00  0.00    -0.203 F 
ATOM     83  F   UNL A   1      46.053  25.434  29.821  1.00  0.00    -0.200 F 
ATOM     84  C   UNL A   1      44.953  26.286  27.913  1.00  0.00     0.200 A 
ATOM     85  F   UNL A   1      43.844  27.183  26.033  1.00  0.00    -0.200 F 
ATOM     86  F   UNL A   1      44.880  25.053  27.392  1.00  0.00    -0.200 F 
ENDBRANCH  52  76
BRANCH  64  87
ATOM     87  C   UNL A   1      42.532  35.684  29.374  1.00  0.00     0.064 A 
ATOM     88  C   UNL A   1      41.958  36.139  28.174  1.00  0.00     0.173 A 
ATOM     89  C   UNL A   1      43.389  36.600  30.023  1.00  0.00     0.173 A 
ATOM     90  F   UNL A   1      41.230  35.319  27.402  1.00  0.00    -0.203 F 
ATOM     91  C   UNL A   1      42.138  37.447  27.716  1.00  0.00     0.198 A 
ATOM     92  C   UNL A   1      43.615  37.885  29.534  1.00  0.00     0.198 A 
ATOM     93  F   UNL A   1      44.021  36.287  31.163  1.00  0.00    -0.203 F 
ATOM     94  F   UNL A   1      41.504  37.856  26.609  1.00  0.00    -0.200 F 
ATOM     95  C   UNL A   1      42.969  38.319  28.396  1.00  0.00     0.200 A 
ATOM     96  F   UNL A   1      44.457  38.704  30.182  1.00  0.00    -0.200 F 
ATOM     97  F   UNL A   1      43.149  39.569  27.951  1.00  0.00    -0.200 F 
ENDBRANCH  64  87
ENDBRANCH  38  39
ENDBRANCH  30  33
ENDBRANCH  28  29
ENDBRANCH  27  28
ENDBRANCH   1  27
TORSDOF 13
ENDMDL
MODEL 3
REMARK VINA RESULT:     -13.7      0.771      1.817
REMARK SMILES Cc1c(NC(=O)c2ccc(Br)cc2N)cccc1C(=O)NCCCNC(=O)c1ccc(-c2c3nc(c(-c4c(F)c(F)c(F)c(F)c4F)c4ccc([nH]4)c(-c4c(F)c(F)c(F)c(F)c4F)c4nc(c(-c5c(F)c(F)c(F)c(F)c5F)c5ccc2[nH]5)C=C4)C=C3)cc1
REMARK SMILES IDX 22 1 21 2 19 3 20 4 18 6 1 7 2 8 3 9 15 10 17 11 16 12 4 13
REMARK SMILES IDX 5 14 6 16 7 17 8 18 13 19 9 20 12 21 10 22 11 23 14 24 23 27
REMARK SMILES IDX 24 28 25 29 26 30 27 32 28 33 29 34 90 35 30 36 89 37 31 38
REMARK SMILES IDX 32 39 33 40 83 41 34 42 88 43 82 44 84 45 35 46 87 47 81 48
REMARK SMILES IDX 80 49 36 51 68 52 48 53 67 54 49 55 52 56 66 57 85 58 50 59
REMARK SMILES IDX 51 60 65 62 86 63 53 64 37 65 38 66 46 67 39 68 40 69 44 70
REMARK SMILES IDX 47 71 41 72 42 73 45 74 43 75 69 76 70 77 78 78 71 79 72 80
REMARK SMILES IDX 76 81 79 82 73 83 74 84 77 85 75 86 54 87 55 88 63 89 56 90
REMARK SMILES IDX 57 91 61 92 64 93 58 94 59 95 62 96 60 97
REMARK H PARENT 21 5 4 15 14 25 14 26 25 31 84 50 52 61
REMARK Flexibility Score: inf
ROOT
ATOM      1  C   UNL A   1      33.267  29.758  25.665  1.00  0.00     0.118 C 
ENDROOT
BRANCH   1   2
ATOM      2  N   UNL A   1      32.007  30.061  24.998  1.00  0.00    -0.352 N 
ATOM      3  C   UNL A   1      30.970  29.344  24.455  1.00  0.00     0.251 C 
ATOM      4  O   UNL A   1      30.073  30.042  23.967  1.00  0.00    -0.269 OA
ATOM      5  H   UNL A   1      31.863  31.031  24.914  1.00  0.00     0.163 HD
BRANCH   3   6
ATOM      6  C   UNL A   1      30.782  27.850  24.421  1.00  0.00     0.044 A 
ATOM      7  C   UNL A   1      31.258  27.292  26.869  1.00  0.00     0.047 C 
ATOM      8  C   UNL A   1      30.849  26.922  25.480  1.00  0.00    -0.015 A 
ATOM      9  C   UNL A   1      30.709  25.533  25.225  1.00  0.00     0.045 A 
ATOM     10  C   UNL A   1      30.633  25.041  23.928  1.00  0.00     0.026 A 
ATOM     11  C   UNL A   1      30.677  27.317  23.116  1.00  0.00     0.014 A 
ATOM     12  C   UNL A   1      30.625  25.940  22.868  1.00  0.00     0.003 A 
BRANCH   9  13
ATOM     13  N   UNL A   1      30.651  24.684  26.340  1.00  0.00    -0.322 N 
ATOM     14  C   UNL A   1      31.447  23.644  26.745  1.00  0.00     0.257 C 
ATOM     15  H   UNL A   1      29.897  24.870  26.945  1.00  0.00     0.170 HD
ATOM     16  O   UNL A   1      31.115  23.028  27.760  1.00  0.00    -0.269 OA
BRANCH  14  17
ATOM     17  C   UNL A   1      32.705  23.262  26.060  1.00  0.00     0.063 A 
ATOM     18  C   UNL A   1      33.620  24.319  25.905  1.00  0.00     0.017 A 
ATOM     19  C   UNL A   1      32.989  21.995  25.504  1.00  0.00     0.045 A 
ATOM     20  C   UNL A   1      34.830  24.123  25.248  1.00  0.00     0.016 A 
ATOM     21  C   UNL A   1      34.227  21.815  24.865  1.00  0.00     0.042 A 
ATOM     22  C   UNL A   1      35.136  22.866  24.746  1.00  0.00     0.020 A 
ATOM     23  Br  UNL A   1      36.776  22.587  23.850  1.00  0.00    -0.051 Br
BRANCH  19  24
ATOM     24  N   UNL A   1      32.066  20.961  25.380  1.00  0.00    -0.398 N 
ATOM     25  H   UNL A   1      32.138  20.325  24.633  1.00  0.00     0.156 HD
ATOM     26  H   UNL A   1      31.341  20.867  26.039  1.00  0.00     0.156 HD
ENDBRANCH  19  24
ENDBRANCH  14  17
ENDBRANCH   9  13
ENDBRANCH   3   6
ENDBRANCH   1   2
BRANCH   1  27
ATOM     27  C   UNL A   1      33.448  30.628  26.914  1.00  0.00     0.042 C 
BRANCH  27  28
ATOM     28  C   UNL A   1      34.256  30.040  28.049  1.00  0.00     0.118 C 
BRANCH  28  29
ATOM     29  N   UNL A   1      35.037  31.035  28.785  1.00  0.00    -0.352 N 
ATOM     30  C   UNL A   1      36.357  30.943  29.212  1.00  0.00     0.251 C 
ATOM     31  H   UNL A   1      34.569  31.874  29.005  1.00  0.00     0.163 HD
ATOM     32  O   UNL A   1      36.919  31.850  29.775  1.00  0.00    -0.269 OA
BRANCH  30  33
ATOM     33  C   UNL A   1      37.083  29.713  28.817  1.00  0.00     0.039 A 
ATOM     34  C   UNL A   1      37.462  28.872  29.864  1.00  0.00     0.014 A 
ATOM     35  C   UNL A   1      37.752  29.703  27.596  1.00  0.00     0.014 A 
ATOM     36  C   UNL A   1      38.700  28.246  29.799  1.00  0.00     0.010 A 
ATOM     37  C   UNL A   1      39.026  29.166  27.574  1.00  0.00     0.010 A 
ATOM     38  C   UNL A   1      39.528  28.510  28.708  1.00  0.00    -0.014 A 
BRANCH  38  39
ATOM     39  C   UNL A   1      40.947  28.176  28.703  1.00  0.00     0.031 A 
ATOM     40  C   UNL A   1      41.358  26.842  28.230  1.00  0.00     0.074 A 
ATOM     41  C   UNL A   1      41.890  29.047  29.132  1.00  0.00     0.049 A 
ATOM     42  N   UNL A   1      42.420  26.229  28.626  1.00  0.00    -0.248 NA
ATOM     43  C   UNL A   1      40.551  26.063  27.301  1.00  0.00     0.031 C 
ATOM     44  C   UNL A   1      43.339  28.898  29.007  1.00  0.00     0.029 A 
ATOM     45  N   UNL A   1      41.730  30.169  29.962  1.00  0.00    -0.354 N 
ATOM     46  C   UNL A   1      42.577  25.112  27.842  1.00  0.00     0.074 A 
ATOM     47  C   UNL A   1      41.357  25.023  27.072  1.00  0.00     0.031 C 
ATOM     48  C   UNL A   1      43.935  29.643  29.950  1.00  0.00     0.029 A 
ATOM     49  C   UNL A   1      42.893  30.214  30.777  1.00  0.00     0.049 A 
ATOM     50  H   UNL A   1      40.970  30.795  29.975  1.00  0.00     0.167 HD
ATOM     51  C   UNL A   1      43.773  24.455  27.852  1.00  0.00     0.037 A 
ATOM     52  C   UNL A   1      42.811  30.119  32.136  1.00  0.00     0.037 A 
ATOM     53  C   UNL A   1      44.703  25.044  28.815  1.00  0.00     0.049 A 
ATOM     54  C   UNL A   1      43.480  28.894  32.719  1.00  0.00     0.074 A 
ATOM     55  C   UNL A   1      45.764  25.931  28.720  1.00  0.00     0.029 A 
ATOM     56  N   UNL A   1      44.406  24.961  30.164  1.00  0.00    -0.354 N 
ATOM     57  N   UNL A   1      44.133  28.005  32.025  1.00  0.00    -0.248 NA
ATOM     58  C   UNL A   1      43.349  28.518  34.127  1.00  0.00     0.031 C 
ATOM     59  C   UNL A   1      46.106  26.366  30.033  1.00  0.00     0.029 A 
ATOM     60  C   UNL A   1      45.257  25.741  30.927  1.00  0.00     0.049 A 
ATOM     61  H   UNL A   1      43.677  24.414  30.536  1.00  0.00     0.167 HD
ATOM     62  C   UNL A   1      44.438  26.938  32.830  1.00  0.00     0.074 A 
ATOM     63  C   UNL A   1      43.920  27.303  34.135  1.00  0.00     0.031 C 
ATOM     64  C   UNL A   1      45.047  25.807  32.364  1.00  0.00     0.037 A 
BRANCH  51  65
ATOM     65  C   UNL A   1      44.178  23.438  26.807  1.00  0.00     0.064 A 
ATOM     66  C   UNL A   1      45.141  23.758  25.827  1.00  0.00     0.173 A 
ATOM     67  C   UNL A   1      43.617  22.153  26.678  1.00  0.00     0.173 A 
ATOM     68  F   UNL A   1      45.857  24.887  25.891  1.00  0.00    -0.203 F 
ATOM     69  C   UNL A   1      45.408  22.925  24.737  1.00  0.00     0.198 A 
ATOM     70  C   UNL A   1      43.831  21.349  25.554  1.00  0.00     0.198 A 
ATOM     71  F   UNL A   1      42.899  21.603  27.664  1.00  0.00    -0.203 F 
ATOM     72  F   UNL A   1      46.330  23.287  23.834  1.00  0.00    -0.200 F 
ATOM     73  C   UNL A   1      44.716  21.742  24.574  1.00  0.00     0.200 A 
ATOM     74  F   UNL A   1      43.171  20.187  25.433  1.00  0.00    -0.200 F 
ATOM     75  F   UNL A   1      44.929  20.971  23.500  1.00  0.00    -0.200 F 
ENDBRANCH  51  65
BRANCH  52  76
ATOM     76  C   UNL A   1      41.575  30.759  32.657  1.00  0.00     0.064 A 
ATOM     77  C   UNL A   1      41.549  32.167  32.701  1.00  0.00     0.173 A 
ATOM     78  C   UNL A   1      40.352  30.082  32.637  1.00  0.00     0.173 A 
ATOM     79  F   UNL A   1      42.698  32.859  32.750  1.00  0.00    -0.203 F 
ATOM     80  C   UNL A   1      40.361  32.864  32.510  1.00  0.00     0.198 A 
ATOM     81  C   UNL A   1      39.159  30.788  32.493  1.00  0.00     0.198 A 
ATOM     82  F   UNL A   1      40.314  28.742  32.609  1.00  0.00    -0.203 F 
ATOM     83  F   UNL A   1      40.384  34.195  32.355  1.00  0.00    -0.200 F 
ATOM     84  C   UNL A   1      39.172  32.169  32.363  1.00  0.00     0.200 A 
ATOM     85  F   UNL A   1      38.006  30.117  32.368  1.00  0.00    -0.200 F 
ATOM     86  F   UNL A   1      38.050  32.828  32.040  1.00  0.00    -0.200 F 
ENDBRANCH  52  76
BRANCH  64  87
ATOM     87  C   UNL A   1      45.456  24.659  33.251  1.00  0.00     0.064 A 
ATOM     88  C   UNL A   1      46.733  24.572  33.835  1.00  0.00     0.173 A 
ATOM     89  C   UNL A   1      44.610  23.551  33.474  1.00  0.00     0.173 A 
ATOM     90  F   UNL A   1      47.668  25.502  33.590  1.00  0.00    -0.203 F 
ATOM     91  C   UNL A   1      47.095  23.512  34.669  1.00  0.00     0.198 A 
ATOM     92  C   UNL A   1      44.995  22.464  34.258  1.00  0.00     0.198 A 
ATOM     93  F   UNL A   1      43.376  23.490  32.956  1.00  0.00    -0.203 F 
ATOM     94  F   UNL A   1      48.294  23.518  35.267  1.00  0.00    -0.200 F 
ATOM     95  C   UNL A   1      46.226  22.457  34.879  1.00  0.00     0.200 A 
ATOM     96  F   UNL A   1      44.156  21.430  34.418  1.00  0.00    -0.200 F 
ATOM     97  F   UNL A   1      46.578  21.436  35.671  1.00  0.00    -0.200 F 
ENDBRANCH  64  87
ENDBRANCH  38  39
ENDBRANCH  30  33
ENDBRANCH  28  29
ENDBRANCH  27  28
ENDBRANCH   1  27
TORSDOF 13
ENDMDL
