MODEL 1
REMARK VINA RESULT:     -16.7      0.000      0.000
REMARK SMILES Cc1cc(/C=C2/C(=O)NC(=S)[NH+]=C2NCCCNC(=O)c2ccc(-c3c4nc(c(-c5c(F)c(F)c(F)c(F)c5F)c5ccc([nH]5)c(-c5c(F)c(F)c(F)c(F)c5F)c5nc(c(-c6c(F)c(F)c(F)c(F)c6F)c6ccc3[nH]6)C=C5)C=C4)cc2)c(C)n1-c1cccc(C(=O)[O-])c1
REMARK SMILES IDX 16 1 15 2 14 3 5 4 6 5 7 6 13 7 8 8 9 9 12 10 10 11 11 15
REMARK SMILES IDX 4 16 1 17 2 18 3 19 86 20 84 21 85 22 87 23 88 24 95 25
REMARK SMILES IDX 89 26 91 27 90 28 92 29 93 30 94 31 17 32 18 33 19 34 20 36
REMARK SMILES IDX 21 37 22 38 83 39 23 40 82 41 24 42 25 43 26 44 76 45 27 46
REMARK SMILES IDX 81 47 75 48 77 49 28 50 80 51 74 52 73 53 29 55 61 56 41 57
REMARK SMILES IDX 60 58 42 59 45 60 59 61 78 62 43 63 44 64 58 66 79 67 46 68
REMARK SMILES IDX 30 69 31 70 39 71 32 72 33 73 37 74 40 75 34 76 35 77 38 78
REMARK SMILES IDX 36 79 62 80 63 81 71 82 64 83 65 84 69 85 72 86 66 87 67 88
REMARK SMILES IDX 70 89 68 90 47 91 48 92 56 93 49 94 50 95 54 96 57 97 51 98
REMARK SMILES IDX 52 99 55 100 53 101
REMARK H PARENT 9 12 12 13 14 14 18 35 77 54 45 65
REMARK Flexibility Score: inf
ROOT
ATOM      1  C   UNL A   1      35.986  22.240  23.880  1.00  0.00     0.059 C 
ENDROOT
BRANCH   1   2
ATOM      2  C   UNL A   1      34.770  22.952  23.460  1.00  0.00     0.195 C 
BRANCH   2   3
ATOM      3  N   UNL A   1      33.768  21.993  23.196  1.00  0.00    -0.305 N 
ATOM      4  C   UNL A   1      32.194  23.753  25.315  1.00  0.00     0.032 C 
ATOM      5  C   UNL A   1      32.521  22.425  25.332  1.00  0.00     0.128 C 
ATOM      6  C   UNL A   1      32.555  21.723  26.658  1.00  0.00     0.319 C 
ATOM      7  C   UNL A   1      33.069  21.544  24.253  1.00  0.00     0.234 C 
ATOM      8  O   UNL A   1      32.512  22.307  27.735  1.00  0.00    -0.250 OA
ATOM      9  N   UNL A   1      32.745  20.362  26.596  1.00  0.00    -0.229 N 
ATOM     10  N   UNL A   1      33.149  20.249  24.301  1.00  0.00    -0.236 N 
ATOM     11  C   UNL A   1      32.941  19.606  25.473  1.00  0.00     0.295 C 
ATOM     12  H   UNL A   1      32.740  19.880  27.454  1.00  0.00     0.268 HD
ATOM     13  H   UNL A   1      33.360  19.736  23.486  1.00  0.00     0.268 HD
ATOM     14  H   UNL A   1      33.592  21.669  22.284  1.00  0.00     0.256 HD
ATOM     15  S   UNL A   1      33.093  17.946  25.624  1.00  0.00    -0.005 S 
BRANCH   4  16
ATOM     16  C   UNL A   1      32.349  24.839  24.334  1.00  0.00    -0.003 A 
ATOM     17  C   UNL A   1      32.365  26.281  20.880  1.00  0.00     0.065 C 
ATOM     18  C   UNL A   1      32.255  25.955  22.327  1.00  0.00     0.020 A 
ATOM     19  C   UNL A   1      32.073  24.714  22.938  1.00  0.00     0.031 A 
ATOM     20  N   UNL A   1      32.305  26.894  23.363  1.00  0.00    -0.318 N 
ATOM     21  C   UNL A   1      32.916  26.114  24.421  1.00  0.00     0.027 A 
ATOM     22  C   UNL A   1      34.051  26.497  25.314  1.00  0.00     0.065 C 
BRANCH  20  23
ATOM     23  C   UNL A   1      32.081  28.402  23.198  1.00  0.00     0.046 A 
ATOM     24  C   UNL A   1      32.720  29.154  24.654  1.00  0.00     0.026 A 
ATOM     25  C   UNL A   1      30.476  29.051  22.497  1.00  0.00     0.036 A 
ATOM     26  C   UNL A   1      31.868  30.398  25.536  1.00  0.00     0.003 A 
ATOM     27  C   UNL A   1      29.472  30.384  23.531  1.00  0.00    -0.001 A 
ATOM     28  C   UNL A   1      30.298  30.989  25.041  1.00  0.00     0.010 A 
BRANCH  27  29
ATOM     29  C   UNL A   1      28.554  31.575  23.344  1.00  0.00     0.072 C 
ATOM     30  O   UNL A   1      28.930  32.639  22.865  1.00  0.00    -0.545 OA
ATOM     31  O   UNL A   1      27.275  31.424  23.648  1.00  0.00    -0.545 OA
ENDBRANCH  27  29
ENDBRANCH  20  23
ENDBRANCH   4  16
ENDBRANCH   2   3
ENDBRANCH   1   2
BRANCH   1  32
ATOM     32  C   UNL A   1      36.119  21.344  25.255  1.00  0.00     0.119 C 
BRANCH  32  33
ATOM     33  N   UNL A   1      37.532  20.203  25.417  1.00  0.00    -0.352 N 
ATOM     34  C   UNL A   1      39.440  20.634  25.842  1.00  0.00     0.251 C 
ATOM     35  H   UNL A   1      37.330  19.250  25.276  1.00  0.00     0.163 HD
ATOM     36  O   UNL A   1      40.439  19.891  25.797  1.00  0.00    -0.269 OA
BRANCH  34  37
ATOM     37  C   UNL A   1      39.895  22.461  26.480  1.00  0.00     0.039 A 
ATOM     38  C   UNL A   1      40.460  22.827  27.682  1.00  0.00     0.014 A 
ATOM     39  C   UNL A   1      39.232  23.862  26.074  1.00  0.00     0.014 A 
ATOM     40  C   UNL A   1      40.217  24.296  28.337  1.00  0.00     0.010 A 
ATOM     41  C   UNL A   1      39.006  25.287  26.710  1.00  0.00     0.010 A 
ATOM     42  C   UNL A   1      39.449  25.605  27.962  1.00  0.00    -0.014 A 
BRANCH  42  43
ATOM     43  C   UNL A   1      39.349  27.183  28.888  1.00  0.00     0.031 A 
ATOM     44  C   UNL A   1      40.582  27.707  28.318  1.00  0.00     0.074 A 
ATOM     45  C   UNL A   1      38.939  28.142  29.997  1.00  0.00     0.049 A 
ATOM     46  N   UNL A   1      41.634  27.126  28.802  1.00  0.00    -0.248 NA
ATOM     47  C   UNL A   1      40.730  28.284  26.992  1.00  0.00     0.031 C 
ATOM     48  C   UNL A   1      38.198  27.931  31.299  1.00  0.00     0.029 A 
ATOM     49  N   UNL A   1      39.228  29.655  30.298  1.00  0.00    -0.354 N 
ATOM     50  C   UNL A   1      42.669  27.372  27.943  1.00  0.00     0.074 A 
ATOM     51  C   UNL A   1      42.035  28.032  26.791  1.00  0.00     0.031 C 
ATOM     52  C   UNL A   1      37.938  29.072  32.050  1.00  0.00     0.029 A 
ATOM     53  C   UNL A   1      38.479  30.327  31.486  1.00  0.00     0.049 A 
ATOM     54  H   UNL A   1      39.868  30.165  29.751  1.00  0.00     0.167 HD
ATOM     55  C   UNL A   1      43.804  27.635  28.631  1.00  0.00     0.037 A 
ATOM     56  C   UNL A   1      38.446  31.697  32.023  1.00  0.00     0.037 A 
ATOM     57  C   UNL A   1      43.721  29.006  29.060  1.00  0.00     0.049 A 
ATOM     58  C   UNL A   1      39.846  32.101  31.968  1.00  0.00     0.074 A 
ATOM     59  C   UNL A   1      43.199  30.126  28.425  1.00  0.00     0.029 A 
ATOM     60  N   UNL A   1      43.642  29.238  30.405  1.00  0.00    -0.354 N 
ATOM     61  N   UNL A   1      40.728  31.742  32.847  1.00  0.00    -0.248 NA
ATOM     62  C   UNL A   1      40.282  33.046  30.960  1.00  0.00     0.031 C 
ATOM     63  C   UNL A   1      42.367  30.709  29.390  1.00  0.00     0.029 A 
ATOM     64  C   UNL A   1      42.835  30.317  30.634  1.00  0.00     0.049 A 
ATOM     65  H   UNL A   1      44.095  28.709  31.102  1.00  0.00     0.167 HD
ATOM     66  C   UNL A   1      41.868  31.858  32.122  1.00  0.00     0.074 A 
ATOM     67  C   UNL A   1      41.594  32.862  31.097  1.00  0.00     0.031 C 
ATOM     68  C   UNL A   1      42.526  30.684  31.977  1.00  0.00     0.037 A 
BRANCH  55  69
ATOM     69  C   UNL A   1      44.135  26.446  29.541  1.00  0.00     0.064 A 
ATOM     70  C   UNL A   1      43.939  25.163  29.027  1.00  0.00     0.173 A 
ATOM     71  C   UNL A   1      44.450  26.526  30.927  1.00  0.00     0.173 A 
ATOM     72  F   UNL A   1      43.645  25.007  27.728  1.00  0.00    -0.203 F 
ATOM     73  C   UNL A   1      44.033  24.028  29.840  1.00  0.00     0.198 A 
ATOM     74  C   UNL A   1      44.475  25.398  31.747  1.00  0.00     0.198 A 
ATOM     75  F   UNL A   1      44.742  27.700  31.513  1.00  0.00    -0.203 F 
ATOM     76  F   UNL A   1      43.881  22.812  29.299  1.00  0.00    -0.200 F 
ATOM     77  C   UNL A   1      44.276  24.146  31.200  1.00  0.00     0.200 A 
ATOM     78  F   UNL A   1      44.692  25.532  33.064  1.00  0.00    -0.200 F 
ATOM     79  F   UNL A   1      44.341  23.057  31.978  1.00  0.00    -0.200 F 
ENDBRANCH  55  69
BRANCH  56  80
ATOM     80  C   UNL A   1      37.816  33.002  32.944  1.00  0.00     0.064 A 
ATOM     81  C   UNL A   1      36.917  34.044  32.401  1.00  0.00     0.173 A 
ATOM     82  C   UNL A   1      37.628  32.901  34.338  1.00  0.00     0.173 A 
ATOM     83  F   UNL A   1      36.923  34.380  31.104  1.00  0.00    -0.203 F 
ATOM     84  C   UNL A   1      35.921  34.763  33.136  1.00  0.00     0.198 A 
ATOM     85  C   UNL A   1      36.639  33.651  35.079  1.00  0.00     0.198 A 
ATOM     86  F   UNL A   1      38.345  32.010  35.030  1.00  0.00    -0.203 F 
ATOM     87  F   UNL A   1      35.075  35.607  32.513  1.00  0.00    -0.200 F 
ATOM     88  C   UNL A   1      35.765  34.546  34.478  1.00  0.00     0.200 A 
ATOM     89  F   UNL A   1      36.493  33.443  36.398  1.00  0.00    -0.200 F 
ATOM     90  F   UNL A   1      34.785  35.156  35.170  1.00  0.00    -0.200 F 
ENDBRANCH  56  80
BRANCH  68  91
ATOM     91  C   UNL A   1      42.758  29.845  33.211  1.00  0.00     0.064 A 
ATOM     92  C   UNL A   1      43.635  30.122  34.285  1.00  0.00     0.173 A 
ATOM     93  C   UNL A   1      42.084  28.618  33.264  1.00  0.00     0.173 A 
ATOM     94  F   UNL A   1      44.246  31.309  34.421  1.00  0.00    -0.203 F 
ATOM     95  C   UNL A   1      43.884  29.176  35.284  1.00  0.00     0.198 A 
ATOM     96  C   UNL A   1      42.286  27.705  34.291  1.00  0.00     0.198 A 
ATOM     97  F   UNL A   1      41.188  28.305  32.314  1.00  0.00    -0.203 F 
ATOM     98  F   UNL A   1      44.771  29.441  36.256  1.00  0.00    -0.200 F 
ATOM     99  C   UNL A   1      43.211  27.967  35.283  1.00  0.00     0.200 A 
ATOM    100  F   UNL A   1      41.573  26.572  34.314  1.00  0.00    -0.200 F 
ATOM    101  F   UNL A   1      43.439  27.062  36.244  1.00  0.00    -0.200 F 
ENDBRANCH  68  91
ENDBRANCH  42  43
ENDBRANCH  34  37
ENDBRANCH  32  33
ENDBRANCH   1  32
TORSDOF 12
ENDMDL
MODEL 2
REMARK VINA RESULT:     -16.5      3.314      6.125
REMARK SMILES Cc1cc(/C=C2/C(=O)NC(=S)[NH+]=C2NCCCNC(=O)c2ccc(-c3c4nc(c(-c5c(F)c(F)c(F)c(F)c5F)c5ccc([nH]5)c(-c5c(F)c(F)c(F)c(F)c5F)c5nc(c(-c6c(F)c(F)c(F)c(F)c6F)c6ccc3[nH]6)C=C5)C=C4)cc2)c(C)n1-c1cccc(C(=O)[O-])c1
REMARK SMILES IDX 16 1 15 2 14 3 5 4 6 5 7 6 13 7 8 8 9 9 12 10 10 11 11 15
REMARK SMILES IDX 4 16 1 17 2 18 3 19 86 20 84 21 85 22 87 23 88 24 95 25
REMARK SMILES IDX 89 26 91 27 90 28 92 29 93 30 94 31 17 32 18 33 19 34 20 36
REMARK SMILES IDX 21 37 22 38 83 39 23 40 82 41 24 42 25 43 26 44 76 45 27 46
REMARK SMILES IDX 81 47 75 48 77 49 28 50 80 51 74 52 73 53 29 55 61 56 41 57
REMARK SMILES IDX 60 58 42 59 45 60 59 61 78 62 43 63 44 64 58 66 79 67 46 68
REMARK SMILES IDX 30 69 31 70 39 71 32 72 33 73 37 74 40 75 34 76 35 77 38 78
REMARK SMILES IDX 36 79 62 80 63 81 71 82 64 83 65 84 69 85 72 86 66 87 67 88
REMARK SMILES IDX 70 89 68 90 47 91 48 92 56 93 49 94 50 95 54 96 57 97 51 98
REMARK SMILES IDX 52 99 55 100 53 101
REMARK H PARENT 9 12 12 13 14 14 18 35 77 54 45 65
REMARK Flexibility Score: inf
ROOT
ATOM      1  C   UNL A   1      36.154  23.739  25.247  1.00  0.00     0.059 C 
ENDROOT
BRANCH   1   2
ATOM      2  C   UNL A   1      34.855  24.244  24.777  1.00  0.00     0.195 C 
BRANCH   2   3
ATOM      3  N   UNL A   1      34.202  24.855  25.869  1.00  0.00    -0.305 N 
ATOM      4  C   UNL A   1      31.812  24.926  23.784  1.00  0.00     0.032 C 
ATOM      5  C   UNL A   1      32.437  25.943  24.453  1.00  0.00     0.128 C 
ATOM      6  C   UNL A   1      32.338  27.328  23.884  1.00  0.00     0.319 C 
ATOM      7  C   UNL A   1      33.411  25.905  25.589  1.00  0.00     0.234 C 
ATOM      8  O   UNL A   1      31.913  27.570  22.760  1.00  0.00    -0.250 OA
ATOM      9  N   UNL A   1      32.860  28.325  24.675  1.00  0.00    -0.229 N 
ATOM     10  N   UNL A   1      33.788  26.927  26.296  1.00  0.00    -0.236 N 
ATOM     11  C   UNL A   1      33.483  28.179  25.885  1.00  0.00     0.295 C 
ATOM     12  H   UNL A   1      32.777  29.244  24.333  1.00  0.00     0.268 HD
ATOM     13  H   UNL A   1      34.295  26.790  27.130  1.00  0.00     0.268 HD
ATOM     14  H   UNL A   1      34.320  24.528  26.790  1.00  0.00     0.256 HD
ATOM     15  S   UNL A   1      33.993  29.543  26.709  1.00  0.00    -0.005 S 
BRANCH   4  16
ATOM     16  C   UNL A   1      31.917  23.459  23.810  1.00  0.00    -0.003 A 
ATOM     17  C   UNL A   1      32.169  20.072  22.236  1.00  0.00     0.065 C 
ATOM     18  C   UNL A   1      32.236  21.311  23.056  1.00  0.00     0.020 A 
ATOM     19  C   UNL A   1      32.104  22.640  22.654  1.00  0.00     0.031 A 
ATOM     20  N   UNL A   1      32.470  21.344  24.435  1.00  0.00    -0.318 N 
ATOM     21  C   UNL A   1      31.709  22.516  24.821  1.00  0.00     0.027 A 
ATOM     22  C   UNL A   1      30.745  22.661  25.955  1.00  0.00     0.065 C 
BRANCH  20  23
ATOM     23  C   UNL A   1      33.078  20.199  25.255  1.00  0.00     0.046 A 
ATOM     24  C   UNL A   1      34.808  20.236  24.940  1.00  0.00     0.026 A 
ATOM     25  C   UNL A   1      32.227  18.538  25.338  1.00  0.00     0.036 A 
ATOM     26  C   UNL A   1      35.742  18.802  24.590  1.00  0.00     0.003 A 
ATOM     27  C   UNL A   1      33.252  16.934  24.857  1.00  0.00    -0.001 A 
ATOM     28  C   UNL A   1      35.023  17.210  24.514  1.00  0.00     0.010 A 
BRANCH  27  29
ATOM     29  C   UNL A   1      33.366  15.462  25.196  1.00  0.00     0.072 C 
ATOM     30  O   UNL A   1      34.440  14.871  25.255  1.00  0.00    -0.545 OA
ATOM     31  O   UNL A   1      32.258  14.812  25.510  1.00  0.00    -0.545 OA
ENDBRANCH  27  29
ENDBRANCH  20  23
ENDBRANCH   4  16
ENDBRANCH   2   3
ENDBRANCH   1   2
BRANCH   1  32
ATOM     32  C   UNL A   1      37.148  22.757  24.375  1.00  0.00     0.119 C 
BRANCH  32  33
ATOM     33  N   UNL A   1      38.027  21.415  25.243  1.00  0.00    -0.352 N 
ATOM     34  C   UNL A   1      39.740  21.511  26.273  1.00  0.00     0.251 C 
ATOM     35  H   UNL A   1      37.603  20.528  25.200  1.00  0.00     0.163 HD
ATOM     36  O   UNL A   1      40.431  20.581  26.731  1.00  0.00    -0.269 OA
BRANCH  34  37
ATOM     37  C   UNL A   1      40.498  23.293  26.719  1.00  0.00     0.039 A 
ATOM     38  C   UNL A   1      41.557  23.585  27.552  1.00  0.00     0.014 A 
ATOM     39  C   UNL A   1      39.774  24.723  26.719  1.00  0.00     0.014 A 
ATOM     40  C   UNL A   1      41.686  25.018  28.311  1.00  0.00     0.010 A 
ATOM     41  C   UNL A   1      39.908  26.112  27.453  1.00  0.00     0.010 A 
ATOM     42  C   UNL A   1      40.878  26.354  28.383  1.00  0.00    -0.014 A 
BRANCH  42  43
ATOM     43  C   UNL A   1      41.261  27.879  29.325  1.00  0.00     0.031 A 
ATOM     44  C   UNL A   1      41.857  28.552  28.179  1.00  0.00     0.074 A 
ATOM     45  C   UNL A   1      41.550  28.748  30.540  1.00  0.00     0.049 A 
ATOM     46  N   UNL A   1      43.021  28.070  27.877  1.00  0.00    -0.248 NA
ATOM     47  C   UNL A   1      41.133  29.187  27.092  1.00  0.00     0.031 C 
ATOM     48  C   UNL A   1      41.767  28.414  31.999  1.00  0.00     0.029 A 
ATOM     49  N   UNL A   1      41.866  30.272  30.746  1.00  0.00    -0.354 N 
ATOM     50  C   UNL A   1      43.303  28.455  26.595  1.00  0.00     0.074 A 
ATOM     51  C   UNL A   1      42.060  29.084  26.124  1.00  0.00     0.031 C 
ATOM     52  C   UNL A   1      41.946  29.494  32.858  1.00  0.00     0.029 A 
ATOM     53  C   UNL A   1      41.951  30.818  32.201  1.00  0.00     0.049 A 
ATOM     54  H   UNL A   1      42.007  30.866  29.974  1.00  0.00     0.167 HD
ATOM     55  C   UNL A   1      44.603  28.813  26.482  1.00  0.00     0.037 A 
ATOM     56  C   UNL A   1      42.165  32.157  32.775  1.00  0.00     0.037 A 
ATOM     57  C   UNL A   1      44.711  30.152  27.001  1.00  0.00     0.049 A 
ATOM     58  C   UNL A   1      43.214  32.710  31.927  1.00  0.00     0.074 A 
ATOM     59  C   UNL A   1      43.841  31.231  26.915  1.00  0.00     0.029 A 
ATOM     60  N   UNL A   1      45.451  30.326  28.137  1.00  0.00    -0.354 N 
ATOM     61  N   UNL A   1      44.469  32.416  32.060  1.00  0.00    -0.248 NA
ATOM     62  C   UNL A   1      42.887  33.732  30.952  1.00  0.00     0.031 C 
ATOM     63  C   UNL A   1      43.731  31.687  28.235  1.00  0.00     0.029 A 
ATOM     64  C   UNL A   1      44.883  31.304  28.904  1.00  0.00     0.049 A 
ATOM     65  H   UNL A   1      46.267  29.824  28.368  1.00  0.00     0.167 HD
ATOM     66  C   UNL A   1      44.924  32.679  30.810  1.00  0.00     0.074 A 
ATOM     67  C   UNL A   1      44.020  33.684  30.255  1.00  0.00     0.031 C 
ATOM     68  C   UNL A   1      45.431  31.588  30.190  1.00  0.00     0.037 A 
BRANCH  55  69
ATOM     69  C   UNL A   1      45.494  27.635  26.895  1.00  0.00     0.064 A 
ATOM     70  C   UNL A   1      46.119  26.909  25.879  1.00  0.00     0.173 A 
ATOM     71  C   UNL A   1      45.600  27.096  28.209  1.00  0.00     0.173 A 
ATOM     72  F   UNL A   1      46.069  27.357  24.617  1.00  0.00    -0.203 F 
ATOM     73  C   UNL A   1      46.795  25.713  26.146  1.00  0.00     0.198 A 
ATOM     74  C   UNL A   1      46.214  25.870  28.459  1.00  0.00     0.198 A 
ATOM     75  F   UNL A   1      45.110  27.751  29.276  1.00  0.00    -0.203 F 
ATOM     76  F   UNL A   1      47.419  25.069  25.151  1.00  0.00    -0.200 F 
ATOM     77  C   UNL A   1      46.821  25.182  27.427  1.00  0.00     0.200 A 
ATOM     78  F   UNL A   1      46.213  25.361  29.700  1.00  0.00    -0.200 F 
ATOM     79  F   UNL A   1      47.449  24.024  27.672  1.00  0.00    -0.200 F 
ENDBRANCH  55  69
BRANCH  56  80
ATOM     80  C   UNL A   1      42.143  33.354  34.006  1.00  0.00     0.064 A 
ATOM     81  C   UNL A   1      41.136  34.434  34.096  1.00  0.00     0.173 A 
ATOM     82  C   UNL A   1      42.683  33.109  35.285  1.00  0.00     0.173 A 
ATOM     83  F   UNL A   1      40.497  34.900  33.013  1.00  0.00    -0.203 F 
ATOM     84  C   UNL A   1      40.680  35.062  35.299  1.00  0.00     0.198 A 
ATOM     85  C   UNL A   1      42.238  33.768  36.493  1.00  0.00     0.198 A 
ATOM     86  F   UNL A   1      43.615  32.162  35.429  1.00  0.00    -0.203 F 
ATOM     87  F   UNL A   1      39.670  35.954  35.275  1.00  0.00    -0.200 F 
ATOM     88  C   UNL A   1      41.218  34.708  36.507  1.00  0.00     0.200 A 
ATOM     89  F   UNL A   1      42.773  33.425  37.676  1.00  0.00    -0.200 F 
ATOM     90  F   UNL A   1      40.750  35.233  37.654  1.00  0.00    -0.200 F 
ENDBRANCH  56  80
BRANCH  68  91
ATOM     91  C   UNL A   1      46.418  30.736  30.951  1.00  0.00     0.064 A 
ATOM     92  C   UNL A   1      46.143  29.575  31.709  1.00  0.00     0.173 A 
ATOM     93  C   UNL A   1      47.745  31.186  30.968  1.00  0.00     0.173 A 
ATOM     94  F   UNL A   1      44.947  28.969  31.680  1.00  0.00    -0.203 F 
ATOM     95  C   UNL A   1      47.124  28.977  32.507  1.00  0.00     0.198 A 
ATOM     96  C   UNL A   1      48.732  30.555  31.714  1.00  0.00     0.198 A 
ATOM     97  F   UNL A   1      48.102  32.247  30.227  1.00  0.00    -0.203 F 
ATOM     98  F   UNL A   1      46.818  27.915  33.268  1.00  0.00    -0.200 F 
ATOM     99  C   UNL A   1      48.416  29.472  32.511  1.00  0.00     0.200 A 
ATOM    100  F   UNL A   1      49.993  31.001  31.649  1.00  0.00    -0.200 F 
ATOM    101  F   UNL A   1      49.361  28.896  33.266  1.00  0.00    -0.200 F 
ENDBRANCH  68  91
ENDBRANCH  42  43
ENDBRANCH  34  37
ENDBRANCH  32  33
ENDBRANCH   1  32
TORSDOF 12
ENDMDL
MODEL 3
REMARK VINA RESULT:     -16.2      3.595      9.821
REMARK SMILES Cc1cc(/C=C2/C(=O)NC(=S)[NH+]=C2NCCCNC(=O)c2ccc(-c3c4nc(c(-c5c(F)c(F)c(F)c(F)c5F)c5ccc([nH]5)c(-c5c(F)c(F)c(F)c(F)c5F)c5nc(c(-c6c(F)c(F)c(F)c(F)c6F)c6ccc3[nH]6)C=C5)C=C4)cc2)c(C)n1-c1cccc(C(=O)[O-])c1
REMARK SMILES IDX 16 1 15 2 14 3 5 4 6 5 7 6 13 7 8 8 9 9 12 10 10 11 11 15
REMARK SMILES IDX 4 16 1 17 2 18 3 19 86 20 84 21 85 22 87 23 88 24 95 25
REMARK SMILES IDX 89 26 91 27 90 28 92 29 93 30 94 31 17 32 18 33 19 34 20 36
REMARK SMILES IDX 21 37 22 38 83 39 23 40 82 41 24 42 25 43 26 44 76 45 27 46
REMARK SMILES IDX 81 47 75 48 77 49 28 50 80 51 74 52 73 53 29 55 61 56 41 57
REMARK SMILES IDX 60 58 42 59 45 60 59 61 78 62 43 63 44 64 58 66 79 67 46 68
REMARK SMILES IDX 30 69 31 70 39 71 32 72 33 73 37 74 40 75 34 76 35 77 38 78
REMARK SMILES IDX 36 79 62 80 63 81 71 82 64 83 65 84 69 85 72 86 66 87 67 88
REMARK SMILES IDX 70 89 68 90 47 91 48 92 56 93 49 94 50 95 54 96 57 97 51 98
REMARK SMILES IDX 52 99 55 100 53 101
REMARK H PARENT 9 12 12 13 14 14 18 35 77 54 45 65
REMARK Flexibility Score: inf
ROOT
ATOM      1  C   UNL A   1      31.400  28.277  25.888  1.00  0.00     0.059 C 
ENDROOT
BRANCH   1   2
ATOM      2  C   UNL A   1      30.665  27.005  25.852  1.00  0.00     0.195 C 
BRANCH   2   3
ATOM      3  N   UNL A   1      29.797  27.031  24.738  1.00  0.00    -0.305 N 
ATOM      4  C   UNL A   1      32.357  25.810  23.317  1.00  0.00     0.032 C 
ATOM      5  C   UNL A   1      31.651  26.951  23.047  1.00  0.00     0.128 C 
ATOM      6  C   UNL A   1      32.337  28.041  22.278  1.00  0.00     0.319 C 
ATOM      7  C   UNL A   1      30.329  27.422  23.567  1.00  0.00     0.234 C 
ATOM      8  O   UNL A   1      33.543  28.059  22.058  1.00  0.00    -0.250 OA
ATOM      9  N   UNL A   1      31.533  29.096  21.913  1.00  0.00    -0.229 N 
ATOM     10  N   UNL A   1      29.640  28.416  23.095  1.00  0.00    -0.236 N 
ATOM     11  C   UNL A   1      30.209  29.266  22.209  1.00  0.00     0.295 C 
ATOM     12  H   UNL A   1      31.959  29.807  21.381  1.00  0.00     0.268 HD
ATOM     13  H   UNL A   1      28.707  28.552  23.380  1.00  0.00     0.268 HD
ATOM     14  H   UNL A   1      28.850  26.777  24.816  1.00  0.00     0.256 HD
ATOM     15  S   UNL A   1      29.404  30.606  21.609  1.00  0.00    -0.005 S 
BRANCH   4  16
ATOM     16  C   UNL A   1      32.190  24.696  24.262  1.00  0.00    -0.003 A 
ATOM     17  C   UNL A   1      30.190  22.225  26.239  1.00  0.00     0.065 C 
ATOM     18  C   UNL A   1      31.170  23.001  25.432  1.00  0.00     0.020 A 
ATOM     19  C   UNL A   1      30.944  24.062  24.555  1.00  0.00     0.031 A 
ATOM     20  N   UNL A   1      32.549  22.768  25.413  1.00  0.00    -0.318 N 
ATOM     21  C   UNL A   1      33.058  24.107  25.187  1.00  0.00     0.027 A 
ATOM     22  C   UNL A   1      34.160  24.811  25.911  1.00  0.00     0.065 C 
BRANCH  20  23
ATOM     23  C   UNL A   1      33.233  21.475  25.875  1.00  0.00     0.046 A 
ATOM     24  C   UNL A   1      34.954  21.831  25.951  1.00  0.00     0.026 A 
ATOM     25  C   UNL A   1      32.699  19.823  25.188  1.00  0.00     0.036 A 
ATOM     26  C   UNL A   1      36.176  20.761  25.309  1.00  0.00     0.003 A 
ATOM     27  C   UNL A   1      34.060  18.658  24.384  1.00  0.00    -0.001 A 
ATOM     28  C   UNL A   1      35.780  19.248  24.526  1.00  0.00     0.010 A 
BRANCH  27  29
ATOM     29  C   UNL A   1      34.393  17.192  24.190  1.00  0.00     0.072 C 
ATOM     30  O   UNL A   1      34.705  16.451  25.116  1.00  0.00    -0.545 OA
ATOM     31  O   UNL A   1      34.268  16.685  22.975  1.00  0.00    -0.545 OA
ENDBRANCH  27  29
ENDBRANCH  20  23
ENDBRANCH   4  16
ENDBRANCH   2   3
ENDBRANCH   1   2
BRANCH   1  32
ATOM     32  C   UNL A   1      31.670  29.164  27.249  1.00  0.00     0.119 C 
BRANCH  32  33
ATOM     33  N   UNL A   1      31.678  30.984  27.115  1.00  0.00    -0.352 N 
ATOM     34  C   UNL A   1      33.089  32.271  27.712  1.00  0.00     0.251 C 
ATOM     35  H   UNL A   1      30.884  31.384  26.693  1.00  0.00     0.163 HD
ATOM     36  O   UNL A   1      33.039  33.514  27.773  1.00  0.00    -0.269 OA
BRANCH  34  37
ATOM     37  C   UNL A   1      34.867  31.567  28.254  1.00  0.00     0.039 A 
ATOM     38  C   UNL A   1      36.114  32.025  27.884  1.00  0.00     0.014 A 
ATOM     39  C   UNL A   1      35.267  30.083  28.706  1.00  0.00     0.014 A 
ATOM     40  C   UNL A   1      37.417  31.053  27.862  1.00  0.00     0.010 A 
ATOM     41  C   UNL A   1      36.536  29.147  28.689  1.00  0.00     0.010 A 
ATOM     42  C   UNL A   1      37.739  29.559  28.193  1.00  0.00    -0.014 A 
BRANCH  42  43
ATOM     43  C   UNL A   1      39.347  28.684  28.107  1.00  0.00     0.031 A 
ATOM     44  C   UNL A   1      39.626  28.857  29.526  1.00  0.00     0.074 A 
ATOM     45  C   UNL A   1      40.616  28.130  27.477  1.00  0.00     0.049 A 
ATOM     46  N   UNL A   1      39.949  30.077  29.818  1.00  0.00    -0.248 NA
ATOM     47  C   UNL A   1      39.052  28.076  30.609  1.00  0.00     0.031 C 
ATOM     48  C   UNL A   1      41.214  28.281  26.095  1.00  0.00     0.029 A 
ATOM     49  N   UNL A   1      41.847  27.322  28.023  1.00  0.00    -0.354 N 
ATOM     50  C   UNL A   1      39.787  30.230  31.168  1.00  0.00     0.074 A 
ATOM     51  C   UNL A   1      39.152  28.976  31.601  1.00  0.00     0.031 C 
ATOM     52  C   UNL A   1      42.379  27.563  25.847  1.00  0.00     0.029 A 
ATOM     53  C   UNL A   1      42.896  26.794  27.000  1.00  0.00     0.049 A 
ATOM     54  H   UNL A   1      41.952  27.154  28.986  1.00  0.00     0.167 HD
ATOM     55  C   UNL A   1      40.798  30.965  31.687  1.00  0.00     0.037 A 
ATOM     56  C   UNL A   1      44.113  25.976  27.122  1.00  0.00     0.037 A 
ATOM     57  C   UNL A   1      41.921  30.078  31.835  1.00  0.00     0.049 A 
ATOM     58  C   UNL A   1      44.748  26.514  28.319  1.00  0.00     0.074 A 
ATOM     59  C   UNL A   1      41.978  28.740  32.202  1.00  0.00     0.029 A 
ATOM     60  N   UNL A   1      43.023  30.327  31.064  1.00  0.00    -0.354 N 
ATOM     61  N   UNL A   1      45.442  27.607  28.330  1.00  0.00    -0.248 NA
ATOM     62  C   UNL A   1      44.719  25.751  29.551  1.00  0.00     0.031 C 
ATOM     63  C   UNL A   1      42.784  28.150  31.220  1.00  0.00     0.029 A 
ATOM     64  C   UNL A   1      43.600  29.143  30.701  1.00  0.00     0.049 A 
ATOM     65  H   UNL A   1      43.349  31.220  30.810  1.00  0.00     0.167 HD
ATOM     66  C   UNL A   1      45.331  27.964  29.633  1.00  0.00     0.074 A 
ATOM     67  C   UNL A   1      45.108  26.724  30.373  1.00  0.00     0.031 C 
ATOM     68  C   UNL A   1      44.712  29.155  29.807  1.00  0.00     0.037 A 
BRANCH  55  69
ATOM     69  C   UNL A   1      40.842  32.332  30.993  1.00  0.00     0.064 A 
ATOM     70  C   UNL A   1      39.623  32.926  30.657  1.00  0.00     0.173 A 
ATOM     71  C   UNL A   1      42.012  32.972  30.495  1.00  0.00     0.173 A 
ATOM     72  F   UNL A   1      38.478  32.385  31.095  1.00  0.00    -0.203 F 
ATOM     73  C   UNL A   1      39.567  34.076  29.860  1.00  0.00     0.198 A 
ATOM     74  C   UNL A   1      41.947  34.076  29.646  1.00  0.00     0.198 A 
ATOM     75  F   UNL A   1      43.241  32.539  30.825  1.00  0.00    -0.203 F 
ATOM     76  F   UNL A   1      38.381  34.640  29.596  1.00  0.00    -0.200 F 
ATOM     77  C   UNL A   1      40.723  34.635  29.337  1.00  0.00     0.200 A 
ATOM     78  F   UNL A   1      43.074  34.593  29.131  1.00  0.00    -0.200 F 
ATOM     79  F   UNL A   1      40.661  35.721  28.554  1.00  0.00    -0.200 F 
ENDBRANCH  55  69
BRANCH  56  80
ATOM     80  C   UNL A   1      45.389  24.975  26.557  1.00  0.00     0.064 A 
ATOM     81  C   UNL A   1      45.383  23.498  26.637  1.00  0.00     0.173 A 
ATOM     82  C   UNL A   1      46.243  25.384  25.512  1.00  0.00     0.173 A 
ATOM     83  F   UNL A   1      44.688  22.841  27.577  1.00  0.00    -0.203 F 
ATOM     84  C   UNL A   1      46.038  22.603  25.732  1.00  0.00     0.198 A 
ATOM     85  C   UNL A   1      46.924  24.474  24.619  1.00  0.00     0.198 A 
ATOM     86  F   UNL A   1      46.391  26.689  25.264  1.00  0.00    -0.203 F 
ATOM     87  F   UNL A   1      45.867  21.270  25.831  1.00  0.00    -0.200 F 
ATOM     88  C   UNL A   1      46.792  23.095  24.702  1.00  0.00     0.200 A 
ATOM     89  F   UNL A   1      47.671  24.959  23.613  1.00  0.00    -0.200 F 
ATOM     90  F   UNL A   1      47.353  22.271  23.798  1.00  0.00    -0.200 F 
ENDBRANCH  56  80
BRANCH  68  91
ATOM     91  C   UNL A   1      45.175  30.322  28.970  1.00  0.00     0.064 A 
ATOM     92  C   UNL A   1      44.559  30.844  27.809  1.00  0.00     0.173 A 
ATOM     93  C   UNL A   1      46.392  30.910  29.342  1.00  0.00     0.173 A 
ATOM     94  F   UNL A   1      43.337  30.459  27.415  1.00  0.00    -0.203 F 
ATOM     95  C   UNL A   1      45.186  31.821  27.029  1.00  0.00     0.198 A 
ATOM     96  C   UNL A   1      46.983  31.924  28.598  1.00  0.00     0.198 A 
ATOM     97  F   UNL A   1      47.012  30.513  30.464  1.00  0.00    -0.203 F 
ATOM     98  F   UNL A   1      44.608  32.251  25.896  1.00  0.00    -0.200 F 
ATOM     99  C   UNL A   1      46.400  32.356  27.423  1.00  0.00     0.200 A 
ATOM    100  F   UNL A   1      48.120  32.482  29.033  1.00  0.00    -0.200 F 
ATOM    101  F   UNL A   1      46.998  33.299  26.684  1.00  0.00    -0.200 F 
ENDBRANCH  68  91
ENDBRANCH  42  43
ENDBRANCH  34  37
ENDBRANCH  32  33
ENDBRANCH   1  32
TORSDOF 12
ENDMDL
