MODEL 1
REMARK VINA RESULT:     -13.2      0.000      0.000
REMARK SMILES CC(C)[N@@H+](C)Cc1cc2c(cc1Cl)C=C(C(=O)NCCCNC(=O)c1ccc(-c3c4nc(c(-c5c(F)c(F)c(F)c(F)c5F)c5ccc([nH]5)c(-c5c(F)c(F)c(F)c(F)c5F)c5nc(c(-c6c(F)c(F)c(F)c(F)c6F)c6ccc3[nH]6)C=C5)C=C4)cc1)[C@@H](C(F)(F)F)O2
REMARK SMILES IDX 19 1 18 2 16 3 17 4 15 6 7 7 8 8 12 9 9 10 11 11 13 12 10 13
REMARK SMILES IDX 93 14 14 15 88 16 6 17 4 18 5 19 2 21 1 22 3 23 89 24 90 25
REMARK SMILES IDX 91 26 92 27 20 28 21 29 22 30 23 31 24 33 25 34 26 35 87 36
REMARK SMILES IDX 27 37 86 38 28 39 29 40 30 41 80 42 31 43 85 44 79 45 81 46
REMARK SMILES IDX 32 47 84 48 78 49 77 50 33 52 65 53 45 54 64 55 46 56 49 57
REMARK SMILES IDX 63 58 82 59 47 60 48 61 62 63 83 64 50 65 34 66 35 67 43 68
REMARK SMILES IDX 36 69 37 70 41 71 44 72 38 73 39 74 42 75 40 76 66 77 67 78
REMARK SMILES IDX 75 79 68 80 69 81 73 82 76 83 70 84 71 85 74 86 72 87 51 88
REMARK SMILES IDX 52 89 60 90 53 91 54 92 58 93 61 94 55 95 56 96 59 97 57 98
REMARK H PARENT 18 5 4 20 22 32 81 51 49 62
REMARK Flexibility Score: inf
ROOT
ATOM      1  C   UNL A   1      31.668  30.737  26.284  1.00  0.00     0.118 C 
ENDROOT
BRANCH   1   2
ATOM      2  N   UNL A   1      31.123  30.429  24.973  1.00  0.00    -0.352 N 
ATOM      3  C   UNL A   1      30.971  29.330  24.199  1.00  0.00     0.251 C 
ATOM      4  O   UNL A   1      30.426  29.524  23.109  1.00  0.00    -0.270 OA
ATOM      5  H   UNL A   1      30.770  31.234  24.529  1.00  0.00     0.163 HD
BRANCH   3   6
ATOM      6  C   UNL A   1      31.420  27.959  24.569  1.00  0.00     0.067 C 
ATOM      7  C   UNL A   1      31.557  23.065  25.796  1.00  0.00     0.029 A 
ATOM      8  C   UNL A   1      32.419  23.950  25.132  1.00  0.00     0.058 A 
ATOM      9  C   UNL A   1      30.383  23.598  26.361  1.00  0.00     0.050 A 
ATOM     10  C   UNL A   1      32.062  25.275  24.925  1.00  0.00     0.128 A 
ATOM     11  C   UNL A   1      30.023  24.937  26.144  1.00  0.00     0.033 A 
ATOM     12  Cl  UNL A   1      29.312  22.660  27.340  1.00  0.00    -0.084 Cl
ATOM     13  C   UNL A   1      30.851  25.772  25.399  1.00  0.00     0.019 A 
ATOM     14  O   UNL A   1      32.933  26.032  24.195  1.00  0.00    -0.475 OA
ATOM     15  C   UNL A   1      30.471  27.137  25.058  1.00  0.00     0.025 C 
ATOM     16  C   UNL A   1      32.830  27.461  24.426  1.00  0.00     0.314 C 
BRANCH   7  17
ATOM     17  C   UNL A   1      31.928  21.597  25.841  1.00  0.00     0.300 C 
BRANCH  17  18
ATOM     18  N   UNL A   1      33.086  21.219  26.671  1.00  0.00    -0.332 N 
ATOM     19  C   UNL A   1      33.327  22.070  27.831  1.00  0.00     0.333 C 
ATOM     20  H   UNL A   1      32.720  20.334  27.022  1.00  0.00     0.348 HD
BRANCH  18  21
ATOM     21  C   UNL A   1      34.328  20.782  26.014  1.00  0.00     0.177 C 
ATOM     22  C   UNL A   1      34.064  20.203  24.621  1.00  0.00     0.075 C 
ATOM     23  C   UNL A   1      35.473  21.800  25.966  1.00  0.00     0.075 C 
ENDBRANCH  18  21
ENDBRANCH  17  18
ENDBRANCH   7  17
BRANCH  16  24
ATOM     24  C   UNL A   1      33.724  27.858  25.619  1.00  0.00     0.429 C 
ATOM     25  F   UNL A   1      34.359  29.028  25.360  1.00  0.00    -0.167 F 
ATOM     26  F   UNL A   1      33.013  28.048  26.756  1.00  0.00    -0.167 F 
ATOM     27  F   UNL A   1      34.670  26.936  25.901  1.00  0.00    -0.167 F 
ENDBRANCH  16  24
ENDBRANCH   3   6
ENDBRANCH   1   2
BRANCH   1  28
ATOM     28  C   UNL A   1      31.431  32.188  26.669  1.00  0.00     0.042 C 
BRANCH  28  29
ATOM     29  C   UNL A   1      32.662  32.824  27.296  1.00  0.00     0.118 C 
BRANCH  29  30
ATOM     30  N   UNL A   1      32.428  34.216  27.675  1.00  0.00    -0.352 N 
ATOM     31  C   UNL A   1      33.002  34.979  28.663  1.00  0.00     0.251 C 
ATOM     32  H   UNL A   1      31.750  34.683  27.136  1.00  0.00     0.163 HD
ATOM     33  O   UNL A   1      32.512  36.063  28.963  1.00  0.00    -0.269 OA
BRANCH  31  34
ATOM     34  C   UNL A   1      34.197  34.485  29.374  1.00  0.00     0.039 A 
ATOM     35  C   UNL A   1      35.464  34.652  28.818  1.00  0.00     0.014 A 
ATOM     36  C   UNL A   1      34.052  33.846  30.609  1.00  0.00     0.014 A 
ATOM     37  C   UNL A   1      36.551  34.009  29.387  1.00  0.00     0.010 A 
ATOM     38  C   UNL A   1      35.170  33.299  31.242  1.00  0.00     0.010 A 
ATOM     39  C   UNL A   1      36.422  33.332  30.611  1.00  0.00    -0.014 A 
BRANCH  39  40
ATOM     40  C   UNL A   1      37.620  32.673  31.190  1.00  0.00     0.031 A 
ATOM     41  C   UNL A   1      38.083  33.006  32.582  1.00  0.00     0.074 A 
ATOM     42  C   UNL A   1      38.225  31.694  30.487  1.00  0.00     0.049 A 
ATOM     43  N   UNL A   1      39.078  32.494  33.263  1.00  0.00    -0.248 NA
ATOM     44  C   UNL A   1      37.338  34.048  33.308  1.00  0.00     0.031 C 
ATOM     45  C   UNL A   1      37.842  31.270  29.138  1.00  0.00     0.029 A 
ATOM     46  N   UNL A   1      39.247  30.844  30.823  1.00  0.00    -0.354 N 
ATOM     47  C   UNL A   1      39.086  33.157  34.484  1.00  0.00     0.074 A 
ATOM     48  C   UNL A   1      38.019  34.132  34.443  1.00  0.00     0.031 C 
ATOM     49  C   UNL A   1      38.552  30.184  28.800  1.00  0.00     0.029 A 
ATOM     50  C   UNL A   1      39.496  29.886  29.870  1.00  0.00     0.049 A 
ATOM     51  H   UNL A   1      39.752  30.913  31.664  1.00  0.00     0.167 HD
ATOM     52  C   UNL A   1      39.901  32.955  35.546  1.00  0.00     0.037 A 
ATOM     53  C   UNL A   1      40.393  28.882  29.856  1.00  0.00     0.037 A 
ATOM     54  C   UNL A   1      40.943  31.964  35.589  1.00  0.00     0.049 A 
ATOM     55  C   UNL A   1      41.321  28.726  31.025  1.00  0.00     0.074 A 
ATOM     56  C   UNL A   1      41.835  31.694  36.613  1.00  0.00     0.029 A 
ATOM     57  N   UNL A   1      41.225  31.071  34.566  1.00  0.00    -0.354 N 
ATOM     58  N   UNL A   1      41.338  29.382  32.159  1.00  0.00    -0.248 NA
ATOM     59  C   UNL A   1      42.370  27.705  30.903  1.00  0.00     0.031 C 
ATOM     60  C   UNL A   1      42.676  30.658  36.199  1.00  0.00     0.029 A 
ATOM     61  C   UNL A   1      42.284  30.256  34.932  1.00  0.00     0.049 A 
ATOM     62  H   UNL A   1      40.745  31.024  33.709  1.00  0.00     0.167 HD
ATOM     63  C   UNL A   1      42.390  28.851  32.889  1.00  0.00     0.074 A 
ATOM     64  C   UNL A   1      42.973  27.799  32.080  1.00  0.00     0.031 C 
ATOM     65  C   UNL A   1      42.842  29.210  34.114  1.00  0.00     0.037 A 
BRANCH  52  66
ATOM     66  C   UNL A   1      39.701  33.815  36.758  1.00  0.00     0.064 A 
ATOM     67  C   UNL A   1      40.260  35.098  36.844  1.00  0.00     0.173 A 
ATOM     68  C   UNL A   1      38.876  33.387  37.810  1.00  0.00     0.173 A 
ATOM     69  F   UNL A   1      41.067  35.549  35.871  1.00  0.00    -0.203 F 
ATOM     70  C   UNL A   1      40.008  35.918  37.941  1.00  0.00     0.198 A 
ATOM     71  C   UNL A   1      38.606  34.219  38.893  1.00  0.00     0.198 A 
ATOM     72  F   UNL A   1      38.313  32.170  37.774  1.00  0.00    -0.203 F 
ATOM     73  F   UNL A   1      40.573  37.132  38.013  1.00  0.00    -0.200 F 
ATOM     74  C   UNL A   1      39.173  35.482  38.959  1.00  0.00     0.200 A 
ATOM     75  F   UNL A   1      37.790  33.800  39.871  1.00  0.00    -0.200 F 
ATOM     76  F   UNL A   1      38.915  36.281  40.005  1.00  0.00    -0.200 F 
ENDBRANCH  52  66
BRANCH  53  77
ATOM     77  C   UNL A   1      40.450  27.952  28.698  1.00  0.00     0.064 A 
ATOM     78  C   UNL A   1      39.756  26.735  28.722  1.00  0.00     0.173 A 
ATOM     79  C   UNL A   1      41.186  28.262  27.545  1.00  0.00     0.173 A 
ATOM     80  F   UNL A   1      39.054  26.385  29.810  1.00  0.00    -0.203 F 
ATOM     81  C   UNL A   1      39.801  25.861  27.638  1.00  0.00     0.198 A 
ATOM     82  C   UNL A   1      41.206  27.401  26.450  1.00  0.00     0.198 A 
ATOM     83  F   UNL A   1      41.868  29.415  27.473  1.00  0.00    -0.203 F 
ATOM     84  F   UNL A   1      39.157  24.687  27.700  1.00  0.00    -0.200 F 
ATOM     85  C   UNL A   1      40.519  26.198  26.500  1.00  0.00     0.200 A 
ATOM     86  F   UNL A   1      41.887  27.740  25.348  1.00  0.00    -0.200 F 
ATOM     87  F   UNL A   1      40.554  25.361  25.454  1.00  0.00    -0.200 F 
ENDBRANCH  53  77
BRANCH  65  88
ATOM     88  C   UNL A   1      44.013  28.454  34.664  1.00  0.00     0.064 A 
ATOM     89  C   UNL A   1      45.324  28.918  34.490  1.00  0.00     0.173 A 
ATOM     90  C   UNL A   1      43.817  27.295  35.428  1.00  0.00     0.173 A 
ATOM     91  F   UNL A   1      45.560  30.014  33.754  1.00  0.00    -0.203 F 
ATOM     92  C   UNL A   1      46.401  28.239  35.052  1.00  0.00     0.198 A 
ATOM     93  C   UNL A   1      44.894  26.633  36.010  1.00  0.00     0.198 A 
ATOM     94  F   UNL A   1      42.578  26.818  35.628  1.00  0.00    -0.203 F 
ATOM     95  F   UNL A   1      47.649  28.680  34.847  1.00  0.00    -0.200 F 
ATOM     96  C   UNL A   1      46.184  27.104  35.819  1.00  0.00     0.200 A 
ATOM     97  F   UNL A   1      44.682  25.544  36.761  1.00  0.00    -0.200 F 
ATOM     98  F   UNL A   1      47.221  26.459  36.371  1.00  0.00    -0.200 F 
ENDBRANCH  65  88
ENDBRANCH  39  40
ENDBRANCH  31  34
ENDBRANCH  29  30
ENDBRANCH  28  29
ENDBRANCH   1  28
TORSDOF 14
ENDMDL
MODEL 2
REMARK VINA RESULT:     -13.2      1.423      2.099
REMARK SMILES CC(C)[N@@H+](C)Cc1cc2c(cc1Cl)C=C(C(=O)NCCCNC(=O)c1ccc(-c3c4nc(c(-c5c(F)c(F)c(F)c(F)c5F)c5ccc([nH]5)c(-c5c(F)c(F)c(F)c(F)c5F)c5nc(c(-c6c(F)c(F)c(F)c(F)c6F)c6ccc3[nH]6)C=C5)C=C4)cc1)[C@@H](C(F)(F)F)O2
REMARK SMILES IDX 19 1 18 2 16 3 17 4 15 6 7 7 8 8 12 9 9 10 11 11 13 12 10 13
REMARK SMILES IDX 93 14 14 15 88 16 6 17 4 18 5 19 2 21 1 22 3 23 89 24 90 25
REMARK SMILES IDX 91 26 92 27 20 28 21 29 22 30 23 31 24 33 25 34 26 35 87 36
REMARK SMILES IDX 27 37 86 38 28 39 29 40 30 41 80 42 31 43 85 44 79 45 81 46
REMARK SMILES IDX 32 47 84 48 78 49 77 50 33 52 65 53 45 54 64 55 46 56 49 57
REMARK SMILES IDX 63 58 82 59 47 60 48 61 62 63 83 64 50 65 34 66 35 67 43 68
REMARK SMILES IDX 36 69 37 70 41 71 44 72 38 73 39 74 42 75 40 76 66 77 67 78
REMARK SMILES IDX 75 79 68 80 69 81 73 82 76 83 70 84 71 85 74 86 72 87 51 88
REMARK SMILES IDX 52 89 60 90 53 91 54 92 58 93 61 94 55 95 56 96 59 97 57 98
REMARK H PARENT 18 5 4 20 22 32 81 51 49 62
REMARK Flexibility Score: inf
ROOT
ATOM      1  C   UNL A   1      31.673  30.608  26.347  1.00  0.00     0.118 C 
ENDROOT
BRANCH   1   2
ATOM      2  N   UNL A   1      31.226  30.294  25.000  1.00  0.00    -0.352 N 
ATOM      3  C   UNL A   1      31.096  29.185  24.236  1.00  0.00     0.251 C 
ATOM      4  O   UNL A   1      30.651  29.378  23.101  1.00  0.00    -0.270 OA
ATOM      5  H   UNL A   1      30.943  31.102  24.515  1.00  0.00     0.163 HD
BRANCH   3   6
ATOM      6  C   UNL A   1      31.460  27.807  24.666  1.00  0.00     0.067 C 
ATOM      7  C   UNL A   1      33.952  23.732  26.297  1.00  0.00     0.029 A 
ATOM      8  C   UNL A   1      32.625  24.182  26.365  1.00  0.00     0.058 A 
ATOM      9  C   UNL A   1      34.863  24.498  25.544  1.00  0.00     0.050 A 
ATOM     10  C   UNL A   1      32.256  25.404  25.821  1.00  0.00     0.128 A 
ATOM     11  C   UNL A   1      34.487  25.736  25.002  1.00  0.00     0.033 A 
ATOM     12  Cl  UNL A   1      36.485  23.985  25.244  1.00  0.00    -0.084 Cl
ATOM     13  C   UNL A   1      33.186  26.206  25.165  1.00  0.00     0.019 A 
ATOM     14  O   UNL A   1      30.960  25.787  26.014  1.00  0.00    -0.475 OA
ATOM     15  C   UNL A   1      32.777  27.529  24.712  1.00  0.00     0.025 C 
ATOM     16  C   UNL A   1      30.465  26.746  25.044  1.00  0.00     0.314 C 
BRANCH   7  17
ATOM     17  C   UNL A   1      34.326  22.475  27.054  1.00  0.00     0.300 C 
BRANCH  17  18
ATOM     18  N   UNL A   1      34.379  21.217  26.288  1.00  0.00    -0.332 N 
ATOM     19  C   UNL A   1      35.646  20.947  25.618  1.00  0.00     0.333 C 
ATOM     20  H   UNL A   1      34.315  20.573  27.076  1.00  0.00     0.348 HD
BRANCH  18  21
ATOM     21  C   UNL A   1      33.212  20.815  25.487  1.00  0.00     0.177 C 
ATOM     22  C   UNL A   1      33.305  21.325  24.046  1.00  0.00     0.075 C 
ATOM     23  C   UNL A   1      32.847  19.327  25.507  1.00  0.00     0.075 C 
ENDBRANCH  18  21
ENDBRANCH  17  18
ENDBRANCH   7  17
BRANCH  16  24
ATOM     24  C   UNL A   1      29.901  25.999  23.818  1.00  0.00     0.429 C 
ATOM     25  F   UNL A   1      28.586  26.289  23.655  1.00  0.00    -0.167 F 
ATOM     26  F   UNL A   1      30.520  26.354  22.666  1.00  0.00    -0.167 F 
ATOM     27  F   UNL A   1      30.011  24.656  23.921  1.00  0.00    -0.167 F 
ENDBRANCH  16  24
ENDBRANCH   3   6
ENDBRANCH   1   2
BRANCH   1  28
ATOM     28  C   UNL A   1      31.438  32.070  26.694  1.00  0.00     0.042 C 
BRANCH  28  29
ATOM     29  C   UNL A   1      32.688  32.734  27.253  1.00  0.00     0.118 C 
BRANCH  29  30
ATOM     30  N   UNL A   1      32.448  34.126  27.629  1.00  0.00    -0.352 N 
ATOM     31  C   UNL A   1      33.018  34.892  28.617  1.00  0.00     0.251 C 
ATOM     32  H   UNL A   1      31.768  34.589  27.088  1.00  0.00     0.163 HD
ATOM     33  O   UNL A   1      32.523  35.975  28.913  1.00  0.00    -0.269 OA
BRANCH  31  34
ATOM     34  C   UNL A   1      34.213  34.405  29.330  1.00  0.00     0.039 A 
ATOM     35  C   UNL A   1      35.486  34.644  28.814  1.00  0.00     0.014 A 
ATOM     36  C   UNL A   1      34.063  33.698  30.528  1.00  0.00     0.014 A 
ATOM     37  C   UNL A   1      36.582  34.010  29.376  1.00  0.00     0.010 A 
ATOM     38  C   UNL A   1      35.186  33.159  31.159  1.00  0.00     0.010 A 
ATOM     39  C   UNL A   1      36.450  33.267  30.561  1.00  0.00    -0.014 A 
BRANCH  39  40
ATOM     40  C   UNL A   1      37.658  32.622  31.134  1.00  0.00     0.031 A 
ATOM     41  C   UNL A   1      38.123  32.960  32.525  1.00  0.00     0.074 A 
ATOM     42  C   UNL A   1      38.270  31.649  30.429  1.00  0.00     0.049 A 
ATOM     43  N   UNL A   1      39.126  32.459  33.202  1.00  0.00    -0.248 NA
ATOM     44  C   UNL A   1      37.370  33.994  33.254  1.00  0.00     0.031 C 
ATOM     45  C   UNL A   1      37.886  31.221  29.081  1.00  0.00     0.029 A 
ATOM     46  N   UNL A   1      39.303  30.811  30.760  1.00  0.00    -0.354 N 
ATOM     47  C   UNL A   1      39.132  33.121  34.422  1.00  0.00     0.074 A 
ATOM     48  C   UNL A   1      38.055  34.085  34.386  1.00  0.00     0.031 C 
ATOM     49  C   UNL A   1      38.606  30.143  28.741  1.00  0.00     0.029 A 
ATOM     50  C   UNL A   1      39.558  29.855  29.806  1.00  0.00     0.049 A 
ATOM     51  H   UNL A   1      39.811  30.885  31.599  1.00  0.00     0.167 HD
ATOM     52  C   UNL A   1      39.954  32.928  35.480  1.00  0.00     0.037 A 
ATOM     53  C   UNL A   1      40.466  28.861  29.789  1.00  0.00     0.037 A 
ATOM     54  C   UNL A   1      41.008  31.949  35.519  1.00  0.00     0.049 A 
ATOM     55  C   UNL A   1      41.401  28.715  30.953  1.00  0.00     0.074 A 
ATOM     56  C   UNL A   1      41.906  31.689  36.539  1.00  0.00     0.029 A 
ATOM     57  N   UNL A   1      41.295  31.059  34.495  1.00  0.00    -0.354 N 
ATOM     58  N   UNL A   1      41.415  29.371  32.087  1.00  0.00    -0.248 NA
ATOM     59  C   UNL A   1      42.460  27.706  30.827  1.00  0.00     0.031 C 
ATOM     60  C   UNL A   1      42.757  30.662  36.121  1.00  0.00     0.029 A 
ATOM     61  C   UNL A   1      42.364  30.255  34.856  1.00  0.00     0.049 A 
ATOM     62  H   UNL A   1      40.812  31.007  33.639  1.00  0.00     0.167 HD
ATOM     63  C   UNL A   1      42.477  28.852  32.812  1.00  0.00     0.074 A 
ATOM     64  C   UNL A   1      43.067  27.807  32.001  1.00  0.00     0.031 C 
ATOM     65  C   UNL A   1      42.930  29.215  34.035  1.00  0.00     0.037 A 
BRANCH  52  66
ATOM     66  C   UNL A   1      39.751  33.786  36.694  1.00  0.00     0.064 A 
ATOM     67  C   UNL A   1      40.318  35.065  36.788  1.00  0.00     0.173 A 
ATOM     68  C   UNL A   1      38.914  33.360  37.737  1.00  0.00     0.173 A 
ATOM     69  F   UNL A   1      41.137  35.513  35.824  1.00  0.00    -0.203 F 
ATOM     70  C   UNL A   1      40.062  35.883  37.885  1.00  0.00     0.198 A 
ATOM     71  C   UNL A   1      38.640  34.191  38.821  1.00  0.00     0.198 A 
ATOM     72  F   UNL A   1      38.342  32.148  37.693  1.00  0.00    -0.203 F 
ATOM     73  F   UNL A   1      40.636  37.092  37.966  1.00  0.00    -0.200 F 
ATOM     74  C   UNL A   1      39.215  35.450  38.895  1.00  0.00     0.200 A 
ATOM     75  F   UNL A   1      37.812  33.776  39.790  1.00  0.00    -0.200 F 
ATOM     76  F   UNL A   1      38.955  36.247  39.941  1.00  0.00    -0.200 F 
ENDBRANCH  52  66
BRANCH  53  77
ATOM     77  C   UNL A   1      40.528  27.932  28.630  1.00  0.00     0.064 A 
ATOM     78  C   UNL A   1      39.823  26.721  28.644  1.00  0.00     0.173 A 
ATOM     79  C   UNL A   1      41.280  28.236  27.485  1.00  0.00     0.173 A 
ATOM     80  F   UNL A   1      39.106  26.376  29.724  1.00  0.00    -0.203 F 
ATOM     81  C   UNL A   1      39.873  25.848  27.560  1.00  0.00     0.198 A 
ATOM     82  C   UNL A   1      41.305  27.377  26.390  1.00  0.00     0.198 A 
ATOM     83  F   UNL A   1      41.972  29.383  27.423  1.00  0.00    -0.203 F 
ATOM     84  F   UNL A   1      39.218  24.680  27.613  1.00  0.00    -0.200 F 
ATOM     85  C   UNL A   1      40.607  26.179  26.431  1.00  0.00     0.200 A 
ATOM     86  F   UNL A   1      42.002  27.710  25.296  1.00  0.00    -0.200 F 
ATOM     87  F   UNL A   1      40.646  25.343  25.385  1.00  0.00    -0.200 F 
ENDBRANCH  53  77
BRANCH  65  88
ATOM     88  C   UNL A   1      44.111  28.473  34.580  1.00  0.00     0.064 A 
ATOM     89  C   UNL A   1      43.952  27.276  35.293  1.00  0.00     0.173 A 
ATOM     90  C   UNL A   1      45.414  28.925  34.330  1.00  0.00     0.173 A 
ATOM     91  F   UNL A   1      42.723  26.813  35.568  1.00  0.00    -0.203 F 
ATOM     92  C   UNL A   1      45.058  26.564  35.747  1.00  0.00     0.198 A 
ATOM     93  C   UNL A   1      46.518  28.197  34.763  1.00  0.00     0.198 A 
ATOM     94  F   UNL A   1      45.616  30.062  33.645  1.00  0.00    -0.203 F 
ATOM     95  F   UNL A   1      44.883  25.439  36.453  1.00  0.00    -0.200 F 
ATOM     96  C   UNL A   1      46.339  27.019  35.473  1.00  0.00     0.200 A 
ATOM     97  F   UNL A   1      47.755  28.632  34.488  1.00  0.00    -0.200 F 
ATOM     98  F   UNL A   1      47.403  26.325  35.899  1.00  0.00    -0.200 F 
ENDBRANCH  65  88
ENDBRANCH  39  40
ENDBRANCH  31  34
ENDBRANCH  29  30
ENDBRANCH  28  29
ENDBRANCH   1  28
TORSDOF 14
ENDMDL
MODEL 3
REMARK VINA RESULT:     -13.1      1.435      2.107
REMARK SMILES CC(C)[N@@H+](C)Cc1cc2c(cc1Cl)C=C(C(=O)NCCCNC(=O)c1ccc(-c3c4nc(c(-c5c(F)c(F)c(F)c(F)c5F)c5ccc([nH]5)c(-c5c(F)c(F)c(F)c(F)c5F)c5nc(c(-c6c(F)c(F)c(F)c(F)c6F)c6ccc3[nH]6)C=C5)C=C4)cc1)[C@@H](C(F)(F)F)O2
REMARK SMILES IDX 19 1 18 2 16 3 17 4 15 6 7 7 8 8 12 9 9 10 11 11 13 12 10 13
REMARK SMILES IDX 93 14 14 15 88 16 6 17 4 18 5 19 2 21 1 22 3 23 89 24 90 25
REMARK SMILES IDX 91 26 92 27 20 28 21 29 22 30 23 31 24 33 25 34 26 35 87 36
REMARK SMILES IDX 27 37 86 38 28 39 29 40 30 41 80 42 31 43 85 44 79 45 81 46
REMARK SMILES IDX 32 47 84 48 78 49 77 50 33 52 65 53 45 54 64 55 46 56 49 57
REMARK SMILES IDX 63 58 82 59 47 60 48 61 62 63 83 64 50 65 34 66 35 67 43 68
REMARK SMILES IDX 36 69 37 70 41 71 44 72 38 73 39 74 42 75 40 76 66 77 67 78
REMARK SMILES IDX 75 79 68 80 69 81 73 82 76 83 70 84 71 85 74 86 72 87 51 88
REMARK SMILES IDX 52 89 60 90 53 91 54 92 58 93 61 94 55 95 56 96 59 97 57 98
REMARK H PARENT 18 5 4 20 22 32 81 51 49 62
REMARK Flexibility Score: inf
ROOT
ATOM      1  C   UNL A   1      31.712  30.553  26.341  1.00  0.00     0.118 C 
ENDROOT
BRANCH   1   2
ATOM      2  N   UNL A   1      31.244  30.240  25.001  1.00  0.00    -0.352 N 
ATOM      3  C   UNL A   1      31.105  29.133  24.236  1.00  0.00     0.251 C 
ATOM      4  O   UNL A   1      30.640  29.326  23.110  1.00  0.00    -0.270 OA
ATOM      5  H   UNL A   1      30.949  31.049  24.522  1.00  0.00     0.163 HD
BRANCH   3   6
ATOM      6  C   UNL A   1      31.480  27.755  24.657  1.00  0.00     0.067 C 
ATOM      7  C   UNL A   1      34.005  23.692  26.269  1.00  0.00     0.029 A 
ATOM      8  C   UNL A   1      32.673  24.128  26.332  1.00  0.00     0.058 A 
ATOM      9  C   UNL A   1      34.912  24.474  25.528  1.00  0.00     0.050 A 
ATOM     10  C   UNL A   1      32.294  25.350  25.797  1.00  0.00     0.128 A 
ATOM     11  C   UNL A   1      34.527  25.713  24.994  1.00  0.00     0.033 A 
ATOM     12  Cl  UNL A   1      36.542  23.981  25.234  1.00  0.00    -0.084 Cl
ATOM     13  C   UNL A   1      33.220  26.167  25.153  1.00  0.00     0.019 A 
ATOM     14  O   UNL A   1      30.993  25.719  25.984  1.00  0.00    -0.475 OA
ATOM     15  C   UNL A   1      32.800  27.490  24.709  1.00  0.00     0.025 C 
ATOM     16  C   UNL A   1      30.494  26.681  25.020  1.00  0.00     0.314 C 
BRANCH   7  17
ATOM     17  C   UNL A   1      34.387  22.432  27.018  1.00  0.00     0.300 C 
BRANCH  17  18
ATOM     18  N   UNL A   1      34.408  21.173  26.252  1.00  0.00    -0.332 N 
ATOM     19  C   UNL A   1      35.638  20.914  25.511  1.00  0.00     0.333 C 
ATOM     20  H   UNL A   1      34.396  20.531  27.044  1.00  0.00     0.348 HD
BRANCH  18  21
ATOM     21  C   UNL A   1      33.201  20.758  25.520  1.00  0.00     0.177 C 
ATOM     22  C   UNL A   1      33.223  21.234  24.065  1.00  0.00     0.075 C 
ATOM     23  C   UNL A   1      32.833  19.272  25.594  1.00  0.00     0.075 C 
ENDBRANCH  18  21
ENDBRANCH  17  18
ENDBRANCH   7  17
BRANCH  16  24
ATOM     24  C   UNL A   1      29.945  25.938  23.784  1.00  0.00     0.429 C 
ATOM     25  F   UNL A   1      28.649  26.273  23.572  1.00  0.00    -0.167 F 
ATOM     26  F   UNL A   1      30.616  26.255  22.651  1.00  0.00    -0.167 F 
ATOM     27  F   UNL A   1      30.002  24.593  23.907  1.00  0.00    -0.167 F 
ENDBRANCH  16  24
ENDBRANCH   3   6
ENDBRANCH   1   2
BRANCH   1  28
ATOM     28  C   UNL A   1      31.457  32.007  26.704  1.00  0.00     0.042 C 
BRANCH  28  29
ATOM     29  C   UNL A   1      32.714  32.701  27.208  1.00  0.00     0.118 C 
BRANCH  29  30
ATOM     30  N   UNL A   1      32.454  34.082  27.611  1.00  0.00    -0.352 N 
ATOM     31  C   UNL A   1      33.007  34.834  28.618  1.00  0.00     0.251 C 
ATOM     32  H   UNL A   1      31.772  34.547  27.075  1.00  0.00     0.163 HD
ATOM     33  O   UNL A   1      32.497  35.905  28.934  1.00  0.00    -0.269 OA
BRANCH  31  34
ATOM     34  C   UNL A   1      34.204  34.347  29.330  1.00  0.00     0.039 A 
ATOM     35  C   UNL A   1      35.477  34.647  28.851  1.00  0.00     0.014 A 
ATOM     36  C   UNL A   1      34.053  33.579  30.489  1.00  0.00     0.014 A 
ATOM     37  C   UNL A   1      36.582  34.019  29.402  1.00  0.00     0.010 A 
ATOM     38  C   UNL A   1      35.180  33.041  31.115  1.00  0.00     0.010 A 
ATOM     39  C   UNL A   1      36.451  33.215  30.547  1.00  0.00    -0.014 A 
BRANCH  39  40
ATOM     40  C   UNL A   1      37.666  32.577  31.112  1.00  0.00     0.031 A 
ATOM     41  C   UNL A   1      38.143  32.921  32.497  1.00  0.00     0.074 A 
ATOM     42  C   UNL A   1      38.277  31.605  30.403  1.00  0.00     0.049 A 
ATOM     43  N   UNL A   1      39.154  32.427  33.166  1.00  0.00    -0.248 NA
ATOM     44  C   UNL A   1      37.391  33.953  33.230  1.00  0.00     0.031 C 
ATOM     45  C   UNL A   1      37.883  31.171  29.060  1.00  0.00     0.029 A 
ATOM     46  N   UNL A   1      39.317  30.772  30.728  1.00  0.00    -0.354 N 
ATOM     47  C   UNL A   1      39.168  33.093  34.384  1.00  0.00     0.074 A 
ATOM     48  C   UNL A   1      38.085  34.051  34.355  1.00  0.00     0.031 C 
ATOM     49  C   UNL A   1      38.605  30.095  28.717  1.00  0.00     0.029 A 
ATOM     50  C   UNL A   1      39.569  29.815  29.775  1.00  0.00     0.049 A 
ATOM     51  H   UNL A   1      39.832  30.851  31.562  1.00  0.00     0.167 HD
ATOM     52  C   UNL A   1      40.000  32.907  35.436  1.00  0.00     0.037 A 
ATOM     53  C   UNL A   1      40.480  28.825  29.752  1.00  0.00     0.037 A 
ATOM     54  C   UNL A   1      41.058  31.933  35.468  1.00  0.00     0.049 A 
ATOM     55  C   UNL A   1      41.426  28.687  30.908  1.00  0.00     0.074 A 
ATOM     56  C   UNL A   1      41.967  31.680  36.481  1.00  0.00     0.029 A 
ATOM     57  N   UNL A   1      41.341  31.041  34.444  1.00  0.00    -0.354 N 
ATOM     58  N   UNL A   1      41.448  29.347  32.041  1.00  0.00    -0.248 NA
ATOM     59  C   UNL A   1      42.490  27.683  30.775  1.00  0.00     0.031 C 
ATOM     60  C   UNL A   1      42.819  30.655  36.058  1.00  0.00     0.029 A 
ATOM     61  C   UNL A   1      42.417  30.243  34.798  1.00  0.00     0.049 A 
ATOM     62  H   UNL A   1      40.850  30.984  33.593  1.00  0.00     0.167 HD
ATOM     63  C   UNL A   1      42.518  28.835  32.758  1.00  0.00     0.074 A 
ATOM     64  C   UNL A   1      43.107  27.790  31.944  1.00  0.00     0.031 C 
ATOM     65  C   UNL A   1      42.980  29.204  33.976  1.00  0.00     0.037 A 
BRANCH  52  66
ATOM     66  C   UNL A   1      39.803  33.767  36.649  1.00  0.00     0.064 A 
ATOM     67  C   UNL A   1      40.394  35.035  36.749  1.00  0.00     0.173 A 
ATOM     68  C   UNL A   1      38.950  33.357  37.685  1.00  0.00     0.173 A 
ATOM     69  F   UNL A   1      41.228  35.468  35.792  1.00  0.00    -0.203 F 
ATOM     70  C   UNL A   1      40.145  35.857  37.845  1.00  0.00     0.198 A 
ATOM     71  C   UNL A   1      38.683  34.192  38.767  1.00  0.00     0.198 A 
ATOM     72  F   UNL A   1      38.356  32.155  37.635  1.00  0.00    -0.203 F 
ATOM     73  F   UNL A   1      40.740  37.055  37.931  1.00  0.00    -0.200 F 
ATOM     74  C   UNL A   1      39.282  35.439  38.847  1.00  0.00     0.200 A 
ATOM     75  F   UNL A   1      37.841  33.791  39.729  1.00  0.00    -0.200 F 
ATOM     76  F   UNL A   1      39.028  36.240  39.893  1.00  0.00    -0.200 F 
ENDBRANCH  52  66
BRANCH  53  77
ATOM     77  C   UNL A   1      40.537  27.894  28.596  1.00  0.00     0.064 A 
ATOM     78  C   UNL A   1      41.292  28.210  27.458  1.00  0.00     0.173 A 
ATOM     79  C   UNL A   1      39.853  26.669  28.605  1.00  0.00     0.173 A 
ATOM     80  F   UNL A   1      41.947  29.378  27.392  1.00  0.00    -0.203 F 
ATOM     81  C   UNL A   1      41.353  27.340  26.371  1.00  0.00     0.198 A 
ATOM     82  C   UNL A   1      39.940  25.786  27.532  1.00  0.00     0.198 A 
ATOM     83  F   UNL A   1      39.118  26.319  29.671  1.00  0.00    -0.203 F 
ATOM     84  F   UNL A   1      42.053  27.682  25.281  1.00  0.00    -0.200 F 
ATOM     85  C   UNL A   1      40.684  26.125  26.412  1.00  0.00     0.200 A 
ATOM     86  F   UNL A   1      39.306  24.608  27.584  1.00  0.00    -0.200 F 
ATOM     87  F   UNL A   1      40.753  25.284  25.372  1.00  0.00    -0.200 F 
ENDBRANCH  53  77
BRANCH  65  88
ATOM     88  C   UNL A   1      44.170  28.468  34.512  1.00  0.00     0.064 A 
ATOM     89  C   UNL A   1      45.472  28.952  34.320  1.00  0.00     0.173 A 
ATOM     90  C   UNL A   1      44.002  27.308  35.281  1.00  0.00     0.173 A 
ATOM     91  F   UNL A   1      45.680  30.051  33.579  1.00  0.00    -0.203 F 
ATOM     92  C   UNL A   1      46.566  28.292  34.870  1.00  0.00     0.198 A 
ATOM     93  C   UNL A   1      45.097  26.665  35.851  1.00  0.00     0.198 A 
ATOM     94  F   UNL A   1      42.774  26.812  35.497  1.00  0.00    -0.203 F 
ATOM     95  F   UNL A   1      47.804  28.753  34.648  1.00  0.00    -0.200 F 
ATOM     96  C   UNL A   1      46.377  27.155  35.642  1.00  0.00     0.200 A 
ATOM     97  F   UNL A   1      44.912  25.574  36.606  1.00  0.00    -0.200 F 
ATOM     98  F   UNL A   1      47.431  26.529  36.182  1.00  0.00    -0.200 F 
ENDBRANCH  65  88
ENDBRANCH  39  40
ENDBRANCH  31  34
ENDBRANCH  29  30
ENDBRANCH  28  29
ENDBRANCH   1  28
TORSDOF 14
ENDMDL
