MODEL 1
REMARK VINA RESULT:     -11.9      0.000      0.000
REMARK SMILES Cc1n[nH]c(C(=O)N[C@@H](CC(C)C)C(=O)NCCCNC(=O)c2ccc(-c3c4nc(c(-c5c(F)c(F)c(F)c(F)c5F)c5ccc([nH]5)c(-c5c(F)c(F)c(F)c(F)c5F)c5nc(c(-c6c(F)c(F)c(F)c(F)c6F)c6ccc3[nH]6)C=C5)C=C4)cc2)n1
REMARK SMILES IDX 18 1 17 2 16 3 14 4 15 5 9 7 8 8 6 9 7 10 5 12 1 13 2 14
REMARK SMILES IDX 3 15 86 16 4 17 10 19 11 20 12 21 13 22 19 23 20 24 21 25
REMARK SMILES IDX 22 27 23 28 24 29 85 30 25 31 84 32 26 33 27 34 28 35 78 36
REMARK SMILES IDX 29 37 83 38 77 39 79 40 30 41 82 42 76 43 75 44 31 46 63 47
REMARK SMILES IDX 43 48 62 49 44 50 47 51 61 52 80 53 45 54 46 55 60 57 81 58
REMARK SMILES IDX 48 59 32 60 33 61 41 62 34 63 35 64 39 65 42 66 36 67 37 68
REMARK SMILES IDX 40 69 38 70 64 71 65 72 73 73 66 74 67 75 71 76 74 77 68 78
REMARK SMILES IDX 69 79 72 80 70 81 49 82 50 83 58 84 51 85 52 86 56 87 59 88
REMARK SMILES IDX 53 89 54 90 57 91 55 92
REMARK H PARENT 16 6 8 11 4 18 20 26 79 45 47 56
REMARK Flexibility Score: inf
ROOT
ATOM      1  C   UNL A   1      41.282  20.910  26.839  1.00  0.00     0.042 C 
ENDROOT
BRANCH   1   2
ATOM      2  C   UNL A   1      42.485  21.518  26.136  1.00  0.00     0.117 C 
BRANCH   2   3
ATOM      3  N   UNL A   1      42.284  22.824  25.534  1.00  0.00    -0.354 N 
ATOM      4  C   UNL A   1      43.143  23.887  25.469  1.00  0.00     0.242 C 
ATOM      5  O   UNL A   1      42.935  24.733  24.592  1.00  0.00    -0.273 OA
ATOM      6  H   UNL A   1      41.404  22.965  25.114  1.00  0.00     0.163 HD
BRANCH   4   7
ATOM      7  C   UNL A   1      44.366  24.044  26.404  1.00  0.00     0.172 C 
BRANCH   7   8
ATOM      8  N   UNL A   1      45.598  24.087  25.613  1.00  0.00    -0.338 N 
ATOM      9  C   UNL A   1      46.122  23.290  24.622  1.00  0.00     0.289 C 
ATOM     10  O   UNL A   1      46.976  23.871  23.941  1.00  0.00    -0.266 OA
ATOM     11  H   UNL A   1      46.177  24.850  25.841  1.00  0.00     0.164 HD
BRANCH   9  12
ATOM     12  C   UNL A   1      45.778  21.894  24.413  1.00  0.00     0.214 A 
ATOM     13  C   UNL A   1      45.805  18.488  25.425  1.00  0.00     0.092 C 
ATOM     14  C   UNL A   1      45.615  19.798  24.772  1.00  0.00     0.148 A 
ATOM     15  N   UNL A   1      44.809  19.981  23.726  1.00  0.00    -0.159 NA
ATOM     16  N   UNL A   1      46.237  20.934  25.206  1.00  0.00    -0.207 NA
ATOM     17  N   UNL A   1      44.939  21.301  23.515  1.00  0.00    -0.255 N 
ATOM     18  H   UNL A   1      44.478  21.788  22.794  1.00  0.00     0.192 HD
ENDBRANCH   9  12
ENDBRANCH   7   8
BRANCH   7  19
ATOM     19  C   UNL A   1      44.334  25.101  27.536  1.00  0.00     0.038 C 
BRANCH  19  20
ATOM     20  C   UNL A   1      43.349  24.964  28.711  1.00  0.00    -0.015 C 
ATOM     21  C   UNL A   1      43.277  23.532  29.252  1.00  0.00     0.007 C 
ATOM     22  C   UNL A   1      43.723  25.896  29.869  1.00  0.00     0.007 C 
ENDBRANCH  19  20
ENDBRANCH   7  19
ENDBRANCH   4   7
ENDBRANCH   2   3
ENDBRANCH   1   2
BRANCH   1  23
ATOM     23  C   UNL A   1      40.422  21.966  27.506  1.00  0.00     0.118 C 
BRANCH  23  24
ATOM     24  N   UNL A   1      39.283  22.419  26.693  1.00  0.00    -0.352 N 
ATOM     25  C   UNL A   1      38.801  23.716  26.593  1.00  0.00     0.251 C 
ATOM     26  H   UNL A   1      38.814  21.733  26.166  1.00  0.00     0.163 HD
ATOM     27  O   UNL A   1      37.704  23.976  26.117  1.00  0.00    -0.269 OA
BRANCH  25  28
ATOM     28  C   UNL A   1      39.685  24.782  27.082  1.00  0.00     0.039 A 
ATOM     29  C   UNL A   1      40.289  25.693  26.214  1.00  0.00     0.014 A 
ATOM     30  C   UNL A   1      39.671  24.980  28.458  1.00  0.00     0.014 A 
ATOM     31  C   UNL A   1      40.771  26.885  26.745  1.00  0.00     0.010 A 
ATOM     32  C   UNL A   1      39.943  26.234  28.932  1.00  0.00     0.010 A 
ATOM     33  C   UNL A   1      40.545  27.173  28.102  1.00  0.00    -0.014 A 
BRANCH  33  34
ATOM     34  C   UNL A   1      40.804  28.504  28.647  1.00  0.00     0.031 A 
ATOM     35  C   UNL A   1      42.054  29.139  28.147  1.00  0.00     0.074 A 
ATOM     36  C   UNL A   1      39.891  29.188  29.376  1.00  0.00     0.049 A 
ATOM     37  N   UNL A   1      43.150  29.323  28.804  1.00  0.00    -0.248 NA
ATOM     38  C   UNL A   1      42.165  29.474  26.717  1.00  0.00     0.031 C 
ATOM     39  C   UNL A   1      38.496  28.816  29.656  1.00  0.00     0.029 A 
ATOM     40  N   UNL A   1      39.985  30.423  29.949  1.00  0.00    -0.354 N 
ATOM     41  C   UNL A   1      43.999  30.023  27.947  1.00  0.00     0.074 A 
ATOM     42  C   UNL A   1      43.429  29.899  26.633  1.00  0.00     0.031 C 
ATOM     43  C   UNL A   1      37.814  29.887  30.111  1.00  0.00     0.029 A 
ATOM     44  C   UNL A   1      38.766  30.947  30.368  1.00  0.00     0.049 A 
ATOM     45  H   UNL A   1      40.839  30.900  30.058  1.00  0.00     0.167 HD
ATOM     46  C   UNL A   1      44.911  30.897  28.461  1.00  0.00     0.037 A 
ATOM     47  C   UNL A   1      38.543  32.158  30.928  1.00  0.00     0.037 A 
ATOM     48  C   UNL A   1      45.012  30.725  29.889  1.00  0.00     0.049 A 
ATOM     49  C   UNL A   1      39.824  32.617  31.503  1.00  0.00     0.074 A 
ATOM     50  C   UNL A   1      45.600  29.832  30.755  1.00  0.00     0.029 A 
ATOM     51  N   UNL A   1      44.041  31.394  30.584  1.00  0.00    -0.354 N 
ATOM     52  N   UNL A   1      40.410  32.021  32.505  1.00  0.00    -0.248 NA
ATOM     53  C   UNL A   1      40.667  33.523  30.731  1.00  0.00     0.031 C 
ATOM     54  C   UNL A   1      44.834  29.884  31.960  1.00  0.00     0.029 A 
ATOM     55  C   UNL A   1      43.834  30.843  31.817  1.00  0.00     0.049 A 
ATOM     56  H   UNL A   1      43.553  32.176  30.238  1.00  0.00     0.167 HD
ATOM     57  C   UNL A   1      41.757  32.134  32.225  1.00  0.00     0.074 A 
ATOM     58  C   UNL A   1      41.860  33.207  31.242  1.00  0.00     0.031 C 
ATOM     59  C   UNL A   1      42.623  31.133  32.551  1.00  0.00     0.037 A 
BRANCH  46  60
ATOM     60  C   UNL A   1      45.323  32.220  27.837  1.00  0.00     0.064 A 
ATOM     61  C   UNL A   1      44.319  33.167  27.529  1.00  0.00     0.173 A 
ATOM     62  C   UNL A   1      46.574  32.455  27.232  1.00  0.00     0.173 A 
ATOM     63  F   UNL A   1      43.082  33.042  28.037  1.00  0.00    -0.203 F 
ATOM     64  C   UNL A   1      44.533  34.211  26.624  1.00  0.00     0.198 A 
ATOM     65  C   UNL A   1      46.797  33.526  26.365  1.00  0.00     0.198 A 
ATOM     66  F   UNL A   1      47.598  31.605  27.353  1.00  0.00    -0.203 F 
ATOM     67  F   UNL A   1      43.515  35.008  26.270  1.00  0.00    -0.200 F 
ATOM     68  C   UNL A   1      45.771  34.384  26.036  1.00  0.00     0.200 A 
ATOM     69  F   UNL A   1      48.000  33.664  25.787  1.00  0.00    -0.200 F 
ATOM     70  F   UNL A   1      45.965  35.344  25.120  1.00  0.00    -0.200 F 
ENDBRANCH  46  60
BRANCH  47  71
ATOM     71  C   UNL A   1      37.356  33.028  30.806  1.00  0.00     0.064 A 
ATOM     72  C   UNL A   1      36.959  33.560  29.571  1.00  0.00     0.173 A 
ATOM     73  C   UNL A   1      36.425  33.113  31.859  1.00  0.00     0.173 A 
ATOM     74  F   UNL A   1      37.779  33.485  28.512  1.00  0.00    -0.203 F 
ATOM     75  C   UNL A   1      35.688  34.114  29.388  1.00  0.00     0.198 A 
ATOM     76  C   UNL A   1      35.156  33.664  31.677  1.00  0.00     0.198 A 
ATOM     77  F   UNL A   1      36.698  32.571  33.055  1.00  0.00    -0.203 F 
ATOM     78  F   UNL A   1      35.319  34.556  28.177  1.00  0.00    -0.200 F 
ATOM     79  C   UNL A   1      34.782  34.152  30.436  1.00  0.00     0.200 A 
ATOM     80  F   UNL A   1      34.276  33.658  32.687  1.00  0.00    -0.200 F 
ATOM     81  F   UNL A   1      33.541  34.616  30.243  1.00  0.00    -0.200 F 
ENDBRANCH  47  71
BRANCH  59  82
ATOM     82  C   UNL A   1      42.215  30.191  33.640  1.00  0.00     0.064 A 
ATOM     83  C   UNL A   1      41.679  28.909  33.431  1.00  0.00     0.173 A 
ATOM     84  C   UNL A   1      42.461  30.583  34.961  1.00  0.00     0.173 A 
ATOM     85  F   UNL A   1      41.482  28.437  32.195  1.00  0.00    -0.203 F 
ATOM     86  C   UNL A   1      41.378  28.073  34.505  1.00  0.00     0.198 A 
ATOM     87  C   UNL A   1      42.192  29.735  36.029  1.00  0.00     0.198 A 
ATOM     88  F   UNL A   1      43.007  31.783  35.213  1.00  0.00    -0.203 F 
ATOM     89  F   UNL A   1      40.855  26.857  34.286  1.00  0.00    -0.200 F 
ATOM     90  C   UNL A   1      41.641  28.484  35.802  1.00  0.00     0.200 A 
ATOM     91  F   UNL A   1      42.487  30.124  37.277  1.00  0.00    -0.200 F 
ATOM     92  F   UNL A   1      41.384  27.668  36.834  1.00  0.00    -0.200 F 
ENDBRANCH  59  82
ENDBRANCH  33  34
ENDBRANCH  25  28
ENDBRANCH  23  24
ENDBRANCH   1  23
TORSDOF 14
ENDMDL
MODEL 2
REMARK VINA RESULT:     -11.2      3.047      5.725
REMARK SMILES Cc1n[nH]c(C(=O)N[C@@H](CC(C)C)C(=O)NCCCNC(=O)c2ccc(-c3c4nc(c(-c5c(F)c(F)c(F)c(F)c5F)c5ccc([nH]5)c(-c5c(F)c(F)c(F)c(F)c5F)c5nc(c(-c6c(F)c(F)c(F)c(F)c6F)c6ccc3[nH]6)C=C5)C=C4)cc2)n1
REMARK SMILES IDX 18 1 17 2 16 3 14 4 15 5 9 7 8 8 6 9 7 10 5 12 1 13 2 14
REMARK SMILES IDX 3 15 86 16 4 17 10 19 11 20 12 21 13 22 19 23 20 24 21 25
REMARK SMILES IDX 22 27 23 28 24 29 85 30 25 31 84 32 26 33 27 34 28 35 78 36
REMARK SMILES IDX 29 37 83 38 77 39 79 40 30 41 82 42 76 43 75 44 31 46 63 47
REMARK SMILES IDX 43 48 62 49 44 50 47 51 61 52 80 53 45 54 46 55 60 57 81 58
REMARK SMILES IDX 48 59 32 60 33 61 41 62 34 63 35 64 39 65 42 66 36 67 37 68
REMARK SMILES IDX 40 69 38 70 64 71 65 72 73 73 66 74 67 75 71 76 74 77 68 78
REMARK SMILES IDX 69 79 72 80 70 81 49 82 50 83 58 84 51 85 52 86 56 87 59 88
REMARK SMILES IDX 53 89 54 90 57 91 55 92
REMARK H PARENT 16 6 8 11 4 18 20 26 79 45 47 56
REMARK Flexibility Score: inf
ROOT
ATOM      1  C   UNL A   1      38.175  21.281  25.399  1.00  0.00     0.042 C 
ENDROOT
BRANCH   1   2
ATOM      2  C   UNL A   1      36.792  21.878  25.197  1.00  0.00     0.117 C 
BRANCH   2   3
ATOM      3  N   UNL A   1      36.045  22.186  26.404  1.00  0.00    -0.354 N 
ATOM      4  C   UNL A   1      34.783  22.698  26.530  1.00  0.00     0.242 C 
ATOM      5  O   UNL A   1      34.199  22.513  27.604  1.00  0.00    -0.273 OA
ATOM      6  H   UNL A   1      36.512  21.999  27.250  1.00  0.00     0.163 HD
BRANCH   4   7
ATOM      7  C   UNL A   1      34.056  23.449  25.389  1.00  0.00     0.172 C 
BRANCH   7   8
ATOM      8  N   UNL A   1      32.613  23.206  25.469  1.00  0.00    -0.338 N 
ATOM      9  C   UNL A   1      31.846  22.079  25.647  1.00  0.00     0.289 C 
ATOM     10  O   UNL A   1      30.705  22.335  26.051  1.00  0.00    -0.266 OA
ATOM     11  H   UNL A   1      32.078  24.027  25.374  1.00  0.00     0.164 HD
BRANCH   9  12
ATOM     12  C   UNL A   1      32.278  20.725  25.340  1.00  0.00     0.214 A 
ATOM     13  C   UNL A   1      32.907  18.097  23.034  1.00  0.00     0.092 C 
ATOM     14  C   UNL A   1      32.766  18.992  24.200  1.00  0.00     0.148 A 
ATOM     15  N   UNL A   1      33.240  18.691  25.410  1.00  0.00    -0.159 NA
ATOM     16  N   UNL A   1      32.158  20.212  24.123  1.00  0.00    -0.207 NA
ATOM     17  N   UNL A   1      32.910  19.790  26.108  1.00  0.00    -0.255 N 
ATOM     18  H   UNL A   1      33.104  19.909  27.065  1.00  0.00     0.192 HD
ENDBRANCH   9  12
ENDBRANCH   7   8
BRANCH   7  19
ATOM     19  C   UNL A   1      34.407  24.930  25.101  1.00  0.00     0.038 C 
BRANCH  19  20
ATOM     20  C   UNL A   1      33.347  26.035  25.266  1.00  0.00    -0.015 C 
ATOM     21  C   UNL A   1      33.906  27.286  25.951  1.00  0.00     0.007 C 
ATOM     22  C   UNL A   1      32.755  26.452  23.915  1.00  0.00     0.007 C 
ENDBRANCH  19  20
ENDBRANCH   7  19
ENDBRANCH   4   7
ENDBRANCH   2   3
ENDBRANCH   1   2
BRANCH   1  23
ATOM     23  C   UNL A   1      39.060  22.173  26.249  1.00  0.00     0.118 C 
BRANCH  23  24
ATOM     24  N   UNL A   1      40.485  22.127  25.891  1.00  0.00    -0.352 N 
ATOM     25  C   UNL A   1      41.420  23.133  26.085  1.00  0.00     0.251 C 
ATOM     26  H   UNL A   1      40.809  21.298  25.470  1.00  0.00     0.163 HD
ATOM     27  O   UNL A   1      42.512  23.133  25.531  1.00  0.00    -0.269 OA
BRANCH  25  28
ATOM     28  C   UNL A   1      41.041  24.210  27.009  1.00  0.00     0.039 A 
ATOM     29  C   UNL A   1      41.751  24.454  28.184  1.00  0.00     0.014 A 
ATOM     30  C   UNL A   1      40.108  25.114  26.514  1.00  0.00     0.014 A 
ATOM     31  C   UNL A   1      41.603  25.696  28.795  1.00  0.00     0.010 A 
ATOM     32  C   UNL A   1      40.138  26.396  26.991  1.00  0.00     0.010 A 
ATOM     33  C   UNL A   1      40.832  26.685  28.159  1.00  0.00    -0.014 A 
BRANCH  33  34
ATOM     34  C   UNL A   1      40.849  28.071  28.623  1.00  0.00     0.031 A 
ATOM     35  C   UNL A   1      41.948  28.896  28.050  1.00  0.00     0.074 A 
ATOM     36  C   UNL A   1      39.840  28.616  29.341  1.00  0.00     0.049 A 
ATOM     37  N   UNL A   1      43.003  29.319  28.662  1.00  0.00    -0.248 NA
ATOM     38  C   UNL A   1      41.965  29.162  26.602  1.00  0.00     0.031 C 
ATOM     39  C   UNL A   1      38.545  28.008  29.685  1.00  0.00     0.029 A 
ATOM     40  N   UNL A   1      39.712  29.878  29.844  1.00  0.00    -0.354 N 
ATOM     41  C   UNL A   1      43.689  30.113  27.743  1.00  0.00     0.074 A 
ATOM     42  C   UNL A   1      43.126  29.808  26.456  1.00  0.00     0.031 C 
ATOM     43  C   UNL A   1      37.684  28.959  30.102  1.00  0.00     0.029 A 
ATOM     44  C   UNL A   1      38.426  30.191  30.272  1.00  0.00     0.049 A 
ATOM     45  H   UNL A   1      40.464  30.510  29.900  1.00  0.00     0.167 HD
ATOM     46  C   UNL A   1      44.432  31.170  28.181  1.00  0.00     0.037 A 
ATOM     47  C   UNL A   1      37.992  31.370  30.773  1.00  0.00     0.037 A 
ATOM     48  C   UNL A   1      44.592  31.103  29.612  1.00  0.00     0.049 A 
ATOM     49  C   UNL A   1      39.176  32.092  31.282  1.00  0.00     0.074 A 
ATOM     50  C   UNL A   1      45.355  30.387  30.506  1.00  0.00     0.029 A 
ATOM     51  N   UNL A   1      43.528  31.620  30.300  1.00  0.00    -0.354 N 
ATOM     52  N   UNL A   1      39.884  31.674  32.296  1.00  0.00    -0.248 NA
ATOM     53  C   UNL A   1      39.819  33.091  30.436  1.00  0.00     0.031 C 
ATOM     54  C   UNL A   1      44.617  30.367  31.730  1.00  0.00     0.029 A 
ATOM     55  C   UNL A   1      43.452  31.113  31.566  1.00  0.00     0.049 A 
ATOM     56  H   UNL A   1      42.895  32.277  29.927  1.00  0.00     0.167 HD
ATOM     57  C   UNL A   1      41.179  32.019  31.969  1.00  0.00     0.074 A 
ATOM     58  C   UNL A   1      41.061  33.032  30.927  1.00  0.00     0.031 C 
ATOM     59  C   UNL A   1      42.224  31.216  32.321  1.00  0.00     0.037 A 
BRANCH  46  60
ATOM     60  C   UNL A   1      44.576  32.507  27.474  1.00  0.00     0.064 A 
ATOM     61  C   UNL A   1      45.747  32.752  26.720  1.00  0.00     0.173 A 
ATOM     62  C   UNL A   1      43.804  33.648  27.773  1.00  0.00     0.173 A 
ATOM     63  F   UNL A   1      46.569  31.745  26.385  1.00  0.00    -0.203 F 
ATOM     64  C   UNL A   1      46.149  34.046  26.370  1.00  0.00     0.198 A 
ATOM     65  C   UNL A   1      44.186  34.933  27.380  1.00  0.00     0.198 A 
ATOM     66  F   UNL A   1      42.718  33.594  28.550  1.00  0.00    -0.203 F 
ATOM     67  F   UNL A   1      47.328  34.237  25.764  1.00  0.00    -0.200 F 
ATOM     68  C   UNL A   1      45.371  35.136  26.709  1.00  0.00     0.200 A 
ATOM     69  F   UNL A   1      43.428  35.981  27.738  1.00  0.00    -0.200 F 
ATOM     70  F   UNL A   1      45.781  36.382  26.432  1.00  0.00    -0.200 F 
ENDBRANCH  46  60
BRANCH  47  71
ATOM     71  C   UNL A   1      36.661  31.996  30.641  1.00  0.00     0.064 A 
ATOM     72  C   UNL A   1      35.821  32.177  31.749  1.00  0.00     0.173 A 
ATOM     73  C   UNL A   1      36.316  32.691  29.466  1.00  0.00     0.173 A 
ATOM     74  F   UNL A   1      36.104  31.575  32.913  1.00  0.00    -0.203 F 
ATOM     75  C   UNL A   1      34.716  33.033  31.696  1.00  0.00     0.198 A 
ATOM     76  C   UNL A   1      35.214  33.546  29.414  1.00  0.00     0.198 A 
ATOM     77  F   UNL A   1      37.101  32.626  28.380  1.00  0.00    -0.203 F 
ATOM     78  F   UNL A   1      33.971  33.231  32.793  1.00  0.00    -0.200 F 
ATOM     79  C   UNL A   1      34.423  33.729  30.534  1.00  0.00     0.200 A 
ATOM     80  F   UNL A   1      34.966  34.244  28.297  1.00  0.00    -0.200 F 
ATOM     81  F   UNL A   1      33.409  34.604  30.505  1.00  0.00    -0.200 F 
ENDBRANCH  47  71
BRANCH  59  82
ATOM     82  C   UNL A   1      42.021  30.280  33.471  1.00  0.00     0.064 A 
ATOM     83  C   UNL A   1      41.638  28.935  33.351  1.00  0.00     0.173 A 
ATOM     84  C   UNL A   1      42.316  30.759  34.754  1.00  0.00     0.173 A 
ATOM     85  F   UNL A   1      41.409  28.387  32.152  1.00  0.00    -0.203 F 
ATOM     86  C   UNL A   1      41.526  28.116  34.474  1.00  0.00     0.198 A 
ATOM     87  C   UNL A   1      42.237  29.932  35.868  1.00  0.00     0.198 A 
ATOM     88  F   UNL A   1      42.723  32.026  34.919  1.00  0.00    -0.203 F 
ATOM     89  F   UNL A   1      41.146  26.837  34.340  1.00  0.00    -0.200 F 
ATOM     90  C   UNL A   1      41.833  28.614  35.730  1.00  0.00     0.200 A 
ATOM     91  F   UNL A   1      42.574  30.409  37.075  1.00  0.00    -0.200 F 
ATOM     92  F   UNL A   1      41.760  27.819  36.807  1.00  0.00    -0.200 F 
ENDBRANCH  59  82
ENDBRANCH  33  34
ENDBRANCH  25  28
ENDBRANCH  23  24
ENDBRANCH   1  23
TORSDOF 14
ENDMDL
MODEL 3
REMARK VINA RESULT:     -11.2      1.714      3.004
REMARK SMILES Cc1n[nH]c(C(=O)N[C@@H](CC(C)C)C(=O)NCCCNC(=O)c2ccc(-c3c4nc(c(-c5c(F)c(F)c(F)c(F)c5F)c5ccc([nH]5)c(-c5c(F)c(F)c(F)c(F)c5F)c5nc(c(-c6c(F)c(F)c(F)c(F)c6F)c6ccc3[nH]6)C=C5)C=C4)cc2)n1
REMARK SMILES IDX 18 1 17 2 16 3 14 4 15 5 9 7 8 8 6 9 7 10 5 12 1 13 2 14
REMARK SMILES IDX 3 15 86 16 4 17 10 19 11 20 12 21 13 22 19 23 20 24 21 25
REMARK SMILES IDX 22 27 23 28 24 29 85 30 25 31 84 32 26 33 27 34 28 35 78 36
REMARK SMILES IDX 29 37 83 38 77 39 79 40 30 41 82 42 76 43 75 44 31 46 63 47
REMARK SMILES IDX 43 48 62 49 44 50 47 51 61 52 80 53 45 54 46 55 60 57 81 58
REMARK SMILES IDX 48 59 32 60 33 61 41 62 34 63 35 64 39 65 42 66 36 67 37 68
REMARK SMILES IDX 40 69 38 70 64 71 65 72 73 73 66 74 67 75 71 76 74 77 68 78
REMARK SMILES IDX 69 79 72 80 70 81 49 82 50 83 58 84 51 85 52 86 56 87 59 88
REMARK SMILES IDX 53 89 54 90 57 91 55 92
REMARK H PARENT 16 6 8 11 4 18 20 26 79 45 47 56
REMARK Flexibility Score: inf
ROOT
ATOM      1  C   UNL A   1      43.178  22.401  24.916  1.00  0.00     0.042 C 
ENDROOT
BRANCH   1   2
ATOM      2  C   UNL A   1      44.272  23.454  24.856  1.00  0.00     0.117 C 
BRANCH   2   3
ATOM      3  N   UNL A   1      43.836  24.837  24.929  1.00  0.00    -0.354 N 
ATOM      4  C   UNL A   1      44.290  25.844  25.735  1.00  0.00     0.242 C 
ATOM      5  O   UNL A   1      44.071  27.006  25.372  1.00  0.00    -0.273 OA
ATOM      6  H   UNL A   1      43.109  25.084  24.312  1.00  0.00     0.163 HD
BRANCH   4   7
ATOM      7  C   UNL A   1      45.090  25.592  27.036  1.00  0.00     0.172 C 
BRANCH   7   8
ATOM      8  N   UNL A   1      46.481  25.266  26.712  1.00  0.00    -0.338 N 
ATOM      9  C   UNL A   1      47.499  25.949  26.090  1.00  0.00     0.289 C 
ATOM     10  O   UNL A   1      48.618  25.495  26.360  1.00  0.00    -0.266 OA
ATOM     11  H   UNL A   1      46.743  24.362  27.002  1.00  0.00     0.164 HD
BRANCH   9  12
ATOM     12  C   UNL A   1      47.311  27.047  25.156  1.00  0.00     0.214 A 
ATOM     13  C   UNL A   1      47.283  28.372  21.860  1.00  0.00     0.092 C 
ATOM     14  C   UNL A   1      47.190  28.104  23.309  1.00  0.00     0.148 A 
ATOM     15  N   UNL A   1      46.678  28.975  24.179  1.00  0.00    -0.159 NA
ATOM     16  N   UNL A   1      47.604  26.929  23.868  1.00  0.00    -0.207 NA
ATOM     17  N   UNL A   1      46.776  28.291  25.331  1.00  0.00    -0.255 N 
ATOM     18  H   UNL A   1      46.492  28.646  26.204  1.00  0.00     0.192 HD
ENDBRANCH   9  12
ENDBRANCH   7   8
BRANCH   7  19
ATOM     19  C   UNL A   1      44.959  26.582  28.220  1.00  0.00     0.038 C 
BRANCH  19  20
ATOM     20  C   UNL A   1      45.133  26.097  29.672  1.00  0.00    -0.015 C 
ATOM     21  C   UNL A   1      44.289  26.905  30.664  1.00  0.00     0.007 C 
ATOM     22  C   UNL A   1      44.761  24.618  29.818  1.00  0.00     0.007 C 
ENDBRANCH  19  20
ENDBRANCH   7  19
ENDBRANCH   4   7
ENDBRANCH   2   3
ENDBRANCH   1   2
BRANCH   1  23
ATOM     23  C   UNL A   1      42.586  22.278  26.307  1.00  0.00     0.118 C 
BRANCH  23  24
ATOM     24  N   UNL A   1      41.117  22.202  26.334  1.00  0.00    -0.352 N 
ATOM     25  C   UNL A   1      40.247  23.171  26.813  1.00  0.00     0.251 C 
ATOM     26  H   UNL A   1      40.710  21.381  25.976  1.00  0.00     0.163 HD
ATOM     27  O   UNL A   1      39.068  22.938  27.048  1.00  0.00    -0.269 OA
BRANCH  25  28
ATOM     28  C   UNL A   1      40.809  24.512  27.018  1.00  0.00     0.039 A 
ATOM     29  C   UNL A   1      40.554  25.559  26.133  1.00  0.00     0.014 A 
ATOM     30  C   UNL A   1      41.384  24.729  28.266  1.00  0.00     0.014 A 
ATOM     31  C   UNL A   1      40.769  26.861  26.576  1.00  0.00     0.010 A 
ATOM     32  C   UNL A   1      41.381  26.003  28.763  1.00  0.00     0.010 A 
ATOM     33  C   UNL A   1      41.132  27.078  27.917  1.00  0.00    -0.014 A 
BRANCH  33  34
ATOM     34  C   UNL A   1      41.124  28.419  28.495  1.00  0.00     0.031 A 
ATOM     35  C   UNL A   1      42.248  29.287  28.047  1.00  0.00     0.074 A 
ATOM     36  C   UNL A   1      40.081  28.905  29.208  1.00  0.00     0.049 A 
ATOM     37  N   UNL A   1      43.272  29.655  28.742  1.00  0.00    -0.248 NA
ATOM     38  C   UNL A   1      42.334  29.673  26.628  1.00  0.00     0.031 C 
ATOM     39  C   UNL A   1      38.772  28.273  29.437  1.00  0.00     0.029 A 
ATOM     40  N   UNL A   1      39.927  30.120  29.808  1.00  0.00    -0.354 N 
ATOM     41  C   UNL A   1      43.999  30.521  27.927  1.00  0.00     0.074 A 
ATOM     42  C   UNL A   1      43.499  30.327  26.594  1.00  0.00     0.031 C 
ATOM     43  C   UNL A   1      37.890  29.188  29.891  1.00  0.00     0.029 A 
ATOM     44  C   UNL A   1      38.621  30.399  30.198  1.00  0.00     0.049 A 
ATOM     45  H   UNL A   1      40.674  30.744  29.953  1.00  0.00     0.167 HD
ATOM     46  C   UNL A   1      44.718  31.536  28.487  1.00  0.00     0.037 A 
ATOM     47  C   UNL A   1      38.162  31.533  30.775  1.00  0.00     0.037 A 
ATOM     48  C   UNL A   1      44.811  31.349  29.913  1.00  0.00     0.049 A 
ATOM     49  C   UNL A   1      39.319  32.207  31.398  1.00  0.00     0.074 A 
ATOM     50  C   UNL A   1      45.530  30.560  30.780  1.00  0.00     0.029 A 
ATOM     51  N   UNL A   1      43.713  31.810  30.590  1.00  0.00    -0.354 N 
ATOM     52  N   UNL A   1      39.978  31.704  32.407  1.00  0.00    -0.248 NA
ATOM     53  C   UNL A   1      40.000  33.272  30.672  1.00  0.00     0.031 C 
ATOM     54  C   UNL A   1      44.735  30.438  31.960  1.00  0.00     0.029 A 
ATOM     55  C   UNL A   1      43.578  31.198  31.804  1.00  0.00     0.049 A 
ATOM     56  H   UNL A   1      43.098  32.496  30.244  1.00  0.00     0.167 HD
ATOM     57  C   UNL A   1      41.287  32.073  32.172  1.00  0.00     0.074 A 
ATOM     58  C   UNL A   1      41.216  33.170  31.214  1.00  0.00     0.031 C 
ATOM     59  C   UNL A   1      42.314  31.241  32.505  1.00  0.00     0.037 A 
BRANCH  46  60
ATOM     60  C   UNL A   1      44.894  32.927  27.902  1.00  0.00     0.064 A 
ATOM     61  C   UNL A   1      46.189  33.339  27.510  1.00  0.00     0.173 A 
ATOM     62  C   UNL A   1      43.946  33.963  28.023  1.00  0.00     0.173 A 
ATOM     63  F   UNL A   1      47.180  32.444  27.372  1.00  0.00    -0.203 F 
ATOM     64  C   UNL A   1      46.521  34.687  27.337  1.00  0.00     0.198 A 
ATOM     65  C   UNL A   1      44.270  35.304  27.803  1.00  0.00     0.198 A 
ATOM     66  F   UNL A   1      42.705  33.748  28.469  1.00  0.00    -0.203 F 
ATOM     67  F   UNL A   1      47.789  35.036  27.087  1.00  0.00    -0.200 F 
ATOM     68  C   UNL A   1      45.561  35.669  27.493  1.00  0.00     0.200 A 
ATOM     69  F   UNL A   1      43.330  36.244  27.982  1.00  0.00    -0.200 F 
ATOM     70  F   UNL A   1      45.886  36.966  27.390  1.00  0.00    -0.200 F 
ENDBRANCH  46  60
BRANCH  47  71
ATOM     71  C   UNL A   1      36.837  32.172  30.632  1.00  0.00     0.064 A 
ATOM     72  C   UNL A   1      35.901  32.162  31.675  1.00  0.00     0.173 A 
ATOM     73  C   UNL A   1      36.585  33.055  29.564  1.00  0.00     0.173 A 
ATOM     74  F   UNL A   1      36.091  31.373  32.743  1.00  0.00    -0.203 F 
ATOM     75  C   UNL A   1      34.792  33.013  31.669  1.00  0.00     0.198 A 
ATOM     76  C   UNL A   1      35.479  33.905  29.559  1.00  0.00     0.198 A 
ATOM     77  F   UNL A   1      37.463  33.174  28.557  1.00  0.00    -0.203 F 
ATOM     78  F   UNL A   1      33.950  33.023  32.713  1.00  0.00    -0.200 F 
ATOM     79  C   UNL A   1      34.590  33.895  30.619  1.00  0.00     0.200 A 
ATOM     80  F   UNL A   1      35.318  34.780  28.557  1.00  0.00    -0.200 F 
ATOM     81  F   UNL A   1      33.569  34.761  30.647  1.00  0.00    -0.200 F 
ENDBRANCH  47  71
BRANCH  59  82
ATOM     82  C   UNL A   1      42.059  30.212  33.562  1.00  0.00     0.064 A 
ATOM     83  C   UNL A   1      41.656  28.890  33.312  1.00  0.00     0.173 A 
ATOM     84  C   UNL A   1      42.319  30.571  34.890  1.00  0.00     0.173 A 
ATOM     85  F   UNL A   1      41.458  28.454  32.063  1.00  0.00    -0.203 F 
ATOM     86  C   UNL A   1      41.495  27.979  34.355  1.00  0.00     0.198 A 
ATOM     87  C   UNL A   1      42.190  29.652  35.925  1.00  0.00     0.198 A 
ATOM     88  F   UNL A   1      42.743  31.811  35.179  1.00  0.00    -0.203 F 
ATOM     89  F   UNL A   1      41.097  26.724  34.098  1.00  0.00    -0.200 F 
ATOM     90  C   UNL A   1      41.769  28.359  35.659  1.00  0.00     0.200 A 
ATOM     91  F   UNL A   1      42.496  30.016  37.178  1.00  0.00    -0.200 F 
ATOM     92  F   UNL A   1      41.647  27.475  36.660  1.00  0.00    -0.200 F 
ENDBRANCH  59  82
ENDBRANCH  33  34
ENDBRANCH  25  28
ENDBRANCH  23  24
ENDBRANCH   1  23
TORSDOF 14
ENDMDL
