MODEL 1
REMARK VINA RESULT:     -11.6      0.000      0.000
REMARK SMILES CC(C)CCNC(=O)[C@@H](C)Oc1ccc(N)cc1C(=O)NCCCNC(=O)c1ccc(-c2c3nc(c(-c4c(F)c(F)c(F)c(F)c4F)c4ccc([nH]4)c(-c4c(F)c(F)c(F)c(F)c4F)c4nc(c(-c5c(F)c(F)c(F)c(F)c5F)c5ccc2[nH]5)C=C4)C=C3)cc1
REMARK SMILES IDX 19 1 20 2 21 3 18 5 12 6 13 7 14 8 17 9 15 10 11 11 9 12
REMARK SMILES IDX 10 13 7 14 6 15 8 17 5 18 4 19 2 20 1 21 3 22 16 23 22 26
REMARK SMILES IDX 23 27 24 28 25 29 26 30 27 32 28 33 29 34 90 35 30 36 89 37
REMARK SMILES IDX 31 38 32 39 33 40 83 41 34 42 88 43 82 44 84 45 35 46 87 47
REMARK SMILES IDX 81 48 80 49 36 51 68 52 48 53 67 54 49 55 52 56 66 57 85 58
REMARK SMILES IDX 50 59 51 60 65 62 86 63 53 64 37 65 38 66 46 67 39 68 40 69
REMARK SMILES IDX 44 70 47 71 41 72 42 73 45 74 43 75 69 76 70 77 78 78 71 79
REMARK SMILES IDX 72 80 76 81 79 82 73 83 74 84 77 85 75 86 54 87 55 88 63 89
REMARK SMILES IDX 56 90 57 91 61 92 64 93 58 94 59 95 62 96 60 97
REMARK H PARENT 21 4 6 16 16 24 16 25 25 31 84 50 52 61
REMARK Flexibility Score: inf
ROOT
ATOM      1  C   UNL A   1      31.865  29.206  23.926  1.00  0.00     0.255 C 
ATOM      2  O   UNL A   1      32.795  28.953  23.155  1.00  0.00    -0.269 OA
ATOM      3  N   UNL A   1      32.170  29.983  25.015  1.00  0.00    -0.352 N 
ATOM      4  H   UNL A   1      33.064  30.392  24.972  1.00  0.00     0.163 HD
ENDROOT
BRANCH   1   5
ATOM      5  C   UNL A   1      30.490  28.764  23.552  1.00  0.00     0.083 A 
ATOM      6  C   UNL A   1      29.912  27.505  23.730  1.00  0.00     0.133 A 
ATOM      7  C   UNL A   1      28.528  27.366  23.589  1.00  0.00     0.049 A 
ATOM      8  C   UNL A   1      27.769  28.389  23.014  1.00  0.00     0.029 A 
ATOM      9  C   UNL A   1      29.712  29.767  22.931  1.00  0.00     0.043 A 
ATOM     10  C   UNL A   1      28.380  29.557  22.578  1.00  0.00     0.032 A 
BRANCH   6  11
ATOM     11  O   UNL A   1      30.619  26.415  24.122  1.00  0.00    -0.480 OA
BRANCH  11  12
ATOM     12  C   UNL A   1      31.035  25.477  23.123  1.00  0.00     0.258 C 
ATOM     13  C   UNL A   1      30.821  24.005  23.501  1.00  0.00     0.064 C 
BRANCH  12  14
ATOM     14  C   UNL A   1      32.294  25.725  22.247  1.00  0.00     0.260 C 
ATOM     15  N   UNL A   1      33.563  25.682  22.744  1.00  0.00    -0.353 N 
ATOM     16  H   UNL A   1      34.276  25.596  22.070  1.00  0.00     0.163 HD
ATOM     17  O   UNL A   1      32.176  25.952  21.037  1.00  0.00    -0.271 OA
BRANCH  15  18
ATOM     18  C   UNL A   1      34.012  25.743  24.117  1.00  0.00     0.116 C 
BRANCH  18  19
ATOM     19  C   UNL A   1      34.644  24.453  24.618  1.00  0.00     0.024 C 
BRANCH  19  20
ATOM     20  C   UNL A   1      34.852  23.380  23.533  1.00  0.00    -0.016 C 
ATOM     21  C   UNL A   1      36.317  22.953  23.390  1.00  0.00     0.007 C 
ATOM     22  C   UNL A   1      33.999  22.157  23.876  1.00  0.00     0.007 C 
ENDBRANCH  19  20
ENDBRANCH  18  19
ENDBRANCH  15  18
ENDBRANCH  12  14
ENDBRANCH  11  12
ENDBRANCH   6  11
BRANCH  10  23
ATOM     23  N   UNL A   1      27.653  30.547  21.940  1.00  0.00    -0.399 N 
ATOM     24  H   UNL A   1      27.879  31.494  22.084  1.00  0.00     0.156 HD
ATOM     25  H   UNL A   1      26.910  30.304  21.342  1.00  0.00     0.156 HD
ENDBRANCH  10  23
ENDBRANCH   1   5
BRANCH   3  26
ATOM     26  C   UNL A   1      31.429  30.319  26.217  1.00  0.00     0.118 C 
BRANCH  26  27
ATOM     27  C   UNL A   1      31.381  31.839  26.373  1.00  0.00     0.042 C 
BRANCH  27  28
ATOM     28  C   UNL A   1      32.682  32.436  26.888  1.00  0.00     0.118 C 
BRANCH  28  29
ATOM     29  N   UNL A   1      32.497  33.814  27.308  1.00  0.00    -0.352 N 
ATOM     30  C   UNL A   1      33.026  34.476  28.385  1.00  0.00     0.251 C 
ATOM     31  H   UNL A   1      31.904  34.351  26.735  1.00  0.00     0.163 HD
ATOM     32  O   UNL A   1      32.529  35.549  28.734  1.00  0.00    -0.269 OA
BRANCH  30  33
ATOM     33  C   UNL A   1      34.184  33.934  29.138  1.00  0.00     0.039 A 
ATOM     34  C   UNL A   1      35.470  34.364  28.794  1.00  0.00     0.014 A 
ATOM     35  C   UNL A   1      34.027  32.949  30.118  1.00  0.00     0.014 A 
ATOM     36  C   UNL A   1      36.587  33.828  29.442  1.00  0.00     0.010 A 
ATOM     37  C   UNL A   1      35.133  32.477  30.822  1.00  0.00     0.010 A 
ATOM     38  C   UNL A   1      36.428  32.889  30.473  1.00  0.00    -0.014 A 
BRANCH  38  39
ATOM     39  C   UNL A   1      37.602  32.285  31.158  1.00  0.00     0.031 A 
ATOM     40  C   UNL A   1      38.384  31.190  30.482  1.00  0.00     0.074 A 
ATOM     41  C   UNL A   1      37.932  32.678  32.403  1.00  0.00     0.049 A 
ATOM     42  N   UNL A   1      39.378  30.472  30.942  1.00  0.00    -0.248 NA
ATOM     43  C   UNL A   1      37.974  30.832  29.114  1.00  0.00     0.031 C 
ATOM     44  C   UNL A   1      37.232  33.699  33.181  1.00  0.00     0.029 A 
ATOM     45  N   UNL A   1      38.938  32.255  33.237  1.00  0.00    -0.354 N 
ATOM     46  C   UNL A   1      39.689  29.565  29.937  1.00  0.00     0.074 A 
ATOM     47  C   UNL A   1      38.748  29.789  28.861  1.00  0.00     0.031 C 
ATOM     48  C   UNL A   1      37.840  33.839  34.370  1.00  0.00     0.029 A 
ATOM     49  C   UNL A   1      38.950  32.894  34.453  1.00  0.00     0.049 A 
ATOM     50  H   UNL A   1      39.589  31.559  32.987  1.00  0.00     0.167 HD
ATOM     51  C   UNL A   1      40.682  28.644  29.903  1.00  0.00     0.037 A 
ATOM     52  C   UNL A   1      39.761  32.731  35.516  1.00  0.00     0.037 A 
ATOM     53  C   UNL A   1      41.645  28.456  30.954  1.00  0.00     0.049 A 
ATOM     54  C   UNL A   1      40.871  31.717  35.445  1.00  0.00     0.074 A 
ATOM     55  C   UNL A   1      42.728  27.595  30.990  1.00  0.00     0.029 A 
ATOM     56  N   UNL A   1      41.644  29.148  32.157  1.00  0.00    -0.354 N 
ATOM     57  N   UNL A   1      41.187  30.902  34.468  1.00  0.00    -0.248 NA
ATOM     58  C   UNL A   1      41.743  31.605  36.623  1.00  0.00     0.031 C 
ATOM     59  C   UNL A   1      43.362  27.741  32.229  1.00  0.00     0.029 A 
ATOM     60  C   UNL A   1      42.700  28.724  32.947  1.00  0.00     0.049 A 
ATOM     61  H   UNL A   1      40.990  29.838  32.411  1.00  0.00     0.167 HD
ATOM     62  C   UNL A   1      42.305  30.204  34.899  1.00  0.00     0.074 A 
ATOM     63  C   UNL A   1      42.622  30.698  36.223  1.00  0.00     0.031 C 
ATOM     64  C   UNL A   1      43.007  29.239  34.256  1.00  0.00     0.037 A 
BRANCH  51  65
ATOM     65  C   UNL A   1      40.781  27.773  28.684  1.00  0.00     0.064 A 
ATOM     66  C   UNL A   1      40.055  26.576  28.572  1.00  0.00     0.173 A 
ATOM     67  C   UNL A   1      41.588  28.153  27.601  1.00  0.00     0.173 A 
ATOM     68  F   UNL A   1      39.279  26.162  29.583  1.00  0.00    -0.203 F 
ATOM     69  C   UNL A   1      40.158  25.778  27.435  1.00  0.00     0.198 A 
ATOM     70  C   UNL A   1      41.663  27.369  26.452  1.00  0.00     0.198 A 
ATOM     71  F   UNL A   1      42.297  29.290  27.650  1.00  0.00    -0.203 F 
ATOM     72  F   UNL A   1      39.495  24.616  27.373  1.00  0.00    -0.200 F 
ATOM     73  C   UNL A   1      40.956  26.178  26.374  1.00  0.00     0.200 A 
ATOM     74  F   UNL A   1      42.425  27.762  25.422  1.00  0.00    -0.200 F 
ATOM     75  F   UNL A   1      41.048  25.413  25.278  1.00  0.00    -0.200 F 
ENDBRANCH  51  65
BRANCH  52  76
ATOM     76  C   UNL A   1      39.573  33.571  36.726  1.00  0.00     0.064 A 
ATOM     77  C   UNL A   1      38.774  33.130  37.789  1.00  0.00     0.173 A 
ATOM     78  C   UNL A   1      40.188  34.826  36.848  1.00  0.00     0.173 A 
ATOM     79  F   UNL A   1      38.147  31.947  37.709  1.00  0.00    -0.203 F 
ATOM     80  C   UNL A   1      38.582  33.920  38.921  1.00  0.00     0.198 A 
ATOM     81  C   UNL A   1      40.017  35.603  37.992  1.00  0.00     0.198 A 
ATOM     82  F   UNL A   1      40.967  35.292  35.860  1.00  0.00    -0.203 F 
ATOM     83  F   UNL A   1      37.778  33.491  39.905  1.00  0.00    -0.200 F 
ATOM     84  C   UNL A   1      39.209  35.152  39.024  1.00  0.00     0.200 A 
ATOM     85  F   UNL A   1      40.634  36.788  38.094  1.00  0.00    -0.200 F 
ATOM     86  F   UNL A   1      39.027  35.908  40.116  1.00  0.00    -0.200 F 
ENDBRANCH  52  76
BRANCH  64  87
ATOM     87  C   UNL A   1      44.210  28.680  34.957  1.00  0.00     0.064 A 
ATOM     88  C   UNL A   1      44.123  27.546  35.777  1.00  0.00     0.173 A 
ATOM     89  C   UNL A   1      45.474  29.261  34.766  1.00  0.00     0.173 A 
ATOM     90  F   UNL A   1      42.934  26.966  36.001  1.00  0.00    -0.203 F 
ATOM     91  C   UNL A   1      45.255  27.025  36.398  1.00  0.00     0.198 A 
ATOM     92  C   UNL A   1      46.607  28.721  35.367  1.00  0.00     0.198 A 
ATOM     93  F   UNL A   1      45.609  30.343  33.986  1.00  0.00    -0.203 F 
ATOM     94  F   UNL A   1      45.143  25.965  37.210  1.00  0.00    -0.200 F 
ATOM     95  C   UNL A   1      46.496  27.608  36.187  1.00  0.00     0.200 A 
ATOM     96  F   UNL A   1      47.807  29.278  35.153  1.00  0.00    -0.200 F 
ATOM     97  F   UNL A   1      47.585  27.100  36.779  1.00  0.00    -0.200 F 
ENDBRANCH  64  87
ENDBRANCH  38  39
ENDBRANCH  30  33
ENDBRANCH  28  29
ENDBRANCH  27  28
ENDBRANCH  26  27
ENDBRANCH   3  26
TORSDOF 17
ENDMDL
MODEL 2
REMARK VINA RESULT:     -11.5      5.552     11.093
REMARK SMILES CC(C)CCNC(=O)[C@@H](C)Oc1ccc(N)cc1C(=O)NCCCNC(=O)c1ccc(-c2c3nc(c(-c4c(F)c(F)c(F)c(F)c4F)c4ccc([nH]4)c(-c4c(F)c(F)c(F)c(F)c4F)c4nc(c(-c5c(F)c(F)c(F)c(F)c5F)c5ccc2[nH]5)C=C4)C=C3)cc1
REMARK SMILES IDX 19 1 20 2 21 3 18 5 12 6 13 7 14 8 17 9 15 10 11 11 9 12
REMARK SMILES IDX 10 13 7 14 6 15 8 17 5 18 4 19 2 20 1 21 3 22 16 23 22 26
REMARK SMILES IDX 23 27 24 28 25 29 26 30 27 32 28 33 29 34 90 35 30 36 89 37
REMARK SMILES IDX 31 38 32 39 33 40 83 41 34 42 88 43 82 44 84 45 35 46 87 47
REMARK SMILES IDX 81 48 80 49 36 51 68 52 48 53 67 54 49 55 52 56 66 57 85 58
REMARK SMILES IDX 50 59 51 60 65 62 86 63 53 64 37 65 38 66 46 67 39 68 40 69
REMARK SMILES IDX 44 70 47 71 41 72 42 73 45 74 43 75 69 76 70 77 78 78 71 79
REMARK SMILES IDX 72 80 76 81 79 82 73 83 74 84 77 85 75 86 54 87 55 88 63 89
REMARK SMILES IDX 56 90 57 91 61 92 64 93 58 94 59 95 62 96 60 97
REMARK H PARENT 21 4 6 16 16 24 16 25 25 31 84 50 52 61
REMARK Flexibility Score: inf
ROOT
ATOM      1  C   UNL A   1      34.546  20.954  25.859  1.00  0.00     0.255 C 
ATOM      2  O   UNL A   1      34.098  21.412  26.914  1.00  0.00    -0.269 OA
ATOM      3  N   UNL A   1      35.912  20.914  25.744  1.00  0.00    -0.352 N 
ATOM      4  H   UNL A   1      36.388  21.103  26.585  1.00  0.00     0.163 HD
ENDROOT
BRANCH   1   5
ATOM      5  C   UNL A   1      33.589  20.376  24.872  1.00  0.00     0.083 A 
ATOM      6  C   UNL A   1      32.824  21.050  23.917  1.00  0.00     0.133 A 
ATOM      7  C   UNL A   1      32.216  20.319  22.893  1.00  0.00     0.049 A 
ATOM      8  C   UNL A   1      32.137  18.926  22.967  1.00  0.00     0.029 A 
ATOM      9  C   UNL A   1      33.459  18.972  24.951  1.00  0.00     0.043 A 
ATOM     10  C   UNL A   1      32.665  18.250  24.060  1.00  0.00     0.032 A 
BRANCH   6  11
ATOM     11  O   UNL A   1      32.708  22.402  23.882  1.00  0.00    -0.480 OA
BRANCH  11  12
ATOM     12  C   UNL A   1      31.522  23.000  24.418  1.00  0.00     0.258 C 
ATOM     13  C   UNL A   1      30.823  23.987  23.474  1.00  0.00     0.064 C 
BRANCH  12  14
ATOM     14  C   UNL A   1      31.409  23.377  25.921  1.00  0.00     0.260 C 
ATOM     15  N   UNL A   1      32.292  24.206  26.546  1.00  0.00    -0.353 N 
ATOM     16  H   UNL A   1      31.985  24.576  27.406  1.00  0.00     0.163 HD
ATOM     17  O   UNL A   1      30.474  22.941  26.603  1.00  0.00    -0.271 OA
BRANCH  15  18
ATOM     18  C   UNL A   1      33.613  24.621  26.128  1.00  0.00     0.116 C 
BRANCH  18  19
ATOM     19  C   UNL A   1      33.637  25.949  25.388  1.00  0.00     0.024 C 
BRANCH  19  20
ATOM     20  C   UNL A   1      32.993  27.120  26.154  1.00  0.00    -0.016 C 
ATOM     21  C   UNL A   1      33.945  28.307  26.337  1.00  0.00     0.007 C 
ATOM     22  C   UNL A   1      31.747  27.582  25.395  1.00  0.00     0.007 C 
ENDBRANCH  19  20
ENDBRANCH  18  19
ENDBRANCH  15  18
ENDBRANCH  12  14
ENDBRANCH  11  12
ENDBRANCH   6  11
BRANCH  10  23
ATOM     23  N   UNL A   1      32.530  16.878  24.184  1.00  0.00    -0.399 N 
ATOM     24  H   UNL A   1      33.324  16.317  24.336  1.00  0.00     0.156 HD
ATOM     25  H   UNL A   1      31.639  16.464  24.120  1.00  0.00     0.156 HD
ENDBRANCH  10  23
ENDBRANCH   1   5
BRANCH   3  26
ATOM     26  C   UNL A   1      36.793  20.648  24.621  1.00  0.00     0.118 C 
BRANCH  26  27
ATOM     27  C   UNL A   1      37.830  19.601  25.029  1.00  0.00     0.042 C 
BRANCH  27  28
ATOM     28  C   UNL A   1      38.987  20.176  25.834  1.00  0.00     0.118 C 
BRANCH  28  29
ATOM     29  N   UNL A   1      40.054  19.202  25.985  1.00  0.00    -0.352 N 
ATOM     30  C   UNL A   1      41.408  19.399  26.063  1.00  0.00     0.251 C 
ATOM     31  H   UNL A   1      39.762  18.264  26.039  1.00  0.00     0.163 HD
ATOM     32  O   UNL A   1      42.165  18.439  25.901  1.00  0.00    -0.269 OA
BRANCH  30  33
ATOM     33  C   UNL A   1      41.984  20.738  26.340  1.00  0.00     0.039 A 
ATOM     34  C   UNL A   1      42.265  21.087  27.666  1.00  0.00     0.014 A 
ATOM     35  C   UNL A   1      42.172  21.682  25.327  1.00  0.00     0.014 A 
ATOM     36  C   UNL A   1      42.752  22.362  27.969  1.00  0.00     0.010 A 
ATOM     37  C   UNL A   1      42.736  22.923  25.618  1.00  0.00     0.010 A 
ATOM     38  C   UNL A   1      43.005  23.288  26.945  1.00  0.00    -0.014 A 
BRANCH  38  39
ATOM     39  C   UNL A   1      43.497  24.659  27.246  1.00  0.00     0.031 A 
ATOM     40  C   UNL A   1      42.551  25.691  27.800  1.00  0.00     0.074 A 
ATOM     41  C   UNL A   1      44.772  24.994  26.971  1.00  0.00     0.049 A 
ATOM     42  N   UNL A   1      42.755  26.961  28.044  1.00  0.00    -0.248 NA
ATOM     43  C   UNL A   1      41.180  25.241  28.093  1.00  0.00     0.031 C 
ATOM     44  C   UNL A   1      45.776  24.099  26.396  1.00  0.00     0.029 A 
ATOM     45  N   UNL A   1      45.438  26.184  27.130  1.00  0.00    -0.354 N 
ATOM     46  C   UNL A   1      41.538  27.464  28.486  1.00  0.00     0.074 A 
ATOM     47  C   UNL A   1      40.587  26.375  28.434  1.00  0.00     0.031 C 
ATOM     48  C   UNL A   1      46.936  24.764  26.270  1.00  0.00     0.029 A 
ATOM     49  C   UNL A   1      46.749  26.140  26.720  1.00  0.00     0.049 A 
ATOM     50  H   UNL A   1      45.017  26.993  27.502  1.00  0.00     0.167 HD
ATOM     51  C   UNL A   1      41.244  28.713  28.920  1.00  0.00     0.037 A 
ATOM     52  C   UNL A   1      47.690  27.104  26.704  1.00  0.00     0.037 A 
ATOM     53  C   UNL A   1      42.202  29.782  29.016  1.00  0.00     0.049 A 
ATOM     54  C   UNL A   1      47.344  28.477  27.211  1.00  0.00     0.074 A 
ATOM     55  C   UNL A   1      42.020  31.065  29.503  1.00  0.00     0.029 A 
ATOM     56  N   UNL A   1      43.530  29.687  28.623  1.00  0.00    -0.354 N 
ATOM     57  N   UNL A   1      46.204  28.925  27.677  1.00  0.00    -0.248 NA
ATOM     58  C   UNL A   1      48.420  29.479  27.198  1.00  0.00     0.031 C 
ATOM     59  C   UNL A   1      43.229  31.757  29.371  1.00  0.00     0.029 A 
ATOM     60  C   UNL A   1      44.175  30.892  28.843  1.00  0.00     0.049 A 
ATOM     61  H   UNL A   1      43.950  28.882  28.243  1.00  0.00     0.167 HD
ATOM     62  C   UNL A   1      46.430  30.246  28.038  1.00  0.00     0.074 A 
ATOM     63  C   UNL A   1      47.821  30.526  27.748  1.00  0.00     0.031 C 
ATOM     64  C   UNL A   1      45.564  31.147  28.562  1.00  0.00     0.037 A 
BRANCH  51  65
ATOM     65  C   UNL A   1      39.827  28.991  29.331  1.00  0.00     0.064 A 
ATOM     66  C   UNL A   1      38.855  29.394  28.401  1.00  0.00     0.173 A 
ATOM     67  C   UNL A   1      39.426  28.824  30.665  1.00  0.00     0.173 A 
ATOM     68  F   UNL A   1      39.188  29.580  27.115  1.00  0.00    -0.203 F 
ATOM     69  C   UNL A   1      37.544  29.648  28.797  1.00  0.00     0.198 A 
ATOM     70  C   UNL A   1      38.107  29.048  31.052  1.00  0.00     0.198 A 
ATOM     71  F   UNL A   1      40.311  28.433  31.594  1.00  0.00    -0.203 F 
ATOM     72  F   UNL A   1      36.647  30.080  27.900  1.00  0.00    -0.200 F 
ATOM     73  C   UNL A   1      37.170  29.469  30.120  1.00  0.00     0.200 A 
ATOM     74  F   UNL A   1      37.743  28.862  32.329  1.00  0.00    -0.200 F 
ATOM     75  F   UNL A   1      35.907  29.708  30.498  1.00  0.00    -0.200 F 
ENDBRANCH  51  65
BRANCH  52  76
ATOM     76  C   UNL A   1      49.059  26.792  26.219  1.00  0.00     0.064 A 
ATOM     77  C   UNL A   1      49.409  26.994  24.877  1.00  0.00     0.173 A 
ATOM     78  C   UNL A   1      50.045  26.293  27.083  1.00  0.00     0.173 A 
ATOM     79  F   UNL A   1      48.493  27.448  24.009  1.00  0.00    -0.203 F 
ATOM     80  C   UNL A   1      50.687  26.691  24.413  1.00  0.00     0.198 A 
ATOM     81  C   UNL A   1      51.331  26.016  26.623  1.00  0.00     0.198 A 
ATOM     82  F   UNL A   1      49.762  26.087  28.378  1.00  0.00    -0.203 F 
ATOM     83  F   UNL A   1      50.981  26.853  23.115  1.00  0.00    -0.200 F 
ATOM     84  C   UNL A   1      51.648  26.208  25.287  1.00  0.00     0.200 A 
ATOM     85  F   UNL A   1      52.261  25.561  27.473  1.00  0.00    -0.200 F 
ATOM     86  F   UNL A   1      52.879  25.921  24.840  1.00  0.00    -0.200 F 
ENDBRANCH  52  76
BRANCH  64  87
ATOM     87  C   UNL A   1      46.101  32.507  28.892  1.00  0.00     0.064 A 
ATOM     88  C   UNL A   1      46.688  32.784  30.135  1.00  0.00     0.173 A 
ATOM     89  C   UNL A   1      46.070  33.533  27.935  1.00  0.00     0.173 A 
ATOM     90  F   UNL A   1      46.728  31.840  31.088  1.00  0.00    -0.203 F 
ATOM     91  C   UNL A   1      47.207  34.046  30.416  1.00  0.00     0.198 A 
ATOM     92  C   UNL A   1      46.613  34.785  28.210  1.00  0.00     0.198 A 
ATOM     93  F   UNL A   1      45.524  33.315  26.730  1.00  0.00    -0.203 F 
ATOM     94  F   UNL A   1      47.727  34.301  31.624  1.00  0.00    -0.200 F 
ATOM     95  C   UNL A   1      47.176  35.042  29.451  1.00  0.00     0.200 A 
ATOM     96  F   UNL A   1      46.593  35.742  27.272  1.00  0.00    -0.200 F 
ATOM     97  F   UNL A   1      47.682  36.253  29.719  1.00  0.00    -0.200 F 
ENDBRANCH  64  87
ENDBRANCH  38  39
ENDBRANCH  30  33
ENDBRANCH  28  29
ENDBRANCH  27  28
ENDBRANCH  26  27
ENDBRANCH   3  26
TORSDOF 17
ENDMDL
MODEL 3
REMARK VINA RESULT:     -11.5      4.045      8.000
REMARK SMILES CC(C)CCNC(=O)[C@@H](C)Oc1ccc(N)cc1C(=O)NCCCNC(=O)c1ccc(-c2c3nc(c(-c4c(F)c(F)c(F)c(F)c4F)c4ccc([nH]4)c(-c4c(F)c(F)c(F)c(F)c4F)c4nc(c(-c5c(F)c(F)c(F)c(F)c5F)c5ccc2[nH]5)C=C4)C=C3)cc1
REMARK SMILES IDX 19 1 20 2 21 3 18 5 12 6 13 7 14 8 17 9 15 10 11 11 9 12
REMARK SMILES IDX 10 13 7 14 6 15 8 17 5 18 4 19 2 20 1 21 3 22 16 23 22 26
REMARK SMILES IDX 23 27 24 28 25 29 26 30 27 32 28 33 29 34 90 35 30 36 89 37
REMARK SMILES IDX 31 38 32 39 33 40 83 41 34 42 88 43 82 44 84 45 35 46 87 47
REMARK SMILES IDX 81 48 80 49 36 51 68 52 48 53 67 54 49 55 52 56 66 57 85 58
REMARK SMILES IDX 50 59 51 60 65 62 86 63 53 64 37 65 38 66 46 67 39 68 40 69
REMARK SMILES IDX 44 70 47 71 41 72 42 73 45 74 43 75 69 76 70 77 78 78 71 79
REMARK SMILES IDX 72 80 76 81 79 82 73 83 74 84 77 85 75 86 54 87 55 88 63 89
REMARK SMILES IDX 56 90 57 91 61 92 64 93 58 94 59 95 62 96 60 97
REMARK H PARENT 21 4 6 16 16 24 16 25 25 31 84 50 52 61
REMARK Flexibility Score: inf
ROOT
ATOM      1  C   UNL A   1      32.133  24.765  26.006  1.00  0.00     0.255 C 
ATOM      2  O   UNL A   1      30.919  24.679  25.803  1.00  0.00    -0.269 OA
ATOM      3  N   UNL A   1      32.775  23.604  26.359  1.00  0.00    -0.352 N 
ATOM      4  H   UNL A   1      32.224  22.796  26.249  1.00  0.00     0.163 HD
ENDROOT
BRANCH   1   5
ATOM      5  C   UNL A   1      32.811  26.065  25.733  1.00  0.00     0.083 A 
ATOM      6  C   UNL A   1      33.610  26.407  24.640  1.00  0.00     0.133 A 
ATOM      7  C   UNL A   1      33.911  27.753  24.411  1.00  0.00     0.049 A 
ATOM      8  C   UNL A   1      33.659  28.712  25.396  1.00  0.00     0.029 A 
ATOM      9  C   UNL A   1      32.606  27.042  26.733  1.00  0.00     0.043 A 
ATOM     10  C   UNL A   1      33.103  28.339  26.613  1.00  0.00     0.032 A 
BRANCH   6  11
ATOM     11  O   UNL A   1      34.044  25.500  23.728  1.00  0.00    -0.480 OA
BRANCH  11  12
ATOM     12  C   UNL A   1      33.121  25.034  22.737  1.00  0.00     0.258 C 
ATOM     13  C   UNL A   1      33.267  23.549  22.379  1.00  0.00     0.064 C 
BRANCH  12  14
ATOM     14  C   UNL A   1      32.686  25.929  21.545  1.00  0.00     0.260 C 
ATOM     15  N   UNL A   1      31.695  26.860  21.640  1.00  0.00    -0.353 N 
ATOM     16  H   UNL A   1      31.679  27.534  20.922  1.00  0.00     0.163 HD
ATOM     17  O   UNL A   1      33.259  25.834  20.453  1.00  0.00    -0.271 OA
BRANCH  15  18
ATOM     18  C   UNL A   1      30.663  27.002  22.644  1.00  0.00     0.116 C 
BRANCH  18  19
ATOM     19  C   UNL A   1      30.518  28.416  23.183  1.00  0.00     0.024 C 
BRANCH  19  20
ATOM     20  C   UNL A   1      29.222  29.132  22.758  1.00  0.00    -0.016 C 
ATOM     21  C   UNL A   1      27.958  28.345  23.124  1.00  0.00     0.007 C 
ATOM     22  C   UNL A   1      29.174  30.507  23.428  1.00  0.00     0.007 C 
ENDBRANCH  19  20
ENDBRANCH  18  19
ENDBRANCH  15  18
ENDBRANCH  12  14
ENDBRANCH  11  12
ENDBRANCH   6  11
BRANCH  10  23
ATOM     23  N   UNL A   1      32.915  29.265  27.625  1.00  0.00    -0.399 N 
ATOM     24  H   UNL A   1      32.004  29.511  27.904  1.00  0.00     0.156 HD
ATOM     25  H   UNL A   1      33.693  29.676  28.066  1.00  0.00     0.156 HD
ENDBRANCH  10  23
ENDBRANCH   1   5
BRANCH   3  26
ATOM     26  C   UNL A   1      34.111  23.337  26.862  1.00  0.00     0.118 C 
BRANCH  26  27
ATOM     27  C   UNL A   1      35.041  23.031  25.688  1.00  0.00     0.042 C 
BRANCH  27  28
ATOM     28  C   UNL A   1      36.412  23.678  25.817  1.00  0.00     0.118 C 
BRANCH  28  29
ATOM     29  N   UNL A   1      37.449  22.677  26.000  1.00  0.00    -0.352 N 
ATOM     30  C   UNL A   1      38.773  22.841  26.316  1.00  0.00     0.251 C 
ATOM     31  H   UNL A   1      37.158  21.745  25.880  1.00  0.00     0.163 HD
ATOM     32  O   UNL A   1      39.551  21.900  26.145  1.00  0.00    -0.269 OA
BRANCH  30  33
ATOM     33  C   UNL A   1      39.288  24.121  26.860  1.00  0.00     0.039 A 
ATOM     34  C   UNL A   1      39.070  24.413  28.211  1.00  0.00     0.014 A 
ATOM     35  C   UNL A   1      39.909  25.071  26.043  1.00  0.00     0.014 A 
ATOM     36  C   UNL A   1      39.489  25.636  28.742  1.00  0.00     0.010 A 
ATOM     37  C   UNL A   1      40.401  26.254  26.591  1.00  0.00     0.010 A 
ATOM     38  C   UNL A   1      40.172  26.563  27.939  1.00  0.00    -0.014 A 
BRANCH  38  39
ATOM     39  C   UNL A   1      40.604  27.882  28.475  1.00  0.00     0.031 A 
ATOM     40  C   UNL A   1      42.054  28.119  28.805  1.00  0.00     0.074 A 
ATOM     41  C   UNL A   1      39.692  28.843  28.718  1.00  0.00     0.049 A 
ATOM     42  N   UNL A   1      42.620  29.160  29.364  1.00  0.00    -0.248 NA
ATOM     43  C   UNL A   1      42.991  27.028  28.492  1.00  0.00     0.031 C 
ATOM     44  C   UNL A   1      38.254  28.724  28.479  1.00  0.00     0.029 A 
ATOM     45  N   UNL A   1      39.842  30.109  29.229  1.00  0.00    -0.354 N 
ATOM     46  C   UNL A   1      43.964  28.836  29.495  1.00  0.00     0.074 A 
ATOM     47  C   UNL A   1      44.124  27.485  29.002  1.00  0.00     0.031 C 
ATOM     48  C   UNL A   1      37.655  29.875  28.823  1.00  0.00     0.029 A 
ATOM     49  C   UNL A   1      38.660  30.801  29.339  1.00  0.00     0.049 A 
ATOM     50  H   UNL A   1      40.713  30.485  29.492  1.00  0.00     0.167 HD
ATOM     51  C   UNL A   1      44.980  29.602  29.962  1.00  0.00     0.037 A 
ATOM     52  C   UNL A   1      38.415  32.039  29.811  1.00  0.00     0.037 A 
ATOM     53  C   UNL A   1      44.827  30.961  30.408  1.00  0.00     0.049 A 
ATOM     54  C   UNL A   1      39.563  32.878  30.303  1.00  0.00     0.074 A 
ATOM     55  C   UNL A   1      45.802  31.844  30.838  1.00  0.00     0.029 A 
ATOM     56  N   UNL A   1      43.618  31.638  30.472  1.00  0.00    -0.354 N 
ATOM     57  N   UNL A   1      40.837  32.579  30.372  1.00  0.00    -0.248 NA
ATOM     58  C   UNL A   1      39.239  34.231  30.777  1.00  0.00     0.031 C 
ATOM     59  C   UNL A   1      45.178  33.044  31.197  1.00  0.00     0.029 A 
ATOM     60  C   UNL A   1      43.820  32.923  30.948  1.00  0.00     0.049 A 
ATOM     61  H   UNL A   1      42.745  31.261  30.217  1.00  0.00     0.167 HD
ATOM     62  C   UNL A   1      41.469  33.711  30.868  1.00  0.00     0.074 A 
ATOM     63  C   UNL A   1      40.440  34.709  31.072  1.00  0.00     0.031 C 
ATOM     64  C   UNL A   1      42.784  33.906  31.130  1.00  0.00     0.037 A 
BRANCH  51  65
ATOM     65  C   UNL A   1      46.350  28.989  30.009  1.00  0.00     0.064 A 
ATOM     66  C   UNL A   1      47.229  29.065  28.917  1.00  0.00     0.173 A 
ATOM     67  C   UNL A   1      46.802  28.344  31.170  1.00  0.00     0.173 A 
ATOM     68  F   UNL A   1      46.841  29.661  27.780  1.00  0.00    -0.203 F 
ATOM     69  C   UNL A   1      48.497  28.492  28.975  1.00  0.00     0.198 A 
ATOM     70  C   UNL A   1      48.083  27.799  31.235  1.00  0.00     0.198 A 
ATOM     71  F   UNL A   1      46.007  28.249  32.246  1.00  0.00    -0.203 F 
ATOM     72  F   UNL A   1      49.298  28.533  27.902  1.00  0.00    -0.200 F 
ATOM     73  C   UNL A   1      48.925  27.866  30.135  1.00  0.00     0.200 A 
ATOM     74  F   UNL A   1      48.500  27.206  32.362  1.00  0.00    -0.200 F 
ATOM     75  F   UNL A   1      50.148  27.320  30.192  1.00  0.00    -0.200 F 
ENDBRANCH  51  65
BRANCH  52  76
ATOM     76  C   UNL A   1      37.028  32.570  29.808  1.00  0.00     0.064 A 
ATOM     77  C   UNL A   1      36.523  33.253  28.694  1.00  0.00     0.173 A 
ATOM     78  C   UNL A   1      36.180  32.404  30.913  1.00  0.00     0.173 A 
ATOM     79  F   UNL A   1      37.305  33.457  27.623  1.00  0.00    -0.203 F 
ATOM     80  C   UNL A   1      35.228  33.766  28.690  1.00  0.00     0.198 A 
ATOM     81  C   UNL A   1      34.875  32.894  30.897  1.00  0.00     0.198 A 
ATOM     82  F   UNL A   1      36.614  31.753  32.002  1.00  0.00    -0.203 F 
ATOM     83  F   UNL A   1      34.785  34.453  27.628  1.00  0.00    -0.200 F 
ATOM     84  C   UNL A   1      34.403  33.581  29.789  1.00  0.00     0.200 A 
ATOM     85  F   UNL A   1      34.077  32.702  31.956  1.00  0.00    -0.200 F 
ATOM     86  F   UNL A   1      33.156  34.071  29.783  1.00  0.00    -0.200 F 
ENDBRANCH  52  76
BRANCH  64  87
ATOM     87  C   UNL A   1      43.193  35.260  31.630  1.00  0.00     0.064 A 
ATOM     88  C   UNL A   1      43.653  36.258  30.759  1.00  0.00     0.173 A 
ATOM     89  C   UNL A   1      43.077  35.577  32.992  1.00  0.00     0.173 A 
ATOM     90  F   UNL A   1      43.796  35.998  29.450  1.00  0.00    -0.203 F 
ATOM     91  C   UNL A   1      44.003  37.519  31.236  1.00  0.00     0.198 A 
ATOM     92  C   UNL A   1      43.401  36.846  33.462  1.00  0.00     0.198 A 
ATOM     93  F   UNL A   1      42.636  34.658  33.864  1.00  0.00    -0.203 F 
ATOM     94  F   UNL A   1      44.479  38.444  30.393  1.00  0.00    -0.200 F 
ATOM     95  C   UNL A   1      43.869  37.813  32.585  1.00  0.00     0.200 A 
ATOM     96  F   UNL A   1      43.261  37.133  34.763  1.00  0.00    -0.200 F 
ATOM     97  F   UNL A   1      44.198  39.029  33.042  1.00  0.00    -0.200 F 
ENDBRANCH  64  87
ENDBRANCH  38  39
ENDBRANCH  30  33
ENDBRANCH  28  29
ENDBRANCH  27  28
ENDBRANCH  26  27
ENDBRANCH   3  26
TORSDOF 17
ENDMDL
