MODEL 1
REMARK VINA RESULT:     -13.6      0.000      0.000
REMARK SMILES Cc1ccccc1CN1C(=O)[C@H](CC(=O)NCCCNC(=O)c2ccc(-c3c4nc(c(-c5c(F)c(F)c(F)c(F)c5F)c5ccc([nH]5)c(-c5c(F)c(F)c(F)c(F)c5F)c5nc(c(-c6c(F)c(F)c(F)c(F)c6F)c6ccc3[nH]6)C=C5)C=C4)cc2)n2c(nc3ccccc32)[C@H]1C
REMARK SMILES IDX 17 1 16 2 14 3 15 4 13 6 12 7 9 8 10 9 95 10 11 11 87 12
REMARK SMILES IDX 96 13 86 14 88 15 94 16 89 17 93 18 90 19 92 20 91 21 8 22
REMARK SMILES IDX 7 23 1 24 2 25 3 26 4 27 6 28 5 29 18 30 19 31 20 32 21 33
REMARK SMILES IDX 22 35 23 36 24 37 85 38 25 39 84 40 26 41 27 42 28 43 78 44
REMARK SMILES IDX 29 45 83 46 77 47 79 48 30 49 82 50 76 51 75 52 31 54 63 55
REMARK SMILES IDX 43 56 62 57 44 58 47 59 61 60 80 61 45 62 46 63 60 65 81 66
REMARK SMILES IDX 48 67 32 68 33 69 41 70 34 71 35 72 39 73 42 74 36 75 37 76
REMARK SMILES IDX 40 77 38 78 64 79 65 80 73 81 66 82 67 83 71 84 74 85 68 86
REMARK SMILES IDX 69 87 72 88 70 89 49 90 50 91 58 92 51 93 52 94 56 95 59 96
REMARK SMILES IDX 53 97 54 98 57 99 55 100
REMARK H PARENT 16 5 20 34 79 53 47 64
REMARK Flexibility Score: inf
ROOT
ATOM      1  C   UNL A   1      35.275  30.367  27.575  1.00  0.00     0.117 C 
ENDROOT
BRANCH   1   2
ATOM      2  N   UNL A   1      34.116  29.539  27.902  1.00  0.00    -0.356 N 
ATOM      3  C   UNL A   1      33.568  28.471  27.259  1.00  0.00     0.222 C 
ATOM      4  O   UNL A   1      32.472  28.059  27.651  1.00  0.00    -0.275 OA
ATOM      5  H   UNL A   1      33.653  29.797  28.732  1.00  0.00     0.163 HD
BRANCH   3   6
ATOM      6  C   UNL A   1      34.257  27.777  26.098  1.00  0.00     0.135 C 
BRANCH   6   7
ATOM      7  C   UNL A   1      33.200  27.188  25.147  1.00  0.00     0.187 C 
ATOM      8  N   UNL A   1      32.236  27.774  22.955  1.00  0.00    -0.327 N 
ATOM      9  C   UNL A   1      32.835  28.239  24.106  1.00  0.00     0.247 C 
ATOM     10  C   UNL A   1      33.116  26.886  22.189  1.00  0.00     0.149 C 
ATOM     11  O   UNL A   1      33.028  29.445  24.259  1.00  0.00    -0.272 OA
ATOM     12  C   UNL A   1      33.571  25.788  23.110  1.00  0.00     0.133 A 
ATOM     13  C   UNL A   1      32.562  26.316  20.890  1.00  0.00     0.040 C 
ATOM     14  N   UNL A   1      33.600  25.953  24.480  1.00  0.00    -0.313 N 
ATOM     15  N   UNL A   1      33.982  24.584  22.773  1.00  0.00    -0.231 NA
ATOM     16  C   UNL A   1      33.871  24.731  25.047  1.00  0.00     0.069 A 
ATOM     17  C   UNL A   1      34.137  23.907  23.952  1.00  0.00     0.089 A 
ATOM     18  C   UNL A   1      33.902  24.255  26.363  1.00  0.00     0.028 A 
ATOM     19  C   UNL A   1      34.480  22.563  24.157  1.00  0.00     0.030 A 
ATOM     20  C   UNL A   1      34.237  22.906  26.546  1.00  0.00     0.002 A 
ATOM     21  C   UNL A   1      34.528  22.074  25.464  1.00  0.00     0.002 A 
BRANCH   8  22
ATOM     22  C   UNL A   1      31.233  28.636  22.317  1.00  0.00     0.156 C 
BRANCH  22  23
ATOM     23  C   UNL A   1      29.831  28.221  22.721  1.00  0.00    -0.026 A 
ATOM     24  C   UNL A   1      28.658  30.306  21.742  1.00  0.00     0.044 C 
ATOM     25  C   UNL A   1      28.686  29.031  22.542  1.00  0.00    -0.046 A 
ATOM     26  C   UNL A   1      27.458  28.612  23.094  1.00  0.00     0.004 A 
ATOM     27  C   UNL A   1      27.351  27.414  23.797  1.00  0.00     0.000 A 
ATOM     28  C   UNL A   1      29.678  26.983  23.373  1.00  0.00     0.006 A 
ATOM     29  C   UNL A   1      28.460  26.590  23.921  1.00  0.00     0.000 A 
ENDBRANCH  22  23
ENDBRANCH   8  22
ENDBRANCH   6   7
ENDBRANCH   3   6
ENDBRANCH   1   2
BRANCH   1  30
ATOM     30  C   UNL A   1      36.595  29.652  27.916  1.00  0.00     0.042 C 
BRANCH  30  31
ATOM     31  C   UNL A   1      36.852  29.470  29.405  1.00  0.00     0.118 C 
BRANCH  31  32
ATOM     32  N   UNL A   1      37.260  30.723  30.016  1.00  0.00    -0.352 N 
ATOM     33  C   UNL A   1      38.431  31.163  30.571  1.00  0.00     0.251 C 
ATOM     34  H   UNL A   1      36.543  31.397  30.036  1.00  0.00     0.163 HD
ATOM     35  O   UNL A   1      38.343  32.162  31.291  1.00  0.00    -0.269 OA
BRANCH  33  36
ATOM     36  C   UNL A   1      39.768  30.527  30.388  1.00  0.00     0.039 A 
ATOM     37  C   UNL A   1      40.779  31.346  29.856  1.00  0.00     0.014 A 
ATOM     38  C   UNL A   1      40.085  29.192  30.647  1.00  0.00     0.014 A 
ATOM     39  C   UNL A   1      42.079  30.864  29.656  1.00  0.00     0.010 A 
ATOM     40  C   UNL A   1      41.394  28.711  30.459  1.00  0.00     0.010 A 
ATOM     41  C   UNL A   1      42.411  29.548  29.996  1.00  0.00    -0.014 A 
BRANCH  41  42
ATOM     42  C   UNL A   1      43.850  29.221  30.126  1.00  0.00     0.031 A 
ATOM     43  C   UNL A   1      44.073  28.222  31.237  1.00  0.00     0.074 A 
ATOM     44  C   UNL A   1      44.768  29.026  29.143  1.00  0.00     0.049 A 
ATOM     45  N   UNL A   1      43.801  26.965  31.064  1.00  0.00    -0.248 NA
ATOM     46  C   UNL A   1      44.453  28.538  32.611  1.00  0.00     0.031 C 
ATOM     47  C   UNL A   1      46.204  29.198  29.381  1.00  0.00     0.029 A 
ATOM     48  N   UNL A   1      44.702  28.658  27.798  1.00  0.00    -0.354 N 
ATOM     49  C   UNL A   1      44.195  26.282  32.202  1.00  0.00     0.074 A 
ATOM     50  C   UNL A   1      44.473  27.315  33.178  1.00  0.00     0.031 C 
ATOM     51  C   UNL A   1      46.892  28.872  28.269  1.00  0.00     0.029 A 
ATOM     52  C   UNL A   1      45.968  28.330  27.273  1.00  0.00     0.049 A 
ATOM     53  H   UNL A   1      43.867  28.631  27.277  1.00  0.00     0.167 HD
ATOM     54  C   UNL A   1      44.455  24.936  32.140  1.00  0.00     0.037 A 
ATOM     55  C   UNL A   1      46.361  27.492  26.261  1.00  0.00     0.037 A 
ATOM     56  C   UNL A   1      44.615  24.554  30.758  1.00  0.00     0.049 A 
ATOM     57  C   UNL A   1      45.252  26.618  25.764  1.00  0.00     0.074 A 
ATOM     58  C   UNL A   1      45.739  24.889  30.045  1.00  0.00     0.029 A 
ATOM     59  N   UNL A   1      43.606  24.212  29.862  1.00  0.00    -0.354 N 
ATOM     60  N   UNL A   1      45.128  25.392  26.178  1.00  0.00    -0.248 NA
ATOM     61  C   UNL A   1      44.089  27.068  24.996  1.00  0.00     0.031 C 
ATOM     62  C   UNL A   1      45.222  25.198  28.809  1.00  0.00     0.029 A 
ATOM     63  C   UNL A   1      43.983  24.630  28.583  1.00  0.00     0.049 A 
ATOM     64  H   UNL A   1      42.766  23.753  30.093  1.00  0.00     0.167 HD
ATOM     65  C   UNL A   1      43.768  25.187  26.258  1.00  0.00     0.074 A 
ATOM     66  C   UNL A   1      43.212  26.082  25.253  1.00  0.00     0.031 C 
ATOM     67  C   UNL A   1      43.137  24.693  27.382  1.00  0.00     0.037 A 
BRANCH  54  68
ATOM     68  C   UNL A   1      45.087  24.071  33.194  1.00  0.00     0.064 A 
ATOM     69  C   UNL A   1      46.408  24.333  33.653  1.00  0.00     0.173 A 
ATOM     70  C   UNL A   1      44.477  22.929  33.719  1.00  0.00     0.173 A 
ATOM     71  F   UNL A   1      47.115  25.388  33.227  1.00  0.00    -0.203 F 
ATOM     72  C   UNL A   1      47.065  23.516  34.563  1.00  0.00     0.198 A 
ATOM     73  C   UNL A   1      45.141  22.110  34.643  1.00  0.00     0.198 A 
ATOM     74  F   UNL A   1      43.246  22.573  33.328  1.00  0.00    -0.203 F 
ATOM     75  F   UNL A   1      48.316  23.814  34.943  1.00  0.00    -0.200 F 
ATOM     76  C   UNL A   1      46.432  22.400  35.058  1.00  0.00     0.200 A 
ATOM     77  F   UNL A   1      44.528  21.019  35.123  1.00  0.00    -0.200 F 
ATOM     78  F   UNL A   1      47.070  21.599  35.922  1.00  0.00    -0.200 F 
ENDBRANCH  54  68
BRANCH  55  79
ATOM     79  C   UNL A   1      47.782  26.992  26.161  1.00  0.00     0.064 A 
ATOM     80  C   UNL A   1      48.526  27.185  24.993  1.00  0.00     0.173 A 
ATOM     81  C   UNL A   1      48.471  26.345  27.215  1.00  0.00     0.173 A 
ATOM     82  F   UNL A   1      47.962  27.788  23.937  1.00  0.00    -0.203 F 
ATOM     83  C   UNL A   1      49.864  26.767  24.895  1.00  0.00     0.198 A 
ATOM     84  C   UNL A   1      49.802  25.946  27.126  1.00  0.00     0.198 A 
ATOM     85  F   UNL A   1      47.895  26.080  28.382  1.00  0.00    -0.203 F 
ATOM     86  F   UNL A   1      50.544  26.970  23.758  1.00  0.00    -0.200 F 
ATOM     87  C   UNL A   1      50.501  26.154  25.963  1.00  0.00     0.200 A 
ATOM     88  F   UNL A   1      50.397  25.373  28.184  1.00  0.00    -0.200 F 
ATOM     89  F   UNL A   1      51.782  25.773  25.876  1.00  0.00    -0.200 F 
ENDBRANCH  55  79
BRANCH  67  90
ATOM     90  C   UNL A   1      41.651  24.516  27.355  1.00  0.00     0.064 A 
ATOM     91  C   UNL A   1      41.075  23.282  26.990  1.00  0.00     0.173 A 
ATOM     92  C   UNL A   1      40.756  25.547  27.673  1.00  0.00     0.173 A 
ATOM     93  F   UNL A   1      41.854  22.224  26.719  1.00  0.00    -0.203 F 
ATOM     94  C   UNL A   1      39.694  23.124  26.865  1.00  0.00     0.198 A 
ATOM     95  C   UNL A   1      39.376  25.387  27.555  1.00  0.00     0.198 A 
ATOM     96  F   UNL A   1      41.197  26.736  28.099  1.00  0.00    -0.203 F 
ATOM     97  F   UNL A   1      39.191  21.951  26.457  1.00  0.00    -0.200 F 
ATOM     98  C   UNL A   1      38.846  24.183  27.134  1.00  0.00     0.200 A 
ATOM     99  F   UNL A   1      38.561  26.416  27.830  1.00  0.00    -0.200 F 
ATOM    100  F   UNL A   1      37.523  24.056  26.979  1.00  0.00    -0.200 F 
ENDBRANCH  67  90
ENDBRANCH  41  42
ENDBRANCH  33  36
ENDBRANCH  31  32
ENDBRANCH  30  31
ENDBRANCH   1  30
TORSDOF 13
ENDMDL
MODEL 2
REMARK VINA RESULT:     -13.5      0.843      1.442
REMARK SMILES Cc1ccccc1CN1C(=O)[C@H](CC(=O)NCCCNC(=O)c2ccc(-c3c4nc(c(-c5c(F)c(F)c(F)c(F)c5F)c5ccc([nH]5)c(-c5c(F)c(F)c(F)c(F)c5F)c5nc(c(-c6c(F)c(F)c(F)c(F)c6F)c6ccc3[nH]6)C=C5)C=C4)cc2)n2c(nc3ccccc32)[C@H]1C
REMARK SMILES IDX 17 1 16 2 14 3 15 4 13 6 12 7 9 8 10 9 95 10 11 11 87 12
REMARK SMILES IDX 96 13 86 14 88 15 94 16 89 17 93 18 90 19 92 20 91 21 8 22
REMARK SMILES IDX 7 23 1 24 2 25 3 26 4 27 6 28 5 29 18 30 19 31 20 32 21 33
REMARK SMILES IDX 22 35 23 36 24 37 85 38 25 39 84 40 26 41 27 42 28 43 78 44
REMARK SMILES IDX 29 45 83 46 77 47 79 48 30 49 82 50 76 51 75 52 31 54 63 55
REMARK SMILES IDX 43 56 62 57 44 58 47 59 61 60 80 61 45 62 46 63 60 65 81 66
REMARK SMILES IDX 48 67 32 68 33 69 41 70 34 71 35 72 39 73 42 74 36 75 37 76
REMARK SMILES IDX 40 77 38 78 64 79 65 80 73 81 66 82 67 83 71 84 74 85 68 86
REMARK SMILES IDX 69 87 72 88 70 89 49 90 50 91 58 92 51 93 52 94 56 95 59 96
REMARK SMILES IDX 53 97 54 98 57 99 55 100
REMARK H PARENT 16 5 20 34 79 53 47 64
REMARK Flexibility Score: inf
ROOT
ATOM      1  C   UNL A   1      34.096  30.706  26.992  1.00  0.00     0.117 C 
ENDROOT
BRANCH   1   2
ATOM      2  N   UNL A   1      33.169  29.775  27.631  1.00  0.00    -0.356 N 
ATOM      3  C   UNL A   1      32.869  28.475  27.352  1.00  0.00     0.222 C 
ATOM      4  O   UNL A   1      31.908  27.965  27.935  1.00  0.00    -0.275 OA
ATOM      5  H   UNL A   1      32.676  30.151  28.396  1.00  0.00     0.163 HD
BRANCH   3   6
ATOM      6  C   UNL A   1      33.676  27.646  26.368  1.00  0.00     0.135 C 
BRANCH   6   7
ATOM      7  C   UNL A   1      32.739  27.057  25.300  1.00  0.00     0.187 C 
ATOM      8  N   UNL A   1      31.990  27.678  23.034  1.00  0.00    -0.327 N 
ATOM      9  C   UNL A   1      32.454  28.126  24.252  1.00  0.00     0.247 C 
ATOM     10  C   UNL A   1      32.967  26.832  22.343  1.00  0.00     0.149 C 
ATOM     11  O   UNL A   1      32.597  29.332  24.453  1.00  0.00    -0.272 OA
ATOM     12  C   UNL A   1      33.355  25.721  23.279  1.00  0.00     0.133 A 
ATOM     13  C   UNL A   1      32.565  26.283  20.980  1.00  0.00     0.040 C 
ATOM     14  N   UNL A   1      33.238  25.851  24.649  1.00  0.00    -0.313 N 
ATOM     15  N   UNL A   1      33.831  24.537  22.957  1.00  0.00    -0.231 NA
ATOM     16  C   UNL A   1      33.483  24.621  25.210  1.00  0.00     0.069 A 
ATOM     17  C   UNL A   1      33.882  23.833  24.130  1.00  0.00     0.089 A 
ATOM     18  C   UNL A   1      33.392  24.111  26.512  1.00  0.00     0.028 A 
ATOM     19  C   UNL A   1      34.239  22.493  24.337  1.00  0.00     0.030 A 
ATOM     20  C   UNL A   1      33.743  22.766  26.696  1.00  0.00     0.002 A 
ATOM     21  C   UNL A   1      34.165  21.970  25.630  1.00  0.00     0.002 A 
BRANCH   8  22
ATOM     22  C   UNL A   1      31.034  28.530  22.317  1.00  0.00     0.156 C 
BRANCH  22  23
ATOM     23  C   UNL A   1      29.611  28.221  22.742  1.00  0.00    -0.026 A 
ATOM     24  C   UNL A   1      28.580  30.381  21.764  1.00  0.00     0.044 C 
ATOM     25  C   UNL A   1      28.525  29.112  22.573  1.00  0.00    -0.046 A 
ATOM     26  C   UNL A   1      27.278  28.787  23.142  1.00  0.00     0.004 A 
ATOM     27  C   UNL A   1      27.093  27.604  23.855  1.00  0.00     0.000 A 
ATOM     28  C   UNL A   1      29.377  27.002  23.404  1.00  0.00     0.006 A 
ATOM     29  C   UNL A   1      28.140  26.702  23.971  1.00  0.00     0.000 A 
ENDBRANCH  22  23
ENDBRANCH   8  22
ENDBRANCH   6   7
ENDBRANCH   3   6
ENDBRANCH   1   2
BRANCH   1  30
ATOM     30  C   UNL A   1      35.259  31.077  27.930  1.00  0.00     0.042 C 
BRANCH  30  31
ATOM     31  C   UNL A   1      36.162  29.914  28.312  1.00  0.00     0.118 C 
BRANCH  31  32
ATOM     32  N   UNL A   1      36.201  29.741  29.754  1.00  0.00    -0.352 N 
ATOM     33  C   UNL A   1      37.150  29.274  30.622  1.00  0.00     0.251 C 
ATOM     34  H   UNL A   1      35.368  30.017  30.200  1.00  0.00     0.163 HD
ATOM     35  O   UNL A   1      36.743  28.954  31.743  1.00  0.00    -0.269 OA
BRANCH  33  36
ATOM     36  C   UNL A   1      38.600  29.111  30.313  1.00  0.00     0.039 A 
ATOM     37  C   UNL A   1      39.391  30.269  30.408  1.00  0.00     0.014 A 
ATOM     38  C   UNL A   1      39.222  27.935  29.890  1.00  0.00     0.014 A 
ATOM     39  C   UNL A   1      40.769  30.234  30.158  1.00  0.00     0.010 A 
ATOM     40  C   UNL A   1      40.608  27.896  29.652  1.00  0.00     0.010 A 
ATOM     41  C   UNL A   1      41.401  29.033  29.816  1.00  0.00    -0.014 A 
BRANCH  41  42
ATOM     42  C   UNL A   1      42.876  28.980  29.944  1.00  0.00     0.031 A 
ATOM     43  C   UNL A   1      43.284  28.016  31.033  1.00  0.00     0.074 A 
ATOM     44  C   UNL A   1      43.814  28.984  28.960  1.00  0.00     0.049 A 
ATOM     45  N   UNL A   1      43.254  26.735  30.831  1.00  0.00    -0.248 NA
ATOM     46  C   UNL A   1      43.599  28.368  32.415  1.00  0.00     0.031 C 
ATOM     47  C   UNL A   1      45.191  29.417  29.206  1.00  0.00     0.029 A 
ATOM     48  N   UNL A   1      43.817  28.640  27.607  1.00  0.00    -0.354 N 
ATOM     49  C   UNL A   1      43.770  26.113  31.955  1.00  0.00     0.074 A 
ATOM     50  C   UNL A   1      43.850  27.158  32.955  1.00  0.00     0.031 C 
ATOM     51  C   UNL A   1      45.927  29.253  28.090  1.00  0.00     0.029 A 
ATOM     52  C   UNL A   1      45.121  28.568  27.079  1.00  0.00     0.049 A 
ATOM     53  H   UNL A   1      43.002  28.468  27.082  1.00  0.00     0.167 HD
ATOM     54  C   UNL A   1      44.279  24.841  31.863  1.00  0.00     0.037 A 
ATOM     55  C   UNL A   1      45.664  27.843  26.050  1.00  0.00     0.037 A 
ATOM     56  C   UNL A   1      44.507  24.528  30.474  1.00  0.00     0.049 A 
ATOM     57  C   UNL A   1      44.740  26.787  25.529  1.00  0.00     0.074 A 
ATOM     58  C   UNL A   1      45.547  25.084  29.773  1.00  0.00     0.029 A 
ATOM     59  N   UNL A   1      43.579  24.023  29.568  1.00  0.00    -0.354 N 
ATOM     60  N   UNL A   1      44.848  25.550  25.916  1.00  0.00    -0.248 NA
ATOM     61  C   UNL A   1      43.512  27.027  24.768  1.00  0.00     0.031 C 
ATOM     62  C   UNL A   1      44.980  25.318  28.542  1.00  0.00     0.029 A 
ATOM     63  C   UNL A   1      43.869  24.532  28.299  1.00  0.00     0.049 A 
ATOM     64  H   UNL A   1      42.841  23.408  29.785  1.00  0.00     0.167 HD
ATOM     65  C   UNL A   1      43.551  25.092  25.986  1.00  0.00     0.074 A 
ATOM     66  C   UNL A   1      42.836  25.888  25.000  1.00  0.00     0.031 C 
ATOM     67  C   UNL A   1      43.026  24.462  27.097  1.00  0.00     0.037 A 
BRANCH  54  68
ATOM     68  C   UNL A   1      45.063  24.087  32.900  1.00  0.00     0.064 A 
ATOM     69  C   UNL A   1      44.495  22.966  33.567  1.00  0.00     0.173 A 
ATOM     70  C   UNL A   1      46.333  24.474  33.336  1.00  0.00     0.173 A 
ATOM     71  F   UNL A   1      43.281  22.490  33.258  1.00  0.00    -0.203 F 
ATOM     72  C   UNL A   1      45.147  22.287  34.589  1.00  0.00     0.198 A 
ATOM     73  C   UNL A   1      46.990  23.784  34.364  1.00  0.00     0.198 A 
ATOM     74  F   UNL A   1      46.942  25.539  32.797  1.00  0.00    -0.203 F 
ATOM     75  F   UNL A   1      44.548  21.246  35.184  1.00  0.00    -0.200 F 
ATOM     76  C   UNL A   1      46.397  22.698  34.990  1.00  0.00     0.200 A 
ATOM     77  F   UNL A   1      48.206  24.184  34.760  1.00  0.00    -0.200 F 
ATOM     78  F   UNL A   1      47.021  22.058  35.988  1.00  0.00    -0.200 F 
ENDBRANCH  54  68
BRANCH  55  79
ATOM     79  C   UNL A   1      47.154  27.622  25.943  1.00  0.00     0.064 A 
ATOM     80  C   UNL A   1      47.819  27.811  24.728  1.00  0.00     0.173 A 
ATOM     81  C   UNL A   1      47.981  27.256  27.032  1.00  0.00     0.173 A 
ATOM     82  F   UNL A   1      47.123  28.158  23.636  1.00  0.00    -0.203 F 
ATOM     83  C   UNL A   1      49.211  27.654  24.618  1.00  0.00     0.198 A 
ATOM     84  C   UNL A   1      49.363  27.117  26.930  1.00  0.00     0.198 A 
ATOM     85  F   UNL A   1      47.495  27.029  28.248  1.00  0.00    -0.203 F 
ATOM     86  F   UNL A   1      49.811  27.844  23.436  1.00  0.00    -0.200 F 
ATOM     87  C   UNL A   1      49.981  27.313  25.720  1.00  0.00     0.200 A 
ATOM     88  F   UNL A   1      50.083  26.805  28.018  1.00  0.00    -0.200 F 
ATOM     89  F   UNL A   1      51.310  27.181  25.618  1.00  0.00    -0.200 F 
ENDBRANCH  55  79
BRANCH  67  90
ATOM     90  C   UNL A   1      41.600  24.009  27.061  1.00  0.00     0.064 A 
ATOM     91  C   UNL A   1      41.276  22.650  26.872  1.00  0.00     0.173 A 
ATOM     92  C   UNL A   1      40.517  24.890  27.198  1.00  0.00     0.173 A 
ATOM     93  F   UNL A   1      42.247  21.729  26.783  1.00  0.00    -0.203 F 
ATOM     94  C   UNL A   1      39.955  22.222  26.739  1.00  0.00     0.198 A 
ATOM     95  C   UNL A   1      39.198  24.461  27.072  1.00  0.00     0.198 A 
ATOM     96  F   UNL A   1      40.714  26.189  27.451  1.00  0.00    -0.203 F 
ATOM     97  F   UNL A   1      39.694  20.929  26.501  1.00  0.00    -0.200 F 
ATOM     98  C   UNL A   1      38.917  23.131  26.825  1.00  0.00     0.200 A 
ATOM     99  F   UNL A   1      38.197  25.348  27.169  1.00  0.00    -0.200 F 
ATOM    100  F   UNL A   1      37.648  22.738  26.659  1.00  0.00    -0.200 F 
ENDBRANCH  67  90
ENDBRANCH  41  42
ENDBRANCH  33  36
ENDBRANCH  31  32
ENDBRANCH  30  31
ENDBRANCH   1  30
TORSDOF 13
ENDMDL
MODEL 3
REMARK VINA RESULT:     -13.2      5.576     10.534
REMARK SMILES Cc1ccccc1CN1C(=O)[C@H](CC(=O)NCCCNC(=O)c2ccc(-c3c4nc(c(-c5c(F)c(F)c(F)c(F)c5F)c5ccc([nH]5)c(-c5c(F)c(F)c(F)c(F)c5F)c5nc(c(-c6c(F)c(F)c(F)c(F)c6F)c6ccc3[nH]6)C=C5)C=C4)cc2)n2c(nc3ccccc32)[C@H]1C
REMARK SMILES IDX 17 1 16 2 14 3 15 4 13 6 12 7 9 8 10 9 95 10 11 11 87 12
REMARK SMILES IDX 96 13 86 14 88 15 94 16 89 17 93 18 90 19 92 20 91 21 8 22
REMARK SMILES IDX 7 23 1 24 2 25 3 26 4 27 6 28 5 29 18 30 19 31 20 32 21 33
REMARK SMILES IDX 22 35 23 36 24 37 85 38 25 39 84 40 26 41 27 42 28 43 78 44
REMARK SMILES IDX 29 45 83 46 77 47 79 48 30 49 82 50 76 51 75 52 31 54 63 55
REMARK SMILES IDX 43 56 62 57 44 58 47 59 61 60 80 61 45 62 46 63 60 65 81 66
REMARK SMILES IDX 48 67 32 68 33 69 41 70 34 71 35 72 39 73 42 74 36 75 37 76
REMARK SMILES IDX 40 77 38 78 64 79 65 80 73 81 66 82 67 83 71 84 74 85 68 86
REMARK SMILES IDX 69 87 72 88 70 89 49 90 50 91 58 92 51 93 52 94 56 95 59 96
REMARK SMILES IDX 53 97 54 98 57 99 55 100
REMARK H PARENT 16 5 20 34 79 53 47 64
REMARK Flexibility Score: inf
ROOT
ATOM      1  C   UNL A   1      38.528  24.243  26.802  1.00  0.00     0.117 C 
ENDROOT
BRANCH   1   2
ATOM      2  N   UNL A   1      38.159  23.621  25.532  1.00  0.00    -0.356 N 
ATOM      3  C   UNL A   1      36.946  23.454  24.934  1.00  0.00     0.222 C 
ATOM      4  O   UNL A   1      36.886  22.727  23.939  1.00  0.00    -0.275 OA
ATOM      5  H   UNL A   1      38.919  23.260  25.020  1.00  0.00     0.163 HD
BRANCH   3   6
ATOM      6  C   UNL A   1      35.687  24.134  25.443  1.00  0.00     0.135 C 
BRANCH   6   7
ATOM      7  C   UNL A   1      34.449  23.395  24.905  1.00  0.00     0.187 C 
ATOM      8  N   UNL A   1      32.869  21.698  25.745  1.00  0.00    -0.327 N 
ATOM      9  C   UNL A   1      34.145  22.213  25.819  1.00  0.00     0.247 C 
ATOM     10  C   UNL A   1      31.851  22.668  26.159  1.00  0.00     0.149 C 
ATOM     11  O   UNL A   1      34.974  21.709  26.577  1.00  0.00    -0.272 OA
ATOM     12  C   UNL A   1      32.041  23.911  25.334  1.00  0.00     0.133 A 
ATOM     13  C   UNL A   1      30.401  22.205  26.125  1.00  0.00     0.040 C 
ATOM     14  N   UNL A   1      33.258  24.225  24.762  1.00  0.00    -0.313 N 
ATOM     15  N   UNL A   1      31.138  24.825  25.052  1.00  0.00    -0.231 NA
ATOM     16  C   UNL A   1      33.065  25.299  23.926  1.00  0.00     0.069 A 
ATOM     17  C   UNL A   1      31.739  25.669  24.157  1.00  0.00     0.089 A 
ATOM     18  C   UNL A   1      33.877  25.970  23.003  1.00  0.00     0.028 A 
ATOM     19  C   UNL A   1      31.192  26.765  23.476  1.00  0.00     0.030 A 
ATOM     20  C   UNL A   1      33.307  27.057  22.326  1.00  0.00     0.002 A 
ATOM     21  C   UNL A   1      31.990  27.454  22.560  1.00  0.00     0.002 A 
BRANCH   8  22
ATOM     22  C   UNL A   1      32.711  20.252  25.941  1.00  0.00     0.156 C 
BRANCH  22  23
ATOM     23  C   UNL A   1      32.548  19.541  24.610  1.00  0.00    -0.026 A 
ATOM     24  C   UNL A   1      33.089  17.181  25.516  1.00  0.00     0.044 C 
ATOM     25  C   UNL A   1      32.819  18.167  24.411  1.00  0.00    -0.046 A 
ATOM     26  C   UNL A   1      32.783  17.646  23.102  1.00  0.00     0.004 A 
ATOM     27  C   UNL A   1      32.477  18.453  22.009  1.00  0.00     0.000 A 
ATOM     28  C   UNL A   1      32.172  20.316  23.498  1.00  0.00     0.006 A 
ATOM     29  C   UNL A   1      32.153  19.787  22.210  1.00  0.00     0.000 A 
ENDBRANCH  22  23
ENDBRANCH   8  22
ENDBRANCH   6   7
ENDBRANCH   3   6
ENDBRANCH   1   2
BRANCH   1  30
ATOM     30  C   UNL A   1      39.742  23.545  27.441  1.00  0.00     0.042 C 
BRANCH  30  31
ATOM     31  C   UNL A   1      40.814  24.490  27.964  1.00  0.00     0.118 C 
BRANCH  31  32
ATOM     32  N   UNL A   1      41.134  25.507  26.977  1.00  0.00    -0.352 N 
ATOM     33  C   UNL A   1      41.302  26.862  27.043  1.00  0.00     0.251 C 
ATOM     34  H   UNL A   1      41.253  25.143  26.071  1.00  0.00     0.163 HD
ATOM     35  O   UNL A   1      41.244  27.465  25.967  1.00  0.00    -0.269 OA
BRANCH  33  36
ATOM     36  C   UNL A   1      41.525  27.648  28.291  1.00  0.00     0.039 A 
ATOM     37  C   UNL A   1      42.830  28.125  28.502  1.00  0.00     0.014 A 
ATOM     38  C   UNL A   1      40.575  27.900  29.283  1.00  0.00     0.014 A 
ATOM     39  C   UNL A   1      43.155  28.890  29.630  1.00  0.00     0.010 A 
ATOM     40  C   UNL A   1      40.897  28.679  30.410  1.00  0.00     0.010 A 
ATOM     41  C   UNL A   1      42.177  29.210  30.579  1.00  0.00    -0.014 A 
BRANCH  41  42
ATOM     42  C   UNL A   1      42.478  30.316  31.519  1.00  0.00     0.031 A 
ATOM     43  C   UNL A   1      42.840  31.573  30.766  1.00  0.00     0.074 A 
ATOM     44  C   UNL A   1      41.844  30.641  32.677  1.00  0.00     0.049 A 
ATOM     45  N   UNL A   1      41.923  32.299  30.204  1.00  0.00    -0.248 NA
ATOM     46  C   UNL A   1      44.194  32.029  30.460  1.00  0.00     0.031 C 
ATOM     47  C   UNL A   1      42.509  31.408  33.733  1.00  0.00     0.029 A 
ATOM     48  N   UNL A   1      40.568  30.412  33.194  1.00  0.00    -0.354 N 
ATOM     49  C   UNL A   1      42.531  33.427  29.680  1.00  0.00     0.074 A 
ATOM     50  C   UNL A   1      43.951  33.151  29.752  1.00  0.00     0.031 C 
ATOM     51  C   UNL A   1      41.641  31.656  34.732  1.00  0.00     0.029 A 
ATOM     52  C   UNL A   1      40.310  31.192  34.339  1.00  0.00     0.049 A 
ATOM     53  H   UNL A   1      39.924  29.778  32.805  1.00  0.00     0.167 HD
ATOM     54  C   UNL A   1      41.791  34.559  29.444  1.00  0.00     0.037 A 
ATOM     55  C   UNL A   1      39.152  31.689  34.878  1.00  0.00     0.037 A 
ATOM     56  C   UNL A   1      40.539  34.456  30.152  1.00  0.00     0.049 A 
ATOM     57  C   UNL A   1      37.974  31.542  33.966  1.00  0.00     0.074 A 
ATOM     58  C   UNL A   1      40.471  34.595  31.516  1.00  0.00     0.029 A 
ATOM     59  N   UNL A   1      39.378  33.828  29.711  1.00  0.00    -0.354 N 
ATOM     60  N   UNL A   1      37.572  32.531  33.224  1.00  0.00    -0.248 NA
ATOM     61  C   UNL A   1      37.318  30.280  33.615  1.00  0.00     0.031 C 
ATOM     62  C   UNL A   1      39.542  33.642  31.863  1.00  0.00     0.029 A 
ATOM     63  C   UNL A   1      38.714  33.286  30.815  1.00  0.00     0.049 A 
ATOM     64  H   UNL A   1      39.075  33.776  28.776  1.00  0.00     0.167 HD
ATOM     65  C   UNL A   1      37.156  31.941  32.051  1.00  0.00     0.074 A 
ATOM     66  C   UNL A   1      36.728  30.609  32.452  1.00  0.00     0.031 C 
ATOM     67  C   UNL A   1      37.587  32.342  30.802  1.00  0.00     0.037 A 
BRANCH  54  68
ATOM     68  C   UNL A   1      42.294  35.929  29.086  1.00  0.00     0.064 A 
ATOM     69  C   UNL A   1      43.107  36.664  29.994  1.00  0.00     0.173 A 
ATOM     70  C   UNL A   1      41.939  36.597  27.912  1.00  0.00     0.173 A 
ATOM     71  F   UNL A   1      43.516  36.152  31.162  1.00  0.00    -0.203 F 
ATOM     72  C   UNL A   1      43.528  37.964  29.745  1.00  0.00     0.198 A 
ATOM     73  C   UNL A   1      42.370  37.907  27.661  1.00  0.00     0.198 A 
ATOM     74  F   UNL A   1      41.148  36.006  27.005  1.00  0.00    -0.203 F 
ATOM     75  F   UNL A   1      44.282  38.604  30.650  1.00  0.00    -0.200 F 
ATOM     76  C   UNL A   1      43.157  38.589  28.577  1.00  0.00     0.200 A 
ATOM     77  F   UNL A   1      42.007  38.519  26.525  1.00  0.00    -0.200 F 
ATOM     78  F   UNL A   1      43.546  39.849  28.341  1.00  0.00    -0.200 F 
ENDBRANCH  54  68
BRANCH  55  79
ATOM     79  C   UNL A   1      39.170  32.834  35.863  1.00  0.00     0.064 A 
ATOM     80  C   UNL A   1      38.621  32.686  37.140  1.00  0.00     0.173 A 
ATOM     81  C   UNL A   1      39.757  34.095  35.601  1.00  0.00     0.173 A 
ATOM     82  F   UNL A   1      38.041  31.527  37.484  1.00  0.00    -0.203 F 
ATOM     83  C   UNL A   1      38.668  33.723  38.086  1.00  0.00     0.198 A 
ATOM     84  C   UNL A   1      39.820  35.119  36.543  1.00  0.00     0.198 A 
ATOM     85  F   UNL A   1      40.308  34.393  34.430  1.00  0.00    -0.203 F 
ATOM     86  F   UNL A   1      38.131  33.542  39.300  1.00  0.00    -0.200 F 
ATOM     87  C   UNL A   1      39.272  34.935  37.788  1.00  0.00     0.200 A 
ATOM     88  F   UNL A   1      40.428  36.274  36.232  1.00  0.00    -0.200 F 
ATOM     89  F   UNL A   1      39.332  35.918  38.697  1.00  0.00    -0.200 F 
ENDBRANCH  55  79
BRANCH  67  90
ATOM     90  C   UNL A   1      37.069  31.623  29.596  1.00  0.00     0.064 A 
ATOM     91  C   UNL A   1      35.715  31.721  29.220  1.00  0.00     0.173 A 
ATOM     92  C   UNL A   1      37.880  30.815  28.786  1.00  0.00     0.173 A 
ATOM     93  F   UNL A   1      34.877  32.513  29.905  1.00  0.00    -0.203 F 
ATOM     94  C   UNL A   1      35.193  30.983  28.157  1.00  0.00     0.198 A 
ATOM     95  C   UNL A   1      37.360  30.083  27.720  1.00  0.00     0.198 A 
ATOM     96  F   UNL A   1      39.194  30.710  29.013  1.00  0.00    -0.203 F 
ATOM     97  F   UNL A   1      33.886  31.059  27.870  1.00  0.00    -0.200 F 
ATOM     98  C   UNL A   1      36.014  30.153  27.416  1.00  0.00     0.200 A 
ATOM     99  F   UNL A   1      38.167  29.290  27.000  1.00  0.00    -0.200 F 
ATOM    100  F   UNL A   1      35.517  29.409  26.420  1.00  0.00    -0.200 F 
ENDBRANCH  67  90
ENDBRANCH  41  42
ENDBRANCH  33  36
ENDBRANCH  31  32
ENDBRANCH  30  31
ENDBRANCH   1  30
TORSDOF 13
ENDMDL
