MODEL 1
REMARK VINA RESULT:     -13.4      0.000      0.000
REMARK SMILES CCC[C@@H]1CCc2nc3c(F)cccc3c(C(=O)NCCCNC(=O)c3ccc(-c4c5nc(c(-c6c(F)c(F)c(F)c(F)c6F)c6ccc([nH]6)c(-c6c(F)c(F)c(F)c(F)c6F)c6nc(c(-c7c(F)c(F)c(F)c(F)c7F)c7ccc4[nH]7)C=C6)C=C5)cc3)c2C1
REMARK SMILES IDX 21 1 20 2 19 3 17 4 18 5 16 7 4 8 5 9 90 10 6 11 89 12 7 13
REMARK SMILES IDX 8 14 15 15 9 16 14 17 10 18 13 19 11 20 12 21 3 22 2 23 1 24
REMARK SMILES IDX 22 25 23 26 24 27 25 29 26 30 27 31 88 32 28 33 87 34 29 35
REMARK SMILES IDX 30 36 31 37 81 38 32 39 86 40 80 41 82 42 33 43 85 44 79 45
REMARK SMILES IDX 78 46 34 48 66 49 46 50 65 51 47 52 50 53 64 54 83 55 48 56
REMARK SMILES IDX 49 57 63 59 84 60 51 61 35 62 36 63 44 64 37 65 38 66 42 67
REMARK SMILES IDX 45 68 39 69 40 70 43 71 41 72 67 73 68 74 76 75 69 76 70 77
REMARK SMILES IDX 74 78 77 79 71 80 72 81 75 82 73 83 52 84 53 85 61 86 54 87
REMARK SMILES IDX 55 88 59 89 62 90 56 91 57 92 60 93 58 94
REMARK H PARENT 19 6 23 28 82 47 50 58
REMARK Flexibility Score: inf
ROOT
ATOM      1  C   UNL A   1      31.502  31.954  26.875  1.00  0.00     0.042 C 
ENDROOT
BRANCH   1   2
ATOM      2  C   UNL A   1      31.778  30.455  26.687  1.00  0.00     0.118 C 
BRANCH   2   3
ATOM      3  N   UNL A   1      32.361  30.237  25.371  1.00  0.00    -0.352 N 
ATOM      4  C   UNL A   1      32.561  29.151  24.553  1.00  0.00     0.252 C 
ATOM      5  O   UNL A   1      33.433  29.328  23.701  1.00  0.00    -0.269 OA
ATOM      6  H   UNL A   1      32.693  31.072  24.969  1.00  0.00     0.163 HD
BRANCH   4   7
ATOM      7  C   UNL A   1      31.745  27.878  24.550  1.00  0.00     0.054 A 
ATOM      8  C   UNL A   1      28.447  28.992  22.700  1.00  0.00    -0.006 C 
ATOM      9  C   UNL A   1      27.553  28.047  23.501  1.00  0.00     0.010 C 
ATOM     10  C   UNL A   1      29.788  29.190  23.455  1.00  0.00     0.042 C 
ATOM     11  C   UNL A   1      28.242  26.703  23.653  1.00  0.00     0.057 C 
ATOM     12  C   UNL A   1      30.405  27.950  24.080  1.00  0.00    -0.013 A 
ATOM     13  C   UNL A   1      29.609  26.821  24.261  1.00  0.00     0.045 A 
ATOM     14  N   UNL A   1      30.024  25.719  24.915  1.00  0.00    -0.249 NA
ATOM     15  C   UNL A   1      32.241  26.618  25.001  1.00  0.00     0.016 A 
ATOM     16  C   UNL A   1      31.306  25.608  25.277  1.00  0.00     0.107 A 
ATOM     17  C   UNL A   1      33.602  26.261  25.129  1.00  0.00     0.011 A 
ATOM     18  C   UNL A   1      31.735  24.437  25.907  1.00  0.00     0.149 A 
ATOM     19  C   UNL A   1      34.023  25.088  25.755  1.00  0.00     0.004 A 
ATOM     20  F   UNL A   1      30.842  23.492  26.243  1.00  0.00    -0.205 F 
ATOM     21  C   UNL A   1      33.073  24.186  26.191  1.00  0.00     0.041 A 
BRANCH   8  22
ATOM     22  C   UNL A   1      27.797  30.367  22.438  1.00  0.00     0.003 C 
BRANCH  22  23
ATOM     23  C   UNL A   1      28.033  31.449  23.501  1.00  0.00    -0.003 C 
ATOM     24  C   UNL A   1      28.737  32.704  23.016  1.00  0.00     0.004 C 
ENDBRANCH  22  23
ENDBRANCH   8  22
ENDBRANCH   4   7
ENDBRANCH   2   3
ENDBRANCH   1   2
BRANCH   1  25
ATOM     25  C   UNL A   1      32.758  32.816  26.876  1.00  0.00     0.118 C 
BRANCH  25  26
ATOM     26  N   UNL A   1      32.523  34.101  27.508  1.00  0.00    -0.352 N 
ATOM     27  C   UNL A   1      33.048  34.601  28.672  1.00  0.00     0.251 C 
ATOM     28  H   UNL A   1      31.901  34.698  27.034  1.00  0.00     0.163 HD
ATOM     29  O   UNL A   1      32.529  35.589  29.200  1.00  0.00    -0.269 OA
BRANCH  27  30
ATOM     30  C   UNL A   1      34.220  33.965  29.313  1.00  0.00     0.039 A 
ATOM     31  C   UNL A   1      35.503  34.397  28.965  1.00  0.00     0.014 A 
ATOM     32  C   UNL A   1      34.062  32.901  30.207  1.00  0.00     0.014 A 
ATOM     33  C   UNL A   1      36.623  33.787  29.539  1.00  0.00     0.010 A 
ATOM     34  C   UNL A   1      35.173  32.350  30.840  1.00  0.00     0.010 A 
ATOM     35  C   UNL A   1      36.465  32.767  30.488  1.00  0.00    -0.014 A 
BRANCH  35  36
ATOM     36  C   UNL A   1      37.638  32.061  31.061  1.00  0.00     0.031 A 
ATOM     37  C   UNL A   1      38.122  32.429  32.436  1.00  0.00     0.074 A 
ATOM     38  C   UNL A   1      38.277  31.119  30.343  1.00  0.00     0.049 A 
ATOM     39  N   UNL A   1      39.141  31.958  33.109  1.00  0.00    -0.248 NA
ATOM     40  C   UNL A   1      37.374  33.482  33.143  1.00  0.00     0.031 C 
ATOM     41  C   UNL A   1      37.913  30.696  28.992  1.00  0.00     0.029 A 
ATOM     42  N   UNL A   1      39.371  30.348  30.651  1.00  0.00    -0.354 N 
ATOM     43  C   UNL A   1      39.151  32.653  34.312  1.00  0.00     0.074 A 
ATOM     44  C   UNL A   1      38.083  33.625  34.251  1.00  0.00     0.031 C 
ATOM     45  C   UNL A   1      38.752  29.725  28.595  1.00  0.00     0.029 A 
ATOM     46  C   UNL A   1      39.732  29.480  29.651  1.00  0.00     0.049 A 
ATOM     47  H   UNL A   1      39.851  30.413  31.508  1.00  0.00     0.167 HD
ATOM     48  C   UNL A   1      39.955  32.469  35.384  1.00  0.00     0.037 A 
ATOM     49  C   UNL A   1      40.738  28.585  29.597  1.00  0.00     0.037 A 
ATOM     50  C   UNL A   1      41.005  31.490  35.445  1.00  0.00     0.049 A 
ATOM     51  C   UNL A   1      41.650  28.433  30.786  1.00  0.00     0.074 A 
ATOM     52  C   UNL A   1      41.853  31.201  36.499  1.00  0.00     0.029 A 
ATOM     53  N   UNL A   1      41.350  30.639  34.405  1.00  0.00    -0.354 N 
ATOM     54  N   UNL A   1      41.612  29.053  31.941  1.00  0.00    -0.248 NA
ATOM     55  C   UNL A   1      42.740  27.454  30.668  1.00  0.00     0.031 C 
ATOM     56  C   UNL A   1      42.745  30.211  36.080  1.00  0.00     0.029 A 
ATOM     57  C   UNL A   1      42.416  29.842  34.785  1.00  0.00     0.049 A 
ATOM     58  H   UNL A   1      40.903  30.608  33.528  1.00  0.00     0.167 HD
ATOM     59  C   UNL A   1      42.650  28.523  32.695  1.00  0.00     0.074 A 
ATOM     60  C   UNL A   1      43.292  27.519  31.873  1.00  0.00     0.031 C 
ATOM     61  C   UNL A   1      43.036  28.839  33.955  1.00  0.00     0.037 A 
BRANCH  48  62
ATOM     62  C   UNL A   1      39.719  33.332  36.590  1.00  0.00     0.064 A 
ATOM     63  C   UNL A   1      40.364  34.570  36.738  1.00  0.00     0.173 A 
ATOM     64  C   UNL A   1      38.796  32.951  37.575  1.00  0.00     0.173 A 
ATOM     65  F   UNL A   1      41.266  34.975  35.832  1.00  0.00    -0.203 F 
ATOM     66  C   UNL A   1      40.106  35.386  37.837  1.00  0.00     0.198 A 
ATOM     67  C   UNL A   1      38.517  33.784  38.656  1.00  0.00     0.198 A 
ATOM     68  F   UNL A   1      38.150  31.780  37.480  1.00  0.00    -0.203 F 
ATOM     69  F   UNL A   1      40.762  36.546  37.976  1.00  0.00    -0.200 F 
ATOM     70  C   UNL A   1      39.175  34.997  38.788  1.00  0.00     0.200 A 
ATOM     71  F   UNL A   1      37.607  33.414  39.567  1.00  0.00    -0.200 F 
ATOM     72  F   UNL A   1      38.914  35.793  39.835  1.00  0.00    -0.200 F 
ENDBRANCH  48  62
BRANCH  49  73
ATOM     73  C   UNL A   1      40.907  27.734  28.388  1.00  0.00     0.064 A 
ATOM     74  C   UNL A   1      40.262  26.494  28.289  1.00  0.00     0.173 A 
ATOM     75  C   UNL A   1      41.699  28.145  27.306  1.00  0.00     0.173 A 
ATOM     76  F   UNL A   1      39.509  26.047  29.305  1.00  0.00    -0.203 F 
ATOM     77  C   UNL A   1      40.409  25.692  27.158  1.00  0.00     0.198 A 
ATOM     78  C   UNL A   1      41.824  27.355  26.164  1.00  0.00     0.198 A 
ATOM     79  F   UNL A   1      42.336  29.324  27.348  1.00  0.00    -0.203 F 
ATOM     80  F   UNL A   1      39.808  24.496  27.105  1.00  0.00    -0.200 F 
ATOM     81  C   UNL A   1      41.184  26.127  26.094  1.00  0.00     0.200 A 
ATOM     82  F   UNL A   1      42.560  27.786  25.131  1.00  0.00    -0.200 F 
ATOM     83  F   UNL A   1      41.315  25.363  25.001  1.00  0.00    -0.200 F 
ENDBRANCH  49  73
BRANCH  61  84
ATOM     84  C   UNL A   1      44.191  28.084  34.544  1.00  0.00     0.064 A 
ATOM     85  C   UNL A   1      45.498  28.588  34.493  1.00  0.00     0.173 A 
ATOM     86  C   UNL A   1      43.973  26.891  35.253  1.00  0.00     0.173 A 
ATOM     87  F   UNL A   1      45.760  29.718  33.819  1.00  0.00    -0.203 F 
ATOM     88  C   UNL A   1      46.547  27.921  35.119  1.00  0.00     0.198 A 
ATOM     89  C   UNL A   1      45.019  26.245  35.906  1.00  0.00     0.198 A 
ATOM     90  F   UNL A   1      42.739  26.373  35.341  1.00  0.00    -0.203 F 
ATOM     91  F   UNL A   1      47.793  28.404  35.031  1.00  0.00    -0.200 F 
ATOM     92  C   UNL A   1      46.304  26.758  35.835  1.00  0.00     0.200 A 
ATOM     93  F   UNL A   1      44.779  25.132  36.613  1.00  0.00    -0.200 F 
ATOM     94  F   UNL A   1      47.311  26.131  36.459  1.00  0.00    -0.200 F 
ENDBRANCH  61  84
ENDBRANCH  35  36
ENDBRANCH  27  30
ENDBRANCH  25  26
ENDBRANCH   1  25
TORSDOF 12
ENDMDL
MODEL 2
REMARK VINA RESULT:     -13.3      0.555      7.378
REMARK SMILES CCC[C@@H]1CCc2nc3c(F)cccc3c(C(=O)NCCCNC(=O)c3ccc(-c4c5nc(c(-c6c(F)c(F)c(F)c(F)c6F)c6ccc([nH]6)c(-c6c(F)c(F)c(F)c(F)c6F)c6nc(c(-c7c(F)c(F)c(F)c(F)c7F)c7ccc4[nH]7)C=C6)C=C5)cc3)c2C1
REMARK SMILES IDX 21 1 20 2 19 3 17 4 18 5 16 7 4 8 5 9 90 10 6 11 89 12 7 13
REMARK SMILES IDX 8 14 15 15 9 16 14 17 10 18 13 19 11 20 12 21 3 22 2 23 1 24
REMARK SMILES IDX 22 25 23 26 24 27 25 29 26 30 27 31 88 32 28 33 87 34 29 35
REMARK SMILES IDX 30 36 31 37 81 38 32 39 86 40 80 41 82 42 33 43 85 44 79 45
REMARK SMILES IDX 78 46 34 48 66 49 46 50 65 51 47 52 50 53 64 54 83 55 48 56
REMARK SMILES IDX 49 57 63 59 84 60 51 61 35 62 36 63 44 64 37 65 38 66 42 67
REMARK SMILES IDX 45 68 39 69 40 70 43 71 41 72 67 73 68 74 76 75 69 76 70 77
REMARK SMILES IDX 74 78 77 79 71 80 72 81 75 82 73 83 52 84 53 85 61 86 54 87
REMARK SMILES IDX 55 88 59 89 62 90 56 91 57 92 60 93 58 94
REMARK H PARENT 19 6 23 28 82 47 50 58
REMARK Flexibility Score: inf
ROOT
ATOM      1  C   UNL A   1      31.554  31.957  26.886  1.00  0.00     0.042 C 
ENDROOT
BRANCH   1   2
ATOM      2  C   UNL A   1      31.790  30.454  26.673  1.00  0.00     0.118 C 
BRANCH   2   3
ATOM      3  N   UNL A   1      32.350  30.241  25.347  1.00  0.00    -0.352 N 
ATOM      4  C   UNL A   1      32.562  29.154  24.533  1.00  0.00     0.252 C 
ATOM      5  O   UNL A   1      33.411  29.346  23.662  1.00  0.00    -0.269 OA
ATOM      6  H   UNL A   1      32.653  31.081  24.932  1.00  0.00     0.163 HD
BRANCH   4   7
ATOM      7  C   UNL A   1      31.779  27.861  24.557  1.00  0.00     0.054 A 
ATOM      8  C   UNL A   1      28.430  28.866  22.736  1.00  0.00    -0.006 C 
ATOM      9  C   UNL A   1      27.571  27.909  23.560  1.00  0.00     0.010 C 
ATOM     10  C   UNL A   1      29.775  29.108  23.471  1.00  0.00     0.042 C 
ATOM     11  C   UNL A   1      28.296  26.585  23.720  1.00  0.00     0.057 C 
ATOM     12  C   UNL A   1      30.432  27.892  24.103  1.00  0.00    -0.013 A 
ATOM     13  C   UNL A   1      29.667  26.745  24.308  1.00  0.00     0.045 A 
ATOM     14  N   UNL A   1      30.118  25.662  24.971  1.00  0.00    -0.249 NA
ATOM     15  C   UNL A   1      32.313  26.620  25.017  1.00  0.00     0.016 A 
ATOM     16  C   UNL A   1      31.407  25.590  25.317  1.00  0.00     0.107 A 
ATOM     17  C   UNL A   1      33.684  26.299  25.131  1.00  0.00     0.011 A 
ATOM     18  C   UNL A   1      31.875  24.438  25.956  1.00  0.00     0.149 A 
ATOM     19  C   UNL A   1      34.143  25.145  25.766  1.00  0.00     0.004 A 
ATOM     20  F   UNL A   1      31.010  23.475  26.315  1.00  0.00    -0.205 F 
ATOM     21  C   UNL A   1      33.222  24.225  26.225  1.00  0.00     0.041 A 
BRANCH   8  22
ATOM     22  C   UNL A   1      27.741  30.221  22.466  1.00  0.00     0.003 C 
BRANCH  22  23
ATOM     23  C   UNL A   1      27.876  31.287  23.561  1.00  0.00    -0.003 C 
ATOM     24  C   UNL A   1      28.647  32.536  23.171  1.00  0.00     0.004 C 
ENDBRANCH  22  23
ENDBRANCH   8  22
ENDBRANCH   4   7
ENDBRANCH   2   3
ENDBRANCH   1   2
BRANCH   1  25
ATOM     25  C   UNL A   1      32.837  32.771  26.998  1.00  0.00     0.118 C 
BRANCH  25  26
ATOM     26  N   UNL A   1      32.577  34.112  27.487  1.00  0.00    -0.352 N 
ATOM     27  C   UNL A   1      33.055  34.729  28.615  1.00  0.00     0.251 C 
ATOM     28  H   UNL A   1      31.974  34.656  26.932  1.00  0.00     0.163 HD
ATOM     29  O   UNL A   1      32.515  35.763  29.020  1.00  0.00    -0.269 OA
BRANCH  27  30
ATOM     30  C   UNL A   1      34.202  34.166  29.362  1.00  0.00     0.039 A 
ATOM     31  C   UNL A   1      35.501  34.482  28.953  1.00  0.00     0.014 A 
ATOM     32  C   UNL A   1      34.003  33.277  30.422  1.00  0.00     0.014 A 
ATOM     33  C   UNL A   1      36.596  33.936  29.629  1.00  0.00     0.010 A 
ATOM     34  C   UNL A   1      35.091  32.798  31.146  1.00  0.00     0.010 A 
ATOM     35  C   UNL A   1      36.398  33.099  30.737  1.00  0.00    -0.014 A 
BRANCH  35  36
ATOM     36  C   UNL A   1      37.543  32.455  31.428  1.00  0.00     0.031 A 
ATOM     37  C   UNL A   1      38.272  31.326  30.754  1.00  0.00     0.074 A 
ATOM     38  C   UNL A   1      37.907  32.863  32.659  1.00  0.00     0.049 A 
ATOM     39  N   UNL A   1      39.276  30.610  31.192  1.00  0.00    -0.248 NA
ATOM     40  C   UNL A   1      37.796  30.934  29.417  1.00  0.00     0.031 C 
ATOM     41  C   UNL A   1      37.260  33.931  33.419  1.00  0.00     0.029 A 
ATOM     42  N   UNL A   1      38.910  32.423  33.487  1.00  0.00    -0.354 N 
ATOM     43  C   UNL A   1      39.550  29.692  30.186  1.00  0.00     0.074 A 
ATOM     44  C   UNL A   1      38.566  29.892  29.147  1.00  0.00     0.031 C 
ATOM     45  C   UNL A   1      37.896  34.081  34.592  1.00  0.00     0.029 A 
ATOM     46  C   UNL A   1      38.975  33.100  34.679  1.00  0.00     0.049 A 
ATOM     47  H   UNL A   1      39.523  31.692  33.248  1.00  0.00     0.167 HD
ATOM     48  C   UNL A   1      40.555  28.789  30.120  1.00  0.00     0.037 A 
ATOM     49  C   UNL A   1      39.816  32.946  35.722  1.00  0.00     0.037 A 
ATOM     50  C   UNL A   1      41.541  28.605  31.149  1.00  0.00     0.049 A 
ATOM     51  C   UNL A   1      40.897  31.901  35.644  1.00  0.00     0.074 A 
ATOM     52  C   UNL A   1      42.621  27.742  31.164  1.00  0.00     0.029 A 
ATOM     53  N   UNL A   1      41.565  29.300  32.351  1.00  0.00    -0.354 N 
ATOM     54  N   UNL A   1      41.184  31.079  34.663  1.00  0.00    -0.248 NA
ATOM     55  C   UNL A   1      41.776  31.764  36.814  1.00  0.00     0.031 C 
ATOM     56  C   UNL A   1      43.269  27.876  32.394  1.00  0.00     0.029 A 
ATOM     57  C   UNL A   1      42.628  28.864  33.124  1.00  0.00     0.049 A 
ATOM     58  H   UNL A   1      40.922  29.997  32.614  1.00  0.00     0.167 HD
ATOM     59  C   UNL A   1      42.289  30.350  35.083  1.00  0.00     0.074 A 
ATOM     60  C   UNL A   1      42.630  30.836  36.404  1.00  0.00     0.031 C 
ATOM     61  C   UNL A   1      42.959  29.368  34.433  1.00  0.00     0.037 A 
BRANCH  48  62
ATOM     62  C   UNL A   1      40.655  27.943  28.884  1.00  0.00     0.064 A 
ATOM     63  C   UNL A   1      39.930  26.747  28.759  1.00  0.00     0.173 A 
ATOM     64  C   UNL A   1      41.429  28.358  27.791  1.00  0.00     0.173 A 
ATOM     65  F   UNL A   1      39.185  26.298  29.781  1.00  0.00    -0.203 F 
ATOM     66  C   UNL A   1      39.991  25.990  27.592  1.00  0.00     0.198 A 
ATOM     67  C   UNL A   1      41.463  27.614  26.614  1.00  0.00     0.198 A 
ATOM     68  F   UNL A   1      42.139  29.493  27.857  1.00  0.00    -0.203 F 
ATOM     69  F   UNL A   1      39.321  24.833  27.510  1.00  0.00    -0.200 F 
ATOM     70  C   UNL A   1      40.748  26.430  26.517  1.00  0.00     0.200 A 
ATOM     71  F   UNL A   1      42.184  28.047  25.570  1.00  0.00    -0.200 F 
ATOM     72  F   UNL A   1      40.791  25.710  25.387  1.00  0.00    -0.200 F 
ENDBRANCH  48  62
BRANCH  49  73
ATOM     73  C   UNL A   1      39.691  33.832  36.909  1.00  0.00     0.064 A 
ATOM     74  C   UNL A   1      38.930  33.440  38.020  1.00  0.00     0.173 A 
ATOM     75  C   UNL A   1      40.337  35.076  36.970  1.00  0.00     0.173 A 
ATOM     76  F   UNL A   1      38.277  32.269  38.004  1.00  0.00    -0.203 F 
ATOM     77  C   UNL A   1      38.813  34.261  39.140  1.00  0.00     0.198 A 
ATOM     78  C   UNL A   1      40.241  35.883  38.101  1.00  0.00     0.198 A 
ATOM     79  F   UNL A   1      41.080  35.497  35.936  1.00  0.00    -0.203 F 
ATOM     80  F   UNL A   1      38.051  33.876  40.173  1.00  0.00    -0.200 F 
ATOM     81  C   UNL A   1      39.474  35.478  39.183  1.00  0.00     0.200 A 
ATOM     82  F   UNL A   1      40.896  37.052  38.145  1.00  0.00    -0.200 F 
ATOM     83  F   UNL A   1      39.372  36.262  40.264  1.00  0.00    -0.200 F 
ENDBRANCH  49  73
BRANCH  61  84
ATOM     84  C   UNL A   1      44.146  28.758  35.119  1.00  0.00     0.064 A 
ATOM     85  C   UNL A   1      44.021  27.619  35.926  1.00  0.00     0.173 A 
ATOM     86  C   UNL A   1      45.437  29.262  34.888  1.00  0.00     0.173 A 
ATOM     87  F   UNL A   1      42.809  27.106  36.186  1.00  0.00    -0.203 F 
ATOM     88  C   UNL A   1      45.142  27.011  36.485  1.00  0.00     0.198 A 
ATOM     89  C   UNL A   1      46.558  28.633  35.422  1.00  0.00     0.198 A 
ATOM     90  F   UNL A   1      45.611  30.344  34.114  1.00  0.00    -0.203 F 
ATOM     91  F   UNL A   1      44.996  25.941  37.277  1.00  0.00    -0.200 F 
ATOM     92  C   UNL A   1      46.409  27.511  36.222  1.00  0.00     0.200 A 
ATOM     93  F   UNL A   1      47.782  29.106  35.151  1.00  0.00    -0.200 F 
ATOM     94  F   UNL A   1      47.488  26.910  36.741  1.00  0.00    -0.200 F 
ENDBRANCH  61  84
ENDBRANCH  35  36
ENDBRANCH  27  30
ENDBRANCH  25  26
ENDBRANCH   1  25
TORSDOF 12
ENDMDL
MODEL 3
REMARK VINA RESULT:     -13.3      0.185      1.594
REMARK SMILES CCC[C@@H]1CCc2nc3c(F)cccc3c(C(=O)NCCCNC(=O)c3ccc(-c4c5nc(c(-c6c(F)c(F)c(F)c(F)c6F)c6ccc([nH]6)c(-c6c(F)c(F)c(F)c(F)c6F)c6nc(c(-c7c(F)c(F)c(F)c(F)c7F)c7ccc4[nH]7)C=C6)C=C5)cc3)c2C1
REMARK SMILES IDX 21 1 20 2 19 3 17 4 18 5 16 7 4 8 5 9 90 10 6 11 89 12 7 13
REMARK SMILES IDX 8 14 15 15 9 16 14 17 10 18 13 19 11 20 12 21 3 22 2 23 1 24
REMARK SMILES IDX 22 25 23 26 24 27 25 29 26 30 27 31 88 32 28 33 87 34 29 35
REMARK SMILES IDX 30 36 31 37 81 38 32 39 86 40 80 41 82 42 33 43 85 44 79 45
REMARK SMILES IDX 78 46 34 48 66 49 46 50 65 51 47 52 50 53 64 54 83 55 48 56
REMARK SMILES IDX 49 57 63 59 84 60 51 61 35 62 36 63 44 64 37 65 38 66 42 67
REMARK SMILES IDX 45 68 39 69 40 70 43 71 41 72 67 73 68 74 76 75 69 76 70 77
REMARK SMILES IDX 74 78 77 79 71 80 72 81 75 82 73 83 52 84 53 85 61 86 54 87
REMARK SMILES IDX 55 88 59 89 62 90 56 91 57 92 60 93 58 94
REMARK H PARENT 19 6 23 28 82 47 50 58
REMARK Flexibility Score: inf
ROOT
ATOM      1  C   UNL A   1      31.544  31.961  26.877  1.00  0.00     0.042 C 
ENDROOT
BRANCH   1   2
ATOM      2  C   UNL A   1      31.778  30.458  26.669  1.00  0.00     0.118 C 
BRANCH   2   3
ATOM      3  N   UNL A   1      32.359  30.242  25.353  1.00  0.00    -0.352 N 
ATOM      4  C   UNL A   1      32.586  29.152  24.546  1.00  0.00     0.252 C 
ATOM      5  O   UNL A   1      33.449  29.343  23.687  1.00  0.00    -0.269 OA
ATOM      6  H   UNL A   1      32.666  31.081  24.939  1.00  0.00     0.163 HD
BRANCH   4   7
ATOM      7  C   UNL A   1      31.807  27.856  24.563  1.00  0.00     0.054 A 
ATOM      8  C   UNL A   1      28.437  28.874  22.789  1.00  0.00    -0.006 C 
ATOM      9  C   UNL A   1      27.589  27.905  23.611  1.00  0.00     0.010 C 
ATOM     10  C   UNL A   1      29.789  29.111  23.513  1.00  0.00     0.042 C 
ATOM     11  C   UNL A   1      28.319  26.582  23.747  1.00  0.00     0.057 C 
ATOM     12  C   UNL A   1      30.455  27.890  24.124  1.00  0.00    -0.013 A 
ATOM     13  C   UNL A   1      29.695  26.738  24.323  1.00  0.00     0.045 A 
ATOM     14  N   UNL A   1      30.157  25.649  24.968  1.00  0.00    -0.249 NA
ATOM     15  C   UNL A   1      32.349  26.612  25.002  1.00  0.00     0.016 A 
ATOM     16  C   UNL A   1      31.449  25.575  25.300  1.00  0.00     0.107 A 
ATOM     17  C   UNL A   1      33.722  26.293  25.098  1.00  0.00     0.011 A 
ATOM     18  C   UNL A   1      31.927  24.418  25.920  1.00  0.00     0.149 A 
ATOM     19  C   UNL A   1      34.191  25.133  25.714  1.00  0.00     0.004 A 
ATOM     20  F   UNL A   1      31.068  23.448  26.277  1.00  0.00    -0.205 F 
ATOM     21  C   UNL A   1      33.277  24.205  26.173  1.00  0.00     0.041 A 
BRANCH   8  22
ATOM     22  C   UNL A   1      27.741  30.230  22.543  1.00  0.00     0.003 C 
BRANCH  22  23
ATOM     23  C   UNL A   1      28.047  31.349  23.549  1.00  0.00    -0.003 C 
ATOM     24  C   UNL A   1      28.611  32.629  22.958  1.00  0.00     0.004 C 
ENDBRANCH  22  23
ENDBRANCH   8  22
ENDBRANCH   4   7
ENDBRANCH   2   3
ENDBRANCH   1   2
BRANCH   1  25
ATOM     25  C   UNL A   1      32.826  32.782  26.935  1.00  0.00     0.118 C 
BRANCH  25  26
ATOM     26  N   UNL A   1      32.603  34.080  27.542  1.00  0.00    -0.352 N 
ATOM     27  C   UNL A   1      33.143  34.601  28.691  1.00  0.00     0.251 C 
ATOM     28  H   UNL A   1      31.978  34.670  27.064  1.00  0.00     0.163 HD
ATOM     29  O   UNL A   1      32.633  35.601  29.205  1.00  0.00    -0.269 OA
BRANCH  27  30
ATOM     30  C   UNL A   1      34.320  33.974  29.331  1.00  0.00     0.039 A 
ATOM     31  C   UNL A   1      35.601  34.383  28.948  1.00  0.00     0.014 A 
ATOM     32  C   UNL A   1      34.168  32.940  30.260  1.00  0.00     0.014 A 
ATOM     33  C   UNL A   1      36.724  33.780  29.521  1.00  0.00     0.010 A 
ATOM     34  C   UNL A   1      35.285  32.398  30.890  1.00  0.00     0.010 A 
ATOM     35  C   UNL A   1      36.574  32.791  30.505  1.00  0.00    -0.014 A 
BRANCH  35  36
ATOM     36  C   UNL A   1      37.750  32.092  31.079  1.00  0.00     0.031 A 
ATOM     37  C   UNL A   1      38.224  32.455  32.459  1.00  0.00     0.074 A 
ATOM     38  C   UNL A   1      38.402  31.161  30.358  1.00  0.00     0.049 A 
ATOM     39  N   UNL A   1      39.243  31.988  33.134  1.00  0.00    -0.248 NA
ATOM     40  C   UNL A   1      37.461  33.496  33.169  1.00  0.00     0.031 C 
ATOM     41  C   UNL A   1      38.049  30.745  29.001  1.00  0.00     0.029 A 
ATOM     42  N   UNL A   1      39.501  30.398  30.666  1.00  0.00    -0.354 N 
ATOM     43  C   UNL A   1      39.239  32.674  34.342  1.00  0.00     0.074 A 
ATOM     44  C   UNL A   1      38.163  33.637  34.282  1.00  0.00     0.031 C 
ATOM     45  C   UNL A   1      38.899  29.784  28.602  1.00  0.00     0.029 A 
ATOM     46  C   UNL A   1      39.875  29.540  29.662  1.00  0.00     0.049 A 
ATOM     47  H   UNL A   1      39.976  30.461  31.526  1.00  0.00     0.167 HD
ATOM     48  C   UNL A   1      40.039  32.491  35.418  1.00  0.00     0.037 A 
ATOM     49  C   UNL A   1      40.890  28.655  29.607  1.00  0.00     0.037 A 
ATOM     50  C   UNL A   1      41.098  31.521  35.478  1.00  0.00     0.049 A 
ATOM     51  C   UNL A   1      41.796  28.503  30.800  1.00  0.00     0.074 A 
ATOM     52  C   UNL A   1      41.943  31.232  36.534  1.00  0.00     0.029 A 
ATOM     53  N   UNL A   1      41.456  30.680  34.433  1.00  0.00    -0.354 N 
ATOM     54  N   UNL A   1      41.747  29.115  31.959  1.00  0.00    -0.248 NA
ATOM     55  C   UNL A   1      42.896  27.535  30.682  1.00  0.00     0.031 C 
ATOM     56  C   UNL A   1      42.846  30.253  36.113  1.00  0.00     0.029 A 
ATOM     57  C   UNL A   1      42.528  29.890  34.814  1.00  0.00     0.049 A 
ATOM     58  H   UNL A   1      41.015  30.651  33.554  1.00  0.00     0.167 HD
ATOM     59  C   UNL A   1      42.785  28.588  32.716  1.00  0.00     0.074 A 
ATOM     60  C   UNL A   1      43.441  27.596  31.890  1.00  0.00     0.031 C 
ATOM     61  C   UNL A   1      43.161  28.899  33.980  1.00  0.00     0.037 A 
BRANCH  48  62
ATOM     62  C   UNL A   1      39.789  33.343  36.628  1.00  0.00     0.064 A 
ATOM     63  C   UNL A   1      40.435  34.577  36.797  1.00  0.00     0.173 A 
ATOM     64  C   UNL A   1      38.851  32.955  37.596  1.00  0.00     0.173 A 
ATOM     65  F   UNL A   1      41.352  34.988  35.908  1.00  0.00    -0.203 F 
ATOM     66  C   UNL A   1      40.164  35.383  37.900  1.00  0.00     0.198 A 
ATOM     67  C   UNL A   1      38.559  33.779  38.681  1.00  0.00     0.198 A 
ATOM     68  F   UNL A   1      38.203  31.787  37.481  1.00  0.00    -0.203 F 
ATOM     69  F   UNL A   1      40.821  36.540  38.060  1.00  0.00    -0.200 F 
ATOM     70  C   UNL A   1      39.218  34.989  38.834  1.00  0.00     0.200 A 
ATOM     71  F   UNL A   1      37.635  33.403  39.576  1.00  0.00    -0.200 F 
ATOM     72  F   UNL A   1      38.945  35.775  39.885  1.00  0.00    -0.200 F 
ENDBRANCH  48  62
BRANCH  49  73
ATOM     73  C   UNL A   1      41.074  27.814  28.394  1.00  0.00     0.064 A 
ATOM     74  C   UNL A   1      41.870  28.258  27.329  1.00  0.00     0.173 A 
ATOM     75  C   UNL A   1      40.476  26.551  28.277  1.00  0.00     0.173 A 
ATOM     76  F   UNL A   1      42.448  29.467  27.384  1.00  0.00    -0.203 F 
ATOM     77  C   UNL A   1      42.054  27.475  26.190  1.00  0.00     0.198 A 
ATOM     78  C   UNL A   1      40.683  25.758  27.150  1.00  0.00     0.198 A 
ATOM     79  F   UNL A   1      39.707  26.078  29.268  1.00  0.00    -0.203 F 
ATOM     80  F   UNL A   1      42.793  27.939  25.173  1.00  0.00    -0.200 F 
ATOM     81  C   UNL A   1      41.466  26.223  26.105  1.00  0.00     0.200 A 
ATOM     82  F   UNL A   1      40.126  24.541  27.079  1.00  0.00    -0.200 F 
ATOM     83  F   UNL A   1      41.653  25.465  25.017  1.00  0.00    -0.200 F 
ENDBRANCH  49  73
BRANCH  61  84
ATOM     84  C   UNL A   1      44.320  28.150  34.570  1.00  0.00     0.064 A 
ATOM     85  C   UNL A   1      44.145  26.917  35.213  1.00  0.00     0.173 A 
ATOM     86  C   UNL A   1      45.631  28.626  34.405  1.00  0.00     0.173 A 
ATOM     87  F   UNL A   1      42.912  26.424  35.405  1.00  0.00    -0.203 F 
ATOM     88  C   UNL A   1      45.239  26.191  35.678  1.00  0.00     0.198 A 
ATOM     89  C   UNL A   1      46.723  27.883  34.843  1.00  0.00     0.198 A 
ATOM     90  F   UNL A   1      45.852  29.796  33.788  1.00  0.00    -0.203 F 
ATOM     91  F   UNL A   1      45.046  25.029  36.316  1.00  0.00    -0.200 F 
ATOM     92  C   UNL A   1      46.526  26.669  35.482  1.00  0.00     0.200 A 
ATOM     93  F   UNL A   1      47.967  28.337  34.635  1.00  0.00    -0.200 F 
ATOM     94  F   UNL A   1      47.578  25.957  35.908  1.00  0.00    -0.200 F 
ENDBRANCH  61  84
ENDBRANCH  35  36
ENDBRANCH  27  30
ENDBRANCH  25  26
ENDBRANCH   1  25
TORSDOF 12
ENDMDL
