MODEL 1
REMARK VINA RESULT:     -11.6      0.000      0.000
REMARK SMILES CCCC[C@@H](C(=O)NCCCNC(=O)c1ccc(-c2c3nc(c(-c4c(F)c(F)c(F)c(F)c4F)c4ccc([nH]4)c(-c4c(F)c(F)c(F)c(F)c4F)c4nc(c(-c5c(F)c(F)c(F)c(F)c5F)c5ccc2[nH]5)C=C4)C=C3)cc1)C1(O)Cc2ccccc2C1
REMARK SMILES IDX 9 1 8 2 6 3 7 4 5 6 4 7 3 8 2 9 1 10 78 11 80 12 87 13 81 14
REMARK SMILES IDX 86 15 82 16 85 17 83 18 84 19 79 20 10 22 11 23 12 24 13 25
REMARK SMILES IDX 14 27 15 28 16 29 77 30 17 31 76 32 18 33 19 34 20 35 70 36
REMARK SMILES IDX 21 37 75 38 69 39 71 40 22 41 74 42 68 43 67 44 23 46 55 47
REMARK SMILES IDX 35 48 54 49 36 50 39 51 53 52 72 53 37 54 38 55 52 57 73 58
REMARK SMILES IDX 40 59 24 60 25 61 33 62 26 63 27 64 31 65 34 66 28 67 29 68
REMARK SMILES IDX 32 69 30 70 56 71 57 72 65 73 58 74 59 75 63 76 66 77 60 78
REMARK SMILES IDX 61 79 64 80 62 81 41 82 42 83 50 84 43 85 44 86 48 87 51 88
REMARK SMILES IDX 45 89 46 90 49 91 47 92
REMARK H PARENT 8 5 79 21 12 26 71 45 39 56
REMARK Flexibility Score: inf
ROOT
ATOM      1  C   UNL A   1      32.468  26.609  26.475  1.00  0.00     0.117 C 
ENDROOT
BRANCH   1   2
ATOM      2  N   UNL A   1      31.394  25.671  26.674  1.00  0.00    -0.356 N 
ATOM      3  C   UNL A   1      31.306  24.330  26.527  1.00  0.00     0.226 C 
ATOM      4  O   UNL A   1      30.410  23.848  27.230  1.00  0.00    -0.275 OA
ATOM      5  H   UNL A   1      30.557  26.090  26.980  1.00  0.00     0.163 HD
BRANCH   3   6
ATOM      6  C   UNL A   1      32.291  23.427  25.743  1.00  0.00     0.111 C 
BRANCH   6   7
ATOM      7  C   UNL A   1      31.754  22.439  24.646  1.00  0.00     0.016 C 
BRANCH   7   8
ATOM      8  C   UNL A   1      32.153  22.237  23.185  1.00  0.00     0.001 C 
BRANCH   8   9
ATOM      9  C   UNL A   1      33.508  22.713  22.696  1.00  0.00    -0.003 C 
ATOM     10  C   UNL A   1      33.594  24.226  22.634  1.00  0.00     0.004 C 
ENDBRANCH   8   9
ENDBRANCH   7   8
ENDBRANCH   6   7
BRANCH   6  11
ATOM     11  C   UNL A   1      33.184  22.495  26.764  1.00  0.00     0.084 C 
ATOM     12  C   UNL A   1      33.858  21.113  26.348  1.00  0.00     0.072 C 
ATOM     13  C   UNL A   1      34.467  23.250  27.224  1.00  0.00     0.072 C 
ATOM     14  C   UNL A   1      35.183  21.562  25.781  1.00  0.00    -0.042 A 
ATOM     15  C   UNL A   1      35.365  22.909  26.086  1.00  0.00    -0.042 A 
ATOM     16  C   UNL A   1      36.070  20.904  24.955  1.00  0.00     0.004 A 
ATOM     17  C   UNL A   1      36.146  23.711  25.281  1.00  0.00     0.004 A 
ATOM     18  C   UNL A   1      36.965  21.685  24.219  1.00  0.00     0.000 A 
ATOM     19  C   UNL A   1      36.927  23.087  24.309  1.00  0.00     0.000 A 
BRANCH  11  20
ATOM     20  O   UNL A   1      32.350  22.230  27.909  1.00  0.00    -0.388 OA
ATOM     21  H   UNL A   1      32.479  22.926  28.572  1.00  0.00     0.211 HD
ENDBRANCH  11  20
ENDBRANCH   6  11
ENDBRANCH   3   6
ENDBRANCH   1   2
BRANCH   1  22
ATOM     22  C   UNL A   1      32.054  27.767  25.576  1.00  0.00     0.042 C 
BRANCH  22  23
ATOM     23  C   UNL A   1      33.145  28.796  25.334  1.00  0.00     0.118 C 
BRANCH  23  24
ATOM     24  N   UNL A   1      32.720  30.138  25.706  1.00  0.00    -0.352 N 
ATOM     25  C   UNL A   1      33.112  30.956  26.732  1.00  0.00     0.251 C 
ATOM     26  H   UNL A   1      32.032  30.526  25.118  1.00  0.00     0.163 HD
ATOM     27  O   UNL A   1      32.425  31.948  27.000  1.00  0.00    -0.269 OA
BRANCH  25  28
ATOM     28  C   UNL A   1      34.330  30.685  27.527  1.00  0.00     0.039 A 
ATOM     29  C   UNL A   1      35.280  31.701  27.680  1.00  0.00     0.014 A 
ATOM     30  C   UNL A   1      34.589  29.422  28.064  1.00  0.00     0.014 A 
ATOM     31  C   UNL A   1      36.453  31.463  28.402  1.00  0.00     0.010 A 
ATOM     32  C   UNL A   1      35.700  29.218  28.875  1.00  0.00     0.010 A 
ATOM     33  C   UNL A   1      36.660  30.226  29.032  1.00  0.00    -0.014 A 
BRANCH  33  34
ATOM     34  C   UNL A   1      37.890  29.950  29.819  1.00  0.00     0.031 A 
ATOM     35  C   UNL A   1      38.949  29.033  29.266  1.00  0.00     0.074 A 
ATOM     36  C   UNL A   1      38.027  30.473  31.051  1.00  0.00     0.049 A 
ATOM     37  N   UNL A   1      40.058  28.612  29.822  1.00  0.00    -0.248 NA
ATOM     38  C   UNL A   1      38.714  28.487  27.919  1.00  0.00     0.031 C 
ATOM     39  C   UNL A   1      37.051  31.337  31.716  1.00  0.00     0.029 A 
ATOM     40  N   UNL A   1      39.041  30.349  31.969  1.00  0.00    -0.354 N 
ATOM     41  C   UNL A   1      40.635  27.744  28.905  1.00  0.00     0.074 A 
ATOM     42  C   UNL A   1      39.723  27.641  27.789  1.00  0.00     0.031 C 
ATOM     43  C   UNL A   1      37.528  31.694  32.919  1.00  0.00     0.029 A 
ATOM     44  C   UNL A   1      38.820  31.051  33.129  1.00  0.00     0.049 A 
ATOM     45  H   UNL A   1      39.848  29.809  31.811  1.00  0.00     0.167 HD
ATOM     46  C   UNL A   1      41.832  27.112  28.972  1.00  0.00     0.037 A 
ATOM     47  C   UNL A   1      39.576  31.160  34.237  1.00  0.00     0.037 A 
ATOM     48  C   UNL A   1      42.746  27.237  30.078  1.00  0.00     0.049 A 
ATOM     49  C   UNL A   1      40.895  30.438  34.297  1.00  0.00     0.074 A 
ATOM     50  C   UNL A   1      44.007  26.688  30.223  1.00  0.00     0.029 A 
ATOM     51  N   UNL A   1      42.490  27.964  31.233  1.00  0.00    -0.354 N 
ATOM     52  N   UNL A   1      41.463  29.674  33.396  1.00  0.00    -0.248 NA
ATOM     53  C   UNL A   1      41.681  30.601  35.527  1.00  0.00     0.031 C 
ATOM     54  C   UNL A   1      44.491  27.035  31.490  1.00  0.00     0.029 A 
ATOM     55  C   UNL A   1      43.560  27.854  32.108  1.00  0.00     0.049 A 
ATOM     56  H   UNL A   1      41.670  28.481  31.404  1.00  0.00     0.167 HD
ATOM     57  C   UNL A   1      42.684  29.290  33.935  1.00  0.00     0.074 A 
ATOM     58  C   UNL A   1      42.780  29.918  35.236  1.00  0.00     0.031 C 
ATOM     59  C   UNL A   1      43.640  28.491  33.399  1.00  0.00     0.037 A 
BRANCH  46  60
ATOM     60  C   UNL A   1      42.214  26.226  27.818  1.00  0.00     0.064 A 
ATOM     61  C   UNL A   1      43.039  26.682  26.777  1.00  0.00     0.173 A 
ATOM     62  C   UNL A   1      41.755  24.901  27.752  1.00  0.00     0.173 A 
ATOM     63  F   UNL A   1      43.500  27.942  26.782  1.00  0.00    -0.203 F 
ATOM     64  C   UNL A   1      43.351  25.863  25.694  1.00  0.00     0.198 A 
ATOM     65  C   UNL A   1      42.100  24.073  26.687  1.00  0.00     0.198 A 
ATOM     66  F   UNL A   1      40.971  24.407  28.722  1.00  0.00    -0.203 F 
ATOM     67  F   UNL A   1      44.081  26.346  24.679  1.00  0.00    -0.200 F 
ATOM     68  C   UNL A   1      42.886  24.558  25.653  1.00  0.00     0.200 A 
ATOM     69  F   UNL A   1      41.662  22.806  26.656  1.00  0.00    -0.200 F 
ATOM     70  F   UNL A   1      43.186  23.771  24.610  1.00  0.00    -0.200 F 
ENDBRANCH  46  60
BRANCH  47  71
ATOM     71  C   UNL A   1      39.119  32.018  35.363  1.00  0.00     0.064 A 
ATOM     72  C   UNL A   1      38.363  31.479  36.414  1.00  0.00     0.173 A 
ATOM     73  C   UNL A   1      39.437  33.382  35.422  1.00  0.00     0.173 A 
ATOM     74  F   UNL A   1      38.019  30.183  36.394  1.00  0.00    -0.203 F 
ATOM     75  C   UNL A   1      37.930  32.275  37.472  1.00  0.00     0.198 A 
ATOM     76  C   UNL A   1      39.029  34.171  36.496  1.00  0.00     0.198 A 
ATOM     77  F   UNL A   1      40.164  33.947  34.447  1.00  0.00    -0.203 F 
ATOM     78  F   UNL A   1      37.174  31.742  38.442  1.00  0.00    -0.200 F 
ATOM     79  C   UNL A   1      38.269  33.619  37.517  1.00  0.00     0.200 A 
ATOM     80  F   UNL A   1      39.373  35.465  36.544  1.00  0.00    -0.200 F 
ATOM     81  F   UNL A   1      37.860  34.381  38.538  1.00  0.00    -0.200 F 
ENDBRANCH  47  71
BRANCH  59  82
ATOM     82  C   UNL A   1      44.892  28.282  34.203  1.00  0.00     0.064 A 
ATOM     83  C   UNL A   1      45.026  27.211  35.098  1.00  0.00     0.173 A 
ATOM     84  C   UNL A   1      45.987  29.146  34.045  1.00  0.00     0.173 A 
ATOM     85  F   UNL A   1      44.005  26.363  35.296  1.00  0.00    -0.203 F 
ATOM     86  C   UNL A   1      46.199  27.030  35.828  1.00  0.00     0.198 A 
ATOM     87  C   UNL A   1      47.169  28.943  34.749  1.00  0.00     0.198 A 
ATOM     88  F   UNL A   1      45.914  30.183  33.196  1.00  0.00    -0.203 F 
ATOM     89  F   UNL A   1      46.285  26.032  36.717  1.00  0.00    -0.200 F 
ATOM     90  C   UNL A   1      47.271  27.890  35.646  1.00  0.00     0.200 A 
ATOM     91  F   UNL A   1      48.210  29.765  34.559  1.00  0.00    -0.200 F 
ATOM     92  F   UNL A   1      48.402  27.710  36.344  1.00  0.00    -0.200 F 
ENDBRANCH  59  82
ENDBRANCH  33  34
ENDBRANCH  25  28
ENDBRANCH  23  24
ENDBRANCH  22  23
ENDBRANCH   1  22
TORSDOF 15
ENDMDL
MODEL 2
REMARK VINA RESULT:     -11.6      0.477      7.504
REMARK SMILES CCCC[C@@H](C(=O)NCCCNC(=O)c1ccc(-c2c3nc(c(-c4c(F)c(F)c(F)c(F)c4F)c4ccc([nH]4)c(-c4c(F)c(F)c(F)c(F)c4F)c4nc(c(-c5c(F)c(F)c(F)c(F)c5F)c5ccc2[nH]5)C=C4)C=C3)cc1)C1(O)Cc2ccccc2C1
REMARK SMILES IDX 9 1 8 2 6 3 7 4 5 6 4 7 3 8 2 9 1 10 78 11 80 12 87 13 81 14
REMARK SMILES IDX 86 15 82 16 85 17 83 18 84 19 79 20 10 22 11 23 12 24 13 25
REMARK SMILES IDX 14 27 15 28 16 29 77 30 17 31 76 32 18 33 19 34 20 35 70 36
REMARK SMILES IDX 21 37 75 38 69 39 71 40 22 41 74 42 68 43 67 44 23 46 55 47
REMARK SMILES IDX 35 48 54 49 36 50 39 51 53 52 72 53 37 54 38 55 52 57 73 58
REMARK SMILES IDX 40 59 24 60 25 61 33 62 26 63 27 64 31 65 34 66 28 67 29 68
REMARK SMILES IDX 32 69 30 70 56 71 57 72 65 73 58 74 59 75 63 76 66 77 60 78
REMARK SMILES IDX 61 79 64 80 62 81 41 82 42 83 50 84 43 85 44 86 48 87 51 88
REMARK SMILES IDX 45 89 46 90 49 91 47 92
REMARK H PARENT 8 5 79 21 12 26 71 45 39 56
REMARK Flexibility Score: inf
ROOT
ATOM      1  C   UNL A   1      32.372  26.719  26.509  1.00  0.00     0.117 C 
ENDROOT
BRANCH   1   2
ATOM      2  N   UNL A   1      31.276  25.799  26.669  1.00  0.00    -0.356 N 
ATOM      3  C   UNL A   1      31.168  24.461  26.504  1.00  0.00     0.226 C 
ATOM      4  O   UNL A   1      30.245  23.989  27.177  1.00  0.00    -0.275 OA
ATOM      5  H   UNL A   1      30.438  26.230  26.956  1.00  0.00     0.163 HD
BRANCH   3   6
ATOM      6  C   UNL A   1      32.158  23.549  25.737  1.00  0.00     0.111 C 
BRANCH   6   7
ATOM      7  C   UNL A   1      31.633  22.573  24.626  1.00  0.00     0.016 C 
BRANCH   7   8
ATOM      8  C   UNL A   1      32.114  22.313  23.199  1.00  0.00     0.001 C 
BRANCH   8   9
ATOM      9  C   UNL A   1      33.424  22.909  22.719  1.00  0.00    -0.003 C 
ATOM     10  C   UNL A   1      33.280  24.370  22.338  1.00  0.00     0.004 C 
ENDBRANCH   8   9
ENDBRANCH   7   8
ENDBRANCH   6   7
BRANCH   6  11
ATOM     11  C   UNL A   1      33.018  22.602  26.774  1.00  0.00     0.084 C 
ATOM     12  C   UNL A   1      33.656  21.199  26.375  1.00  0.00     0.072 C 
ATOM     13  C   UNL A   1      34.317  23.325  27.238  1.00  0.00     0.072 C 
ATOM     14  C   UNL A   1      34.998  21.607  25.814  1.00  0.00    -0.042 A 
ATOM     15  C   UNL A   1      35.214  22.951  26.109  1.00  0.00    -0.042 A 
ATOM     16  C   UNL A   1      35.872  20.917  25.001  1.00  0.00     0.004 A 
ATOM     17  C   UNL A   1      36.023  23.724  25.304  1.00  0.00     0.004 A 
ATOM     18  C   UNL A   1      36.794  21.667  24.266  1.00  0.00     0.000 A 
ATOM     19  C   UNL A   1      36.794  23.071  24.343  1.00  0.00     0.000 A 
BRANCH  11  20
ATOM     20  O   UNL A   1      32.168  22.370  27.914  1.00  0.00    -0.388 OA
ATOM     21  H   UNL A   1      31.299  22.062  27.613  1.00  0.00     0.211 HD
ENDBRANCH  11  20
ENDBRANCH   6  11
ENDBRANCH   3   6
ENDBRANCH   1   2
BRANCH   1  22
ATOM     22  C   UNL A   1      31.889  28.134  26.214  1.00  0.00     0.042 C 
BRANCH  22  23
ATOM     23  C   UNL A   1      32.953  29.054  25.639  1.00  0.00     0.118 C 
BRANCH  23  24
ATOM     24  N   UNL A   1      32.713  30.448  25.986  1.00  0.00    -0.352 N 
ATOM     25  C   UNL A   1      33.258  31.240  26.961  1.00  0.00     0.251 C 
ATOM     26  H   UNL A   1      32.045  30.899  25.421  1.00  0.00     0.163 HD
ATOM     27  O   UNL A   1      32.710  32.315  27.230  1.00  0.00    -0.269 OA
BRANCH  25  28
ATOM     28  C   UNL A   1      34.477  30.846  27.700  1.00  0.00     0.039 A 
ATOM     29  C   UNL A   1      35.522  31.768  27.826  1.00  0.00     0.014 A 
ATOM     30  C   UNL A   1      34.640  29.555  28.209  1.00  0.00     0.014 A 
ATOM     31  C   UNL A   1      36.697  31.412  28.495  1.00  0.00     0.010 A 
ATOM     32  C   UNL A   1      35.760  29.237  28.970  1.00  0.00     0.010 A 
ATOM     33  C   UNL A   1      36.815  30.151  29.099  1.00  0.00    -0.014 A 
BRANCH  33  34
ATOM     34  C   UNL A   1      38.045  29.750  29.830  1.00  0.00     0.031 A 
ATOM     35  C   UNL A   1      38.311  30.288  31.211  1.00  0.00     0.074 A 
ATOM     36  C   UNL A   1      38.949  28.953  29.231  1.00  0.00     0.049 A 
ATOM     37  N   UNL A   1      39.353  30.115  31.985  1.00  0.00    -0.248 NA
ATOM     38  C   UNL A   1      37.281  31.169  31.787  1.00  0.00     0.031 C 
ATOM     39  C   UNL A   1      38.830  28.405  27.880  1.00  0.00     0.029 A 
ATOM     40  N   UNL A   1      40.153  28.469  29.680  1.00  0.00    -0.354 N 
ATOM     41  C   UNL A   1      39.112  30.876  33.121  1.00  0.00     0.074 A 
ATOM     42  C   UNL A   1      37.861  31.568  32.908  1.00  0.00     0.031 C 
ATOM     43  C   UNL A   1      39.896  27.633  27.622  1.00  0.00     0.029 A 
ATOM     44  C   UNL A   1      40.796  27.666  28.770  1.00  0.00     0.049 A 
ATOM     45  H   UNL A   1      40.521  28.678  30.569  1.00  0.00     0.167 HD
ATOM     46  C   UNL A   1      39.849  30.967  34.254  1.00  0.00     0.037 A 
ATOM     47  C   UNL A   1      41.979  27.029  28.854  1.00  0.00     0.037 A 
ATOM     48  C   UNL A   1      41.083  30.256  34.469  1.00  0.00     0.049 A 
ATOM     49  C   UNL A   1      42.790  27.156  30.116  1.00  0.00     0.074 A 
ATOM     50  C   UNL A   1      41.881  30.232  35.599  1.00  0.00     0.029 A 
ATOM     51  N   UNL A   1      41.700  29.446  33.526  1.00  0.00    -0.354 N 
ATOM     52  N   UNL A   1      42.520  27.824  31.211  1.00  0.00    -0.248 NA
ATOM     53  C   UNL A   1      44.068  26.433  30.154  1.00  0.00     0.031 C 
ATOM     54  C   UNL A   1      43.009  29.452  35.320  1.00  0.00     0.029 A 
ATOM     55  C   UNL A   1      42.883  28.938  34.039  1.00  0.00     0.049 A 
ATOM     56  H   UNL A   1      41.347  29.258  32.625  1.00  0.00     0.167 HD
ATOM     57  C   UNL A   1      43.575  27.579  32.079  1.00  0.00     0.074 A 
ATOM     58  C   UNL A   1      44.483  26.688  31.387  1.00  0.00     0.031 C 
ATOM     59  C   UNL A   1      43.773  28.047  33.337  1.00  0.00     0.037 A 
BRANCH  46  60
ATOM     60  C   UNL A   1      39.340  31.872  35.342  1.00  0.00     0.064 A 
ATOM     61  C   UNL A   1      39.667  33.238  35.383  1.00  0.00     0.173 A 
ATOM     62  C   UNL A   1      38.507  31.373  36.356  1.00  0.00     0.173 A 
ATOM     63  F   UNL A   1      40.468  33.769  34.445  1.00  0.00    -0.203 F 
ATOM     64  C   UNL A   1      39.222  34.054  36.419  1.00  0.00     0.198 A 
ATOM     65  C   UNL A   1      38.032  32.201  37.369  1.00  0.00     0.198 A 
ATOM     66  F   UNL A   1      38.154  30.079  36.364  1.00  0.00    -0.203 F 
ATOM     67  F   UNL A   1      39.608  35.337  36.473  1.00  0.00    -0.200 F 
ATOM     68  C   UNL A   1      38.400  33.537  37.408  1.00  0.00     0.200 A 
ATOM     69  F   UNL A   1      37.225  31.702  38.316  1.00  0.00    -0.200 F 
ATOM     70  F   UNL A   1      37.972  34.323  38.406  1.00  0.00    -0.200 F 
ENDBRANCH  46  60
BRANCH  47  71
ATOM     71  C   UNL A   1      42.447  26.185  27.724  1.00  0.00     0.064 A 
ATOM     72  C   UNL A   1      43.359  26.687  26.783  1.00  0.00     0.173 A 
ATOM     73  C   UNL A   1      42.010  24.862  27.565  1.00  0.00     0.173 A 
ATOM     74  F   UNL A   1      43.793  27.952  26.881  1.00  0.00    -0.203 F 
ATOM     75  C   UNL A   1      43.801  25.903  25.720  1.00  0.00     0.198 A 
ATOM     76  C   UNL A   1      42.476  24.070  26.518  1.00  0.00     0.198 A 
ATOM     77  F   UNL A   1      41.143  24.331  28.440  1.00  0.00    -0.203 F 
ATOM     78  F   UNL A   1      44.641  26.422  24.812  1.00  0.00    -0.200 F 
ATOM     79  C   UNL A   1      43.366  24.593  25.592  1.00  0.00     0.200 A 
ATOM     80  F   UNL A   1      42.066  22.798  26.408  1.00  0.00    -0.200 F 
ATOM     81  F   UNL A   1      43.799  23.837  24.575  1.00  0.00    -0.200 F 
ENDBRANCH  47  71
BRANCH  59  82
ATOM     82  C   UNL A   1      45.001  27.574  34.062  1.00  0.00     0.064 A 
ATOM     83  C   UNL A   1      46.207  28.289  34.021  1.00  0.00     0.173 A 
ATOM     84  C   UNL A   1      44.957  26.406  34.840  1.00  0.00     0.173 A 
ATOM     85  F   UNL A   1      46.306  29.404  33.282  1.00  0.00    -0.203 F 
ATOM     86  C   UNL A   1      47.331  27.836  34.708  1.00  0.00     0.198 A 
ATOM     87  C   UNL A   1      46.071  25.976  35.553  1.00  0.00     0.198 A 
ATOM     88  F   UNL A   1      43.826  25.688  34.919  1.00  0.00    -0.203 F 
ATOM     89  F   UNL A   1      48.486  28.506  34.611  1.00  0.00    -0.200 F 
ATOM     90  C   UNL A   1      47.259  26.687  35.479  1.00  0.00     0.200 A 
ATOM     91  F   UNL A   1      45.995  24.874  36.312  1.00  0.00    -0.200 F 
ATOM     92  F   UNL A   1      48.341  26.258  36.146  1.00  0.00    -0.200 F 
ENDBRANCH  59  82
ENDBRANCH  33  34
ENDBRANCH  25  28
ENDBRANCH  23  24
ENDBRANCH  22  23
ENDBRANCH   1  22
TORSDOF 15
ENDMDL
MODEL 3
REMARK VINA RESULT:     -11.5      1.174      2.297
REMARK SMILES CCCC[C@@H](C(=O)NCCCNC(=O)c1ccc(-c2c3nc(c(-c4c(F)c(F)c(F)c(F)c4F)c4ccc([nH]4)c(-c4c(F)c(F)c(F)c(F)c4F)c4nc(c(-c5c(F)c(F)c(F)c(F)c5F)c5ccc2[nH]5)C=C4)C=C3)cc1)C1(O)Cc2ccccc2C1
REMARK SMILES IDX 9 1 8 2 6 3 7 4 5 6 4 7 3 8 2 9 1 10 78 11 80 12 87 13 81 14
REMARK SMILES IDX 86 15 82 16 85 17 83 18 84 19 79 20 10 22 11 23 12 24 13 25
REMARK SMILES IDX 14 27 15 28 16 29 77 30 17 31 76 32 18 33 19 34 20 35 70 36
REMARK SMILES IDX 21 37 75 38 69 39 71 40 22 41 74 42 68 43 67 44 23 46 55 47
REMARK SMILES IDX 35 48 54 49 36 50 39 51 53 52 72 53 37 54 38 55 52 57 73 58
REMARK SMILES IDX 40 59 24 60 25 61 33 62 26 63 27 64 31 65 34 66 28 67 29 68
REMARK SMILES IDX 32 69 30 70 56 71 57 72 65 73 58 74 59 75 63 76 66 77 60 78
REMARK SMILES IDX 61 79 64 80 62 81 41 82 42 83 50 84 43 85 44 86 48 87 51 88
REMARK SMILES IDX 45 89 46 90 49 91 47 92
REMARK H PARENT 8 5 79 21 12 26 71 45 39 56
REMARK Flexibility Score: inf
ROOT
ATOM      1  C   UNL A   1      31.698  27.514  24.103  1.00  0.00     0.117 C 
ENDROOT
BRANCH   1   2
ATOM      2  N   UNL A   1      32.682  27.306  23.073  1.00  0.00    -0.356 N 
ATOM      3  C   UNL A   1      33.367  26.214  22.664  1.00  0.00     0.226 C 
ATOM      4  O   UNL A   1      33.740  26.319  21.490  1.00  0.00    -0.275 OA
ATOM      5  H   UNL A   1      32.900  28.121  22.566  1.00  0.00     0.163 HD
BRANCH   3   6
ATOM      6  C   UNL A   1      33.533  24.889  23.449  1.00  0.00     0.111 C 
BRANCH   6   7
ATOM      7  C   UNL A   1      34.826  24.017  23.262  1.00  0.00     0.016 C 
BRANCH   7   8
ATOM      8  C   UNL A   1      35.819  23.451  24.276  1.00  0.00     0.001 C 
BRANCH   8   9
ATOM      9  C   UNL A   1      36.464  22.100  24.033  1.00  0.00    -0.003 C 
ATOM     10  C   UNL A   1      37.644  21.857  24.954  1.00  0.00     0.004 C 
ENDBRANCH   8   9
ENDBRANCH   7   8
ENDBRANCH   6   7
BRANCH   6  11
ATOM     11  C   UNL A   1      32.276  23.865  23.160  1.00  0.00     0.084 C 
ATOM     12  C   UNL A   1      32.450  22.354  22.690  1.00  0.00     0.072 C 
ATOM     13  C   UNL A   1      31.458  23.611  24.462  1.00  0.00     0.072 C 
ATOM     14  C   UNL A   1      32.594  21.625  24.005  1.00  0.00    -0.042 A 
ATOM     15  C   UNL A   1      32.266  22.500  25.038  1.00  0.00    -0.042 A 
ATOM     16  C   UNL A   1      33.103  20.373  24.281  1.00  0.00     0.004 A 
ATOM     17  C   UNL A   1      32.806  22.334  26.295  1.00  0.00     0.004 A 
ATOM     18  C   UNL A   1      33.542  20.131  25.585  1.00  0.00     0.000 A 
ATOM     19  C   UNL A   1      33.487  21.145  26.556  1.00  0.00     0.000 A 
BRANCH  11  20
ATOM     20  O   UNL A   1      31.435  24.515  22.188  1.00  0.00    -0.388 OA
ATOM     21  H   UNL A   1      30.599  24.774  22.605  1.00  0.00     0.211 HD
ENDBRANCH  11  20
ENDBRANCH   6  11
ENDBRANCH   3   6
ENDBRANCH   1   2
BRANCH   1  22
ATOM     22  C   UNL A   1      32.329  27.983  25.408  1.00  0.00     0.042 C 
BRANCH  22  23
ATOM     23  C   UNL A   1      33.384  29.063  25.244  1.00  0.00     0.118 C 
BRANCH  23  24
ATOM     24  N   UNL A   1      32.909  30.363  25.699  1.00  0.00    -0.352 N 
ATOM     25  C   UNL A   1      33.257  31.119  26.786  1.00  0.00     0.251 C 
ATOM     26  H   UNL A   1      32.219  30.768  25.125  1.00  0.00     0.163 HD
ATOM     27  O   UNL A   1      32.533  32.068  27.108  1.00  0.00    -0.269 OA
BRANCH  25  28
ATOM     28  C   UNL A   1      34.469  30.832  27.584  1.00  0.00     0.039 A 
ATOM     29  C   UNL A   1      35.432  31.836  27.740  1.00  0.00     0.014 A 
ATOM     30  C   UNL A   1      34.709  29.566  28.123  1.00  0.00     0.014 A 
ATOM     31  C   UNL A   1      36.600  31.582  28.465  1.00  0.00     0.010 A 
ATOM     32  C   UNL A   1      35.815  29.347  28.937  1.00  0.00     0.010 A 
ATOM     33  C   UNL A   1      36.789  30.343  29.096  1.00  0.00    -0.014 A 
BRANCH  33  34
ATOM     34  C   UNL A   1      38.012  30.050  29.886  1.00  0.00     0.031 A 
ATOM     35  C   UNL A   1      39.074  29.140  29.325  1.00  0.00     0.074 A 
ATOM     36  C   UNL A   1      38.142  30.551  31.129  1.00  0.00     0.049 A 
ATOM     37  N   UNL A   1      40.178  28.708  29.881  1.00  0.00    -0.248 NA
ATOM     38  C   UNL A   1      38.847  28.619  27.967  1.00  0.00     0.031 C 
ATOM     39  C   UNL A   1      37.163  31.406  31.802  1.00  0.00     0.029 A 
ATOM     40  N   UNL A   1      39.149  30.410  32.051  1.00  0.00    -0.354 N 
ATOM     41  C   UNL A   1      40.760  27.855  28.953  1.00  0.00     0.074 A 
ATOM     42  C   UNL A   1      39.855  27.773  27.829  1.00  0.00     0.031 C 
ATOM     43  C   UNL A   1      37.632  31.741  33.013  1.00  0.00     0.029 A 
ATOM     44  C   UNL A   1      38.922  31.092  33.221  1.00  0.00     0.049 A 
ATOM     45  H   UNL A   1      39.957  29.871  31.889  1.00  0.00     0.167 HD
ATOM     46  C   UNL A   1      41.955  27.219  29.017  1.00  0.00     0.037 A 
ATOM     47  C   UNL A   1      39.671  31.180  34.337  1.00  0.00     0.037 A 
ATOM     48  C   UNL A   1      42.861  27.324  30.131  1.00  0.00     0.049 A 
ATOM     49  C   UNL A   1      40.988  30.454  34.393  1.00  0.00     0.074 A 
ATOM     50  C   UNL A   1      44.120  26.769  30.275  1.00  0.00     0.029 A 
ATOM     51  N   UNL A   1      42.599  28.030  31.297  1.00  0.00    -0.354 N 
ATOM     52  N   UNL A   1      41.561  29.705  33.482  1.00  0.00    -0.248 NA
ATOM     53  C   UNL A   1      41.766  30.594  35.631  1.00  0.00     0.031 C 
ATOM     54  C   UNL A   1      44.596  27.093  31.551  1.00  0.00     0.029 A 
ATOM     55  C   UNL A   1      43.662  27.903  32.177  1.00  0.00     0.049 A 
ATOM     56  H   UNL A   1      41.779  28.547  31.471  1.00  0.00     0.167 HD
ATOM     57  C   UNL A   1      42.777  29.309  34.022  1.00  0.00     0.074 A 
ATOM     58  C   UNL A   1      42.865  29.914  35.335  1.00  0.00     0.031 C 
ATOM     59  C   UNL A   1      43.735  28.518  33.479  1.00  0.00     0.037 A 
BRANCH  46  60
ATOM     60  C   UNL A   1      42.343  26.353  27.850  1.00  0.00     0.064 A 
ATOM     61  C   UNL A   1      41.871  25.036  27.717  1.00  0.00     0.173 A 
ATOM     62  C   UNL A   1      43.192  26.845  26.846  1.00  0.00     0.173 A 
ATOM     63  F   UNL A   1      41.065  24.510  28.651  1.00  0.00    -0.203 F 
ATOM     64  C   UNL A   1      42.272  24.233  26.653  1.00  0.00     0.198 A 
ATOM     65  C   UNL A   1      43.559  26.051  25.763  1.00  0.00     0.198 A 
ATOM     66  F   UNL A   1      43.666  28.097  26.915  1.00  0.00    -0.203 F 
ATOM     67  F   UNL A   1      41.865  22.957  26.588  1.00  0.00    -0.200 F 
ATOM     68  C   UNL A   1      43.111  24.742  25.674  1.00  0.00     0.200 A 
ATOM     69  F   UNL A   1      44.358  26.550  24.809  1.00  0.00    -0.200 F 
ATOM     70  F   UNL A   1      43.497  23.967  24.650  1.00  0.00    -0.200 F 
ENDBRANCH  46  60
BRANCH  47  71
ATOM     71  C   UNL A   1      39.208  32.019  35.474  1.00  0.00     0.064 A 
ATOM     72  C   UNL A   1      38.429  31.467  36.502  1.00  0.00     0.173 A 
ATOM     73  C   UNL A   1      39.542  33.377  35.568  1.00  0.00     0.173 A 
ATOM     74  F   UNL A   1      38.068  30.176  36.447  1.00  0.00    -0.203 F 
ATOM     75  C   UNL A   1      37.990  32.245  37.570  1.00  0.00     0.198 A 
ATOM     76  C   UNL A   1      39.127  34.148  36.652  1.00  0.00     0.198 A 
ATOM     77  F   UNL A   1      40.290  33.953  34.615  1.00  0.00    -0.203 F 
ATOM     78  F   UNL A   1      37.213  31.701  38.517  1.00  0.00    -0.200 F 
ATOM     79  C   UNL A   1      38.346  33.583  37.649  1.00  0.00     0.200 A 
ATOM     80  F   UNL A   1      39.488  35.436  36.734  1.00  0.00    -0.200 F 
ATOM     81  F   UNL A   1      37.931  34.329  38.681  1.00  0.00    -0.200 F 
ENDBRANCH  47  71
BRANCH  59  82
ATOM     82  C   UNL A   1      44.981  28.292  34.288  1.00  0.00     0.064 A 
ATOM     83  C   UNL A   1      45.108  27.204  35.164  1.00  0.00     0.173 A 
ATOM     84  C   UNL A   1      46.078  29.158  34.154  1.00  0.00     0.173 A 
ATOM     85  F   UNL A   1      44.085  26.354  35.338  1.00  0.00    -0.203 F 
ATOM     86  C   UNL A   1      46.276  27.008  35.898  1.00  0.00     0.198 A 
ATOM     87  C   UNL A   1      47.255  28.940  34.862  1.00  0.00     0.198 A 
ATOM     88  F   UNL A   1      46.011  30.210  33.324  1.00  0.00    -0.203 F 
ATOM     89  F   UNL A   1      46.354  25.994  36.768  1.00  0.00    -0.200 F 
ATOM     90  C   UNL A   1      47.349  27.870  35.740  1.00  0.00     0.200 A 
ATOM     91  F   UNL A   1      48.298  29.764  34.696  1.00  0.00    -0.200 F 
ATOM     92  F   UNL A   1      48.475  27.676  36.442  1.00  0.00    -0.200 F 
ENDBRANCH  59  82
ENDBRANCH  33  34
ENDBRANCH  25  28
ENDBRANCH  23  24
ENDBRANCH  22  23
ENDBRANCH   1  22
TORSDOF 15
ENDMDL
