MODEL 1
REMARK VINA RESULT:     -14.9      0.000      0.000
REMARK SMILES NC(=O)c1cc(NC(=O)/C=C\C(=O)NCCCNC(=O)c2ccc(-c3c4nc(c(-c5c(F)c(F)c(F)c(F)c5F)c5ccc([nH]5)c(-c5c(F)c(F)c(F)c(F)c5F)c5nc(c(-c6c(F)c(F)c(F)c(F)c6F)c6ccc3[nH]6)C=C5)C=C4)cc2)ccc1N1CCOCC1
REMARK SMILES IDX 15 1 14 2 12 3 13 4 11 6 10 7 8 8 7 9 9 11 6 12 4 13 5 14
REMARK SMILES IDX 86 15 85 16 84 17 2 18 1 19 3 22 87 23 88 24 92 25 89 26
REMARK SMILES IDX 91 27 90 28 16 29 17 30 18 31 19 32 20 34 21 35 22 36 83 37
REMARK SMILES IDX 23 38 82 39 24 40 25 41 26 42 76 43 27 44 81 45 75 46 77 47
REMARK SMILES IDX 28 48 80 49 74 50 73 51 29 53 61 54 41 55 60 56 42 57 45 58
REMARK SMILES IDX 59 59 78 60 43 61 44 62 58 64 79 65 46 66 30 67 31 68 39 69
REMARK SMILES IDX 32 70 33 71 37 72 40 73 34 74 35 75 38 76 36 77 62 78 63 79
REMARK SMILES IDX 71 80 64 81 65 82 69 83 72 84 66 85 67 86 70 87 68 88 47 89
REMARK SMILES IDX 48 90 56 91 49 92 50 93 54 94 57 95 51 96 52 97 55 98 53 99
REMARK H PARENT 14 5 7 10 1 20 1 21 18 33 77 52 45 63
REMARK Flexibility Score: inf
ROOT
ATOM      1  C   UNL A   1      36.675  20.511  24.944  1.00  0.00     0.118 C 
ENDROOT
BRANCH   1   2
ATOM      2  N   UNL A   1      35.072  19.927  25.003  1.00  0.00    -0.352 N 
ATOM      3  C   UNL A   1      33.181  20.449  24.814  1.00  0.00     0.244 C 
ATOM      4  O   UNL A   1      32.121  19.788  25.017  1.00  0.00    -0.270 OA
ATOM      5  H   UNL A   1      35.106  18.966  25.211  1.00  0.00     0.163 HD
BRANCH   3   6
ATOM      6  C   UNL A   1      32.496  21.908  24.175  1.00  0.00     0.077 C 
ATOM      7  C   UNL A   1      31.852  23.010  24.616  1.00  0.00     0.077 C 
BRANCH   7   8
ATOM      8  C   UNL A   1      31.403  23.268  26.010  1.00  0.00     0.248 C 
ATOM      9  N   UNL A   1      31.260  24.582  26.318  1.00  0.00    -0.322 N 
ATOM     10  H   UNL A   1      31.319  24.891  27.250  1.00  0.00     0.170 HD
ATOM     11  O   UNL A   1      31.315  22.370  26.835  1.00  0.00    -0.270 OA
BRANCH   9  12
ATOM     12  C   UNL A   1      31.028  25.475  25.289  1.00  0.00     0.042 A 
ATOM     13  C   UNL A   1      31.945  28.182  23.907  1.00  0.00     0.064 A 
ATOM     14  C   UNL A   1      32.391  26.641  24.783  1.00  0.00     0.042 A 
ATOM     15  C   UNL A   1      30.215  28.534  23.446  1.00  0.00     0.050 A 
ATOM     16  C   UNL A   1      28.903  27.316  23.879  1.00  0.00     0.029 A 
ATOM     17  C   UNL A   1      29.302  25.821  24.825  1.00  0.00     0.028 A 
BRANCH  13  18
ATOM     18  C   UNL A   1      32.811  29.299  24.342  1.00  0.00     0.250 C 
ATOM     19  N   UNL A   1      33.783  29.612  23.433  1.00  0.00    -0.366 N 
ATOM     20  H   UNL A   1      34.416  30.342  23.621  1.00  0.00     0.159 HD
ATOM     21  H   UNL A   1      33.850  29.108  22.590  1.00  0.00     0.159 HD
ATOM     22  O   UNL A   1      32.576  29.967  25.334  1.00  0.00    -0.269 OA
ENDBRANCH  13  18
BRANCH  15  23
ATOM     23  N   UNL A   1      29.805  29.793  22.986  1.00  0.00    -0.366 N 
ATOM     24  C   UNL A   1      29.421  30.948  23.827  1.00  0.00     0.145 C 
ATOM     25  C   UNL A   1      29.609  30.037  21.546  1.00  0.00     0.145 C 
ATOM     26  C   UNL A   1      28.026  31.497  23.425  1.00  0.00     0.181 C 
ATOM     27  C   UNL A   1      28.182  30.538  21.284  1.00  0.00     0.181 C 
ATOM     28  O   UNL A   1      27.923  31.747  22.013  1.00  0.00    -0.378 OA
ENDBRANCH  15  23
ENDBRANCH   9  12
ENDBRANCH   7   8
ENDBRANCH   3   6
ENDBRANCH   1   2
BRANCH   1  29
ATOM     29  C   UNL A   1      37.910  19.579  25.151  1.00  0.00     0.042 C 
BRANCH  29  30
ATOM     30  C   UNL A   1      39.180  20.212  25.711  1.00  0.00     0.118 C 
BRANCH  30  31
ATOM     31  N   UNL A   1      40.186  19.202  25.965  1.00  0.00    -0.352 N 
ATOM     32  C   UNL A   1      41.542  19.378  26.058  1.00  0.00     0.251 C 
ATOM     33  H   UNL A   1      39.857  18.282  26.085  1.00  0.00     0.163 HD
ATOM     34  O   UNL A   1      42.296  18.425  25.892  1.00  0.00    -0.269 OA
BRANCH  32  35
ATOM     35  C   UNL A   1      42.098  20.712  26.380  1.00  0.00     0.039 A 
ATOM     36  C   UNL A   1      42.155  21.111  27.717  1.00  0.00     0.014 A 
ATOM     37  C   UNL A   1      42.465  21.602  25.364  1.00  0.00     0.014 A 
ATOM     38  C   UNL A   1      42.562  22.408  28.037  1.00  0.00     0.010 A 
ATOM     39  C   UNL A   1      42.927  22.878  25.689  1.00  0.00     0.010 A 
ATOM     40  C   UNL A   1      42.948  23.305  27.026  1.00  0.00    -0.014 A 
BRANCH  40  41
ATOM     41  C   UNL A   1      43.329  24.701  27.363  1.00  0.00     0.031 A 
ATOM     42  C   UNL A   1      44.727  25.192  27.106  1.00  0.00     0.074 A 
ATOM     43  C   UNL A   1      42.415  25.525  27.909  1.00  0.00     0.049 A 
ATOM     44  N   UNL A   1      45.242  26.378  27.314  1.00  0.00    -0.248 NA
ATOM     45  C   UNL A   1      45.681  24.213  26.563  1.00  0.00     0.031 C 
ATOM     46  C   UNL A   1      41.035  25.159  28.224  1.00  0.00     0.029 A 
ATOM     47  N   UNL A   1      42.507  26.841  28.287  1.00  0.00    -0.354 N 
ATOM     48  C   UNL A   1      46.578  26.283  26.940  1.00  0.00     0.074 A 
ATOM     49  C   UNL A   1      46.807  24.909  26.552  1.00  0.00     0.031 C 
ATOM     50  C   UNL A   1      40.394  26.235  28.705  1.00  0.00     0.029 A 
ATOM     51  C   UNL A   1      41.330  27.353  28.777  1.00  0.00     0.049 A 
ATOM     52  H   UNL A   1      43.335  27.367  28.214  1.00  0.00     0.167 HD
ATOM     53  C   UNL A   1      47.520  27.257  26.906  1.00  0.00     0.037 A 
ATOM     54  C   UNL A   1      41.041  28.586  29.234  1.00  0.00     0.037 A 
ATOM     55  C   UNL A   1      47.278  28.624  27.293  1.00  0.00     0.049 A 
ATOM     56  C   UNL A   1      42.118  29.638  29.232  1.00  0.00     0.074 A 
ATOM     57  C   UNL A   1      48.145  29.701  27.245  1.00  0.00     0.029 A 
ATOM     58  N   UNL A   1      46.084  29.097  27.822  1.00  0.00    -0.354 N 
ATOM     59  N   UNL A   1      43.355  29.559  28.807  1.00  0.00    -0.248 NA
ATOM     60  C   UNL A   1      41.752  30.954  29.772  1.00  0.00     0.031 C 
ATOM     61  C   UNL A   1      47.506  30.803  27.824  1.00  0.00     0.029 A 
ATOM     62  C   UNL A   1      46.209  30.438  28.149  1.00  0.00     0.049 A 
ATOM     63  H   UNL A   1      45.270  28.558  27.947  1.00  0.00     0.167 HD
ATOM     64  C   UNL A   1      43.905  30.821  28.991  1.00  0.00     0.074 A 
ATOM     65  C   UNL A   1      42.859  31.649  29.555  1.00  0.00     0.031 C 
ATOM     66  C   UNL A   1      45.159  31.255  28.710  1.00  0.00     0.037 A 
BRANCH  53  67
ATOM     67  C   UNL A   1      48.908  26.867  26.472  1.00  0.00     0.064 A 
ATOM     68  C   UNL A   1      49.860  26.365  27.374  1.00  0.00     0.173 A 
ATOM     69  C   UNL A   1      49.294  26.998  25.128  1.00  0.00     0.173 A 
ATOM     70  F   UNL A   1      49.553  26.221  28.672  1.00  0.00    -0.203 F 
ATOM     71  C   UNL A   1      51.158  26.065  26.960  1.00  0.00     0.198 A 
ATOM     72  C   UNL A   1      50.577  26.654  24.709  1.00  0.00     0.198 A 
ATOM     73  F   UNL A   1      48.425  27.460  24.216  1.00  0.00    -0.203 F 
ATOM     74  F   UNL A   1      52.070  25.667  27.857  1.00  0.00    -0.200 F 
ATOM     75  C   UNL A   1      51.512  26.205  25.627  1.00  0.00     0.200 A 
ATOM     76  F   UNL A   1      50.911  26.771  23.416  1.00  0.00    -0.200 F 
ATOM     77  F   UNL A   1      52.760  25.920  25.230  1.00  0.00    -0.200 F 
ENDBRANCH  53  67
BRANCH  54  78
ATOM     78  C   UNL A   1      39.663  28.901  29.694  1.00  0.00     0.064 A 
ATOM     79  C   UNL A   1      38.717  29.438  28.808  1.00  0.00     0.173 A 
ATOM     80  C   UNL A   1      39.259  28.669  31.016  1.00  0.00     0.173 A 
ATOM     81  F   UNL A   1      39.060  29.696  27.538  1.00  0.00    -0.203 F 
ATOM     82  C   UNL A   1      37.427  29.748  29.233  1.00  0.00     0.198 A 
ATOM     83  C   UNL A   1      37.958  28.947  31.431  1.00  0.00     0.198 A 
ATOM     84  F   UNL A   1      40.122  28.151  31.902  1.00  0.00    -0.203 F 
ATOM     85  F   UNL A   1      36.558  30.304  28.378  1.00  0.00    -0.200 F 
ATOM     86  C   UNL A   1      37.047  29.495  30.542  1.00  0.00     0.200 A 
ATOM     87  F   UNL A   1      37.590  28.684  32.692  1.00  0.00    -0.200 F 
ATOM     88  F   UNL A   1      35.803  29.785  30.948  1.00  0.00    -0.200 F 
ENDBRANCH  54  78
BRANCH  66  89
ATOM     89  C   UNL A   1      45.462  32.706  28.965  1.00  0.00     0.064 A 
ATOM     90  C   UNL A   1      46.066  33.147  30.152  1.00  0.00     0.173 A 
ATOM     91  C   UNL A   1      45.174  33.669  27.983  1.00  0.00     0.173 A 
ATOM     92  F   UNL A   1      46.352  32.272  31.129  1.00  0.00    -0.203 F 
ATOM     93  C   UNL A   1      46.335  34.496  30.362  1.00  0.00     0.198 A 
ATOM     94  C   UNL A   1      45.484  35.012  28.179  1.00  0.00     0.198 A 
ATOM     95  F   UNL A   1      44.605  33.305  26.823  1.00  0.00    -0.203 F 
ATOM     96  F   UNL A   1      46.853  34.901  31.531  1.00  0.00    -0.200 F 
ATOM     97  C   UNL A   1      46.054  35.426  29.373  1.00  0.00     0.200 A 
ATOM     98  F   UNL A   1      45.231  35.904  27.212  1.00  0.00    -0.200 F 
ATOM     99  F   UNL A   1      46.323  36.724  29.572  1.00  0.00    -0.200 F 
ENDBRANCH  66  89
ENDBRANCH  40  41
ENDBRANCH  32  35
ENDBRANCH  30  31
ENDBRANCH  29  30
ENDBRANCH   1  29
TORSDOF 14
ENDMDL
MODEL 2
REMARK VINA RESULT:     -14.9      0.371      7.208
REMARK SMILES NC(=O)c1cc(NC(=O)/C=C\C(=O)NCCCNC(=O)c2ccc(-c3c4nc(c(-c5c(F)c(F)c(F)c(F)c5F)c5ccc([nH]5)c(-c5c(F)c(F)c(F)c(F)c5F)c5nc(c(-c6c(F)c(F)c(F)c(F)c6F)c6ccc3[nH]6)C=C5)C=C4)cc2)ccc1N1CCOCC1
REMARK SMILES IDX 15 1 14 2 12 3 13 4 11 6 10 7 8 8 7 9 9 11 6 12 4 13 5 14
REMARK SMILES IDX 86 15 85 16 84 17 2 18 1 19 3 22 87 23 88 24 92 25 89 26
REMARK SMILES IDX 91 27 90 28 16 29 17 30 18 31 19 32 20 34 21 35 22 36 83 37
REMARK SMILES IDX 23 38 82 39 24 40 25 41 26 42 76 43 27 44 81 45 75 46 77 47
REMARK SMILES IDX 28 48 80 49 74 50 73 51 29 53 61 54 41 55 60 56 42 57 45 58
REMARK SMILES IDX 59 59 78 60 43 61 44 62 58 64 79 65 46 66 30 67 31 68 39 69
REMARK SMILES IDX 32 70 33 71 37 72 40 73 34 74 35 75 38 76 36 77 62 78 63 79
REMARK SMILES IDX 71 80 64 81 65 82 69 83 72 84 66 85 67 86 70 87 68 88 47 89
REMARK SMILES IDX 48 90 56 91 49 92 50 93 54 94 57 95 51 96 52 97 55 98 53 99
REMARK H PARENT 14 5 7 10 1 20 1 21 18 33 77 52 45 63
REMARK Flexibility Score: inf
ROOT
ATOM      1  C   UNL A   1      36.714  20.512  24.904  1.00  0.00     0.118 C 
ENDROOT
BRANCH   1   2
ATOM      2  N   UNL A   1      35.106  19.960  25.049  1.00  0.00    -0.352 N 
ATOM      3  C   UNL A   1      33.218  20.511  24.928  1.00  0.00     0.244 C 
ATOM      4  O   UNL A   1      32.157  19.875  25.196  1.00  0.00    -0.270 OA
ATOM      5  H   UNL A   1      35.132  19.004  25.283  1.00  0.00     0.163 HD
BRANCH   3   6
ATOM      6  C   UNL A   1      32.531  21.964  24.277  1.00  0.00     0.077 C 
ATOM      7  C   UNL A   1      31.869  23.060  24.706  1.00  0.00     0.077 C 
BRANCH   7   8
ATOM      8  C   UNL A   1      31.393  23.313  26.092  1.00  0.00     0.248 C 
ATOM      9  N   UNL A   1      31.215  24.625  26.391  1.00  0.00    -0.322 N 
ATOM     10  H   UNL A   1      31.253  24.940  27.323  1.00  0.00     0.170 HD
ATOM     11  O   UNL A   1      31.315  22.417  26.920  1.00  0.00    -0.270 OA
BRANCH   9  12
ATOM     12  C   UNL A   1      30.978  25.508  25.355  1.00  0.00     0.042 A 
ATOM     13  C   UNL A   1      31.895  28.193  23.934  1.00  0.00     0.064 A 
ATOM     14  C   UNL A   1      32.342  26.660  24.822  1.00  0.00     0.042 A 
ATOM     15  C   UNL A   1      30.162  28.550  23.486  1.00  0.00     0.050 A 
ATOM     16  C   UNL A   1      28.848  27.344  23.946  1.00  0.00     0.029 A 
ATOM     17  C   UNL A   1      29.248  25.858  24.905  1.00  0.00     0.028 A 
BRANCH  13  18
ATOM     18  C   UNL A   1      32.771  29.310  24.346  1.00  0.00     0.250 C 
ATOM     19  N   UNL A   1      33.751  29.592  23.435  1.00  0.00    -0.366 N 
ATOM     20  H   UNL A   1      34.391  30.319  23.609  1.00  0.00     0.159 HD
ATOM     21  H   UNL A   1      33.815  29.068  22.604  1.00  0.00     0.159 HD
ATOM     22  O   UNL A   1      32.540  30.003  25.322  1.00  0.00    -0.269 OA
ENDBRANCH  13  18
BRANCH  15  23
ATOM     23  N   UNL A   1      29.755  29.806  23.016  1.00  0.00    -0.366 N 
ATOM     24  C   UNL A   1      29.352  30.961  23.847  1.00  0.00     0.145 C 
ATOM     25  C   UNL A   1      29.582  30.046  21.572  1.00  0.00     0.145 C 
ATOM     26  C   UNL A   1      27.961  31.503  23.420  1.00  0.00     0.181 C 
ATOM     27  C   UNL A   1      28.157  30.540  21.285  1.00  0.00     0.181 C 
ATOM     28  O   UNL A   1      27.881  31.749  22.007  1.00  0.00    -0.378 OA
ENDBRANCH  15  23
ENDBRANCH   9  12
ENDBRANCH   7   8
ENDBRANCH   3   6
ENDBRANCH   1   2
BRANCH   1  29
ATOM     29  C   UNL A   1      37.942  19.571  25.120  1.00  0.00     0.042 C 
BRANCH  29  30
ATOM     30  C   UNL A   1      39.210  20.194  25.697  1.00  0.00     0.118 C 
BRANCH  30  31
ATOM     31  N   UNL A   1      40.183  19.170  26.016  1.00  0.00    -0.352 N 
ATOM     32  C   UNL A   1      41.543  19.310  26.107  1.00  0.00     0.251 C 
ATOM     33  H   UNL A   1      39.825  18.269  26.188  1.00  0.00     0.163 HD
ATOM     34  O   UNL A   1      42.268  18.327  26.002  1.00  0.00    -0.269 OA
BRANCH  32  35
ATOM     35  C   UNL A   1      42.138  20.644  26.353  1.00  0.00     0.039 A 
ATOM     36  C   UNL A   1      42.345  21.053  27.673  1.00  0.00     0.014 A 
ATOM     37  C   UNL A   1      42.396  21.522  25.295  1.00  0.00     0.014 A 
ATOM     38  C   UNL A   1      42.792  22.350  27.933  1.00  0.00     0.010 A 
ATOM     39  C   UNL A   1      42.897  22.798  25.555  1.00  0.00     0.010 A 
ATOM     40  C   UNL A   1      43.069  23.236  26.878  1.00  0.00    -0.014 A 
BRANCH  40  41
ATOM     41  C   UNL A   1      43.492  24.632  27.158  1.00  0.00     0.031 A 
ATOM     42  C   UNL A   1      42.512  25.627  27.720  1.00  0.00     0.074 A 
ATOM     43  C   UNL A   1      44.758  25.007  26.899  1.00  0.00     0.049 A 
ATOM     44  N   UNL A   1      42.698  26.881  28.047  1.00  0.00    -0.248 NA
ATOM     45  C   UNL A   1      41.134  25.155  27.919  1.00  0.00     0.031 C 
ATOM     46  C   UNL A   1      45.793  24.140  26.337  1.00  0.00     0.029 A 
ATOM     47  N   UNL A   1      45.393  26.210  27.083  1.00  0.00    -0.354 N 
ATOM     48  C   UNL A   1      41.461  27.348  28.477  1.00  0.00     0.074 A 
ATOM     49  C   UNL A   1      40.522  26.262  28.310  1.00  0.00     0.031 C 
ATOM     50  C   UNL A   1      46.945  24.823  26.262  1.00  0.00     0.029 A 
ATOM     51  C   UNL A   1      46.719  26.189  26.727  1.00  0.00     0.049 A 
ATOM     52  H   UNL A   1      44.942  27.010  27.436  1.00  0.00     0.167 HD
ATOM     53  C   UNL A   1      41.144  28.566  28.983  1.00  0.00     0.037 A 
ATOM     54  C   UNL A   1      47.648  27.163  26.770  1.00  0.00     0.037 A 
ATOM     55  C   UNL A   1      42.090  29.640  29.146  1.00  0.00     0.049 A 
ATOM     56  C   UNL A   1      47.259  28.522  27.289  1.00  0.00     0.074 A 
ATOM     57  C   UNL A   1      41.887  30.893  29.698  1.00  0.00     0.029 A 
ATOM     58  N   UNL A   1      43.417  29.595  28.737  1.00  0.00    -0.354 N 
ATOM     59  N   UNL A   1      46.107  28.931  27.763  1.00  0.00    -0.248 NA
ATOM     60  C   UNL A   1      48.305  29.552  27.282  1.00  0.00     0.031 C 
ATOM     61  C   UNL A   1      43.064  31.633  29.545  1.00  0.00     0.029 A 
ATOM     62  C   UNL A   1      44.029  30.814  28.981  1.00  0.00     0.049 A 
ATOM     63  H   UNL A   1      43.856  28.812  28.333  1.00  0.00     0.167 HD
ATOM     64  C   UNL A   1      46.299  30.252  28.146  1.00  0.00     0.074 A 
ATOM     65  C   UNL A   1      47.682  30.570  27.859  1.00  0.00     0.031 C 
ATOM     66  C   UNL A   1      45.410  31.120  28.692  1.00  0.00     0.037 A 
BRANCH  53  67
ATOM     67  C   UNL A   1      39.706  28.810  29.356  1.00  0.00     0.064 A 
ATOM     68  C   UNL A   1      38.768  29.306  28.435  1.00  0.00     0.173 A 
ATOM     69  C   UNL A   1      39.256  28.543  30.659  1.00  0.00     0.173 A 
ATOM     70  F   UNL A   1      39.137  29.583  27.175  1.00  0.00    -0.203 F 
ATOM     71  C   UNL A   1      37.456  29.579  28.820  1.00  0.00     0.198 A 
ATOM     72  C   UNL A   1      37.933  28.775  31.027  1.00  0.00     0.198 A 
ATOM     73  F   UNL A   1      40.101  28.057  31.580  1.00  0.00    -0.203 F 
ATOM     74  F   UNL A   1      36.604  30.129  27.944  1.00  0.00    -0.200 F 
ATOM     75  C   UNL A   1      37.039  29.308  30.114  1.00  0.00     0.200 A 
ATOM     76  F   UNL A   1      37.528  28.493  32.274  1.00  0.00    -0.200 F 
ATOM     77  F   UNL A   1      35.779  29.574  30.483  1.00  0.00    -0.200 F 
ENDBRANCH  53  67
BRANCH  54  78
ATOM     78  C   UNL A   1      49.043  26.876  26.344  1.00  0.00     0.064 A 
ATOM     79  C   UNL A   1      49.451  27.106  25.022  1.00  0.00     0.173 A 
ATOM     80  C   UNL A   1      49.997  26.377  27.242  1.00  0.00     0.173 A 
ATOM     81  F   UNL A   1      48.571  27.566  24.121  1.00  0.00    -0.203 F 
ATOM     82  C   UNL A   1      50.753  26.829  24.611  1.00  0.00     0.198 A 
ATOM     83  C   UNL A   1      51.308  26.132  26.839  1.00  0.00     0.198 A 
ATOM     84  F   UNL A   1      49.661  26.145  28.520  1.00  0.00    -0.203 F 
ATOM     85  F   UNL A   1      51.102  27.013  23.331  1.00  0.00    -0.200 F 
ATOM     86  C   UNL A   1      51.682  26.349  25.521  1.00  0.00     0.200 A 
ATOM     87  F   UNL A   1      52.207  25.687  27.726  1.00  0.00    -0.200 F 
ATOM     88  F   UNL A   1      52.936  26.091  25.128  1.00  0.00    -0.200 F 
ENDBRANCH  54  78
BRANCH  66  89
ATOM     89  C   UNL A   1      45.917  32.487  29.063  1.00  0.00     0.064 A 
ATOM     90  C   UNL A   1      46.474  32.762  30.321  1.00  0.00     0.173 A 
ATOM     91  C   UNL A   1      45.877  33.532  28.124  1.00  0.00     0.173 A 
ATOM     92  F   UNL A   1      46.528  31.803  31.260  1.00  0.00    -0.203 F 
ATOM     93  C   UNL A   1      46.936  34.036  30.637  1.00  0.00     0.198 A 
ATOM     94  C   UNL A   1      46.379  34.794  28.431  1.00  0.00     0.198 A 
ATOM     95  F   UNL A   1      45.364  33.326  26.902  1.00  0.00    -0.203 F 
ATOM     96  F   UNL A   1      47.405  34.290  31.868  1.00  0.00    -0.200 F 
ATOM     97  C   UNL A   1      46.898  35.048  29.690  1.00  0.00     0.200 A 
ATOM     98  F   UNL A   1      46.361  35.762  27.505  1.00  0.00    -0.200 F 
ATOM     99  F   UNL A   1      47.352  36.272  29.994  1.00  0.00    -0.200 F 
ENDBRANCH  66  89
ENDBRANCH  40  41
ENDBRANCH  32  35
ENDBRANCH  30  31
ENDBRANCH  29  30
ENDBRANCH   1  29
TORSDOF 14
ENDMDL
MODEL 3
REMARK VINA RESULT:     -14.8      5.218     10.368
REMARK SMILES NC(=O)c1cc(NC(=O)/C=C\C(=O)NCCCNC(=O)c2ccc(-c3c4nc(c(-c5c(F)c(F)c(F)c(F)c5F)c5ccc([nH]5)c(-c5c(F)c(F)c(F)c(F)c5F)c5nc(c(-c6c(F)c(F)c(F)c(F)c6F)c6ccc3[nH]6)C=C5)C=C4)cc2)ccc1N1CCOCC1
REMARK SMILES IDX 15 1 14 2 12 3 13 4 11 6 10 7 8 8 7 9 9 11 6 12 4 13 5 14
REMARK SMILES IDX 86 15 85 16 84 17 2 18 1 19 3 22 87 23 88 24 92 25 89 26
REMARK SMILES IDX 91 27 90 28 16 29 17 30 18 31 19 32 20 34 21 35 22 36 83 37
REMARK SMILES IDX 23 38 82 39 24 40 25 41 26 42 76 43 27 44 81 45 75 46 77 47
REMARK SMILES IDX 28 48 80 49 74 50 73 51 29 53 61 54 41 55 60 56 42 57 45 58
REMARK SMILES IDX 59 59 78 60 43 61 44 62 58 64 79 65 46 66 30 67 31 68 39 69
REMARK SMILES IDX 32 70 33 71 37 72 40 73 34 74 35 75 38 76 36 77 62 78 63 79
REMARK SMILES IDX 71 80 64 81 65 82 69 83 72 84 66 85 67 86 70 87 68 88 47 89
REMARK SMILES IDX 48 90 56 91 49 92 50 93 54 94 57 95 51 96 52 97 55 98 53 99
REMARK H PARENT 14 5 7 10 1 20 1 21 18 33 77 52 45 63
REMARK Flexibility Score: inf
ROOT
ATOM      1  C   UNL A   1      31.439  31.082  25.810  1.00  0.00     0.118 C 
ENDROOT
BRANCH   1   2
ATOM      2  N   UNL A   1      30.287  30.809  24.582  1.00  0.00    -0.352 N 
ATOM      3  C   UNL A   1      29.898  29.735  22.975  1.00  0.00     0.244 C 
ATOM      4  O   UNL A   1      28.945  29.810  22.146  1.00  0.00    -0.270 OA
ATOM      5  H   UNL A   1      29.529  31.418  24.733  1.00  0.00     0.163 HD
BRANCH   3   6
ATOM      6  C   UNL A   1      30.692  28.314  22.379  1.00  0.00     0.077 C 
ATOM      7  C   UNL A   1      31.856  27.650  22.546  1.00  0.00     0.077 C 
BRANCH   7   8
ATOM      8  C   UNL A   1      33.009  28.091  23.376  1.00  0.00     0.248 C 
ATOM      9  N   UNL A   1      33.398  27.193  24.316  1.00  0.00    -0.322 N 
ATOM     10  H   UNL A   1      33.879  27.485  25.124  1.00  0.00     0.170 HD
ATOM     11  O   UNL A   1      33.460  29.225  23.299  1.00  0.00    -0.270 OA
BRANCH   9  12
ATOM     12  C   UNL A   1      33.102  25.859  24.112  1.00  0.00     0.042 A 
ATOM     13  C   UNL A   1      31.684  23.275  25.289  1.00  0.00     0.064 A 
ATOM     14  C   UNL A   1      31.701  25.089  25.069  1.00  0.00     0.042 A 
ATOM     15  C   UNL A   1      32.954  22.221  24.510  1.00  0.00     0.050 A 
ATOM     16  C   UNL A   1      34.273  23.006  23.492  1.00  0.00     0.029 A 
ATOM     17  C   UNL A   1      34.368  24.810  23.328  1.00  0.00     0.028 A 
BRANCH  13  18
ATOM     18  C   UNL A   1      31.185  22.917  26.634  1.00  0.00     0.250 C 
ATOM     19  N   UNL A   1      29.936  22.360  26.614  1.00  0.00    -0.366 N 
ATOM     20  H   UNL A   1      29.507  22.083  27.457  1.00  0.00     0.159 HD
ATOM     21  H   UNL A   1      29.466  22.235  25.759  1.00  0.00     0.159 HD
ATOM     22  O   UNL A   1      31.884  22.969  27.632  1.00  0.00    -0.269 OA
ENDBRANCH  13  18
BRANCH  15  23
ATOM     23  N   UNL A   1      33.108  20.868  24.840  1.00  0.00    -0.366 N 
ATOM     24  C   UNL A   1      34.267  20.264  25.532  1.00  0.00     0.145 C 
ATOM     25  C   UNL A   1      32.118  19.871  24.396  1.00  0.00     0.145 C 
ATOM     26  C   UNL A   1      34.839  19.064  24.730  1.00  0.00     0.181 C 
ATOM     27  C   UNL A   1      32.808  18.765  23.586  1.00  0.00     0.181 C 
ATOM     28  O   UNL A   1      33.821  18.116  24.367  1.00  0.00    -0.378 OA
ENDBRANCH  15  23
ENDBRANCH   9  12
ENDBRANCH   7   8
ENDBRANCH   3   6
ENDBRANCH   1   2
BRANCH   1  29
ATOM     29  C   UNL A   1      31.342  32.295  26.790  1.00  0.00     0.042 C 
BRANCH  29  30
ATOM     30  C   UNL A   1      32.650  32.860  27.338  1.00  0.00     0.118 C 
BRANCH  30  31
ATOM     31  N   UNL A   1      32.530  34.282  27.580  1.00  0.00    -0.352 N 
ATOM     32  C   UNL A   1      33.021  34.993  28.644  1.00  0.00     0.251 C 
ATOM     33  H   UNL A   1      32.040  34.799  26.900  1.00  0.00     0.163 HD
ATOM     34  O   UNL A   1      32.539  36.084  28.926  1.00  0.00    -0.269 OA
BRANCH  32  35
ATOM     35  C   UNL A   1      34.146  34.455  29.441  1.00  0.00     0.039 A 
ATOM     36  C   UNL A   1      35.435  34.510  28.906  1.00  0.00     0.014 A 
ATOM     37  C   UNL A   1      33.918  33.809  30.663  1.00  0.00     0.014 A 
ATOM     38  C   UNL A   1      36.493  33.902  29.585  1.00  0.00     0.010 A 
ATOM     39  C   UNL A   1      34.987  33.253  31.367  1.00  0.00     0.010 A 
ATOM     40  C   UNL A   1      36.279  33.265  30.819  1.00  0.00    -0.014 A 
BRANCH  40  41
ATOM     41  C   UNL A   1      37.395  32.572  31.513  1.00  0.00     0.031 A 
ATOM     42  C   UNL A   1      38.108  31.424  30.851  1.00  0.00     0.074 A 
ATOM     43  C   UNL A   1      37.763  32.973  32.744  1.00  0.00     0.049 A 
ATOM     44  N   UNL A   1      39.115  30.709  31.287  1.00  0.00    -0.248 NA
ATOM     45  C   UNL A   1      37.608  31.010  29.531  1.00  0.00     0.031 C 
ATOM     46  C   UNL A   1      37.136  34.060  33.496  1.00  0.00     0.029 A 
ATOM     47  N   UNL A   1      38.756  32.520  33.575  1.00  0.00    -0.354 N 
ATOM     48  C   UNL A   1      39.358  29.756  30.304  1.00  0.00     0.074 A 
ATOM     49  C   UNL A   1      38.355  29.946  29.280  1.00  0.00     0.031 C 
ATOM     50  C   UNL A   1      37.786  34.221  34.658  1.00  0.00     0.029 A 
ATOM     51  C   UNL A   1      38.844  33.219  34.754  1.00  0.00     0.049 A 
ATOM     52  H   UNL A   1      39.348  31.767  33.349  1.00  0.00     0.167 HD
ATOM     53  C   UNL A   1      40.339  28.823  30.254  1.00  0.00     0.037 A 
ATOM     54  C   UNL A   1      39.685  33.068  35.795  1.00  0.00     0.037 A 
ATOM     55  C   UNL A   1      41.334  28.645  31.280  1.00  0.00     0.049 A 
ATOM     56  C   UNL A   1      40.735  31.991  35.737  1.00  0.00     0.074 A 
ATOM     57  C   UNL A   1      42.405  27.768  31.303  1.00  0.00     0.029 A 
ATOM     58  N   UNL A   1      41.368  29.346  32.479  1.00  0.00    -0.354 N 
ATOM     59  N   UNL A   1      41.005  31.145  34.772  1.00  0.00    -0.248 NA
ATOM     60  C   UNL A   1      41.601  31.853  36.915  1.00  0.00     0.031 C 
ATOM     61  C   UNL A   1      43.032  27.877  32.549  1.00  0.00     0.029 A 
ATOM     62  C   UNL A   1      42.412  28.886  33.268  1.00  0.00     0.049 A 
ATOM     63  H   UNL A   1      40.742  30.062  32.731  1.00  0.00     0.167 HD
ATOM     64  C   UNL A   1      42.093  30.401  35.208  1.00  0.00     0.074 A 
ATOM     65  C   UNL A   1      42.441  30.906  36.520  1.00  0.00     0.031 C 
ATOM     66  C   UNL A   1      42.749  29.397  34.575  1.00  0.00     0.037 A 
BRANCH  53  67
ATOM     67  C   UNL A   1      40.357  27.896  29.066  1.00  0.00     0.064 A 
ATOM     68  C   UNL A   1      41.120  28.167  27.918  1.00  0.00     0.173 A 
ATOM     69  C   UNL A   1      39.597  26.716  29.077  1.00  0.00     0.173 A 
ATOM     70  F   UNL A   1      41.864  29.281  27.847  1.00  0.00    -0.203 F 
ATOM     71  C   UNL A   1      41.075  27.324  26.809  1.00  0.00     0.198 A 
ATOM     72  C   UNL A   1      39.590  25.853  27.983  1.00  0.00     0.198 A 
ATOM     73  F   UNL A   1      38.857  26.396  30.149  1.00  0.00    -0.203 F 
ATOM     74  F   UNL A   1      41.747  27.648  25.696  1.00  0.00    -0.200 F 
ATOM     75  C   UNL A   1      40.315  26.166  26.845  1.00  0.00     0.200 A 
ATOM     76  F   UNL A   1      38.870  24.723  28.029  1.00  0.00    -0.200 F 
ATOM     77  F   UNL A   1      40.269  25.358  25.776  1.00  0.00    -0.200 F 
ENDBRANCH  53  67
BRANCH  54  78
ATOM     78  C   UNL A   1      39.591  33.984  36.963  1.00  0.00     0.064 A 
ATOM     79  C   UNL A   1      40.259  35.216  36.963  1.00  0.00     0.173 A 
ATOM     80  C   UNL A   1      38.830  33.655  38.094  1.00  0.00     0.173 A 
ATOM     81  F   UNL A   1      41.014  35.568  35.912  1.00  0.00    -0.203 F 
ATOM     82  C   UNL A   1      40.186  36.075  38.057  1.00  0.00     0.198 A 
ATOM     83  C   UNL A   1      38.730  34.530  39.174  1.00  0.00     0.198 A 
ATOM     84  F   UNL A   1      38.166  32.491  38.143  1.00  0.00    -0.203 F 
ATOM     85  F   UNL A   1      40.874  37.225  38.050  1.00  0.00    -0.200 F 
ATOM     86  C   UNL A   1      39.417  35.735  39.158  1.00  0.00     0.200 A 
ATOM     87  F   UNL A   1      37.970  34.205  40.228  1.00  0.00    -0.200 F 
ATOM     88  F   UNL A   1      39.340  36.565  40.207  1.00  0.00    -0.200 F 
ENDBRANCH  54  78
BRANCH  66  89
ATOM     89  C   UNL A   1      43.944  28.804  35.271  1.00  0.00     0.064 A 
ATOM     90  C   UNL A   1      45.241  29.307  35.090  1.00  0.00     0.173 A 
ATOM     91  C   UNL A   1      43.778  27.733  36.166  1.00  0.00     0.173 A 
ATOM     92  F   UNL A   1      45.458  30.322  34.238  1.00  0.00    -0.203 F 
ATOM     93  C   UNL A   1      46.328  28.740  35.747  1.00  0.00     0.198 A 
ATOM     94  C   UNL A   1      44.863  27.196  36.854  1.00  0.00     0.198 A 
ATOM     95  F   UNL A   1      42.560  27.216  36.386  1.00  0.00    -0.203 F 
ATOM     96  F   UNL A   1      47.567  29.197  35.508  1.00  0.00    -0.200 F 
ATOM     97  C   UNL A   1      46.138  27.692  36.636  1.00  0.00     0.200 A 
ATOM     98  F   UNL A   1      44.672  26.199  37.728  1.00  0.00    -0.200 F 
ATOM     99  F   UNL A   1      47.186  27.153  37.275  1.00  0.00    -0.200 F 
ENDBRANCH  66  89
ENDBRANCH  40  41
ENDBRANCH  32  35
ENDBRANCH  30  31
ENDBRANCH  29  30
ENDBRANCH   1  29
TORSDOF 14
ENDMDL
