MODEL 1
REMARK VINA RESULT:     -12.9      0.000      0.000
REMARK SMILES CC(C)C(=O)Nc1ccc2c([C@H](C(=O)NCCCNC(=O)c3ccc(-c4c5nc(c(-c6c(F)c(F)c(F)c(F)c6F)c6ccc([nH]6)c(-c6c(F)c(F)c(F)c(F)c6F)c6nc(c(-c7c(F)c(F)c(F)c(F)c7F)c7ccc4[nH]7)C=C6)C=C5)cc3)[NH+]3CC[NH+](CC(=O)N(C)C)CC3)c[nH]c2c1
REMARK SMILES IDX 16 1 15 2 13 3 14 4 12 6 11 7 7 8 8 9 100 10 9 11 99 12
REMARK SMILES IDX 10 13 98 14 97 15 6 17 4 18 5 19 2 21 1 22 3 23 85 24 86 25
REMARK SMILES IDX 96 26 87 28 95 29 88 30 89 32 90 33 91 34 92 35 93 36 94 37
REMARK SMILES IDX 17 38 18 39 19 40 20 41 21 43 22 44 23 45 84 46 24 47 83 48
REMARK SMILES IDX 25 49 26 50 27 51 77 52 28 53 82 54 76 55 78 56 29 57 81 58
REMARK SMILES IDX 75 59 74 60 30 62 62 63 42 64 61 65 43 66 46 67 60 68 79 69
REMARK SMILES IDX 44 70 45 71 59 73 80 74 47 75 31 76 32 77 40 78 33 79 34 80
REMARK SMILES IDX 38 81 41 82 35 83 36 84 39 85 37 86 63 87 64 88 72 89 65 90
REMARK SMILES IDX 66 91 70 92 73 93 67 94 68 95 71 96 69 97 48 98 49 99 57 100
REMARK SMILES IDX 50 101 51 102 55 103 58 104 52 105 53 106 56 107 54 108
REMARK H PARENT 15 5 98 16 6 20 85 27 88 31 19 42 78 61 46 72
REMARK Flexibility Score: inf
ROOT
ATOM      1  C   UNL A   1      35.160  24.071  24.193  1.00  0.00     0.118 C 
ENDROOT
BRANCH   1   2
ATOM      2  N   UNL A   1      34.616  23.871  22.860  1.00  0.00    -0.351 N 
ATOM      3  C   UNL A   1      33.363  23.957  22.315  1.00  0.00     0.283 C 
ATOM      4  O   UNL A   1      33.407  24.163  21.088  1.00  0.00    -0.268 OA
ATOM      5  H   UNL A   1      35.302  23.616  22.202  1.00  0.00     0.163 HD
BRANCH   3   6
ATOM      6  C   UNL A   1      31.959  23.881  23.077  1.00  0.00     0.308 C 
BRANCH   6   7
ATOM      7  C   UNL A   1      31.963  22.750  24.120  1.00  0.00     0.044 A 
ATOM      8  C   UNL A   1      32.419  18.530  24.089  1.00  0.00     0.043 A 
ATOM      9  C   UNL A   1      32.194  19.126  22.854  1.00  0.00     0.027 A 
ATOM     10  C   UNL A   1      32.345  19.299  25.253  1.00  0.00     0.052 A 
ATOM     11  C   UNL A   1      32.051  20.516  22.728  1.00  0.00     0.013 A 
ATOM     12  C   UNL A   1      32.176  20.685  25.116  1.00  0.00     0.048 A 
ATOM     13  C   UNL A   1      32.060  21.327  23.879  1.00  0.00     0.009 A 
ATOM     14  N   UNL A   1      32.118  21.658  26.080  1.00  0.00    -0.361 N 
ATOM     15  C   UNL A   1      31.948  22.883  25.502  1.00  0.00     0.094 A 
ATOM     16  H   UNL A   1      32.188  21.497  27.048  1.00  0.00     0.166 HD
BRANCH   8  17
ATOM     17  N   UNL A   1      32.660  17.158  24.233  1.00  0.00    -0.326 N 
ATOM     18  C   UNL A   1      33.785  16.463  24.567  1.00  0.00     0.226 C 
ATOM     19  O   UNL A   1      33.758  15.237  24.409  1.00  0.00    -0.274 OA
ATOM     20  H   UNL A   1      31.873  16.592  24.061  1.00  0.00     0.169 HD
BRANCH  18  21
ATOM     21  C   UNL A   1      35.011  17.103  25.229  1.00  0.00     0.072 C 
ATOM     22  C   UNL A   1      36.056  16.120  25.737  1.00  0.00     0.018 C 
ATOM     23  C   UNL A   1      35.613  18.260  24.434  1.00  0.00     0.018 C 
ENDBRANCH  18  21
ENDBRANCH   8  17
ENDBRANCH   6   7
BRANCH   6  24
ATOM     24  N   UNL A   1      31.554  25.198  23.610  1.00  0.00    -0.312 N 
ATOM     25  C   UNL A   1      30.165  25.662  23.465  1.00  0.00     0.325 C 
ATOM     26  C   UNL A   1      32.405  26.287  23.114  1.00  0.00     0.325 C 
ATOM     27  H   UNL A   1      31.666  24.991  24.603  1.00  0.00     0.349 HD
ATOM     28  C   UNL A   1      29.890  26.988  24.252  1.00  0.00     0.325 C 
ATOM     29  C   UNL A   1      32.315  27.411  24.149  1.00  0.00     0.325 C 
ATOM     30  N   UNL A   1      30.995  27.945  24.431  1.00  0.00    -0.318 N 
ATOM     31  H   UNL A   1      30.977  28.075  25.443  1.00  0.00     0.348 HD
BRANCH  30  32
ATOM     32  C   UNL A   1      30.778  29.318  23.968  1.00  0.00     0.364 C 
BRANCH  32  33
ATOM     33  C   UNL A   1      29.969  29.370  22.667  1.00  0.00     0.277 C 
ATOM     34  O   UNL A   1      30.359  28.712  21.697  1.00  0.00    -0.268 OA
ATOM     35  N   UNL A   1      28.859  30.213  22.579  1.00  0.00    -0.344 N 
ATOM     36  C   UNL A   1      28.211  30.941  23.669  1.00  0.00     0.146 C 
ATOM     37  C   UNL A   1      28.249  30.401  21.276  1.00  0.00     0.146 C 
ENDBRANCH  32  33
ENDBRANCH  30  32
ENDBRANCH   6  24
ENDBRANCH   3   6
ENDBRANCH   1   2
BRANCH   1  38
ATOM     38  C   UNL A   1      35.978  22.888  24.720  1.00  0.00     0.042 C 
BRANCH  38  39
ATOM     39  C   UNL A   1      36.618  23.098  26.086  1.00  0.00     0.118 C 
BRANCH  39  40
ATOM     40  N   UNL A   1      37.924  22.436  26.165  1.00  0.00    -0.352 N 
ATOM     41  C   UNL A   1      39.199  22.902  26.402  1.00  0.00     0.251 C 
ATOM     42  H   UNL A   1      37.882  21.463  26.021  1.00  0.00     0.163 HD
ATOM     43  O   UNL A   1      40.142  22.168  26.108  1.00  0.00    -0.269 OA
BRANCH  41  44
ATOM     44  C   UNL A   1      39.493  24.236  27.001  1.00  0.00     0.039 A 
ATOM     45  C   UNL A   1      40.131  25.208  26.210  1.00  0.00     0.014 A 
ATOM     46  C   UNL A   1      39.273  24.524  28.345  1.00  0.00     0.014 A 
ATOM     47  C   UNL A   1      40.511  26.445  26.755  1.00  0.00     0.010 A 
ATOM     48  C   UNL A   1      39.547  25.792  28.859  1.00  0.00     0.010 A 
ATOM     49  C   UNL A   1      40.206  26.758  28.086  1.00  0.00    -0.014 A 
BRANCH  49  50
ATOM     50  C   UNL A   1      40.626  28.037  28.728  1.00  0.00     0.031 A 
ATOM     51  C   UNL A   1      42.063  28.224  29.156  1.00  0.00     0.074 A 
ATOM     52  C   UNL A   1      39.722  28.997  29.006  1.00  0.00     0.049 A 
ATOM     53  N   UNL A   1      42.603  29.179  29.872  1.00  0.00    -0.248 NA
ATOM     54  C   UNL A   1      43.011  27.171  28.760  1.00  0.00     0.031 C 
ATOM     55  C   UNL A   1      38.296  28.938  28.685  1.00  0.00     0.029 A 
ATOM     56  N   UNL A   1      39.870  30.207  29.640  1.00  0.00    -0.354 N 
ATOM     57  C   UNL A   1      43.930  28.812  30.057  1.00  0.00     0.074 A 
ATOM     58  C   UNL A   1      44.106  27.529  29.413  1.00  0.00     0.031 C 
ATOM     59  C   UNL A   1      37.706  30.071  29.102  1.00  0.00     0.029 A 
ATOM     60  C   UNL A   1      38.701  30.916  29.756  1.00  0.00     0.049 A 
ATOM     61  H   UNL A   1      40.735  30.535  29.979  1.00  0.00     0.167 HD
ATOM     62  C   UNL A   1      44.921  29.489  30.686  1.00  0.00     0.037 A 
ATOM     63  C   UNL A   1      38.454  32.109  30.333  1.00  0.00     0.037 A 
ATOM     64  C   UNL A   1      44.770  30.800  31.257  1.00  0.00     0.049 A 
ATOM     65  C   UNL A   1      39.581  32.864  30.986  1.00  0.00     0.074 A 
ATOM     66  C   UNL A   1      45.736  31.609  31.832  1.00  0.00     0.029 A 
ATOM     67  N   UNL A   1      43.576  31.502  31.313  1.00  0.00    -0.354 N 
ATOM     68  N   UNL A   1      40.840  32.526  31.110  1.00  0.00    -0.248 NA
ATOM     69  C   UNL A   1      39.248  34.168  31.578  1.00  0.00     0.031 C 
ATOM     70  C   UNL A   1      45.119  32.788  32.263  1.00  0.00     0.029 A 
ATOM     71  C   UNL A   1      43.777  32.729  31.924  1.00  0.00     0.049 A 
ATOM     72  H   UNL A   1      42.712  31.176  30.969  1.00  0.00     0.167 HD
ATOM     73  C   UNL A   1      41.456  33.584  31.767  1.00  0.00     0.074 A 
ATOM     74  C   UNL A   1      40.433  34.581  32.006  1.00  0.00     0.031 C 
ATOM     75  C   UNL A   1      42.752  33.716  32.140  1.00  0.00     0.037 A 
BRANCH  62  76
ATOM     76  C   UNL A   1      46.266  28.825  30.784  1.00  0.00     0.064 A 
ATOM     77  C   UNL A   1      47.256  29.010  29.807  1.00  0.00     0.173 A 
ATOM     78  C   UNL A   1      46.578  28.015  31.886  1.00  0.00     0.173 A 
ATOM     79  F   UNL A   1      47.005  29.767  28.728  1.00  0.00    -0.203 F 
ATOM     80  C   UNL A   1      48.493  28.380  29.910  1.00  0.00     0.198 A 
ATOM     81  C   UNL A   1      47.829  27.412  32.003  1.00  0.00     0.198 A 
ATOM     82  F   UNL A   1      45.673  27.811  32.855  1.00  0.00    -0.203 F 
ATOM     83  F   UNL A   1      49.401  28.528  28.936  1.00  0.00    -0.200 F 
ATOM     84  C   UNL A   1      48.781  27.587  31.011  1.00  0.00     0.200 A 
ATOM     85  F   UNL A   1      48.110  26.656  33.073  1.00  0.00    -0.200 F 
ATOM     86  F   UNL A   1      49.974  26.985  31.110  1.00  0.00    -0.200 F 
ENDBRANCH  62  76
BRANCH  63  87
ATOM     87  C   UNL A   1      37.085  32.685  30.286  1.00  0.00     0.064 A 
ATOM     88  C   UNL A   1      36.679  33.467  29.195  1.00  0.00     0.173 A 
ATOM     89  C   UNL A   1      36.159  32.467  31.314  1.00  0.00     0.173 A 
ATOM     90  F   UNL A   1      37.539  33.723  28.199  1.00  0.00    -0.203 F 
ATOM     91  C   UNL A   1      35.403  34.022  29.143  1.00  0.00     0.198 A 
ATOM     92  C   UNL A   1      34.873  33.002  31.249  1.00  0.00     0.198 A 
ATOM     93  F   UNL A   1      36.499  31.724  32.378  1.00  0.00    -0.203 F 
ATOM     94  F   UNL A   1      35.055  34.798  28.108  1.00  0.00    -0.200 F 
ATOM     95  C   UNL A   1      34.499  33.784  30.167  1.00  0.00     0.200 A 
ATOM     96  F   UNL A   1      33.999  32.761  32.235  1.00  0.00    -0.200 F 
ATOM     97  F   UNL A   1      33.269  34.313  30.113  1.00  0.00    -0.200 F 
ENDBRANCH  63  87
BRANCH  75  98
ATOM     98  C   UNL A   1      43.148  34.998  32.809  1.00  0.00     0.064 A 
ATOM     99  C   UNL A   1      43.543  36.122  32.069  1.00  0.00     0.173 A 
ATOM    100  C   UNL A   1      43.088  35.116  34.207  1.00  0.00     0.173 A 
ATOM    101  F   UNL A   1      43.629  36.052  30.732  1.00  0.00    -0.203 F 
ATOM    102  C   UNL A   1      43.884  37.312  32.705  1.00  0.00     0.198 A 
ATOM    103  C   UNL A   1      43.405  36.316  34.837  1.00  0.00     0.198 A 
ATOM    104  F   UNL A   1      42.710  34.072  34.959  1.00  0.00    -0.203 F 
ATOM    105  F   UNL A   1      44.297  38.361  31.982  1.00  0.00    -0.200 F 
ATOM    106  C   UNL A   1      43.809  37.410  34.087  1.00  0.00     0.200 A 
ATOM    107  F   UNL A   1      43.322  36.414  36.171  1.00  0.00    -0.200 F 
ATOM    108  F   UNL A   1      44.131  38.560  34.697  1.00  0.00    -0.200 F 
ENDBRANCH  75  98
ENDBRANCH  49  50
ENDBRANCH  41  44
ENDBRANCH  39  40
ENDBRANCH  38  39
ENDBRANCH   1  38
TORSDOF 16
ENDMDL
MODEL 2
REMARK VINA RESULT:     -12.8      2.452      7.295
REMARK SMILES CC(C)C(=O)Nc1ccc2c([C@H](C(=O)NCCCNC(=O)c3ccc(-c4c5nc(c(-c6c(F)c(F)c(F)c(F)c6F)c6ccc([nH]6)c(-c6c(F)c(F)c(F)c(F)c6F)c6nc(c(-c7c(F)c(F)c(F)c(F)c7F)c7ccc4[nH]7)C=C6)C=C5)cc3)[NH+]3CC[NH+](CC(=O)N(C)C)CC3)c[nH]c2c1
REMARK SMILES IDX 16 1 15 2 13 3 14 4 12 6 11 7 7 8 8 9 100 10 9 11 99 12
REMARK SMILES IDX 10 13 98 14 97 15 6 17 4 18 5 19 2 21 1 22 3 23 85 24 86 25
REMARK SMILES IDX 96 26 87 28 95 29 88 30 89 32 90 33 91 34 92 35 93 36 94 37
REMARK SMILES IDX 17 38 18 39 19 40 20 41 21 43 22 44 23 45 84 46 24 47 83 48
REMARK SMILES IDX 25 49 26 50 27 51 77 52 28 53 82 54 76 55 78 56 29 57 81 58
REMARK SMILES IDX 75 59 74 60 30 62 62 63 42 64 61 65 43 66 46 67 60 68 79 69
REMARK SMILES IDX 44 70 45 71 59 73 80 74 47 75 31 76 32 77 40 78 33 79 34 80
REMARK SMILES IDX 38 81 41 82 35 83 36 84 39 85 37 86 63 87 64 88 72 89 65 90
REMARK SMILES IDX 66 91 70 92 73 93 67 94 68 95 71 96 69 97 48 98 49 99 57 100
REMARK SMILES IDX 50 101 51 102 55 103 58 104 52 105 53 106 56 107 54 108
REMARK H PARENT 15 5 98 16 6 20 85 27 88 31 19 42 78 61 46 72
REMARK Flexibility Score: inf
ROOT
ATOM      1  C   UNL A   1      35.433  23.678  24.142  1.00  0.00     0.118 C 
ENDROOT
BRANCH   1   2
ATOM      2  N   UNL A   1      34.636  23.737  22.926  1.00  0.00    -0.351 N 
ATOM      3  C   UNL A   1      33.330  24.041  22.652  1.00  0.00     0.283 C 
ATOM      4  O   UNL A   1      33.181  24.418  21.475  1.00  0.00    -0.268 OA
ATOM      5  H   UNL A   1      35.152  23.507  22.120  1.00  0.00     0.163 HD
BRANCH   3   6
ATOM      6  C   UNL A   1      32.088  24.010  23.659  1.00  0.00     0.308 C 
BRANCH   6   7
ATOM      7  C   UNL A   1      32.393  23.122  24.879  1.00  0.00     0.044 A 
ATOM      8  C   UNL A   1      32.775  18.965  25.645  1.00  0.00     0.043 A 
ATOM      9  C   UNL A   1      32.196  19.308  24.430  1.00  0.00     0.027 A 
ATOM     10  C   UNL A   1      33.062  19.961  26.581  1.00  0.00     0.052 A 
ATOM     11  C   UNL A   1      32.035  20.648  24.048  1.00  0.00     0.013 A 
ATOM     12  C   UNL A   1      32.875  21.298  26.198  1.00  0.00     0.048 A 
ATOM     13  C   UNL A   1      32.399  21.678  24.939  1.00  0.00     0.009 A 
ATOM     14  N   UNL A   1      33.119  22.451  26.899  1.00  0.00    -0.361 N 
ATOM     15  C   UNL A   1      32.796  23.539  26.140  1.00  0.00     0.094 A 
ATOM     16  H   UNL A   1      33.476  22.488  27.815  1.00  0.00     0.166 HD
BRANCH   8  17
ATOM     17  N   UNL A   1      33.034  17.638  26.011  1.00  0.00    -0.326 N 
ATOM     18  C   UNL A   1      33.755  16.653  25.404  1.00  0.00     0.226 C 
ATOM     19  O   UNL A   1      33.633  15.507  25.854  1.00  0.00    -0.274 OA
ATOM     20  H   UNL A   1      32.618  17.368  26.862  1.00  0.00     0.169 HD
BRANCH  18  21
ATOM     21  C   UNL A   1      34.779  16.913  24.293  1.00  0.00     0.072 C 
ATOM     22  C   UNL A   1      34.217  16.886  22.879  1.00  0.00     0.018 C 
ATOM     23  C   UNL A   1      35.688  18.113  24.555  1.00  0.00     0.018 C 
ENDBRANCH  18  21
ENDBRANCH   8  17
ENDBRANCH   6   7
BRANCH   6  24
ATOM     24  N   UNL A   1      31.626  25.371  24.000  1.00  0.00    -0.312 N 
ATOM     25  C   UNL A   1      30.266  25.805  23.641  1.00  0.00     0.325 C 
ATOM     26  C   UNL A   1      32.534  26.411  23.500  1.00  0.00     0.325 C 
ATOM     27  H   UNL A   1      31.617  25.270  25.015  1.00  0.00     0.349 HD
ATOM     28  C   UNL A   1      29.903  27.203  24.246  1.00  0.00     0.325 C 
ATOM     29  C   UNL A   1      32.324  27.635  24.393  1.00  0.00     0.325 C 
ATOM     30  N   UNL A   1      30.982  28.184  24.457  1.00  0.00    -0.318 N 
ATOM     31  H   UNL A   1      30.842  28.418  25.440  1.00  0.00     0.348 HD
BRANCH  30  32
ATOM     32  C   UNL A   1      30.827  29.499  23.830  1.00  0.00     0.364 C 
BRANCH  32  33
ATOM     33  C   UNL A   1      29.906  29.454  22.606  1.00  0.00     0.277 C 
ATOM     34  O   UNL A   1      30.202  28.710  21.665  1.00  0.00    -0.268 OA
ATOM     35  N   UNL A   1      28.799  30.303  22.544  1.00  0.00    -0.344 N 
ATOM     36  C   UNL A   1      28.257  31.132  23.620  1.00  0.00     0.146 C 
ATOM     37  C   UNL A   1      28.077  30.390  21.288  1.00  0.00     0.146 C 
ENDBRANCH  32  33
ENDBRANCH  30  32
ENDBRANCH   6  24
ENDBRANCH   3   6
ENDBRANCH   1   2
BRANCH   1  38
ATOM     38  C   UNL A   1      36.092  22.319  24.393  1.00  0.00     0.042 C 
BRANCH  38  39
ATOM     39  C   UNL A   1      36.433  22.022  25.847  1.00  0.00     0.118 C 
BRANCH  39  40
ATOM     40  N   UNL A   1      37.532  21.056  25.945  1.00  0.00    -0.352 N 
ATOM     41  C   UNL A   1      38.894  21.199  26.113  1.00  0.00     0.251 C 
ATOM     42  H   UNL A   1      37.241  20.118  25.878  1.00  0.00     0.163 HD
ATOM     43  O   UNL A   1      39.607  20.230  25.854  1.00  0.00    -0.269 OA
BRANCH  41  44
ATOM     44  C   UNL A   1      39.539  22.452  26.599  1.00  0.00     0.039 A 
ATOM     45  C   UNL A   1      39.113  23.682  26.069  1.00  0.00     0.014 A 
ATOM     46  C   UNL A   1      40.628  22.452  27.467  1.00  0.00     0.014 A 
ATOM     47  C   UNL A   1      39.752  24.881  26.426  1.00  0.00     0.010 A 
ATOM     48  C   UNL A   1      41.190  23.650  27.910  1.00  0.00     0.010 A 
ATOM     49  C   UNL A   1      40.789  24.879  27.367  1.00  0.00    -0.014 A 
BRANCH  49  50
ATOM     50  C   UNL A   1      41.531  26.115  27.748  1.00  0.00     0.031 A 
ATOM     51  C   UNL A   1      40.826  27.208  28.517  1.00  0.00     0.074 A 
ATOM     52  C   UNL A   1      42.803  26.307  27.344  1.00  0.00     0.049 A 
ATOM     53  N   UNL A   1      41.228  28.421  28.804  1.00  0.00    -0.248 NA
ATOM     54  C   UNL A   1      39.464  26.907  28.988  1.00  0.00     0.031 C 
ATOM     55  C   UNL A   1      43.598  25.358  26.565  1.00  0.00     0.029 A 
ATOM     56  N   UNL A   1      43.645  27.378  27.520  1.00  0.00    -0.354 N 
ATOM     57  C   UNL A   1      40.155  29.039  29.434  1.00  0.00     0.074 A 
ATOM     58  C   UNL A   1      39.070  28.082  29.453  1.00  0.00     0.031 C 
ATOM     59  C   UNL A   1      44.818  25.877  26.352  1.00  0.00     0.029 A 
ATOM     60  C   UNL A   1      44.878  27.212  26.940  1.00  0.00     0.049 A 
ATOM     61  H   UNL A   1      43.387  28.189  28.016  1.00  0.00     0.167 HD
ATOM     62  C   UNL A   1      40.082  30.282  29.970  1.00  0.00     0.037 A 
ATOM     63  C   UNL A   1      45.936  28.045  26.881  1.00  0.00     0.037 A 
ATOM     64  C   UNL A   1      41.183  31.205  30.025  1.00  0.00     0.049 A 
ATOM     65  C   UNL A   1      45.848  29.403  27.523  1.00  0.00     0.074 A 
ATOM     66  C   UNL A   1      41.238  32.450  30.629  1.00  0.00     0.029 A 
ATOM     67  N   UNL A   1      42.431  30.978  29.463  1.00  0.00    -0.354 N 
ATOM     68  N   UNL A   1      44.844  29.955  28.157  1.00  0.00    -0.248 NA
ATOM     69  C   UNL A   1      47.045  30.254  27.440  1.00  0.00     0.031 C 
ATOM     70  C   UNL A   1      42.510  32.988  30.407  1.00  0.00     0.029 A 
ATOM     71  C   UNL A   1      43.259  32.064  29.697  1.00  0.00     0.049 A 
ATOM     72  H   UNL A   1      42.690  30.164  28.972  1.00  0.00     0.167 HD
ATOM     73  C   UNL A   1      45.293  31.202  28.573  1.00  0.00     0.074 A 
ATOM     74  C   UNL A   1      46.666  31.322  28.128  1.00  0.00     0.031 C 
ATOM     75  C   UNL A   1      44.627  32.161  29.260  1.00  0.00     0.037 A 
BRANCH  62  76
ATOM     76  C   UNL A   1      38.766  30.715  30.550  1.00  0.00     0.064 A 
ATOM     77  C   UNL A   1      38.498  30.630  31.925  1.00  0.00     0.173 A 
ATOM     78  C   UNL A   1      37.767  31.250  29.721  1.00  0.00     0.173 A 
ATOM     79  F   UNL A   1      39.415  30.117  32.759  1.00  0.00    -0.203 F 
ATOM     80  C   UNL A   1      37.269  31.029  32.443  1.00  0.00     0.198 A 
ATOM     81  C   UNL A   1      36.550  31.678  30.248  1.00  0.00     0.198 A 
ATOM     82  F   UNL A   1      37.972  31.363  28.401  1.00  0.00    -0.203 F 
ATOM     83  F   UNL A   1      37.018  30.886  33.752  1.00  0.00    -0.200 F 
ATOM     84  C   UNL A   1      36.299  31.559  31.606  1.00  0.00     0.200 A 
ATOM     85  F   UNL A   1      35.618  32.201  29.439  1.00  0.00    -0.200 F 
ATOM     86  F   UNL A   1      35.118  31.945  32.108  1.00  0.00    -0.200 F 
ENDBRANCH  62  76
BRANCH  63  87
ATOM     87  C   UNL A   1      47.190  27.602  26.218  1.00  0.00     0.064 A 
ATOM     88  C   UNL A   1      47.343  27.727  24.830  1.00  0.00     0.173 A 
ATOM     89  C   UNL A   1      48.254  27.053  26.946  1.00  0.00     0.173 A 
ATOM     90  F   UNL A   1      46.343  28.224  24.089  1.00  0.00    -0.203 F 
ATOM     91  C   UNL A   1      48.508  27.306  24.194  1.00  0.00     0.198 A 
ATOM     92  C   UNL A   1      49.430  26.655  26.312  1.00  0.00     0.198 A 
ATOM     93  F   UNL A   1      48.156  26.914  28.277  1.00  0.00    -0.203 F 
ATOM     94  F   UNL A   1      48.612  27.401  22.861  1.00  0.00    -0.200 F 
ATOM     95  C   UNL A   1      49.553  26.776  24.936  1.00  0.00     0.200 A 
ATOM     96  F   UNL A   1      50.442  26.154  27.033  1.00  0.00    -0.200 F 
ATOM     97  F   UNL A   1      50.676  26.377  24.324  1.00  0.00    -0.200 F 
ENDBRANCH  63  87
BRANCH  75  98
ATOM     98  C   UNL A   1      45.383  33.408  29.610  1.00  0.00     0.064 A 
ATOM     99  C   UNL A   1      46.124  33.511  30.795  1.00  0.00     0.173 A 
ATOM    100  C   UNL A   1      45.402  34.497  28.723  1.00  0.00     0.173 A 
ATOM    101  F   UNL A   1      46.125  32.501  31.679  1.00  0.00    -0.203 F 
ATOM    102  C   UNL A   1      46.841  34.666  31.092  1.00  0.00     0.198 A 
ATOM    103  C   UNL A   1      46.141  35.641  29.012  1.00  0.00     0.198 A 
ATOM    104  F   UNL A   1      44.715  34.445  27.573  1.00  0.00    -0.203 F 
ATOM    105  F   UNL A   1      47.510  34.759  32.249  1.00  0.00    -0.200 F 
ATOM    106  C   UNL A   1      46.854  35.728  30.198  1.00  0.00     0.200 A 
ATOM    107  F   UNL A   1      46.161  36.661  28.143  1.00  0.00    -0.200 F 
ATOM    108  F   UNL A   1      47.550  36.837  30.483  1.00  0.00    -0.200 F 
ENDBRANCH  75  98
ENDBRANCH  49  50
ENDBRANCH  41  44
ENDBRANCH  39  40
ENDBRANCH  38  39
ENDBRANCH   1  38
TORSDOF 16
ENDMDL
MODEL 3
REMARK VINA RESULT:     -12.6      2.350      3.407
REMARK SMILES CC(C)C(=O)Nc1ccc2c([C@H](C(=O)NCCCNC(=O)c3ccc(-c4c5nc(c(-c6c(F)c(F)c(F)c(F)c6F)c6ccc([nH]6)c(-c6c(F)c(F)c(F)c(F)c6F)c6nc(c(-c7c(F)c(F)c(F)c(F)c7F)c7ccc4[nH]7)C=C6)C=C5)cc3)[NH+]3CC[NH+](CC(=O)N(C)C)CC3)c[nH]c2c1
REMARK SMILES IDX 16 1 15 2 13 3 14 4 12 6 11 7 7 8 8 9 100 10 9 11 99 12
REMARK SMILES IDX 10 13 98 14 97 15 6 17 4 18 5 19 2 21 1 22 3 23 85 24 86 25
REMARK SMILES IDX 96 26 87 28 95 29 88 30 89 32 90 33 91 34 92 35 93 36 94 37
REMARK SMILES IDX 17 38 18 39 19 40 20 41 21 43 22 44 23 45 84 46 24 47 83 48
REMARK SMILES IDX 25 49 26 50 27 51 77 52 28 53 82 54 76 55 78 56 29 57 81 58
REMARK SMILES IDX 75 59 74 60 30 62 62 63 42 64 61 65 43 66 46 67 60 68 79 69
REMARK SMILES IDX 44 70 45 71 59 73 80 74 47 75 31 76 32 77 40 78 33 79 34 80
REMARK SMILES IDX 38 81 41 82 35 83 36 84 39 85 37 86 63 87 64 88 72 89 65 90
REMARK SMILES IDX 66 91 70 92 73 93 67 94 68 95 71 96 69 97 48 98 49 99 57 100
REMARK SMILES IDX 50 101 51 102 55 103 58 104 52 105 53 106 56 107 54 108
REMARK H PARENT 15 5 98 16 6 20 85 27 88 31 19 42 78 61 46 72
REMARK Flexibility Score: inf
ROOT
ATOM      1  C   UNL A   1      35.592  23.474  23.982  1.00  0.00     0.118 C 
ENDROOT
BRANCH   1   2
ATOM      2  N   UNL A   1      34.744  23.358  22.807  1.00  0.00    -0.351 N 
ATOM      3  C   UNL A   1      33.428  23.628  22.546  1.00  0.00     0.283 C 
ATOM      4  O   UNL A   1      33.230  23.826  21.333  1.00  0.00    -0.268 OA
ATOM      5  H   UNL A   1      35.224  23.005  22.023  1.00  0.00     0.163 HD
BRANCH   3   6
ATOM      6  C   UNL A   1      32.230  23.759  23.597  1.00  0.00     0.308 C 
BRANCH   6   7
ATOM      7  C   UNL A   1      32.484  22.873  24.830  1.00  0.00     0.044 A 
ATOM      8  C   UNL A   1      32.808  18.716  25.625  1.00  0.00     0.043 A 
ATOM      9  C   UNL A   1      32.275  19.059  24.388  1.00  0.00     0.027 A 
ATOM     10  C   UNL A   1      33.068  19.714  26.567  1.00  0.00     0.052 A 
ATOM     11  C   UNL A   1      32.139  20.399  23.996  1.00  0.00     0.013 A 
ATOM     12  C   UNL A   1      32.904  21.051  26.173  1.00  0.00     0.048 A 
ATOM     13  C   UNL A   1      32.477  21.429  24.896  1.00  0.00     0.009 A 
ATOM     14  N   UNL A   1      33.132  22.205  26.877  1.00  0.00    -0.361 N 
ATOM     15  C   UNL A   1      32.844  23.292  26.103  1.00  0.00     0.094 A 
ATOM     16  H   UNL A   1      33.455  22.243  27.806  1.00  0.00     0.166 HD
BRANCH   8  17
ATOM     17  N   UNL A   1      33.043  17.389  26.004  1.00  0.00    -0.326 N 
ATOM     18  C   UNL A   1      33.802  16.405  25.443  1.00  0.00     0.226 C 
ATOM     19  O   UNL A   1      33.652  15.259  25.883  1.00  0.00    -0.274 OA
ATOM     20  H   UNL A   1      32.575  17.118  26.827  1.00  0.00     0.169 HD
BRANCH  18  21
ATOM     21  C   UNL A   1      34.894  16.667  24.399  1.00  0.00     0.072 C 
ATOM     22  C   UNL A   1      34.430  16.605  22.952  1.00  0.00     0.018 C 
ATOM     23  C   UNL A   1      35.760  17.889  24.700  1.00  0.00     0.018 C 
ENDBRANCH  18  21
ENDBRANCH   8  17
ENDBRANCH   6   7
BRANCH   6  24
ATOM     24  N   UNL A   1      31.933  25.170  23.915  1.00  0.00    -0.312 N 
ATOM     25  C   UNL A   1      30.558  25.684  23.794  1.00  0.00     0.325 C 
ATOM     26  C   UNL A   1      32.786  26.103  23.168  1.00  0.00     0.325 C 
ATOM     27  H   UNL A   1      32.120  25.134  24.917  1.00  0.00     0.349 HD
ATOM     28  C   UNL A   1      30.413  27.142  24.349  1.00  0.00     0.325 C 
ATOM     29  C   UNL A   1      32.836  27.394  23.987  1.00  0.00     0.325 C 
ATOM     30  N   UNL A   1      31.571  28.048  24.268  1.00  0.00    -0.318 N 
ATOM     31  H   UNL A   1      31.646  28.354  25.239  1.00  0.00     0.348 HD
BRANCH  30  32
ATOM     32  C   UNL A   1      31.378  29.328  23.584  1.00  0.00     0.364 C 
BRANCH  32  33
ATOM     33  C   UNL A   1      30.200  29.291  22.605  1.00  0.00     0.277 C 
ATOM     34  O   UNL A   1      30.210  28.458  21.692  1.00  0.00    -0.268 OA
ATOM     35  N   UNL A   1      29.181  30.240  22.715  1.00  0.00    -0.344 N 
ATOM     36  C   UNL A   1      28.970  31.190  23.806  1.00  0.00     0.146 C 
ATOM     37  C   UNL A   1      28.199  30.312  21.648  1.00  0.00     0.146 C 
ENDBRANCH  32  33
ENDBRANCH  30  32
ENDBRANCH   6  24
ENDBRANCH   3   6
ENDBRANCH   1   2
BRANCH   1  38
ATOM     38  C   UNL A   1      36.394  22.210  24.304  1.00  0.00     0.042 C 
BRANCH  38  39
ATOM     39  C   UNL A   1      36.623  21.946  25.786  1.00  0.00     0.118 C 
BRANCH  39  40
ATOM     40  N   UNL A   1      37.779  21.067  25.994  1.00  0.00    -0.352 N 
ATOM     41  C   UNL A   1      39.116  21.315  26.223  1.00  0.00     0.251 C 
ATOM     42  H   UNL A   1      37.556  20.109  25.965  1.00  0.00     0.163 HD
ATOM     43  O   UNL A   1      39.907  20.388  26.056  1.00  0.00    -0.269 OA
BRANCH  41  44
ATOM     44  C   UNL A   1      39.646  22.635  26.671  1.00  0.00     0.039 A 
ATOM     45  C   UNL A   1      39.062  23.808  26.161  1.00  0.00     0.014 A 
ATOM     46  C   UNL A   1      40.773  22.760  27.479  1.00  0.00     0.014 A 
ATOM     47  C   UNL A   1      39.586  25.071  26.480  1.00  0.00     0.010 A 
ATOM     48  C   UNL A   1      41.224  24.015  27.888  1.00  0.00     0.010 A 
ATOM     49  C   UNL A   1      40.665  25.189  27.365  1.00  0.00    -0.014 A 
BRANCH  49  50
ATOM     50  C   UNL A   1      41.288  26.501  27.702  1.00  0.00     0.031 A 
ATOM     51  C   UNL A   1      42.712  26.785  27.283  1.00  0.00     0.074 A 
ATOM     52  C   UNL A   1      40.625  27.408  28.447  1.00  0.00     0.049 A 
ATOM     53  N   UNL A   1      43.496  27.782  27.611  1.00  0.00    -0.248 NA
ATOM     54  C   UNL A   1      43.354  25.787  26.413  1.00  0.00     0.031 C 
ATOM     55  C   UNL A   1      39.261  27.256  28.952  1.00  0.00     0.029 A 
ATOM     56  N   UNL A   1      41.021  28.634  28.924  1.00  0.00    -0.354 N 
ATOM     57  C   UNL A   1      44.729  27.501  27.036  1.00  0.00     0.074 A 
ATOM     58  C   UNL A   1      44.604  26.222  26.373  1.00  0.00     0.031 C 
ATOM     59  C   UNL A   1      38.925  28.355  29.647  1.00  0.00     0.029 A 
ATOM     60  C   UNL A   1      40.062  29.271  29.673  1.00  0.00     0.049 A 
ATOM     61  H   UNL A   1      41.909  29.020  28.745  1.00  0.00     0.167 HD
ATOM     62  C   UNL A   1      45.861  28.248  27.039  1.00  0.00     0.037 A 
ATOM     63  C   UNL A   1      40.098  30.455  30.315  1.00  0.00     0.037 A 
ATOM     64  C   UNL A   1      45.965  29.556  27.628  1.00  0.00     0.049 A 
ATOM     65  C   UNL A   1      41.350  31.288  30.267  1.00  0.00     0.074 A 
ATOM     66  C   UNL A   1      47.037  30.433  27.602  1.00  0.00     0.029 A 
ATOM     67  N   UNL A   1      44.953  30.183  28.340  1.00  0.00    -0.354 N 
ATOM     68  N   UNL A   1      42.492  31.032  29.679  1.00  0.00    -0.248 NA
ATOM     69  C   UNL A   1      41.315  32.578  30.972  1.00  0.00     0.031 C 
ATOM     70  C   UNL A   1      46.684  31.577  28.325  1.00  0.00     0.029 A 
ATOM     71  C   UNL A   1      45.380  31.430  28.768  1.00  0.00     0.049 A 
ATOM     72  H   UNL A   1      44.064  29.799  28.514  1.00  0.00     0.167 HD
ATOM     73  C   UNL A   1      43.301  32.136  29.917  1.00  0.00     0.074 A 
ATOM     74  C   UNL A   1      42.514  33.070  30.695  1.00  0.00     0.031 C 
ATOM     75  C   UNL A   1      44.580  32.354  29.528  1.00  0.00     0.037 A 
BRANCH  62  76
ATOM     76  C   UNL A   1      47.079  27.671  26.376  1.00  0.00     0.064 A 
ATOM     77  C   UNL A   1      47.336  27.856  25.009  1.00  0.00     0.173 A 
ATOM     78  C   UNL A   1      48.018  26.947  27.126  1.00  0.00     0.173 A 
ATOM     79  F   UNL A   1      46.464  28.533  24.245  1.00  0.00    -0.203 F 
ATOM     80  C   UNL A   1      48.466  27.307  24.410  1.00  0.00     0.198 A 
ATOM     81  C   UNL A   1      49.165  26.425  26.530  1.00  0.00     0.198 A 
ATOM     82  F   UNL A   1      47.829  26.747  28.438  1.00  0.00    -0.203 F 
ATOM     83  F   UNL A   1      48.660  27.451  23.092  1.00  0.00    -0.200 F 
ATOM     84  C   UNL A   1      49.383  26.598  25.171  1.00  0.00     0.200 A 
ATOM     85  F   UNL A   1      50.056  25.751  27.269  1.00  0.00    -0.200 F 
ATOM     86  F   UNL A   1      50.472  26.074  24.593  1.00  0.00    -0.200 F 
ENDBRANCH  62  76
BRANCH  63  87
ATOM     87  C   UNL A   1      38.892  30.943  31.033  1.00  0.00     0.064 A 
ATOM     88  C   UNL A   1      38.715  30.669  32.396  1.00  0.00     0.173 A 
ATOM     89  C   UNL A   1      37.900  31.690  30.382  1.00  0.00     0.173 A 
ATOM     90  F   UNL A   1      39.626  29.938  33.055  1.00  0.00    -0.203 F 
ATOM     91  C   UNL A   1      37.584  31.111  33.079  1.00  0.00     0.198 A 
ATOM     92  C   UNL A   1      36.781  32.153  31.073  1.00  0.00     0.198 A 
ATOM     93  F   UNL A   1      38.023  31.979  29.079  1.00  0.00    -0.203 F 
ATOM     94  F   UNL A   1      37.422  30.801  34.373  1.00  0.00    -0.200 F 
ATOM     95  C   UNL A   1      36.621  31.859  32.418  1.00  0.00     0.200 A 
ATOM     96  F   UNL A   1      35.857  32.884  30.434  1.00  0.00    -0.200 F 
ATOM     97  F   UNL A   1      35.537  32.289  33.077  1.00  0.00    -0.200 F 
ENDBRANCH  63  87
BRANCH  75  98
ATOM     98  C   UNL A   1      45.198  33.668  29.901  1.00  0.00     0.064 A 
ATOM     99  C   UNL A   1      45.923  33.829  31.090  1.00  0.00     0.173 A 
ATOM    100  C   UNL A   1      45.102  34.768  29.033  1.00  0.00     0.173 A 
ATOM    101  F   UNL A   1      46.029  32.811  31.957  1.00  0.00    -0.203 F 
ATOM    102  C   UNL A   1      46.511  35.049  31.409  1.00  0.00     0.198 A 
ATOM    103  C   UNL A   1      45.714  35.979  29.343  1.00  0.00     0.198 A 
ATOM    104  F   UNL A   1      44.426  34.663  27.880  1.00  0.00    -0.203 F 
ATOM    105  F   UNL A   1      47.165  35.193  32.569  1.00  0.00    -0.200 F 
ATOM    106  C   UNL A   1      46.412  36.121  30.533  1.00  0.00     0.200 A 
ATOM    107  F   UNL A   1      45.627  37.010  28.492  1.00  0.00    -0.200 F 
ATOM    108  F   UNL A   1      46.986  37.293  30.839  1.00  0.00    -0.200 F 
ENDBRANCH  75  98
ENDBRANCH  49  50
ENDBRANCH  41  44
ENDBRANCH  39  40
ENDBRANCH  38  39
ENDBRANCH   1  38
TORSDOF 16
ENDMDL
