MODEL 1
REMARK VINA RESULT:     -13.4      0.000      0.000
REMARK SMILES CC(C)c1ccc(NC(=O)C(=O)N/N=C/c2ccccc2C(=O)NCCCNC(=O)c2ccc(-c3c4nc(c(-c5c(F)c(F)c(F)c(F)c5F)c5ccc([nH]5)c(-c5c(F)c(F)c(F)c(F)c5F)c5nc(c(-c6c(F)c(F)c(F)c(F)c6F)c6ccc3[nH]6)C=C5)C=C4)cc2)cc1
REMARK SMILES IDX 22 1 23 2 24 3 21 5 16 6 17 7 18 8 20 9 19 10 15 11 14 12
REMARK SMILES IDX 13 13 11 14 12 15 9 17 8 18 10 20 7 21 4 22 5 23 95 24 6 25
REMARK SMILES IDX 94 26 2 27 1 28 3 29 25 30 26 31 27 32 28 33 29 34 30 36
REMARK SMILES IDX 31 37 32 38 93 39 33 40 92 41 34 42 35 43 36 44 86 45 37 46
REMARK SMILES IDX 91 47 85 48 87 49 38 50 90 51 84 52 83 53 39 55 71 56 51 57
REMARK SMILES IDX 70 58 52 59 55 60 69 61 88 62 53 63 54 64 68 66 89 67 56 68
REMARK SMILES IDX 40 69 41 70 49 71 42 72 43 73 47 74 50 75 44 76 45 77 48 78
REMARK SMILES IDX 46 79 72 80 73 81 81 82 74 83 75 84 79 85 82 86 76 87 77 88
REMARK SMILES IDX 80 89 78 90 57 91 58 92 66 93 59 94 60 95 64 96 67 97 61 98
REMARK SMILES IDX 62 99 65 100 63 101
REMARK H PARENT 24 4 13 16 8 19 28 35 87 54 55 65
REMARK Flexibility Score: inf
ROOT
ATOM      1  C   UNL A   1      31.589  29.249  23.999  1.00  0.00     0.251 C 
ATOM      2  O   UNL A   1      32.435  28.966  23.144  1.00  0.00    -0.269 OA
ATOM      3  N   UNL A   1      32.087  29.627  25.215  1.00  0.00    -0.352 N 
ATOM      4  H   UNL A   1      33.064  29.531  25.281  1.00  0.00     0.163 HD
ENDROOT
BRANCH   1   5
ATOM      5  C   UNL A   1      30.157  29.059  23.639  1.00  0.00     0.048 A 
ATOM      6  C   UNL A   1      29.371  27.903  23.718  1.00  0.00     0.007 A 
ATOM      7  C   UNL A   1      27.996  27.943  23.416  1.00  0.00     0.010 A 
ATOM      8  C   UNL A   1      27.384  29.137  23.042  1.00  0.00     0.001 A 
ATOM      9  C   UNL A   1      29.508  30.255  23.252  1.00  0.00     0.014 A 
ATOM     10  C   UNL A   1      28.143  30.296  22.954  1.00  0.00     0.001 A 
BRANCH   6  11
ATOM     11  C   UNL A   1      29.873  26.557  23.995  1.00  0.00     0.142 C 
ATOM     12  N   UNL A   1      29.660  25.934  25.104  1.00  0.00    -0.180 NA
BRANCH  12  13
ATOM     13  N   UNL A   1      30.213  24.666  25.281  1.00  0.00    -0.239 N 
ATOM     14  C   UNL A   1      31.231  24.344  26.171  1.00  0.00     0.329 C 
ATOM     15  O   UNL A   1      31.004  23.784  27.240  1.00  0.00    -0.262 OA
ATOM     16  H   UNL A   1      29.853  23.937  24.725  1.00  0.00     0.194 HD
BRANCH  14  17
ATOM     17  C   UNL A   1      32.669  24.716  25.757  1.00  0.00     0.315 C 
ATOM     18  N   UNL A   1      33.600  23.749  25.440  1.00  0.00    -0.318 N 
ATOM     19  H   UNL A   1      34.528  24.072  25.504  1.00  0.00     0.170 HD
ATOM     20  O   UNL A   1      33.040  25.889  25.807  1.00  0.00    -0.263 OA
BRANCH  18  21
ATOM     21  C   UNL A   1      33.514  22.402  25.048  1.00  0.00     0.041 A 
ATOM     22  C   UNL A   1      33.048  19.744  24.160  1.00  0.00    -0.045 A 
ATOM     23  C   UNL A   1      33.730  20.003  25.357  1.00  0.00     0.006 A 
ATOM     24  C   UNL A   1      32.606  20.836  23.409  1.00  0.00     0.006 A 
ATOM     25  C   UNL A   1      33.953  21.316  25.800  1.00  0.00     0.026 A 
ATOM     26  C   UNL A   1      32.837  22.146  23.847  1.00  0.00     0.026 A 
BRANCH  22  27
ATOM     27  C   UNL A   1      32.730  18.311  23.766  1.00  0.00     0.013 C 
ATOM     28  C   UNL A   1      32.238  18.260  22.318  1.00  0.00     0.012 C 
ATOM     29  C   UNL A   1      33.901  17.344  23.961  1.00  0.00     0.012 C 
ENDBRANCH  22  27
ENDBRANCH  18  21
ENDBRANCH  14  17
ENDBRANCH  12  13
ENDBRANCH   6  11
ENDBRANCH   1   5
BRANCH   3  30
ATOM     30  C   UNL A   1      31.481  30.139  26.423  1.00  0.00     0.118 C 
BRANCH  30  31
ATOM     31  C   UNL A   1      31.380  31.661  26.498  1.00  0.00     0.042 C 
BRANCH  31  32
ATOM     32  C   UNL A   1      32.674  32.375  26.877  1.00  0.00     0.118 C 
BRANCH  32  33
ATOM     33  N   UNL A   1      32.495  33.676  27.491  1.00  0.00    -0.352 N 
ATOM     34  C   UNL A   1      33.164  34.384  28.466  1.00  0.00     0.251 C 
ATOM     35  H   UNL A   1      31.721  34.165  27.129  1.00  0.00     0.163 HD
ATOM     36  O   UNL A   1      32.717  35.473  28.783  1.00  0.00    -0.269 OA
BRANCH  34  37
ATOM     37  C   UNL A   1      34.383  33.879  29.159  1.00  0.00     0.039 A 
ATOM     38  C   UNL A   1      34.199  32.852  30.099  1.00  0.00     0.014 A 
ATOM     39  C   UNL A   1      35.661  34.415  29.007  1.00  0.00     0.014 A 
ATOM     40  C   UNL A   1      35.278  32.346  30.835  1.00  0.00     0.010 A 
ATOM     41  C   UNL A   1      36.752  33.865  29.689  1.00  0.00     0.010 A 
ATOM     42  C   UNL A   1      36.573  32.830  30.614  1.00  0.00    -0.014 A 
BRANCH  42  43
ATOM     43  C   UNL A   1      37.744  32.288  31.351  1.00  0.00     0.031 A 
ATOM     44  C   UNL A   1      38.630  31.253  30.717  1.00  0.00     0.074 A 
ATOM     45  C   UNL A   1      37.974  32.669  32.623  1.00  0.00     0.049 A 
ATOM     46  N   UNL A   1      39.593  30.545  31.253  1.00  0.00    -0.248 NA
ATOM     47  C   UNL A   1      38.371  30.942  29.304  1.00  0.00     0.031 C 
ATOM     48  C   UNL A   1      37.171  33.631  33.375  1.00  0.00     0.029 A 
ATOM     49  N   UNL A   1      38.959  32.294  33.502  1.00  0.00    -0.354 N 
ATOM     50  C   UNL A   1      39.986  29.642  30.274  1.00  0.00     0.074 A 
ATOM     51  C   UNL A   1      39.185  29.916  29.100  1.00  0.00     0.031 C 
ATOM     52  C   UNL A   1      37.730  33.817  34.582  1.00  0.00     0.029 A 
ATOM     53  C   UNL A   1      38.905  32.960  34.702  1.00  0.00     0.049 A 
ATOM     54  H   UNL A   1      39.639  31.614  33.293  1.00  0.00     0.167 HD
ATOM     55  C   UNL A   1      40.913  28.657  30.360  1.00  0.00     0.037 A 
ATOM     56  C   UNL A   1      39.719  32.891  35.771  1.00  0.00     0.037 A 
ATOM     57  C   UNL A   1      41.769  28.437  31.497  1.00  0.00     0.049 A 
ATOM     58  C   UNL A   1      40.860  31.914  35.775  1.00  0.00     0.074 A 
ATOM     59  C   UNL A   1      42.764  27.489  31.661  1.00  0.00     0.029 A 
ATOM     60  N   UNL A   1      41.747  29.200  32.654  1.00  0.00    -0.354 N 
ATOM     61  N   UNL A   1      41.209  31.051  34.854  1.00  0.00    -0.248 NA
ATOM     62  C   UNL A   1      41.706  31.884  36.978  1.00  0.00     0.031 C 
ATOM     63  C   UNL A   1      43.339  27.673  32.925  1.00  0.00     0.029 A 
ATOM     64  C   UNL A   1      42.715  28.748  33.536  1.00  0.00     0.049 A 
ATOM     65  H   UNL A   1      41.134  29.951  32.825  1.00  0.00     0.167 HD
ATOM     66  C   UNL A   1      42.300  30.365  35.368  1.00  0.00     0.074 A 
ATOM     67  C   UNL A   1      42.583  30.940  36.667  1.00  0.00     0.031 C 
ATOM     68  C   UNL A   1      42.986  29.332  34.823  1.00  0.00     0.037 A 
BRANCH  55  69
ATOM     69  C   UNL A   1      41.007  27.704  29.208  1.00  0.00     0.064 A 
ATOM     70  C   UNL A   1      42.019  27.797  28.245  1.00  0.00     0.173 A 
ATOM     71  C   UNL A   1      40.059  26.678  29.072  1.00  0.00     0.173 A 
ATOM     72  F   UNL A   1      42.937  28.773  28.323  1.00  0.00    -0.203 F 
ATOM     73  C   UNL A   1      42.063  26.914  27.168  1.00  0.00     0.198 A 
ATOM     74  C   UNL A   1      40.118  25.784  28.008  1.00  0.00     0.198 A 
ATOM     75  F   UNL A   1      39.071  26.547  29.972  1.00  0.00    -0.203 F 
ATOM     76  F   UNL A   1      43.011  27.049  26.231  1.00  0.00    -0.200 F 
ATOM     77  C   UNL A   1      41.114  25.907  27.053  1.00  0.00     0.200 A 
ATOM     78  F   UNL A   1      39.204  24.809  27.901  1.00  0.00    -0.200 F 
ATOM     79  F   UNL A   1      41.156  25.062  26.013  1.00  0.00    -0.200 F 
ENDBRANCH  55  69
BRANCH  56  80
ATOM     80  C   UNL A   1      39.511  33.816  36.912  1.00  0.00     0.064 A 
ATOM     81  C   UNL A   1      38.752  33.409  38.017  1.00  0.00     0.173 A 
ATOM     82  C   UNL A   1      40.073  35.098  36.937  1.00  0.00     0.173 A 
ATOM     83  F   UNL A   1      38.183  32.195  38.027  1.00  0.00    -0.203 F 
ATOM     84  C   UNL A   1      38.555  34.256  39.104  1.00  0.00     0.198 A 
ATOM     85  C   UNL A   1      39.892  35.938  38.035  1.00  0.00     0.198 A 
ATOM     86  F   UNL A   1      40.814  35.528  35.904  1.00  0.00    -0.203 F 
ATOM     87  F   UNL A   1      37.805  33.852  40.139  1.00  0.00    -0.200 F 
ATOM     88  C   UNL A   1      39.130  35.517  39.115  1.00  0.00     0.200 A 
ATOM     89  F   UNL A   1      40.462  37.150  38.049  1.00  0.00    -0.200 F 
ATOM     90  F   UNL A   1      38.951  36.328  40.166  1.00  0.00    -0.200 F 
ENDBRANCH  56  80
BRANCH  68  91
ATOM     91  C   UNL A   1      44.099  28.746  35.635  1.00  0.00     0.064 A 
ATOM     92  C   UNL A   1      45.411  29.224  35.511  1.00  0.00     0.173 A 
ATOM     93  C   UNL A   1      43.848  27.736  36.574  1.00  0.00     0.173 A 
ATOM     94  F   UNL A   1      45.700  30.179  34.616  1.00  0.00    -0.203 F 
ATOM     95  C   UNL A   1      46.438  28.702  36.294  1.00  0.00     0.198 A 
ATOM     96  C   UNL A   1      44.873  27.227  37.364  1.00  0.00     0.198 A 
ATOM     97  F   UNL A   1      42.607  27.249  36.726  1.00  0.00    -0.203 F 
ATOM     98  F   UNL A   1      47.690  29.154  36.142  1.00  0.00    -0.200 F 
ATOM     99  C   UNL A   1      46.167  27.708  37.222  1.00  0.00     0.200 A 
ATOM    100  F   UNL A   1      44.612  26.268  38.265  1.00  0.00    -0.200 F 
ATOM    101  F   UNL A   1      47.155  27.208  37.978  1.00  0.00    -0.200 F 
ENDBRANCH  68  91
ENDBRANCH  42  43
ENDBRANCH  34  37
ENDBRANCH  32  33
ENDBRANCH  31  32
ENDBRANCH  30  31
ENDBRANCH   3  30
TORSDOF 15
ENDMDL
MODEL 2
REMARK VINA RESULT:     -13.4      0.232      1.964
REMARK SMILES CC(C)c1ccc(NC(=O)C(=O)N/N=C/c2ccccc2C(=O)NCCCNC(=O)c2ccc(-c3c4nc(c(-c5c(F)c(F)c(F)c(F)c5F)c5ccc([nH]5)c(-c5c(F)c(F)c(F)c(F)c5F)c5nc(c(-c6c(F)c(F)c(F)c(F)c6F)c6ccc3[nH]6)C=C5)C=C4)cc2)cc1
REMARK SMILES IDX 22 1 23 2 24 3 21 5 16 6 17 7 18 8 20 9 19 10 15 11 14 12
REMARK SMILES IDX 13 13 11 14 12 15 9 17 8 18 10 20 7 21 4 22 5 23 95 24 6 25
REMARK SMILES IDX 94 26 2 27 1 28 3 29 25 30 26 31 27 32 28 33 29 34 30 36
REMARK SMILES IDX 31 37 32 38 93 39 33 40 92 41 34 42 35 43 36 44 86 45 37 46
REMARK SMILES IDX 91 47 85 48 87 49 38 50 90 51 84 52 83 53 39 55 71 56 51 57
REMARK SMILES IDX 70 58 52 59 55 60 69 61 88 62 53 63 54 64 68 66 89 67 56 68
REMARK SMILES IDX 40 69 41 70 49 71 42 72 43 73 47 74 50 75 44 76 45 77 48 78
REMARK SMILES IDX 46 79 72 80 73 81 81 82 74 83 75 84 79 85 82 86 76 87 77 88
REMARK SMILES IDX 80 89 78 90 57 91 58 92 66 93 59 94 60 95 64 96 67 97 61 98
REMARK SMILES IDX 62 99 65 100 63 101
REMARK H PARENT 24 4 13 16 8 19 28 35 87 54 55 65
REMARK Flexibility Score: inf
ROOT
ATOM      1  C   UNL A   1      31.633  29.112  24.119  1.00  0.00     0.251 C 
ATOM      2  O   UNL A   1      32.507  28.751  23.324  1.00  0.00    -0.269 OA
ATOM      3  N   UNL A   1      32.083  29.509  25.347  1.00  0.00    -0.352 N 
ATOM      4  H   UNL A   1      33.049  29.361  25.472  1.00  0.00     0.163 HD
ENDROOT
BRANCH   1   5
ATOM      5  C   UNL A   1      30.214  28.987  23.685  1.00  0.00     0.048 A 
ATOM      6  C   UNL A   1      29.371  27.870  23.729  1.00  0.00     0.007 A 
ATOM      7  C   UNL A   1      28.017  27.973  23.354  1.00  0.00     0.010 A 
ATOM      8  C   UNL A   1      27.483  29.192  22.942  1.00  0.00     0.001 A 
ATOM      9  C   UNL A   1      29.644  30.210  23.258  1.00  0.00     0.014 A 
ATOM     10  C   UNL A   1      28.300  30.313  22.887  1.00  0.00     0.001 A 
BRANCH   6  11
ATOM     11  C   UNL A   1      29.792  26.505  24.039  1.00  0.00     0.142 C 
ATOM     12  N   UNL A   1      29.631  25.957  25.196  1.00  0.00    -0.180 NA
BRANCH  12  13
ATOM     13  N   UNL A   1      30.101  24.660  25.397  1.00  0.00    -0.239 N 
ATOM     14  C   UNL A   1      31.151  24.300  26.234  1.00  0.00     0.329 C 
ATOM     15  O   UNL A   1      30.958  23.807  27.342  1.00  0.00    -0.262 OA
ATOM     16  H   UNL A   1      29.652  23.936  24.903  1.00  0.00     0.194 HD
BRANCH  14  17
ATOM     17  C   UNL A   1      32.582  24.543  25.710  1.00  0.00     0.315 C 
ATOM     18  N   UNL A   1      33.377  23.503  25.279  1.00  0.00    -0.318 N 
ATOM     19  H   UNL A   1      34.335  23.727  25.274  1.00  0.00     0.170 HD
ATOM     20  O   UNL A   1      33.076  25.669  25.769  1.00  0.00    -0.263 OA
BRANCH  18  21
ATOM     21  C   UNL A   1      33.118  22.189  24.848  1.00  0.00     0.041 A 
ATOM     22  C   UNL A   1      32.883  19.465  24.078  1.00  0.00    -0.045 A 
ATOM     23  C   UNL A   1      32.404  20.497  23.259  1.00  0.00     0.006 A 
ATOM     24  C   UNL A   1      33.479  19.816  25.292  1.00  0.00     0.006 A 
ATOM     25  C   UNL A   1      32.528  21.844  23.636  1.00  0.00     0.026 A 
ATOM     26  C   UNL A   1      33.593  21.159  25.671  1.00  0.00     0.026 A 
BRANCH  22  27
ATOM     27  C   UNL A   1      32.830  18.027  23.590  1.00  0.00     0.013 C 
ATOM     28  C   UNL A   1      32.277  17.974  22.164  1.00  0.00     0.012 C 
ATOM     29  C   UNL A   1      34.175  17.300  23.664  1.00  0.00     0.012 C 
ENDBRANCH  22  27
ENDBRANCH  18  21
ENDBRANCH  14  17
ENDBRANCH  12  13
ENDBRANCH   6  11
ENDBRANCH   1   5
BRANCH   3  30
ATOM     30  C   UNL A   1      31.442  30.099  26.500  1.00  0.00     0.118 C 
BRANCH  30  31
ATOM     31  C   UNL A   1      31.359  31.624  26.480  1.00  0.00     0.042 C 
BRANCH  31  32
ATOM     32  C   UNL A   1      32.652  32.345  26.847  1.00  0.00     0.118 C 
BRANCH  32  33
ATOM     33  N   UNL A   1      32.471  33.636  27.482  1.00  0.00    -0.352 N 
ATOM     34  C   UNL A   1      33.145  34.334  28.459  1.00  0.00     0.251 C 
ATOM     35  H   UNL A   1      31.690  34.125  27.135  1.00  0.00     0.163 HD
ATOM     36  O   UNL A   1      32.695  35.416  28.797  1.00  0.00    -0.269 OA
BRANCH  34  37
ATOM     37  C   UNL A   1      34.375  33.828  29.132  1.00  0.00     0.039 A 
ATOM     38  C   UNL A   1      34.203  32.818  30.093  1.00  0.00     0.014 A 
ATOM     39  C   UNL A   1      35.655  34.347  28.942  1.00  0.00     0.014 A 
ATOM     40  C   UNL A   1      35.293  32.312  30.811  1.00  0.00     0.010 A 
ATOM     41  C   UNL A   1      36.756  33.797  29.608  1.00  0.00     0.010 A 
ATOM     42  C   UNL A   1      36.587  32.778  30.553  1.00  0.00    -0.014 A 
BRANCH  42  43
ATOM     43  C   UNL A   1      37.769  32.236  31.272  1.00  0.00     0.031 A 
ATOM     44  C   UNL A   1      38.660  31.221  30.613  1.00  0.00     0.074 A 
ATOM     45  C   UNL A   1      38.005  32.597  32.548  1.00  0.00     0.049 A 
ATOM     46  N   UNL A   1      39.634  30.514  31.129  1.00  0.00    -0.248 NA
ATOM     47  C   UNL A   1      38.394  30.931  29.197  1.00  0.00     0.031 C 
ATOM     48  C   UNL A   1      37.199  33.538  33.323  1.00  0.00     0.029 A 
ATOM     49  N   UNL A   1      39.002  32.218  33.413  1.00  0.00    -0.354 N 
ATOM     50  C   UNL A   1      40.029  29.631  30.133  1.00  0.00     0.074 A 
ATOM     51  C   UNL A   1      39.216  29.917  28.969  1.00  0.00     0.031 C 
ATOM     52  C   UNL A   1      37.766  33.710  34.529  1.00  0.00     0.029 A 
ATOM     53  C   UNL A   1      38.951  32.863  34.624  1.00  0.00     0.049 A 
ATOM     54  H   UNL A   1      39.686  31.548  33.187  1.00  0.00     0.167 HD
ATOM     55  C   UNL A   1      40.966  28.654  30.195  1.00  0.00     0.037 A 
ATOM     56  C   UNL A   1      39.774  32.784  35.686  1.00  0.00     0.037 A 
ATOM     57  C   UNL A   1      41.833  28.424  31.320  1.00  0.00     0.049 A 
ATOM     58  C   UNL A   1      40.925  31.818  35.664  1.00  0.00     0.074 A 
ATOM     59  C   UNL A   1      42.839  27.483  31.461  1.00  0.00     0.029 A 
ATOM     60  N   UNL A   1      41.813  29.166  32.491  1.00  0.00    -0.354 N 
ATOM     61  N   UNL A   1      41.275  30.974  34.726  1.00  0.00    -0.248 NA
ATOM     62  C   UNL A   1      41.780  31.777  36.860  1.00  0.00     0.031 C 
ATOM     63  C   UNL A   1      43.423  27.652  32.723  1.00  0.00     0.029 A 
ATOM     64  C   UNL A   1      42.793  28.710  33.357  1.00  0.00     0.049 A 
ATOM     65  H   UNL A   1      41.194  29.908  32.679  1.00  0.00     0.167 HD
ATOM     66  C   UNL A   1      42.376  30.291  35.220  1.00  0.00     0.074 A 
ATOM     67  C   UNL A   1      42.664  30.846  36.526  1.00  0.00     0.031 C 
ATOM     68  C   UNL A   1      43.068  29.274  34.652  1.00  0.00     0.037 A 
BRANCH  55  69
ATOM     69  C   UNL A   1      41.060  27.722  29.025  1.00  0.00     0.064 A 
ATOM     70  C   UNL A   1      40.150  26.676  28.830  1.00  0.00     0.173 A 
ATOM     71  C   UNL A   1      42.087  27.889  28.083  1.00  0.00     0.173 A 
ATOM     72  F   UNL A   1      39.163  26.467  29.714  1.00  0.00    -0.203 F 
ATOM     73  C   UNL A   1      40.282  25.809  27.747  1.00  0.00     0.198 A 
ATOM     74  C   UNL A   1      42.203  27.035  26.991  1.00  0.00     0.198 A 
ATOM     75  F   UNL A   1      42.982  28.879  28.225  1.00  0.00    -0.203 F 
ATOM     76  F   UNL A   1      39.431  24.785  27.605  1.00  0.00    -0.200 F 
ATOM     77  C   UNL A   1      41.306  25.991  26.828  1.00  0.00     0.200 A 
ATOM     78  F   UNL A   1      43.190  27.215  26.101  1.00  0.00    -0.200 F 
ATOM     79  F   UNL A   1      41.434  25.152  25.791  1.00  0.00    -0.200 F 
ENDBRANCH  55  69
BRANCH  56  80
ATOM     80  C   UNL A   1      39.565  33.687  36.844  1.00  0.00     0.064 A 
ATOM     81  C   UNL A   1      40.114  34.977  36.837  1.00  0.00     0.173 A 
ATOM     82  C   UNL A   1      38.806  33.302  37.954  1.00  0.00     0.173 A 
ATOM     83  F   UNL A   1      40.861  35.381  35.800  1.00  0.00    -0.203 F 
ATOM     84  C   UNL A   1      39.919  35.846  37.907  1.00  0.00     0.198 A 
ATOM     85  C   UNL A   1      38.594  34.180  39.016  1.00  0.00     0.198 A 
ATOM     86  F   UNL A   1      38.254  32.080  38.001  1.00  0.00    -0.203 F 
ATOM     87  F   UNL A   1      40.475  37.065  37.888  1.00  0.00    -0.200 F 
ATOM     88  C   UNL A   1      39.154  35.449  38.993  1.00  0.00     0.200 A 
ATOM     89  F   UNL A   1      37.842  33.799  40.058  1.00  0.00    -0.200 F 
ATOM     90  F   UNL A   1      38.956  36.289  40.018  1.00  0.00    -0.200 F 
ENDBRANCH  56  80
BRANCH  68  91
ATOM     91  C   UNL A   1      44.193  28.686  35.445  1.00  0.00     0.064 A 
ATOM     92  C   UNL A   1      43.966  27.650  36.361  1.00  0.00     0.173 A 
ATOM     93  C   UNL A   1      45.511  29.125  35.256  1.00  0.00     0.173 A 
ATOM     94  F   UNL A   1      42.720  27.208  36.585  1.00  0.00    -0.203 F 
ATOM     95  C   UNL A   1      45.019  27.080  37.071  1.00  0.00     0.198 A 
ATOM     96  C   UNL A   1      46.563  28.544  35.956  1.00  0.00     0.198 A 
ATOM     97  F   UNL A   1      45.775  30.115  34.389  1.00  0.00    -0.203 F 
ATOM     98  F   UNL A   1      44.777  26.108  37.961  1.00  0.00    -0.200 F 
ATOM     99  C   UNL A   1      46.317  27.523  36.864  1.00  0.00     0.200 A 
ATOM    100  F   UNL A   1      47.819  28.970  35.754  1.00  0.00    -0.200 F 
ATOM    101  F   UNL A   1      47.331  26.972  37.545  1.00  0.00    -0.200 F 
ENDBRANCH  68  91
ENDBRANCH  42  43
ENDBRANCH  34  37
ENDBRANCH  32  33
ENDBRANCH  31  32
ENDBRANCH  30  31
ENDBRANCH   3  30
TORSDOF 15
ENDMDL
MODEL 3
REMARK VINA RESULT:     -13.3      5.193     11.360
REMARK SMILES CC(C)c1ccc(NC(=O)C(=O)N/N=C/c2ccccc2C(=O)NCCCNC(=O)c2ccc(-c3c4nc(c(-c5c(F)c(F)c(F)c(F)c5F)c5ccc([nH]5)c(-c5c(F)c(F)c(F)c(F)c5F)c5nc(c(-c6c(F)c(F)c(F)c(F)c6F)c6ccc3[nH]6)C=C5)C=C4)cc2)cc1
REMARK SMILES IDX 22 1 23 2 24 3 21 5 16 6 17 7 18 8 20 9 19 10 15 11 14 12
REMARK SMILES IDX 13 13 11 14 12 15 9 17 8 18 10 20 7 21 4 22 5 23 95 24 6 25
REMARK SMILES IDX 94 26 2 27 1 28 3 29 25 30 26 31 27 32 28 33 29 34 30 36
REMARK SMILES IDX 31 37 32 38 93 39 33 40 92 41 34 42 35 43 36 44 86 45 37 46
REMARK SMILES IDX 91 47 85 48 87 49 38 50 90 51 84 52 83 53 39 55 71 56 51 57
REMARK SMILES IDX 70 58 52 59 55 60 69 61 88 62 53 63 54 64 68 66 89 67 56 68
REMARK SMILES IDX 40 69 41 70 49 71 42 72 43 73 47 74 50 75 44 76 45 77 48 78
REMARK SMILES IDX 46 79 72 80 73 81 81 82 74 83 75 84 79 85 82 86 76 87 77 88
REMARK SMILES IDX 80 89 78 90 57 91 58 92 66 93 59 94 60 95 64 96 67 97 61 98
REMARK SMILES IDX 62 99 65 100 63 101
REMARK H PARENT 24 4 13 16 8 19 28 35 87 54 55 65
REMARK Flexibility Score: inf
ROOT
ATOM      1  C   UNL A   1      34.699  21.252  25.569  1.00  0.00     0.251 C 
ATOM      2  O   UNL A   1      34.183  21.741  26.580  1.00  0.00    -0.269 OA
ATOM      3  N   UNL A   1      35.991  21.627  25.329  1.00  0.00    -0.352 N 
ATOM      4  H   UNL A   1      36.315  22.322  25.947  1.00  0.00     0.163 HD
ENDROOT
BRANCH   1   5
ATOM      5  C   UNL A   1      33.838  20.402  24.701  1.00  0.00     0.048 A 
ATOM      6  C   UNL A   1      32.955  20.785  23.685  1.00  0.00     0.007 A 
ATOM      7  C   UNL A   1      32.291  19.820  22.904  1.00  0.00     0.010 A 
ATOM      8  C   UNL A   1      32.507  18.460  23.118  1.00  0.00     0.001 A 
ATOM      9  C   UNL A   1      34.033  19.014  24.898  1.00  0.00     0.014 A 
ATOM     10  C   UNL A   1      33.375  18.056  24.122  1.00  0.00     0.001 A 
BRANCH   6  11
ATOM     11  C   UNL A   1      32.542  22.158  23.398  1.00  0.00     0.142 C 
ATOM     12  N   UNL A   1      32.900  22.801  22.337  1.00  0.00    -0.180 NA
BRANCH  12  13
ATOM     13  N   UNL A   1      32.479  24.120  22.176  1.00  0.00    -0.239 N 
ATOM     14  C   UNL A   1      33.148  25.246  22.643  1.00  0.00     0.329 C 
ATOM     15  O   UNL A   1      33.820  25.956  21.900  1.00  0.00    -0.262 OA
ATOM     16  H   UNL A   1      31.634  24.267  21.692  1.00  0.00     0.194 HD
BRANCH  14  17
ATOM     17  C   UNL A   1      33.006  25.575  24.144  1.00  0.00     0.315 C 
ATOM     18  N   UNL A   1      32.212  26.613  24.581  1.00  0.00    -0.318 N 
ATOM     19  H   UNL A   1      32.443  26.919  25.487  1.00  0.00     0.170 HD
ATOM     20  O   UNL A   1      33.692  24.976  24.972  1.00  0.00    -0.263 OA
BRANCH  18  21
ATOM     21  C   UNL A   1      31.144  27.332  24.015  1.00  0.00     0.041 A 
ATOM     22  C   UNL A   1      29.063  29.016  23.066  1.00  0.00    -0.045 A 
ATOM     23  C   UNL A   1      28.853  27.646  23.271  1.00  0.00     0.006 A 
ATOM     24  C   UNL A   1      30.332  29.533  23.338  1.00  0.00     0.006 A 
ATOM     25  C   UNL A   1      29.879  26.815  23.748  1.00  0.00     0.026 A 
ATOM     26  C   UNL A   1      31.357  28.701  23.805  1.00  0.00     0.026 A 
BRANCH  22  27
ATOM     27  C   UNL A   1      27.901  29.905  22.652  1.00  0.00     0.013 C 
ATOM     28  C   UNL A   1      27.731  31.050  23.653  1.00  0.00     0.012 C 
ATOM     29  C   UNL A   1      28.025  30.459  21.230  1.00  0.00     0.012 C 
ENDBRANCH  22  27
ENDBRANCH  18  21
ENDBRANCH  14  17
ENDBRANCH  12  13
ENDBRANCH   6  11
ENDBRANCH   1   5
BRANCH   3  30
ATOM     30  C   UNL A   1      36.982  21.218  24.360  1.00  0.00     0.118 C 
BRANCH  30  31
ATOM     31  C   UNL A   1      37.786  19.978  24.745  1.00  0.00     0.042 C 
BRANCH  31  32
ATOM     32  C   UNL A   1      38.736  20.166  25.923  1.00  0.00     0.118 C 
BRANCH  32  33
ATOM     33  N   UNL A   1      39.924  19.335  25.887  1.00  0.00    -0.352 N 
ATOM     34  C   UNL A   1      41.267  19.560  26.098  1.00  0.00     0.251 C 
ATOM     35  H   UNL A   1      39.727  18.397  25.661  1.00  0.00     0.163 HD
ATOM     36  O   UNL A   1      42.030  18.621  25.950  1.00  0.00    -0.269 OA
BRANCH  34  37
ATOM     37  C   UNL A   1      41.829  20.888  26.476  1.00  0.00     0.039 A 
ATOM     38  C   UNL A   1      41.883  21.864  25.468  1.00  0.00     0.014 A 
ATOM     39  C   UNL A   1      42.382  21.191  27.719  1.00  0.00     0.014 A 
ATOM     40  C   UNL A   1      42.437  23.126  25.714  1.00  0.00     0.010 A 
ATOM     41  C   UNL A   1      42.875  22.473  27.989  1.00  0.00     0.010 A 
ATOM     42  C   UNL A   1      42.913  23.452  26.990  1.00  0.00    -0.014 A 
BRANCH  42  43
ATOM     43  C   UNL A   1      43.473  24.795  27.293  1.00  0.00     0.031 A 
ATOM     44  C   UNL A   1      42.622  25.843  27.952  1.00  0.00     0.074 A 
ATOM     45  C   UNL A   1      44.728  25.103  26.911  1.00  0.00     0.049 A 
ATOM     46  N   UNL A   1      42.874  27.113  28.148  1.00  0.00    -0.248 NA
ATOM     47  C   UNL A   1      41.292  25.417  28.414  1.00  0.00     0.031 C 
ATOM     48  C   UNL A   1      45.649  24.198  26.226  1.00  0.00     0.029 A 
ATOM     49  N   UNL A   1      45.444  26.265  27.055  1.00  0.00    -0.354 N 
ATOM     50  C   UNL A   1      41.704  27.655  28.664  1.00  0.00     0.074 A 
ATOM     51  C   UNL A   1      40.754  26.569  28.787  1.00  0.00     0.031 C 
ATOM     52  C   UNL A   1      46.829  24.818  26.063  1.00  0.00     0.029 A 
ATOM     53  C   UNL A   1      46.735  26.173  26.595  1.00  0.00     0.049 A 
ATOM     54  H   UNL A   1      45.070  27.085  27.449  1.00  0.00     0.167 HD
ATOM     55  C   UNL A   1      41.441  28.946  28.980  1.00  0.00     0.037 A 
ATOM     56  C   UNL A   1      47.729  27.080  26.612  1.00  0.00     0.037 A 
ATOM     57  C   UNL A   1      42.410  30.011  28.939  1.00  0.00     0.049 A 
ATOM     58  C   UNL A   1      47.467  28.462  27.138  1.00  0.00     0.074 A 
ATOM     59  C   UNL A   1      42.247  31.343  29.278  1.00  0.00     0.029 A 
ATOM     60  N   UNL A   1      43.734  29.853  28.561  1.00  0.00    -0.354 N 
ATOM     61  N   UNL A   1      46.352  28.969  27.603  1.00  0.00    -0.248 NA
ATOM     62  C   UNL A   1      48.595  29.405  27.120  1.00  0.00     0.031 C 
ATOM     63  C   UNL A   1      43.474  31.994  29.095  1.00  0.00     0.029 A 
ATOM     64  C   UNL A   1      44.402  31.062  28.663  1.00  0.00     0.049 A 
ATOM     65  H   UNL A   1      44.139  29.007  28.263  1.00  0.00     0.167 HD
ATOM     66  C   UNL A   1      46.636  30.290  27.916  1.00  0.00     0.074 A 
ATOM     67  C   UNL A   1      48.040  30.498  27.628  1.00  0.00     0.031 C 
ATOM     68  C   UNL A   1      45.799  31.252  28.375  1.00  0.00     0.037 A 
BRANCH  55  69
ATOM     69  C   UNL A   1      40.029  29.287  29.345  1.00  0.00     0.064 A 
ATOM     70  C   UNL A   1      39.591  29.325  30.675  1.00  0.00     0.173 A 
ATOM     71  C   UNL A   1      39.099  29.581  28.335  1.00  0.00     0.173 A 
ATOM     72  F   UNL A   1      40.438  29.034  31.672  1.00  0.00    -0.203 F 
ATOM     73  C   UNL A   1      38.263  29.617  30.980  1.00  0.00     0.198 A 
ATOM     74  C   UNL A   1      37.780  29.894  28.645  1.00  0.00     0.198 A 
ATOM     75  F   UNL A   1      39.473  29.560  27.046  1.00  0.00    -0.203 F 
ATOM     76  F   UNL A   1      37.852  29.601  32.255  1.00  0.00    -0.200 F 
ATOM     77  C   UNL A   1      37.361  29.903  29.965  1.00  0.00     0.200 A 
ATOM     78  F   UNL A   1      36.910  30.175  27.663  1.00  0.00    -0.200 F 
ATOM     79  F   UNL A   1      36.082  30.178  30.262  1.00  0.00    -0.200 F 
ENDBRANCH  55  69
BRANCH  56  80
ATOM     80  C   UNL A   1      49.086  26.688  26.156  1.00  0.00     0.064 A 
ATOM     81  C   UNL A   1      49.485  26.941  24.837  1.00  0.00     0.173 A 
ATOM     82  C   UNL A   1      50.009  26.083  27.018  1.00  0.00     0.173 A 
ATOM     83  F   UNL A   1      48.626  27.505  23.975  1.00  0.00    -0.203 F 
ATOM     84  C   UNL A   1      50.757  26.594  24.393  1.00  0.00     0.198 A 
ATOM     85  C   UNL A   1      51.290  25.755  26.578  1.00  0.00     0.198 A 
ATOM     86  F   UNL A   1      49.674  25.828  28.292  1.00  0.00    -0.203 F 
ATOM     87  F   UNL A   1      51.107  26.825  23.120  1.00  0.00    -0.200 F 
ATOM     88  C   UNL A   1      51.661  26.007  25.265  1.00  0.00     0.200 A 
ATOM     89  F   UNL A   1      52.166  25.201  27.426  1.00  0.00    -0.200 F 
ATOM     90  F   UNL A   1      52.890  25.684  24.841  1.00  0.00    -0.200 F 
ENDBRANCH  56  80
BRANCH  68  91
ATOM     91  C   UNL A   1      46.374  32.618  28.578  1.00  0.00     0.064 A 
ATOM     92  C   UNL A   1      46.939  32.988  29.807  1.00  0.00     0.173 A 
ATOM     93  C   UNL A   1      46.405  33.548  27.529  1.00  0.00     0.173 A 
ATOM     94  F   UNL A   1      46.919  32.137  30.843  1.00  0.00    -0.203 F 
ATOM     95  C   UNL A   1      47.505  34.248  29.983  1.00  0.00     0.198 A 
ATOM     96  C   UNL A   1      46.985  34.800  27.704  1.00  0.00     0.198 A 
ATOM     97  F   UNL A   1      45.877  33.237  26.336  1.00  0.00    -0.203 F 
ATOM     98  F   UNL A   1      48.017  34.591  31.172  1.00  0.00    -0.200 F 
ATOM     99  C   UNL A   1      47.533  35.150  28.930  1.00  0.00     0.200 A 
ATOM    100  F   UNL A   1      47.015  35.672  26.685  1.00  0.00    -0.200 F 
ATOM    101  F   UNL A   1      48.082  36.362  29.098  1.00  0.00    -0.200 F 
ENDBRANCH  68  91
ENDBRANCH  42  43
ENDBRANCH  34  37
ENDBRANCH  32  33
ENDBRANCH  31  32
ENDBRANCH  30  31
ENDBRANCH   3  30
TORSDOF 15
ENDMDL
