MODEL 1
REMARK VINA RESULT:     -15.8      0.000      0.000
REMARK SMILES Cc1c(NC(=O)[C@@H]2CC=CC[C@@H]2C(=O)NCCCNC(=O)c2ccc(-c3c4nc(c(-c5c(F)c(F)c(F)c(F)c5F)c5ccc([nH]5)c(-c5c(F)c(F)c(F)c(F)c5F)c5nc(c(-c6c(F)c(F)c(F)c(F)c6F)c6ccc3[nH]6)C=C5)C=C4)cc2)cccc1C(=O)N1CCOCC1
REMARK SMILES IDX 16 1 15 2 13 3 14 4 12 6 7 7 8 8 9 9 11 10 10 11 5 12 4 13
REMARK SMILES IDX 6 15 3 16 1 17 2 18 88 19 85 20 87 21 86 22 89 23 90 24
REMARK SMILES IDX 91 25 92 26 96 27 93 28 95 29 94 30 17 31 18 32 19 33 20 34
REMARK SMILES IDX 21 36 22 37 23 38 84 39 24 40 83 41 25 42 26 43 27 44 77 45
REMARK SMILES IDX 28 46 82 47 76 48 78 49 29 50 81 51 75 52 74 53 30 55 62 56
REMARK SMILES IDX 42 57 61 58 43 59 46 60 60 61 79 62 44 63 45 64 59 66 80 67
REMARK SMILES IDX 47 68 31 69 32 70 40 71 33 72 34 73 38 74 41 75 35 76 36 77
REMARK SMILES IDX 39 78 37 79 63 80 64 81 72 82 65 83 66 84 70 85 73 86 67 87
REMARK SMILES IDX 68 88 71 89 69 90 48 91 49 92 57 93 50 94 51 95 55 96 58 97
REMARK SMILES IDX 52 98 53 99 56 100 54 101
REMARK H PARENT 15 5 4 14 19 35 78 54 46 65
REMARK Flexibility Score: inf
ROOT
ATOM      1  C   UNL A   1      36.527  21.653  25.327  1.00  0.00     0.117 C 
ENDROOT
BRANCH   1   2
ATOM      2  N   UNL A   1      35.655  21.953  26.454  1.00  0.00    -0.356 N 
ATOM      3  C   UNL A   1      34.709  22.862  26.782  1.00  0.00     0.224 C 
ATOM      4  O   UNL A   1      34.239  22.652  27.914  1.00  0.00    -0.275 OA
ATOM      5  H   UNL A   1      35.795  21.311  27.187  1.00  0.00     0.163 HD
BRANCH   3   6
ATOM      6  C   UNL A   1      34.093  23.991  25.909  1.00  0.00     0.095 C 
ATOM      7  C   UNL A   1      32.621  23.935  25.415  1.00  0.00     0.095 C 
ATOM      8  C   UNL A   1      32.399  22.623  24.659  1.00  0.00     0.041 C 
ATOM      9  C   UNL A   1      33.452  22.406  23.605  1.00  0.00    -0.030 C 
ATOM     10  C   UNL A   1      34.964  24.124  24.621  1.00  0.00     0.041 C 
ATOM     11  C   UNL A   1      34.595  23.108  23.567  1.00  0.00    -0.030 C 
BRANCH   7  12
ATOM     12  C   UNL A   1      31.673  24.375  26.519  1.00  0.00     0.228 C 
ATOM     13  N   UNL A   1      31.163  25.620  26.660  1.00  0.00    -0.326 N 
ATOM     14  H   UNL A   1      30.328  25.619  27.181  1.00  0.00     0.169 HD
ATOM     15  O   UNL A   1      31.299  23.564  27.378  1.00  0.00    -0.274 OA
BRANCH  13  16
ATOM     16  C   UNL A   1      31.527  26.912  26.253  1.00  0.00     0.044 A 
ATOM     17  C   UNL A   1      30.697  26.265  23.958  1.00  0.00     0.047 C 
ATOM     18  C   UNL A   1      31.162  27.312  24.940  1.00  0.00    -0.015 A 
ATOM     19  C   UNL A   1      31.311  28.666  24.566  1.00  0.00     0.045 A 
ATOM     20  C   UNL A   1      32.124  27.826  27.123  1.00  0.00     0.026 A 
ATOM     21  C   UNL A   1      31.946  29.554  25.450  1.00  0.00     0.014 A 
ATOM     22  C   UNL A   1      32.367  29.133  26.710  1.00  0.00     0.003 A 
BRANCH  19  23
ATOM     23  C   UNL A   1      31.017  29.202  23.206  1.00  0.00     0.254 C 
ATOM     24  O   UNL A   1      31.752  28.817  22.295  1.00  0.00    -0.269 OA
ATOM     25  N   UNL A   1      29.946  30.057  22.970  1.00  0.00    -0.334 N 
ATOM     26  C   UNL A   1      29.296  30.965  23.924  1.00  0.00     0.148 C 
ATOM     27  C   UNL A   1      29.531  30.273  21.581  1.00  0.00     0.148 C 
ATOM     28  C   UNL A   1      27.771  31.017  23.704  1.00  0.00     0.181 C 
ATOM     29  C   UNL A   1      28.005  30.248  21.481  1.00  0.00     0.181 C 
ATOM     30  O   UNL A   1      27.432  31.256  22.329  1.00  0.00    -0.378 OA
ENDBRANCH  19  23
ENDBRANCH  13  16
ENDBRANCH   7  12
ENDBRANCH   3   6
ENDBRANCH   1   2
BRANCH   1  31
ATOM     31  C   UNL A   1      37.999  21.634  25.730  1.00  0.00     0.042 C 
BRANCH  31  32
ATOM     32  C   UNL A   1      38.618  23.009  25.901  1.00  0.00     0.118 C 
BRANCH  32  33
ATOM     33  N   UNL A   1      40.054  23.016  26.163  1.00  0.00    -0.352 N 
ATOM     34  C   UNL A   1      40.846  24.100  26.526  1.00  0.00     0.251 C 
ATOM     35  H   UNL A   1      40.516  22.151  26.072  1.00  0.00     0.163 HD
ATOM     36  O   UNL A   1      42.033  23.970  26.757  1.00  0.00    -0.269 OA
BRANCH  34  37
ATOM     37  C   UNL A   1      40.165  25.401  26.748  1.00  0.00     0.039 A 
ATOM     38  C   UNL A   1      40.747  26.546  26.199  1.00  0.00     0.014 A 
ATOM     39  C   UNL A   1      39.199  25.501  27.741  1.00  0.00     0.014 A 
ATOM     40  C   UNL A   1      40.559  27.767  26.841  1.00  0.00     0.010 A 
ATOM     41  C   UNL A   1      39.132  26.676  28.463  1.00  0.00     0.010 A 
ATOM     42  C   UNL A   1      39.865  27.797  28.051  1.00  0.00    -0.014 A 
BRANCH  42  43
ATOM     43  C   UNL A   1      39.925  28.918  28.988  1.00  0.00     0.031 A 
ATOM     44  C   UNL A   1      38.878  29.968  28.956  1.00  0.00     0.074 A 
ATOM     45  C   UNL A   1      40.890  28.964  29.937  1.00  0.00     0.049 A 
ATOM     46  N   UNL A   1      38.994  31.132  29.500  1.00  0.00    -0.248 NA
ATOM     47  C   UNL A   1      37.612  29.791  28.254  1.00  0.00     0.031 C 
ATOM     48  C   UNL A   1      40.942  29.846  31.104  1.00  0.00     0.029 A 
ATOM     49  N   UNL A   1      42.154  28.346  29.919  1.00  0.00    -0.354 N 
ATOM     50  C   UNL A   1      37.778  31.770  29.413  1.00  0.00     0.074 A 
ATOM     51  C   UNL A   1      36.951  30.891  28.622  1.00  0.00     0.031 C 
ATOM     52  C   UNL A   1      42.221  29.978  31.488  1.00  0.00     0.029 A 
ATOM     53  C   UNL A   1      43.038  29.288  30.507  1.00  0.00     0.049 A 
ATOM     54  H   UNL A   1      42.377  27.452  29.572  1.00  0.00     0.167 HD
ATOM     55  C   UNL A   1      37.588  32.942  30.085  1.00  0.00     0.037 A 
ATOM     56  C   UNL A   1      44.056  29.847  29.792  1.00  0.00     0.037 A 
ATOM     57  C   UNL A   1      38.821  33.409  30.707  1.00  0.00     0.049 A 
ATOM     58  C   UNL A   1      43.982  31.354  29.652  1.00  0.00     0.074 A 
ATOM     59  C   UNL A   1      39.376  33.300  31.970  1.00  0.00     0.029 A 
ATOM     60  N   UNL A   1      39.833  33.861  29.881  1.00  0.00    -0.354 N 
ATOM     61  N   UNL A   1      42.990  32.083  30.081  1.00  0.00    -0.248 NA
ATOM     62  C   UNL A   1      44.973  32.141  28.915  1.00  0.00     0.031 C 
ATOM     63  C   UNL A   1      40.752  33.656  31.880  1.00  0.00     0.029 A 
ATOM     64  C   UNL A   1      41.024  33.984  30.565  1.00  0.00     0.049 A 
ATOM     65  H   UNL A   1      39.718  34.067  28.924  1.00  0.00     0.167 HD
ATOM     66  C   UNL A   1      43.152  33.365  29.635  1.00  0.00     0.074 A 
ATOM     67  C   UNL A   1      44.411  33.361  28.920  1.00  0.00     0.031 C 
ATOM     68  C   UNL A   1      42.221  34.339  29.830  1.00  0.00     0.037 A 
BRANCH  55  69
ATOM     69  C   UNL A   1      36.245  33.585  30.322  1.00  0.00     0.064 A 
ATOM     70  C   UNL A   1      35.494  34.093  29.239  1.00  0.00     0.173 A 
ATOM     71  C   UNL A   1      35.654  33.767  31.586  1.00  0.00     0.173 A 
ATOM     72  F   UNL A   1      35.886  33.910  27.971  1.00  0.00    -0.203 F 
ATOM     73  C   UNL A   1      34.311  34.815  29.420  1.00  0.00     0.198 A 
ATOM     74  C   UNL A   1      34.508  34.545  31.773  1.00  0.00     0.198 A 
ATOM     75  F   UNL A   1      36.128  33.145  32.672  1.00  0.00    -0.203 F 
ATOM     76  F   UNL A   1      33.639  35.266  28.352  1.00  0.00    -0.200 F 
ATOM     77  C   UNL A   1      33.840  35.076  30.689  1.00  0.00     0.200 A 
ATOM     78  F   UNL A   1      34.053  34.770  33.014  1.00  0.00    -0.200 F 
ATOM     79  F   UNL A   1      32.734  35.810  30.866  1.00  0.00    -0.200 F 
ENDBRANCH  55  69
BRANCH  56  80
ATOM     80  C   UNL A   1      44.605  28.927  28.761  1.00  0.00     0.064 A 
ATOM     81  C   UNL A   1      45.372  27.825  29.190  1.00  0.00     0.173 A 
ATOM     82  C   UNL A   1      44.087  28.892  27.463  1.00  0.00     0.173 A 
ATOM     83  F   UNL A   1      45.895  27.811  30.427  1.00  0.00    -0.203 F 
ATOM     84  C   UNL A   1      45.491  26.681  28.406  1.00  0.00     0.198 A 
ATOM     85  C   UNL A   1      44.232  27.752  26.671  1.00  0.00     0.198 A 
ATOM     86  F   UNL A   1      43.333  29.899  27.003  1.00  0.00    -0.203 F 
ATOM     87  F   UNL A   1      46.109  25.596  28.896  1.00  0.00    -0.200 F 
ATOM     88  C   UNL A   1      44.895  26.635  27.159  1.00  0.00     0.200 A 
ATOM     89  F   UNL A   1      43.628  27.695  25.475  1.00  0.00    -0.200 F 
ATOM     90  F   UNL A   1      44.914  25.500  26.446  1.00  0.00    -0.200 F 
ENDBRANCH  56  80
BRANCH  68  91
ATOM     91  C   UNL A   1      42.395  35.728  29.319  1.00  0.00     0.064 A 
ATOM     92  C   UNL A   1      41.852  36.131  28.091  1.00  0.00     0.173 A 
ATOM     93  C   UNL A   1      43.221  36.651  29.987  1.00  0.00     0.173 A 
ATOM     94  F   UNL A   1      41.063  35.301  27.391  1.00  0.00    -0.203 F 
ATOM     95  C   UNL A   1      42.121  37.393  27.561  1.00  0.00     0.198 A 
ATOM     96  C   UNL A   1      43.520  37.893  29.437  1.00  0.00     0.198 A 
ATOM     97  F   UNL A   1      43.740  36.365  31.192  1.00  0.00    -0.203 F 
ATOM     98  F   UNL A   1      41.563  37.759  26.400  1.00  0.00    -0.200 F 
ATOM     99  C   UNL A   1      42.967  38.265  28.226  1.00  0.00     0.200 A 
ATOM    100  F   UNL A   1      44.348  38.726  30.085  1.00  0.00    -0.200 F 
ATOM    101  F   UNL A   1      43.247  39.466  27.702  1.00  0.00    -0.200 F 
ENDBRANCH  68  91
ENDBRANCH  42  43
ENDBRANCH  34  37
ENDBRANCH  32  33
ENDBRANCH  31  32
ENDBRANCH   1  31
TORSDOF 13
ENDMDL
MODEL 2
REMARK VINA RESULT:     -15.7      3.630     10.134
REMARK SMILES Cc1c(NC(=O)[C@@H]2CC=CC[C@@H]2C(=O)NCCCNC(=O)c2ccc(-c3c4nc(c(-c5c(F)c(F)c(F)c(F)c5F)c5ccc([nH]5)c(-c5c(F)c(F)c(F)c(F)c5F)c5nc(c(-c6c(F)c(F)c(F)c(F)c6F)c6ccc3[nH]6)C=C5)C=C4)cc2)cccc1C(=O)N1CCOCC1
REMARK SMILES IDX 16 1 15 2 13 3 14 4 12 6 7 7 8 8 9 9 11 10 10 11 5 12 4 13
REMARK SMILES IDX 6 15 3 16 1 17 2 18 88 19 85 20 87 21 86 22 89 23 90 24
REMARK SMILES IDX 91 25 92 26 96 27 93 28 95 29 94 30 17 31 18 32 19 33 20 34
REMARK SMILES IDX 21 36 22 37 23 38 84 39 24 40 83 41 25 42 26 43 27 44 77 45
REMARK SMILES IDX 28 46 82 47 76 48 78 49 29 50 81 51 75 52 74 53 30 55 62 56
REMARK SMILES IDX 42 57 61 58 43 59 46 60 60 61 79 62 44 63 45 64 59 66 80 67
REMARK SMILES IDX 47 68 31 69 32 70 40 71 33 72 34 73 38 74 41 75 35 76 36 77
REMARK SMILES IDX 39 78 37 79 63 80 64 81 72 82 65 83 66 84 70 85 73 86 67 87
REMARK SMILES IDX 68 88 71 89 69 90 48 91 49 92 57 93 50 94 51 95 55 96 58 97
REMARK SMILES IDX 52 98 53 99 56 100 54 101
REMARK H PARENT 15 5 4 14 19 35 78 54 46 65
REMARK Flexibility Score: inf
ROOT
ATOM      1  C   UNL A   1      33.954  29.141  26.901  1.00  0.00     0.117 C 
ENDROOT
BRANCH   1   2
ATOM      2  N   UNL A   1      33.776  29.252  25.460  1.00  0.00    -0.356 N 
ATOM      3  C   UNL A   1      32.845  28.933  24.532  1.00  0.00     0.224 C 
ATOM      4  O   UNL A   1      33.194  29.277  23.389  1.00  0.00    -0.275 OA
ATOM      5  H   UNL A   1      34.556  29.684  25.042  1.00  0.00     0.163 HD
BRANCH   3   6
ATOM      6  C   UNL A   1      31.425  28.333  24.737  1.00  0.00     0.095 C 
ATOM      7  C   UNL A   1      31.166  26.803  24.676  1.00  0.00     0.095 C 
ATOM      8  C   UNL A   1      31.684  26.263  23.341  1.00  0.00     0.041 C 
ATOM      9  C   UNL A   1      31.159  27.062  22.178  1.00  0.00    -0.030 C 
ATOM     10  C   UNL A   1      30.485  28.963  23.663  1.00  0.00     0.041 C 
ATOM     11  C   UNL A   1      30.585  28.266  22.327  1.00  0.00    -0.030 C 
BRANCH   7  12
ATOM     12  C   UNL A   1      31.551  26.145  25.991  1.00  0.00     0.228 C 
ATOM     13  N   UNL A   1      32.541  25.238  26.150  1.00  0.00    -0.326 N 
ATOM     14  H   UNL A   1      32.868  25.208  27.079  1.00  0.00     0.169 HD
ATOM     15  O   UNL A   1      30.947  26.437  27.033  1.00  0.00    -0.274 OA
BRANCH  13  16
ATOM     16  C   UNL A   1      33.217  24.326  25.326  1.00  0.00     0.044 A 
ATOM     17  C   UNL A   1      31.098  22.954  25.352  1.00  0.00     0.047 C 
ATOM     18  C   UNL A   1      32.465  23.248  24.786  1.00  0.00    -0.015 A 
ATOM     19  C   UNL A   1      33.044  22.439  23.784  1.00  0.00     0.045 A 
ATOM     20  C   UNL A   1      34.546  24.511  24.945  1.00  0.00     0.026 A 
ATOM     21  C   UNL A   1      34.394  22.628  23.447  1.00  0.00     0.014 A 
ATOM     22  C   UNL A   1      35.145  23.643  24.036  1.00  0.00     0.003 A 
BRANCH  19  23
ATOM     23  C   UNL A   1      32.383  21.247  23.177  1.00  0.00     0.254 C 
ATOM     24  O   UNL A   1      31.755  21.441  22.135  1.00  0.00    -0.269 OA
ATOM     25  N   UNL A   1      32.504  19.979  23.733  1.00  0.00    -0.334 N 
ATOM     26  C   UNL A   1      32.772  19.636  25.136  1.00  0.00     0.148 C 
ATOM     27  C   UNL A   1      32.109  18.828  22.915  1.00  0.00     0.148 C 
ATOM     28  C   UNL A   1      33.700  18.411  25.250  1.00  0.00     0.181 C 
ATOM     29  C   UNL A   1      33.132  17.702  23.067  1.00  0.00     0.181 C 
ATOM     30  O   UNL A   1      33.245  17.312  24.446  1.00  0.00    -0.378 OA
ENDBRANCH  19  23
ENDBRANCH  13  16
ENDBRANCH   7  12
ENDBRANCH   3   6
ENDBRANCH   1   2
BRANCH   1  31
ATOM     31  C   UNL A   1      33.670  30.458  27.617  1.00  0.00     0.042 C 
BRANCH  31  32
ATOM     32  C   UNL A   1      34.836  31.429  27.625  1.00  0.00     0.118 C 
BRANCH  32  33
ATOM     33  N   UNL A   1      35.228  31.918  28.944  1.00  0.00    -0.352 N 
ATOM     34  C   UNL A   1      36.107  31.323  29.843  1.00  0.00     0.251 C 
ATOM     35  H   UNL A   1      34.823  32.769  29.230  1.00  0.00     0.163 HD
ATOM     36  O   UNL A   1      36.385  31.852  30.903  1.00  0.00    -0.269 OA
BRANCH  34  37
ATOM     37  C   UNL A   1      36.794  30.081  29.410  1.00  0.00     0.039 A 
ATOM     38  C   UNL A   1      37.116  29.136  30.387  1.00  0.00     0.014 A 
ATOM     39  C   UNL A   1      37.387  30.035  28.154  1.00  0.00     0.014 A 
ATOM     40  C   UNL A   1      38.230  28.324  30.193  1.00  0.00     0.010 A 
ATOM     41  C   UNL A   1      38.573  29.341  28.024  1.00  0.00     0.010 A 
ATOM     42  C   UNL A   1      39.033  28.532  29.070  1.00  0.00    -0.014 A 
BRANCH  42  43
ATOM     43  C   UNL A   1      40.398  28.021  28.949  1.00  0.00     0.031 A 
ATOM     44  C   UNL A   1      40.628  26.602  28.585  1.00  0.00     0.074 A 
ATOM     45  C   UNL A   1      41.455  28.855  29.092  1.00  0.00     0.049 A 
ATOM     46  N   UNL A   1      41.744  25.976  28.754  1.00  0.00    -0.248 NA
ATOM     47  C   UNL A   1      39.579  25.754  28.031  1.00  0.00     0.031 C 
ATOM     48  C   UNL A   1      42.850  28.584  28.744  1.00  0.00     0.029 A 
ATOM     49  N   UNL A   1      41.509  30.073  29.795  1.00  0.00    -0.354 N 
ATOM     50  C   UNL A   1      41.639  24.742  28.156  1.00  0.00     0.074 A 
ATOM     51  C   UNL A   1      40.266  24.651  27.723  1.00  0.00     0.031 C 
ATOM     52  C   UNL A   1      43.641  29.378  29.481  1.00  0.00     0.029 A 
ATOM     53  C   UNL A   1      42.787  30.090  30.412  1.00  0.00     0.049 A 
ATOM     54  H   UNL A   1      40.810  30.764  29.848  1.00  0.00     0.167 HD
ATOM     55  C   UNL A   1      42.752  23.962  28.031  1.00  0.00     0.037 A 
ATOM     56  C   UNL A   1      42.919  30.086  31.770  1.00  0.00     0.037 A 
ATOM     57  C   UNL A   1      43.898  24.552  28.712  1.00  0.00     0.049 A 
ATOM     58  C   UNL A   1      43.659  28.889  32.332  1.00  0.00     0.074 A 
ATOM     59  C   UNL A   1      44.962  25.344  28.317  1.00  0.00     0.029 A 
ATOM     60  N   UNL A   1      43.883  24.589  30.093  1.00  0.00    -0.354 N 
ATOM     61  N   UNL A   1      44.066  27.876  31.618  1.00  0.00    -0.248 NA
ATOM     62  C   UNL A   1      43.897  28.692  33.764  1.00  0.00     0.031 C 
ATOM     63  C   UNL A   1      45.562  25.892  29.487  1.00  0.00     0.029 A 
ATOM     64  C   UNL A   1      44.864  25.424  30.585  1.00  0.00     0.049 A 
ATOM     65  H   UNL A   1      43.251  24.083  30.655  1.00  0.00     0.167 HD
ATOM     66  C   UNL A   1      44.529  26.898  32.454  1.00  0.00     0.074 A 
ATOM     67  C   UNL A   1      44.416  27.453  33.787  1.00  0.00     0.031 C 
ATOM     68  C   UNL A   1      44.923  25.673  32.011  1.00  0.00     0.037 A 
BRANCH  55  69
ATOM     69  C   UNL A   1      42.848  22.743  27.149  1.00  0.00     0.064 A 
ATOM     70  C   UNL A   1      42.087  21.589  27.438  1.00  0.00     0.173 A 
ATOM     71  C   UNL A   1      43.693  22.627  26.029  1.00  0.00     0.173 A 
ATOM     72  F   UNL A   1      41.173  21.583  28.417  1.00  0.00    -0.203 F 
ATOM     73  C   UNL A   1      42.242  20.392  26.733  1.00  0.00     0.198 A 
ATOM     74  C   UNL A   1      43.898  21.413  25.366  1.00  0.00     0.198 A 
ATOM     75  F   UNL A   1      44.297  23.697  25.499  1.00  0.00    -0.203 F 
ATOM     76  F   UNL A   1      41.485  19.333  27.049  1.00  0.00    -0.200 F 
ATOM     77  C   UNL A   1      43.177  20.292  25.724  1.00  0.00     0.200 A 
ATOM     78  F   UNL A   1      44.795  21.342  24.373  1.00  0.00    -0.200 F 
ATOM     79  F   UNL A   1      43.362  19.133  25.080  1.00  0.00    -0.200 F 
ENDBRANCH  55  69
BRANCH  56  80
ATOM     80  C   UNL A   1      41.805  30.790  32.457  1.00  0.00     0.064 A 
ATOM     81  C   UNL A   1      41.833  32.199  32.501  1.00  0.00     0.173 A 
ATOM     82  C   UNL A   1      40.584  30.157  32.709  1.00  0.00     0.173 A 
ATOM     83  F   UNL A   1      42.981  32.856  32.270  1.00  0.00    -0.203 F 
ATOM     84  C   UNL A   1      40.663  32.939  32.648  1.00  0.00     0.198 A 
ATOM     85  C   UNL A   1      39.418  30.904  32.882  1.00  0.00     0.198 A 
ATOM     86  F   UNL A   1      40.488  28.821  32.661  1.00  0.00    -0.203 F 
ATOM     87  F   UNL A   1      40.700  34.276  32.548  1.00  0.00    -0.200 F 
ATOM     88  C   UNL A   1      39.452  32.289  32.808  1.00  0.00     0.200 A 
ATOM     89  F   UNL A   1      38.240  30.275  33.006  1.00  0.00    -0.200 F 
ATOM     90  F   UNL A   1      38.311  32.992  32.841  1.00  0.00    -0.200 F 
ENDBRANCH  56  80
BRANCH  68  91
ATOM     91  C   UNL A   1      45.402  24.604  32.932  1.00  0.00     0.064 A 
ATOM     92  C   UNL A   1      44.556  23.572  33.362  1.00  0.00     0.173 A 
ATOM     93  C   UNL A   1      46.685  24.661  33.508  1.00  0.00     0.173 A 
ATOM     94  F   UNL A   1      43.314  23.460  32.865  1.00  0.00    -0.203 F 
ATOM     95  C   UNL A   1      44.973  22.646  34.317  1.00  0.00     0.198 A 
ATOM     96  C   UNL A   1      47.084  23.760  34.490  1.00  0.00     0.198 A 
ATOM     97  F   UNL A   1      47.576  25.585  33.116  1.00  0.00    -0.203 F 
ATOM     98  F   UNL A   1      44.151  21.655  34.686  1.00  0.00    -0.200 F 
ATOM     99  C   UNL A   1      46.228  22.751  34.892  1.00  0.00     0.200 A 
ATOM    100  F   UNL A   1      48.299  23.877  35.047  1.00  0.00    -0.200 F 
ATOM    101  F   UNL A   1      46.617  21.877  35.831  1.00  0.00    -0.200 F 
ENDBRANCH  68  91
ENDBRANCH  42  43
ENDBRANCH  34  37
ENDBRANCH  32  33
ENDBRANCH  31  32
ENDBRANCH   1  31
TORSDOF 13
ENDMDL
MODEL 3
REMARK VINA RESULT:     -15.6      1.180      1.570
REMARK SMILES Cc1c(NC(=O)[C@@H]2CC=CC[C@@H]2C(=O)NCCCNC(=O)c2ccc(-c3c4nc(c(-c5c(F)c(F)c(F)c(F)c5F)c5ccc([nH]5)c(-c5c(F)c(F)c(F)c(F)c5F)c5nc(c(-c6c(F)c(F)c(F)c(F)c6F)c6ccc3[nH]6)C=C5)C=C4)cc2)cccc1C(=O)N1CCOCC1
REMARK SMILES IDX 16 1 15 2 13 3 14 4 12 6 7 7 8 8 9 9 11 10 10 11 5 12 4 13
REMARK SMILES IDX 6 15 3 16 1 17 2 18 88 19 85 20 87 21 86 22 89 23 90 24
REMARK SMILES IDX 91 25 92 26 96 27 93 28 95 29 94 30 17 31 18 32 19 33 20 34
REMARK SMILES IDX 21 36 22 37 23 38 84 39 24 40 83 41 25 42 26 43 27 44 77 45
REMARK SMILES IDX 28 46 82 47 76 48 78 49 29 50 81 51 75 52 74 53 30 55 62 56
REMARK SMILES IDX 42 57 61 58 43 59 46 60 60 61 79 62 44 63 45 64 59 66 80 67
REMARK SMILES IDX 47 68 31 69 32 70 40 71 33 72 34 73 38 74 41 75 35 76 36 77
REMARK SMILES IDX 39 78 37 79 63 80 64 81 72 82 65 83 66 84 70 85 73 86 67 87
REMARK SMILES IDX 68 88 71 89 69 90 48 91 49 92 57 93 50 94 51 95 55 96 58 97
REMARK SMILES IDX 52 98 53 99 56 100 54 101
REMARK H PARENT 15 5 4 14 19 35 78 54 46 65
REMARK Flexibility Score: inf
ROOT
ATOM      1  C   UNL A   1      37.090  23.671  25.843  1.00  0.00     0.117 C 
ENDROOT
BRANCH   1   2
ATOM      2  N   UNL A   1      36.106  22.827  26.506  1.00  0.00    -0.356 N 
ATOM      3  C   UNL A   1      35.059  22.042  26.167  1.00  0.00     0.224 C 
ATOM      4  O   UNL A   1      34.541  21.505  27.162  1.00  0.00    -0.275 OA
ATOM      5  H   UNL A   1      36.243  22.829  27.482  1.00  0.00     0.163 HD
BRANCH   3   6
ATOM      6  C   UNL A   1      34.541  21.661  24.751  1.00  0.00     0.095 C 
ATOM      7  C   UNL A   1      33.520  22.548  23.987  1.00  0.00     0.095 C 
ATOM      8  C   UNL A   1      32.285  22.757  24.867  1.00  0.00     0.041 C 
ATOM      9  C   UNL A   1      31.752  21.450  25.393  1.00  0.00    -0.030 C 
ATOM     10  C   UNL A   1      33.882  20.250  24.850  1.00  0.00     0.041 C 
ATOM     11  C   UNL A   1      32.460  20.311  25.353  1.00  0.00    -0.030 C 
BRANCH   7  12
ATOM     12  C   UNL A   1      34.224  23.725  23.331  1.00  0.00     0.228 C 
ATOM     13  N   UNL A   1      34.077  25.021  23.687  1.00  0.00    -0.326 N 
ATOM     14  H   UNL A   1      34.849  25.568  23.414  1.00  0.00     0.169 HD
ATOM     15  O   UNL A   1      35.014  23.534  22.395  1.00  0.00    -0.274 OA
BRANCH  13  16
ATOM     16  C   UNL A   1      33.100  25.782  24.347  1.00  0.00     0.044 A 
ATOM     17  C   UNL A   1      31.776  25.675  22.200  1.00  0.00     0.047 C 
ATOM     18  C   UNL A   1      31.868  25.993  23.672  1.00  0.00    -0.015 A 
ATOM     19  C   UNL A   1      30.784  26.560  24.379  1.00  0.00     0.045 A 
ATOM     20  C   UNL A   1      33.265  26.229  25.658  1.00  0.00     0.026 A 
ATOM     21  C   UNL A   1      30.991  27.031  25.685  1.00  0.00     0.014 A 
ATOM     22  C   UNL A   1      32.226  26.885  26.313  1.00  0.00     0.003 A 
BRANCH  19  23
ATOM     23  C   UNL A   1      29.460  26.882  23.773  1.00  0.00     0.254 C 
ATOM     24  O   UNL A   1      28.576  26.034  23.907  1.00  0.00    -0.269 OA
ATOM     25  N   UNL A   1      29.223  28.092  23.129  1.00  0.00    -0.334 N 
ATOM     26  C   UNL A   1      30.204  28.967  22.474  1.00  0.00     0.148 C 
ATOM     27  C   UNL A   1      27.832  28.464  22.856  1.00  0.00     0.148 C 
ATOM     28  C   UNL A   1      29.874  30.455  22.705  1.00  0.00     0.181 C 
ATOM     29  C   UNL A   1      27.614  29.944  23.174  1.00  0.00     0.181 C 
ATOM     30  O   UNL A   1      28.505  30.759  22.395  1.00  0.00    -0.378 OA
ENDBRANCH  19  23
ENDBRANCH  13  16
ENDBRANCH   7  12
ENDBRANCH   3   6
ENDBRANCH   1   2
BRANCH   1  31
ATOM     31  C   UNL A   1      38.374  22.910  25.522  1.00  0.00     0.042 C 
BRANCH  31  32
ATOM     32  C   UNL A   1      39.306  22.731  26.706  1.00  0.00     0.118 C 
BRANCH  32  33
ATOM     33  N   UNL A   1      40.712  23.023  26.440  1.00  0.00    -0.352 N 
ATOM     34  C   UNL A   1      41.328  24.269  26.407  1.00  0.00     0.251 C 
ATOM     35  H   UNL A   1      41.291  22.247  26.263  1.00  0.00     0.163 HD
ATOM     36  O   UNL A   1      42.524  24.381  26.212  1.00  0.00    -0.269 OA
BRANCH  34  37
ATOM     37  C   UNL A   1      40.500  25.453  26.747  1.00  0.00     0.039 A 
ATOM     38  C   UNL A   1      40.806  26.666  26.127  1.00  0.00     0.014 A 
ATOM     39  C   UNL A   1      39.695  25.416  27.879  1.00  0.00     0.014 A 
ATOM     40  C   UNL A   1      40.535  27.852  26.804  1.00  0.00     0.010 A 
ATOM     41  C   UNL A   1      39.562  26.577  28.615  1.00  0.00     0.010 A 
ATOM     42  C   UNL A   1      40.041  27.791  28.107  1.00  0.00    -0.014 A 
BRANCH  42  43
ATOM     43  C   UNL A   1      40.073  28.920  29.036  1.00  0.00     0.031 A 
ATOM     44  C   UNL A   1      39.009  29.951  28.986  1.00  0.00     0.074 A 
ATOM     45  C   UNL A   1      41.028  28.990  29.994  1.00  0.00     0.049 A 
ATOM     46  N   UNL A   1      39.099  31.121  29.523  1.00  0.00    -0.248 NA
ATOM     47  C   UNL A   1      37.752  29.747  28.276  1.00  0.00     0.031 C 
ATOM     48  C   UNL A   1      41.055  29.881  31.154  1.00  0.00     0.029 A 
ATOM     49  N   UNL A   1      42.303  28.394  29.991  1.00  0.00    -0.354 N 
ATOM     50  C   UNL A   1      37.873  31.737  29.420  1.00  0.00     0.074 A 
ATOM     51  C   UNL A   1      37.069  30.838  28.629  1.00  0.00     0.031 C 
ATOM     52  C   UNL A   1      42.328  30.038  31.548  1.00  0.00     0.029 A 
ATOM     53  C   UNL A   1      43.165  29.356  30.580  1.00  0.00     0.049 A 
ATOM     54  H   UNL A   1      42.545  27.502  29.653  1.00  0.00     0.167 HD
ATOM     55  C   UNL A   1      37.656  32.911  30.081  1.00  0.00     0.037 A 
ATOM     56  C   UNL A   1      44.180  29.927  29.869  1.00  0.00     0.037 A 
ATOM     57  C   UNL A   1      38.876  33.404  30.711  1.00  0.00     0.049 A 
ATOM     58  C   UNL A   1      44.081  31.431  29.717  1.00  0.00     0.074 A 
ATOM     59  C   UNL A   1      39.421  33.314  31.980  1.00  0.00     0.029 A 
ATOM     60  N   UNL A   1      39.887  33.867  29.890  1.00  0.00    -0.354 N 
ATOM     61  N   UNL A   1      43.072  32.146  30.132  1.00  0.00    -0.248 NA
ATOM     62  C   UNL A   1      45.065  32.230  28.983  1.00  0.00     0.031 C 
ATOM     63  C   UNL A   1      40.792  33.693  31.899  1.00  0.00     0.029 A 
ATOM     64  C   UNL A   1      41.069  34.017  30.583  1.00  0.00     0.049 A 
ATOM     65  H   UNL A   1      39.777  34.064  28.931  1.00  0.00     0.167 HD
ATOM     66  C   UNL A   1      43.216  33.428  29.678  1.00  0.00     0.074 A 
ATOM     67  C   UNL A   1      44.482  33.441  28.973  1.00  0.00     0.031 C 
ATOM     68  C   UNL A   1      42.267  34.386  29.856  1.00  0.00     0.037 A 
BRANCH  55  69
ATOM     69  C   UNL A   1      36.300  33.532  30.302  1.00  0.00     0.064 A 
ATOM     70  C   UNL A   1      35.551  34.019  29.208  1.00  0.00     0.173 A 
ATOM     71  C   UNL A   1      35.695  33.712  31.559  1.00  0.00     0.173 A 
ATOM     72  F   UNL A   1      35.957  33.834  27.946  1.00  0.00    -0.203 F 
ATOM     73  C   UNL A   1      34.354  34.721  29.373  1.00  0.00     0.198 A 
ATOM     74  C   UNL A   1      34.534  34.472  31.731  1.00  0.00     0.198 A 
ATOM     75  F   UNL A   1      36.170  33.106  32.654  1.00  0.00    -0.203 F 
ATOM     76  F   UNL A   1      33.684  35.153  28.296  1.00  0.00    -0.200 F 
ATOM     77  C   UNL A   1      33.866  34.983  30.637  1.00  0.00     0.200 A 
ATOM     78  F   UNL A   1      34.063  34.697  32.965  1.00  0.00    -0.200 F 
ATOM     79  F   UNL A   1      32.746  35.699  30.799  1.00  0.00    -0.200 F 
ENDBRANCH  55  69
BRANCH  56  80
ATOM     80  C   UNL A   1      44.754  29.009  28.851  1.00  0.00     0.064 A 
ATOM     81  C   UNL A   1      45.641  28.002  29.283  1.00  0.00     0.173 A 
ATOM     82  C   UNL A   1      44.171  28.863  27.588  1.00  0.00     0.173 A 
ATOM     83  F   UNL A   1      46.229  28.097  30.486  1.00  0.00    -0.203 F 
ATOM     84  C   UNL A   1      45.822  26.836  28.545  1.00  0.00     0.198 A 
ATOM     85  C   UNL A   1      44.377  27.702  26.841  1.00  0.00     0.198 A 
ATOM     86  F   UNL A   1      43.304  29.775  27.129  1.00  0.00    -0.203 F 
ATOM     87  F   UNL A   1      46.562  25.836  29.047  1.00  0.00    -0.200 F 
ATOM     88  C   UNL A   1      45.165  26.674  27.339  1.00  0.00     0.200 A 
ATOM     89  F   UNL A   1      43.717  27.532  25.686  1.00  0.00    -0.200 F 
ATOM     90  F   UNL A   1      45.249  25.512  26.677  1.00  0.00    -0.200 F 
ENDBRANCH  56  80
BRANCH  68  91
ATOM     91  C   UNL A   1      42.421  35.774  29.337  1.00  0.00     0.064 A 
ATOM     92  C   UNL A   1      41.862  36.165  28.112  1.00  0.00     0.173 A 
ATOM     93  C   UNL A   1      43.244  36.709  29.992  1.00  0.00     0.173 A 
ATOM     94  F   UNL A   1      41.075  35.323  27.425  1.00  0.00    -0.203 F 
ATOM     95  C   UNL A   1      42.112  37.427  27.573  1.00  0.00     0.198 A 
ATOM     96  C   UNL A   1      43.524  37.952  29.433  1.00  0.00     0.198 A 
ATOM     97  F   UNL A   1      43.778  36.435  31.193  1.00  0.00    -0.203 F 
ATOM     98  F   UNL A   1      41.539  37.781  26.415  1.00  0.00    -0.200 F 
ATOM     99  C   UNL A   1      42.956  38.311  28.224  1.00  0.00     0.200 A 
ATOM    100  F   UNL A   1      44.350  38.797  30.068  1.00  0.00    -0.200 F 
ATOM    101  F   UNL A   1      43.217  39.512  27.691  1.00  0.00    -0.200 F 
ENDBRANCH  68  91
ENDBRANCH  42  43
ENDBRANCH  34  37
ENDBRANCH  32  33
ENDBRANCH  31  32
ENDBRANCH   1  31
TORSDOF 13
ENDMDL
