MODEL 1
REMARK VINA RESULT:      -9.8      0.000      0.000
REMARK SMILES C[C@H](C[NH3+])CS/C=C/C(=O)NCCCNC(=O)c1ccc(-c2c3nc(c(-c4c(F)c(F)c(F)c(F)c4F)c4ccc([nH]4)c(-c4c(F)c(F)c(F)c(F)c4F)c4nc(c(-c5c(F)c(F)c(F)c(F)c5F)c5ccc2[nH]5)C=C4)C=C3)cc1
REMARK SMILES IDX 9 1 10 2 11 3 8 5 7 6 6 7 5 8 2 9 1 10 3 11 4 12 12 16 13 17
REMARK SMILES IDX 14 18 15 19 16 20 17 22 18 23 19 24 80 25 20 26 79 27 21 28
REMARK SMILES IDX 22 29 23 30 73 31 24 32 78 33 72 34 74 35 25 36 77 37 71 38
REMARK SMILES IDX 70 39 26 41 58 42 38 43 57 44 39 45 42 46 56 47 75 48 40 49
REMARK SMILES IDX 41 50 55 52 76 53 43 54 27 55 28 56 36 57 29 58 30 59 34 60
REMARK SMILES IDX 37 61 31 62 32 63 35 64 33 65 59 66 60 67 68 68 61 69 62 70
REMARK SMILES IDX 66 71 69 72 63 73 64 74 67 75 65 76 44 77 45 78 53 79 46 80
REMARK SMILES IDX 47 81 51 82 54 83 48 84 49 85 52 86 50 87
REMARK H PARENT 11 4 4 13 4 14 4 15 15 21 74 40 42 51
REMARK Flexibility Score: inf
ROOT
ATOM      1  C   UNL A   1      34.137  29.409  27.196  1.00  0.00     0.244 C 
ATOM      2  O   UNL A   1      35.109  29.238  27.928  1.00  0.00    -0.270 OA
ATOM      3  N   UNL A   1      33.205  30.347  27.505  1.00  0.00    -0.352 N 
ATOM      4  H   UNL A   1      33.464  30.975  28.217  1.00  0.00     0.163 HD
ENDROOT
BRANCH   1   5
ATOM      5  C   UNL A   1      33.996  28.578  25.985  1.00  0.00     0.078 C 
ATOM      6  C   UNL A   1      33.606  27.303  26.100  1.00  0.00     0.046 C 
BRANCH   6   7
ATOM      7  S   UNL A   1      33.059  26.365  24.766  1.00  0.00    -0.133 SA
BRANCH   7   8
ATOM      8  C   UNL A   1      32.669  27.676  23.545  1.00  0.00     0.083 C 
BRANCH   8   9
ATOM      9  C   UNL A   1      31.231  28.245  23.588  1.00  0.00     0.051 C 
ATOM     10  C   UNL A   1      30.317  27.238  24.300  1.00  0.00     0.014 C 
BRANCH   9  11
ATOM     11  C   UNL A   1      30.612  28.614  22.222  1.00  0.00     0.262 C 
BRANCH  11  12
ATOM     12  N   UNL A   1      30.736  30.022  21.862  1.00  0.00    -0.357 N 
ATOM     13  H   UNL A   1      31.555  30.150  21.266  1.00  0.00     0.344 HD
ATOM     14  H   UNL A   1      30.843  30.581  22.708  1.00  0.00     0.344 HD
ATOM     15  H   UNL A   1      29.900  30.320  21.360  1.00  0.00     0.344 HD
ENDBRANCH  11  12
ENDBRANCH   9  11
ENDBRANCH   8   9
ENDBRANCH   7   8
ENDBRANCH   6   7
ENDBRANCH   1   5
BRANCH   3  16
ATOM     16  C   UNL A   1      31.883  30.563  26.940  1.00  0.00     0.118 C 
BRANCH  16  17
ATOM     17  C   UNL A   1      31.532  32.044  26.876  1.00  0.00     0.042 C 
BRANCH  17  18
ATOM     18  C   UNL A   1      32.760  32.947  26.857  1.00  0.00     0.118 C 
BRANCH  18  19
ATOM     19  N   UNL A   1      32.513  34.220  27.523  1.00  0.00    -0.352 N 
ATOM     20  C   UNL A   1      33.033  34.721  28.688  1.00  0.00     0.251 C 
ATOM     21  H   UNL A   1      31.873  34.811  27.066  1.00  0.00     0.163 HD
ATOM     22  O   UNL A   1      32.508  35.699  29.218  1.00  0.00    -0.269 OA
BRANCH  20  23
ATOM     23  C   UNL A   1      34.217  34.098  29.314  1.00  0.00     0.039 A 
ATOM     24  C   UNL A   1      35.491  34.563  28.971  1.00  0.00     0.014 A 
ATOM     25  C   UNL A   1      34.081  33.021  30.194  1.00  0.00     0.014 A 
ATOM     26  C   UNL A   1      36.622  33.982  29.548  1.00  0.00     0.010 A 
ATOM     27  C   UNL A   1      35.201  32.494  30.826  1.00  0.00     0.010 A 
ATOM     28  C   UNL A   1      36.484  32.960  30.500  1.00  0.00    -0.014 A 
BRANCH  28  29
ATOM     29  C   UNL A   1      37.665  32.342  31.149  1.00  0.00     0.031 A 
ATOM     30  C   UNL A   1      38.434  31.263  30.439  1.00  0.00     0.074 A 
ATOM     31  C   UNL A   1      37.997  32.697  32.405  1.00  0.00     0.049 A 
ATOM     32  N   UNL A   1      39.432  30.533  30.870  1.00  0.00    -0.248 NA
ATOM     33  C   UNL A   1      38.004  30.941  29.069  1.00  0.00     0.031 C 
ATOM     34  C   UNL A   1      37.299  33.697  33.214  1.00  0.00     0.029 A 
ATOM     35  N   UNL A   1      39.000  32.246  33.225  1.00  0.00    -0.354 N 
ATOM     36  C   UNL A   1      39.728  29.653  29.839  1.00  0.00     0.074 A 
ATOM     37  C   UNL A   1      38.777  29.906  28.778  1.00  0.00     0.031 C 
ATOM     38  C   UNL A   1      37.905  33.796  34.408  1.00  0.00     0.029 A 
ATOM     39  C   UNL A   1      39.013  32.846  34.460  1.00  0.00     0.049 A 
ATOM     40  H   UNL A   1      39.650  31.557  32.954  1.00  0.00     0.167 HD
ATOM     41  C   UNL A   1      40.718  28.731  29.774  1.00  0.00     0.037 A 
ATOM     42  C   UNL A   1      39.824  32.647  35.516  1.00  0.00     0.037 A 
ATOM     43  C   UNL A   1      41.684  28.508  30.817  1.00  0.00     0.049 A 
ATOM     44  C   UNL A   1      40.928  31.632  35.411  1.00  0.00     0.074 A 
ATOM     45  C   UNL A   1      42.766  27.644  30.824  1.00  0.00     0.029 A 
ATOM     46  N   UNL A   1      41.684  29.160  32.041  1.00  0.00    -0.354 N 
ATOM     47  N   UNL A   1      41.236  30.846  34.409  1.00  0.00    -0.248 NA
ATOM     48  C   UNL A   1      41.800  31.480  36.584  1.00  0.00     0.031 C 
ATOM     49  C   UNL A   1      43.401  27.750  32.066  1.00  0.00     0.029 A 
ATOM     50  C   UNL A   1      42.739  28.708  32.818  1.00  0.00     0.049 A 
ATOM     51  H   UNL A   1      41.032  29.843  32.317  1.00  0.00     0.167 HD
ATOM     52  C   UNL A   1      42.351  30.126  34.817  1.00  0.00     0.074 A 
ATOM     53  C   UNL A   1      42.671  30.578  36.155  1.00  0.00     0.031 C 
ATOM     54  C   UNL A   1      43.045  29.176  34.144  1.00  0.00     0.037 A 
BRANCH  41  55
ATOM     55  C   UNL A   1      40.805  27.896  28.529  1.00  0.00     0.064 A 
ATOM     56  C   UNL A   1      40.131  26.671  28.416  1.00  0.00     0.173 A 
ATOM     57  C   UNL A   1      41.553  28.337  27.427  1.00  0.00     0.173 A 
ATOM     58  F   UNL A   1      39.412  26.199  29.446  1.00  0.00    -0.203 F 
ATOM     59  C   UNL A   1      40.231  25.901  27.261  1.00  0.00     0.198 A 
ATOM     60  C   UNL A   1      41.627  27.577  26.261  1.00  0.00     0.198 A 
ATOM     61  F   UNL A   1      42.212  29.504  27.478  1.00  0.00    -0.203 F 
ATOM     62  F   UNL A   1      39.622  24.708  27.198  1.00  0.00    -0.200 F 
ATOM     63  C   UNL A   1      40.974  26.357  26.182  1.00  0.00     0.200 A 
ATOM     64  F   UNL A   1      42.336  28.024  25.216  1.00  0.00    -0.200 F 
ATOM     65  F   UNL A   1      41.066  25.615  25.070  1.00  0.00    -0.200 F 
ENDBRANCH  41  55
BRANCH  42  66
ATOM     66  C   UNL A   1      39.642  33.456  36.747  1.00  0.00     0.064 A 
ATOM     67  C   UNL A   1      40.359  34.646  36.934  1.00  0.00     0.173 A 
ATOM     68  C   UNL A   1      38.743  33.070  37.751  1.00  0.00     0.173 A 
ATOM     69  F   UNL A   1      41.244  35.044  36.009  1.00  0.00    -0.203 F 
ATOM     70  C   UNL A   1      40.195  35.413  38.085  1.00  0.00     0.198 A 
ATOM     71  C   UNL A   1      38.561  33.850  38.892  1.00  0.00     0.198 A 
ATOM     72  F   UNL A   1      38.029  31.943  37.616  1.00  0.00    -0.203 F 
ATOM     73  F   UNL A   1      40.918  36.527  38.254  1.00  0.00    -0.200 F 
ATOM     74  C   UNL A   1      39.291  35.017  39.060  1.00  0.00     0.200 A 
ATOM     75  F   UNL A   1      37.677  33.473  39.825  1.00  0.00    -0.200 F 
ATOM     76  F   UNL A   1      39.127  35.759  40.164  1.00  0.00    -0.200 F 
ENDBRANCH  42  66
BRANCH  54  77
ATOM     77  C   UNL A   1      44.239  28.586  34.834  1.00  0.00     0.064 A 
ATOM     78  C   UNL A   1      44.138  27.418  35.604  1.00  0.00     0.173 A 
ATOM     79  C   UNL A   1      45.505  29.172  34.687  1.00  0.00     0.173 A 
ATOM     80  F   UNL A   1      42.946  26.831  35.786  1.00  0.00    -0.203 F 
ATOM     81  C   UNL A   1      45.260  26.872  36.222  1.00  0.00     0.198 A 
ATOM     82  C   UNL A   1      46.628  28.609  35.285  1.00  0.00     0.198 A 
ATOM     83  F   UNL A   1      45.652  30.287  33.955  1.00  0.00    -0.203 F 
ATOM     84  F   UNL A   1      45.135  25.781  36.989  1.00  0.00    -0.200 F 
ATOM     85  C   UNL A   1      46.504  27.463  36.057  1.00  0.00     0.200 A 
ATOM     86  F   UNL A   1      47.831  29.175  35.116  1.00  0.00    -0.200 F 
ATOM     87  F   UNL A   1      47.584  26.933  36.647  1.00  0.00    -0.200 F 
ENDBRANCH  54  77
ENDBRANCH  28  29
ENDBRANCH  20  23
ENDBRANCH  18  19
ENDBRANCH  17  18
ENDBRANCH  16  17
ENDBRANCH   3  16
TORSDOF 15
ENDMDL
MODEL 2
REMARK VINA RESULT:      -9.8      6.186     11.150
REMARK SMILES C[C@H](C[NH3+])CS/C=C/C(=O)NCCCNC(=O)c1ccc(-c2c3nc(c(-c4c(F)c(F)c(F)c(F)c4F)c4ccc([nH]4)c(-c4c(F)c(F)c(F)c(F)c4F)c4nc(c(-c5c(F)c(F)c(F)c(F)c5F)c5ccc2[nH]5)C=C4)C=C3)cc1
REMARK SMILES IDX 9 1 10 2 11 3 8 5 7 6 6 7 5 8 2 9 1 10 3 11 4 12 12 16 13 17
REMARK SMILES IDX 14 18 15 19 16 20 17 22 18 23 19 24 80 25 20 26 79 27 21 28
REMARK SMILES IDX 22 29 23 30 73 31 24 32 78 33 72 34 74 35 25 36 77 37 71 38
REMARK SMILES IDX 70 39 26 41 58 42 38 43 57 44 39 45 42 46 56 47 75 48 40 49
REMARK SMILES IDX 41 50 55 52 76 53 43 54 27 55 28 56 36 57 29 58 30 59 34 60
REMARK SMILES IDX 37 61 31 62 32 63 35 64 33 65 59 66 60 67 68 68 61 69 62 70
REMARK SMILES IDX 66 71 69 72 63 73 64 74 67 75 65 76 44 77 45 78 53 79 46 80
REMARK SMILES IDX 47 81 51 82 54 83 48 84 49 85 52 86 50 87
REMARK H PARENT 11 4 4 13 4 14 4 15 15 21 74 40 42 51
REMARK Flexibility Score: inf
ROOT
ATOM      1  C   UNL A   1      36.234  22.538  24.540  1.00  0.00     0.244 C 
ATOM      2  O   UNL A   1      36.671  23.636  24.207  1.00  0.00    -0.270 OA
ATOM      3  N   UNL A   1      37.086  21.515  24.807  1.00  0.00    -0.352 N 
ATOM      4  H   UNL A   1      38.033  21.772  24.897  1.00  0.00     0.163 HD
ENDROOT
BRANCH   1   5
ATOM      5  C   UNL A   1      34.775  22.346  24.641  1.00  0.00     0.078 C 
ATOM      6  C   UNL A   1      34.024  22.399  23.534  1.00  0.00     0.046 C 
BRANCH   6   7
ATOM      7  S   UNL A   1      32.400  21.835  23.474  1.00  0.00    -0.133 SA
BRANCH   7   8
ATOM      8  C   UNL A   1      32.472  20.418  24.637  1.00  0.00     0.083 C 
BRANCH   8   9
ATOM      9  C   UNL A   1      33.132  19.127  24.099  1.00  0.00     0.051 C 
ATOM     10  C   UNL A   1      32.285  18.575  22.944  1.00  0.00     0.014 C 
BRANCH   9  11
ATOM     11  C   UNL A   1      33.362  18.006  25.138  1.00  0.00     0.262 C 
BRANCH  11  12
ATOM     12  N   UNL A   1      32.704  18.228  26.421  1.00  0.00    -0.357 N 
ATOM     13  H   UNL A   1      31.992  18.951  26.318  1.00  0.00     0.344 HD
ATOM     14  H   UNL A   1      33.394  18.526  27.111  1.00  0.00     0.344 HD
ATOM     15  H   UNL A   1      32.265  17.361  26.733  1.00  0.00     0.344 HD
ENDBRANCH  11  12
ENDBRANCH   9  11
ENDBRANCH   8   9
ENDBRANCH   7   8
ENDBRANCH   6   7
ENDBRANCH   1   5
BRANCH   3  16
ATOM     16  C   UNL A   1      36.811  20.098  24.982  1.00  0.00     0.118 C 
BRANCH  16  17
ATOM     17  C   UNL A   1      38.089  19.268  24.962  1.00  0.00     0.042 C 
BRANCH  17  18
ATOM     18  C   UNL A   1      39.228  19.909  25.749  1.00  0.00     0.118 C 
BRANCH  18  19
ATOM     19  N   UNL A   1      40.370  19.014  25.883  1.00  0.00    -0.352 N 
ATOM     20  C   UNL A   1      41.697  19.300  26.076  1.00  0.00     0.251 C 
ATOM     21  H   UNL A   1      40.156  18.056  25.827  1.00  0.00     0.163 HD
ATOM     22  O   UNL A   1      42.540  18.420  25.906  1.00  0.00    -0.269 OA
BRANCH  20  23
ATOM     23  C   UNL A   1      42.124  20.654  26.485  1.00  0.00     0.039 A 
ATOM     24  C   UNL A   1      42.195  20.960  27.848  1.00  0.00     0.014 A 
ATOM     25  C   UNL A   1      42.400  21.638  25.532  1.00  0.00     0.014 A 
ATOM     26  C   UNL A   1      42.592  22.237  28.253  1.00  0.00     0.010 A 
ATOM     27  C   UNL A   1      42.867  22.883  25.935  1.00  0.00     0.010 A 
ATOM     28  C   UNL A   1      42.956  23.200  27.299  1.00  0.00    -0.014 A 
BRANCH  28  29
ATOM     29  C   UNL A   1      43.405  24.555  27.700  1.00  0.00     0.031 A 
ATOM     30  C   UNL A   1      42.393  25.608  28.054  1.00  0.00     0.074 A 
ATOM     31  C   UNL A   1      44.717  24.858  27.671  1.00  0.00     0.049 A 
ATOM     32  N   UNL A   1      42.575  26.874  28.335  1.00  0.00    -0.248 NA
ATOM     33  C   UNL A   1      40.983  25.189  28.063  1.00  0.00     0.031 C 
ATOM     34  C   UNL A   1      45.790  23.934  27.299  1.00  0.00     0.029 A 
ATOM     35  N   UNL A   1      45.370  26.032  27.948  1.00  0.00    -0.354 N 
ATOM     36  C   UNL A   1      41.307  27.404  28.528  1.00  0.00     0.074 A 
ATOM     37  C   UNL A   1      40.360  26.337  28.287  1.00  0.00     0.031 C 
ATOM     38  C   UNL A   1      46.968  24.572  27.387  1.00  0.00     0.029 A 
ATOM     39  C   UNL A   1      46.731  25.955  27.790  1.00  0.00     0.049 A 
ATOM     40  H   UNL A   1      44.905  26.854  28.232  1.00  0.00     0.167 HD
ATOM     41  C   UNL A   1      40.964  28.662  28.894  1.00  0.00     0.037 A 
ATOM     42  C   UNL A   1      47.680  26.898  27.948  1.00  0.00     0.037 A 
ATOM     43  C   UNL A   1      41.911  29.710  29.169  1.00  0.00     0.049 A 
ATOM     44  C   UNL A   1      47.275  28.282  28.375  1.00  0.00     0.074 A 
ATOM     45  C   UNL A   1      41.670  31.000  29.610  1.00  0.00     0.029 A 
ATOM     46  N   UNL A   1      43.285  29.584  29.031  1.00  0.00    -0.354 N 
ATOM     47  N   UNL A   1      46.077  28.756  28.612  1.00  0.00    -0.248 NA
ATOM     48  C   UNL A   1      48.356  29.259  28.561  1.00  0.00     0.031 C 
ATOM     49  C   UNL A   1      42.898  31.665  29.706  1.00  0.00     0.029 A 
ATOM     50  C   UNL A   1      43.906  30.778  29.364  1.00  0.00     0.049 A 
ATOM     51  H   UNL A   1      43.752  28.767  28.739  1.00  0.00     0.167 HD
ATOM     52  C   UNL A   1      46.259  30.077  28.999  1.00  0.00     0.074 A 
ATOM     53  C   UNL A   1      47.686  30.325  28.977  1.00  0.00     0.031 C 
ATOM     54  C   UNL A   1      45.328  31.001  29.342  1.00  0.00     0.037 A 
BRANCH  41  55
ATOM     55  C   UNL A   1      39.500  28.970  29.021  1.00  0.00     0.064 A 
ATOM     56  C   UNL A   1      38.833  28.875  30.252  1.00  0.00     0.173 A 
ATOM     57  C   UNL A   1      38.760  29.386  27.905  1.00  0.00     0.173 A 
ATOM     58  F   UNL A   1      39.492  28.469  31.348  1.00  0.00    -0.203 F 
ATOM     59  C   UNL A   1      37.472  29.151  30.353  1.00  0.00     0.198 A 
ATOM     60  C   UNL A   1      37.405  29.690  28.016  1.00  0.00     0.198 A 
ATOM     61  F   UNL A   1      39.350  29.500  26.705  1.00  0.00    -0.203 F 
ATOM     62  F   UNL A   1      36.845  29.000  31.529  1.00  0.00    -0.200 F 
ATOM     63  C   UNL A   1      36.761  29.564  29.237  1.00  0.00     0.200 A 
ATOM     64  F   UNL A   1      36.721  30.099  26.939  1.00  0.00    -0.200 F 
ATOM     65  F   UNL A   1      35.451  29.832  29.338  1.00  0.00    -0.200 F 
ENDBRANCH  41  55
BRANCH  42  66
ATOM     66  C   UNL A   1      49.107  26.548  27.738  1.00  0.00     0.064 A 
ATOM     67  C   UNL A   1      49.952  26.307  28.830  1.00  0.00     0.173 A 
ATOM     68  C   UNL A   1      49.652  26.433  26.452  1.00  0.00     0.173 A 
ATOM     69  F   UNL A   1      49.480  26.424  30.080  1.00  0.00    -0.203 F 
ATOM     70  C   UNL A   1      51.293  25.977  28.644  1.00  0.00     0.198 A 
ATOM     71  C   UNL A   1      50.987  26.080  26.265  1.00  0.00     0.198 A 
ATOM     72  F   UNL A   1      48.882  26.649  25.375  1.00  0.00    -0.203 F 
ATOM     73  F   UNL A   1      52.087  25.786  29.706  1.00  0.00    -0.200 F 
ATOM     74  C   UNL A   1      51.807  25.858  27.361  1.00  0.00     0.200 A 
ATOM     75  F   UNL A   1      51.478  25.952  25.025  1.00  0.00    -0.200 F 
ATOM     76  F   UNL A   1      53.095  25.533  27.182  1.00  0.00    -0.200 F 
ENDBRANCH  42  66
BRANCH  54  77
ATOM     77  C   UNL A   1      45.827  32.354  29.751  1.00  0.00     0.064 A 
ATOM     78  C   UNL A   1      45.968  33.396  28.823  1.00  0.00     0.173 A 
ATOM     79  C   UNL A   1      46.128  32.623  31.095  1.00  0.00     0.173 A 
ATOM     80  F   UNL A   1      45.708  33.182  27.524  1.00  0.00    -0.203 F 
ATOM     81  C   UNL A   1      46.415  34.652  29.223  1.00  0.00     0.198 A 
ATOM     82  C   UNL A   1      46.550  33.887  31.495  1.00  0.00     0.198 A 
ATOM     83  F   UNL A   1      46.004  31.660  32.021  1.00  0.00    -0.203 F 
ATOM     84  F   UNL A   1      46.584  35.621  28.313  1.00  0.00    -0.200 F 
ATOM     85  C   UNL A   1      46.699  34.899  30.558  1.00  0.00     0.200 A 
ATOM     86  F   UNL A   1      46.813  34.127  32.787  1.00  0.00    -0.200 F 
ATOM     87  F   UNL A   1      47.123  36.111  30.942  1.00  0.00    -0.200 F 
ENDBRANCH  54  77
ENDBRANCH  28  29
ENDBRANCH  20  23
ENDBRANCH  18  19
ENDBRANCH  17  18
ENDBRANCH  16  17
ENDBRANCH   3  16
TORSDOF 15
ENDMDL
MODEL 3
REMARK VINA RESULT:      -9.6      2.496      4.085
REMARK SMILES C[C@H](C[NH3+])CS/C=C/C(=O)NCCCNC(=O)c1ccc(-c2c3nc(c(-c4c(F)c(F)c(F)c(F)c4F)c4ccc([nH]4)c(-c4c(F)c(F)c(F)c(F)c4F)c4nc(c(-c5c(F)c(F)c(F)c(F)c5F)c5ccc2[nH]5)C=C4)C=C3)cc1
REMARK SMILES IDX 9 1 10 2 11 3 8 5 7 6 6 7 5 8 2 9 1 10 3 11 4 12 12 16 13 17
REMARK SMILES IDX 14 18 15 19 16 20 17 22 18 23 19 24 80 25 20 26 79 27 21 28
REMARK SMILES IDX 22 29 23 30 73 31 24 32 78 33 72 34 74 35 25 36 77 37 71 38
REMARK SMILES IDX 70 39 26 41 58 42 38 43 57 44 39 45 42 46 56 47 75 48 40 49
REMARK SMILES IDX 41 50 55 52 76 53 43 54 27 55 28 56 36 57 29 58 30 59 34 60
REMARK SMILES IDX 37 61 31 62 32 63 35 64 33 65 59 66 60 67 68 68 61 69 62 70
REMARK SMILES IDX 66 71 69 72 63 73 64 74 67 75 65 76 44 77 45 78 53 79 46 80
REMARK SMILES IDX 47 81 51 82 54 83 48 84 49 85 52 86 50 87
REMARK H PARENT 11 4 4 13 4 14 4 15 15 21 74 40 42 51
REMARK Flexibility Score: inf
ROOT
ATOM      1  C   UNL A   1      32.996  26.276  21.893  1.00  0.00     0.244 C 
ATOM      2  O   UNL A   1      33.284  25.822  20.789  1.00  0.00    -0.270 OA
ATOM      3  N   UNL A   1      32.416  27.500  21.999  1.00  0.00    -0.352 N 
ATOM      4  H   UNL A   1      32.088  27.881  21.154  1.00  0.00     0.163 HD
ENDROOT
BRANCH   1   5
ATOM      5  C   UNL A   1      33.292  25.478  23.098  1.00  0.00     0.078 C 
ATOM      6  C   UNL A   1      33.162  24.146  23.056  1.00  0.00     0.046 C 
BRANCH   6   7
ATOM      7  S   UNL A   1      33.820  23.101  24.254  1.00  0.00    -0.133 SA
BRANCH   7   8
ATOM      8  C   UNL A   1      35.211  24.116  24.886  1.00  0.00     0.083 C 
BRANCH   8   9
ATOM      9  C   UNL A   1      36.633  23.581  24.597  1.00  0.00     0.051 C 
ATOM     10  C   UNL A   1      36.626  22.845  23.250  1.00  0.00     0.014 C 
BRANCH   9  11
ATOM     11  C   UNL A   1      37.236  22.654  25.677  1.00  0.00     0.262 C 
BRANCH  11  12
ATOM     12  N   UNL A   1      38.522  22.066  25.319  1.00  0.00    -0.357 N 
ATOM     13  H   UNL A   1      39.230  22.361  25.993  1.00  0.00     0.344 HD
ATOM     14  H   UNL A   1      38.791  22.377  24.386  1.00  0.00     0.344 HD
ATOM     15  H   UNL A   1      38.446  21.049  25.330  1.00  0.00     0.344 HD
ENDBRANCH  11  12
ENDBRANCH   9  11
ENDBRANCH   8   9
ENDBRANCH   7   8
ENDBRANCH   6   7
ENDBRANCH   1   5
BRANCH   3  16
ATOM     16  C   UNL A   1      32.209  28.330  23.175  1.00  0.00     0.118 C 
BRANCH  16  17
ATOM     17  C   UNL A   1      33.510  28.956  23.660  1.00  0.00     0.042 C 
BRANCH  17  18
ATOM     18  C   UNL A   1      33.577  29.090  25.178  1.00  0.00     0.118 C 
BRANCH  18  19
ATOM     19  N   UNL A   1      32.996  30.343  25.643  1.00  0.00    -0.352 N 
ATOM     20  C   UNL A   1      33.275  31.083  26.763  1.00  0.00     0.251 C 
ATOM     21  H   UNL A   1      32.294  30.716  25.063  1.00  0.00     0.163 HD
ATOM     22  O   UNL A   1      32.500  31.972  27.113  1.00  0.00    -0.269 OA
BRANCH  20  23
ATOM     23  C   UNL A   1      34.494  30.822  27.554  1.00  0.00     0.039 A 
ATOM     24  C   UNL A   1      34.641  29.583  28.187  1.00  0.00     0.014 A 
ATOM     25  C   UNL A   1      35.467  31.811  27.722  1.00  0.00     0.014 A 
ATOM     26  C   UNL A   1      35.786  29.321  28.944  1.00  0.00     0.010 A 
ATOM     27  C   UNL A   1      36.639  31.523  28.411  1.00  0.00     0.010 A 
ATOM     28  C   UNL A   1      36.805  30.281  29.040  1.00  0.00    -0.014 A 
BRANCH  28  29
ATOM     29  C   UNL A   1      38.043  30.021  29.815  1.00  0.00     0.031 A 
ATOM     30  C   UNL A   1      39.099  29.107  29.259  1.00  0.00     0.074 A 
ATOM     31  C   UNL A   1      38.179  30.544  31.048  1.00  0.00     0.049 A 
ATOM     32  N   UNL A   1      40.202  28.677  29.818  1.00  0.00    -0.248 NA
ATOM     33  C   UNL A   1      38.869  28.583  27.904  1.00  0.00     0.031 C 
ATOM     34  C   UNL A   1      37.201  31.407  31.713  1.00  0.00     0.029 A 
ATOM     35  N   UNL A   1      39.190  30.416  31.966  1.00  0.00    -0.354 N 
ATOM     36  C   UNL A   1      40.780  27.816  28.895  1.00  0.00     0.074 A 
ATOM     37  C   UNL A   1      39.886  27.746  27.760  1.00  0.00     0.031 C 
ATOM     38  C   UNL A   1      37.668  31.744  32.926  1.00  0.00     0.029 A 
ATOM     39  C   UNL A   1      38.960  31.098  33.135  1.00  0.00     0.049 A 
ATOM     40  H   UNL A   1      40.004  29.885  31.802  1.00  0.00     0.167 HD
ATOM     41  C   UNL A   1      41.961  27.158  28.979  1.00  0.00     0.037 A 
ATOM     42  C   UNL A   1      39.707  31.185  34.253  1.00  0.00     0.037 A 
ATOM     43  C   UNL A   1      42.865  27.258  30.094  1.00  0.00     0.049 A 
ATOM     44  C   UNL A   1      41.024  30.462  34.313  1.00  0.00     0.074 A 
ATOM     45  C   UNL A   1      44.115  26.686  30.250  1.00  0.00     0.029 A 
ATOM     46  N   UNL A   1      42.612  27.986  31.248  1.00  0.00    -0.354 N 
ATOM     47  N   UNL A   1      41.589  29.697  33.411  1.00  0.00    -0.248 NA
ATOM     48  C   UNL A   1      41.809  30.619  35.545  1.00  0.00     0.031 C 
ATOM     49  C   UNL A   1      44.605  27.040  31.511  1.00  0.00     0.029 A 
ATOM     50  C   UNL A   1      43.677  27.866  32.127  1.00  0.00     0.049 A 
ATOM     51  H   UNL A   1      41.797  28.511  31.418  1.00  0.00     0.167 HD
ATOM     52  C   UNL A   1      42.805  29.302  33.953  1.00  0.00     0.074 A 
ATOM     53  C   UNL A   1      42.900  29.923  35.258  1.00  0.00     0.031 C 
ATOM     54  C   UNL A   1      43.756  28.498  33.417  1.00  0.00     0.037 A 
BRANCH  41  55
ATOM     55  C   UNL A   1      42.343  26.273  27.828  1.00  0.00     0.064 A 
ATOM     56  C   UNL A   1      43.232  26.705  26.831  1.00  0.00     0.173 A 
ATOM     57  C   UNL A   1      41.833  24.970  27.731  1.00  0.00     0.173 A 
ATOM     58  F   UNL A   1      43.738  27.947  26.871  1.00  0.00    -0.203 F 
ATOM     59  C   UNL A   1      43.567  25.879  25.762  1.00  0.00     0.198 A 
ATOM     60  C   UNL A   1      42.194  24.135  26.675  1.00  0.00     0.198 A 
ATOM     61  F   UNL A   1      40.984  24.504  28.660  1.00  0.00    -0.203 F 
ATOM     62  F   UNL A   1      44.374  26.334  24.794  1.00  0.00    -0.200 F 
ATOM     63  C   UNL A   1      43.052  24.593  25.688  1.00  0.00     0.200 A 
ATOM     64  F   UNL A   1      41.704  22.890  26.611  1.00  0.00    -0.200 F 
ATOM     65  F   UNL A   1      43.379  23.798  24.659  1.00  0.00    -0.200 F 
ENDBRANCH  41  55
BRANCH  42  66
ATOM     66  C   UNL A   1      39.240  32.021  35.387  1.00  0.00     0.064 A 
ATOM     67  C   UNL A   1      38.445  31.470  36.402  1.00  0.00     0.173 A 
ATOM     68  C   UNL A   1      39.588  33.375  35.491  1.00  0.00     0.173 A 
ATOM     69  F   UNL A   1      38.071  30.184  36.334  1.00  0.00    -0.203 F 
ATOM     70  C   UNL A   1      38.003  32.246  37.471  1.00  0.00     0.198 A 
ATOM     71  C   UNL A   1      39.166  34.145  36.573  1.00  0.00     0.198 A 
ATOM     72  F   UNL A   1      40.352  33.946  34.549  1.00  0.00    -0.203 F 
ATOM     73  F   UNL A   1      37.215  31.704  38.408  1.00  0.00    -0.200 F 
ATOM     74  C   UNL A   1      38.369  33.581  37.559  1.00  0.00     0.200 A 
ATOM     75  F   UNL A   1      39.532  35.430  36.663  1.00  0.00    -0.200 F 
ATOM     76  F   UNL A   1      37.950  34.326  38.591  1.00  0.00    -0.200 F 
ENDBRANCH  42  66
BRANCH  54  77
ATOM     77  C   UNL A   1      44.995  28.271  34.231  1.00  0.00     0.064 A 
ATOM     78  C   UNL A   1      46.103  29.124  34.134  1.00  0.00     0.173 A 
ATOM     79  C   UNL A   1      45.057  27.210  35.147  1.00  0.00     0.173 A 
ATOM     80  F   UNL A   1      46.097  30.142  33.261  1.00  0.00    -0.203 F 
ATOM     81  C   UNL A   1      47.239  28.910  34.911  1.00  0.00     0.198 A 
ATOM     82  C   UNL A   1      46.183  27.014  35.939  1.00  0.00     0.198 A 
ATOM     83  F   UNL A   1      44.019  26.369  35.279  1.00  0.00    -0.203 F 
ATOM     84  F   UNL A   1      48.303  29.711  34.772  1.00  0.00    -0.200 F 
ATOM     85  C   UNL A   1      47.276  27.860  35.817  1.00  0.00     0.200 A 
ATOM     86  F   UNL A   1      46.214  26.006  36.822  1.00  0.00    -0.200 F 
ATOM     87  F   UNL A   1      48.367  27.659  36.567  1.00  0.00    -0.200 F 
ENDBRANCH  54  77
ENDBRANCH  28  29
ENDBRANCH  20  23
ENDBRANCH  18  19
ENDBRANCH  17  18
ENDBRANCH  16  17
ENDBRANCH   3  16
TORSDOF 15
ENDMDL
