MODEL 1
REMARK VINA RESULT:     -12.0      0.000      0.000
REMARK SMILES O=C(NCCCNC(=O)c1ncccc1-c1cc(Cl)cc(Cl)c1)c1ccc(-c2c3nc(c(-c4c(F)c(F)c(F)c(F)c4F)c4ccc([nH]4)c(-c4c(F)c(F)c(F)c(F)c4F)c4nc(c(-c5c(F)c(F)c(F)c(F)c5F)c5ccc2[nH]5)C=C4)C=C3)cc1
REMARK SMILES IDX 4 1 3 2 1 3 2 4 24 6 25 7 86 8 26 9 85 10 27 11 28 12 29 13
REMARK SMILES IDX 79 14 30 15 84 16 78 17 80 18 31 19 83 20 77 21 76 22 32 24
REMARK SMILES IDX 64 25 44 26 63 27 45 28 48 29 62 30 81 31 46 32 47 33 61 35
REMARK SMILES IDX 82 36 49 37 33 38 34 39 42 40 35 41 36 42 40 43 43 44 37 45
REMARK SMILES IDX 38 46 41 47 39 48 65 49 66 50 74 51 67 52 68 53 72 54 75 55
REMARK SMILES IDX 69 56 70 57 73 58 71 59 50 60 51 61 59 62 52 63 53 64 57 65
REMARK SMILES IDX 60 66 54 67 55 68 58 69 56 70 5 71 6 72 7 73 8 74 9 76 10 77
REMARK SMILES IDX 11 78 15 79 12 80 14 81 13 82 16 83 17 84 23 85 18 86 21 87
REMARK SMILES IDX 19 88 20 89 22 90
REMARK H PARENT 3 5 80 23 48 34 7 75
REMARK Flexibility Score: inf
ROOT
ATOM      1  C   UNL A   1      33.566  29.313  24.870  1.00  0.00     0.118 C 
ENDROOT
BRANCH   1   2
ATOM      2  N   UNL A   1      32.903  30.388  25.603  1.00  0.00    -0.352 N 
ATOM      3  O   UNL A   1      32.436  31.800  27.296  1.00  0.00    -0.269 OA
ATOM      4  C   UNL A   1      33.227  31.011  26.786  1.00  0.00     0.251 C 
ATOM      5  H   UNL A   1      32.082  30.725  25.177  1.00  0.00     0.163 HD
BRANCH   4   6
ATOM      6  C   UNL A   1      34.505  30.712  27.466  1.00  0.00     0.039 A 
ATOM      7  C   UNL A   1      34.781  29.431  27.937  1.00  0.00     0.014 A 
ATOM      8  C   UNL A   1      35.456  31.727  27.626  1.00  0.00     0.014 A 
ATOM      9  C   UNL A   1      35.880  29.216  28.753  1.00  0.00     0.010 A 
ATOM     10  C   UNL A   1      36.636  31.473  28.334  1.00  0.00     0.010 A 
ATOM     11  C   UNL A   1      36.836  30.225  28.943  1.00  0.00    -0.014 A 
BRANCH  11  12
ATOM     12  C   UNL A   1      38.057  29.911  29.728  1.00  0.00     0.031 A 
ATOM     13  C   UNL A   1      38.236  30.410  31.135  1.00  0.00     0.074 A 
ATOM     14  C   UNL A   1      38.986  29.108  29.172  1.00  0.00     0.049 A 
ATOM     15  N   UNL A   1      39.225  30.193  31.965  1.00  0.00    -0.248 NA
ATOM     16  C   UNL A   1      37.177  31.272  31.680  1.00  0.00     0.031 C 
ATOM     17  C   UNL A   1      38.923  28.571  27.809  1.00  0.00     0.029 A 
ATOM     18  N   UNL A   1      40.141  28.574  29.683  1.00  0.00    -0.354 N 
ATOM     19  C   UNL A   1      38.924  30.910  33.116  1.00  0.00     0.074 A 
ATOM     20  C   UNL A   1      37.667  31.585  32.873  1.00  0.00     0.031 C 
ATOM     21  C   UNL A   1      39.949  27.731  27.618  1.00  0.00     0.029 A 
ATOM     22  C   UNL A   1      40.786  27.731  28.810  1.00  0.00     0.049 A 
ATOM     23  H   UNL A   1      40.475  28.775  30.587  1.00  0.00     0.167 HD
ATOM     24  C   UNL A   1      39.631  30.988  34.268  1.00  0.00     0.037 A 
ATOM     25  C   UNL A   1      41.934  27.046  28.946  1.00  0.00     0.037 A 
ATOM     26  C   UNL A   1      40.868  30.289  34.511  1.00  0.00     0.049 A 
ATOM     27  C   UNL A   1      42.697  27.159  30.232  1.00  0.00     0.074 A 
ATOM     28  C   UNL A   1      41.642  30.278  35.660  1.00  0.00     0.029 A 
ATOM     29  N   UNL A   1      41.511  29.476  33.590  1.00  0.00    -0.354 N 
ATOM     30  N   UNL A   1      42.392  27.828  31.316  1.00  0.00    -0.248 NA
ATOM     31  C   UNL A   1      43.971  26.432  30.309  1.00  0.00     0.031 C 
ATOM     32  C   UNL A   1      42.773  29.491  35.418  1.00  0.00     0.029 A 
ATOM     33  C   UNL A   1      42.682  28.974  34.136  1.00  0.00     0.049 A 
ATOM     34  H   UNL A   1      41.183  29.283  32.682  1.00  0.00     0.167 HD
ATOM     35  C   UNL A   1      43.428  27.600  32.208  1.00  0.00     0.074 A 
ATOM     36  C   UNL A   1      44.359  26.707  31.546  1.00  0.00     0.031 C 
ATOM     37  C   UNL A   1      43.597  28.091  33.459  1.00  0.00     0.037 A 
BRANCH  24  38
ATOM     38  C   UNL A   1      39.100  31.877  35.356  1.00  0.00     0.064 A 
ATOM     39  C   UNL A   1      38.320  31.374  36.407  1.00  0.00     0.173 A 
ATOM     40  C   UNL A   1      39.422  33.243  35.374  1.00  0.00     0.173 A 
ATOM     41  F   UNL A   1      37.974  30.078  36.431  1.00  0.00    -0.203 F 
ATOM     42  C   UNL A   1      37.866  32.209  37.427  1.00  0.00     0.198 A 
ATOM     43  C   UNL A   1      38.988  34.070  36.408  1.00  0.00     0.198 A 
ATOM     44  F   UNL A   1      40.170  33.775  34.395  1.00  0.00    -0.203 F 
ATOM     45  F   UNL A   1      37.091  31.713  38.401  1.00  0.00    -0.200 F 
ATOM     46  C   UNL A   1      38.206  33.553  37.429  1.00  0.00     0.200 A 
ATOM     47  F   UNL A   1      39.327  35.367  36.415  1.00  0.00    -0.200 F 
ATOM     48  F   UNL A   1      37.776  34.353  38.416  1.00  0.00    -0.200 F 
ENDBRANCH  24  38
BRANCH  25  49
ATOM     49  C   UNL A   1      42.426  26.207  27.824  1.00  0.00     0.064 A 
ATOM     50  C   UNL A   1      41.969  24.895  27.647  1.00  0.00     0.173 A 
ATOM     51  C   UNL A   1      43.340  26.714  26.886  1.00  0.00     0.173 A 
ATOM     52  F   UNL A   1      41.109  24.362  28.527  1.00  0.00    -0.203 F 
ATOM     53  C   UNL A   1      42.415  24.117  26.581  1.00  0.00     0.198 A 
ATOM     54  C   UNL A   1      43.760  25.945  25.804  1.00  0.00     0.198 A 
ATOM     55  F   UNL A   1      43.802  27.967  27.009  1.00  0.00    -0.203 F 
ATOM     56  F   UNL A   1      41.988  22.853  26.453  1.00  0.00    -0.200 F 
ATOM     57  C   UNL A   1      43.303  24.646  25.655  1.00  0.00     0.200 A 
ATOM     58  F   UNL A   1      44.603  26.468  24.902  1.00  0.00    -0.200 F 
ATOM     59  F   UNL A   1      43.719  23.902  24.622  1.00  0.00    -0.200 F 
ENDBRANCH  25  49
BRANCH  37  60
ATOM     60  C   UNL A   1      44.829  27.658  34.194  1.00  0.00     0.064 A 
ATOM     61  C   UNL A   1      46.014  28.406  34.139  1.00  0.00     0.173 A 
ATOM     62  C   UNL A   1      44.819  26.494  34.977  1.00  0.00     0.173 A 
ATOM     63  F   UNL A   1      46.077  29.517  33.389  1.00  0.00    -0.203 F 
ATOM     64  C   UNL A   1      47.154  27.990  34.822  1.00  0.00     0.198 A 
ATOM     65  C   UNL A   1      45.952  26.095  35.679  1.00  0.00     0.198 A 
ATOM     66  F   UNL A   1      43.708  25.748  35.062  1.00  0.00    -0.203 F 
ATOM     67  F   UNL A   1      48.289  28.693  34.717  1.00  0.00    -0.200 F 
ATOM     68  C   UNL A   1      47.120  26.838  35.595  1.00  0.00     0.200 A 
ATOM     69  F   UNL A   1      45.915  24.988  36.432  1.00  0.00    -0.200 F 
ATOM     70  F   UNL A   1      48.217  26.439  36.253  1.00  0.00    -0.200 F 
ENDBRANCH  37  60
ENDBRANCH  11  12
ENDBRANCH   4   6
ENDBRANCH   1   2
BRANCH   1  71
ATOM     71  C   UNL A   1      32.970  27.940  25.135  1.00  0.00     0.042 C 
BRANCH  71  72
ATOM     72  C   UNL A   1      34.001  26.832  25.196  1.00  0.00     0.118 C 
BRANCH  72  73
ATOM     73  N   UNL A   1      33.973  25.950  24.045  1.00  0.00    -0.351 N 
ATOM     74  C   UNL A   1      33.436  24.688  23.942  1.00  0.00     0.270 C 
ATOM     75  H   UNL A   1      34.395  26.302  23.229  1.00  0.00     0.163 HD
ATOM     76  O   UNL A   1      33.434  24.125  22.849  1.00  0.00    -0.267 OA
BRANCH  74  77
ATOM     77  C   UNL A   1      32.854  24.013  25.138  1.00  0.00     0.135 A 
ATOM     78  N   UNL A   1      31.531  24.295  25.323  1.00  0.00    -0.250 NA
ATOM     79  C   UNL A   1      33.613  23.165  25.965  1.00  0.00     0.013 A 
ATOM     80  C   UNL A   1      30.924  23.719  26.376  1.00  0.00     0.112 A 
ATOM     81  C   UNL A   1      32.921  22.589  27.041  1.00  0.00     0.013 A 
ATOM     82  C   UNL A   1      31.569  22.865  27.251  1.00  0.00     0.021 A 
BRANCH  79  83
ATOM     83  C   UNL A   1      35.025  22.813  25.712  1.00  0.00    -0.013 A 
ATOM     84  C   UNL A   1      36.048  23.723  26.047  1.00  0.00     0.029 A 
ATOM     85  C   UNL A   1      35.403  21.544  25.244  1.00  0.00     0.029 A 
ATOM     86  C   UNL A   1      37.391  23.348  25.983  1.00  0.00     0.043 A 
ATOM     87  C   UNL A   1      36.753  21.183  25.176  1.00  0.00     0.043 A 
ATOM     88  Cl  UNL A   1      38.604  24.453  26.501  1.00  0.00    -0.084 Cl
ATOM     89  C   UNL A   1      37.751  22.075  25.557  1.00  0.00     0.041 A 
ATOM     90  Cl  UNL A   1      37.184  19.599  24.661  1.00  0.00    -0.084 Cl
ENDBRANCH  79  83
ENDBRANCH  74  77
ENDBRANCH  72  73
ENDBRANCH  71  72
ENDBRANCH   1  71
TORSDOF 11
ENDMDL
MODEL 2
REMARK VINA RESULT:     -11.9      0.957      1.746
REMARK SMILES O=C(NCCCNC(=O)c1ncccc1-c1cc(Cl)cc(Cl)c1)c1ccc(-c2c3nc(c(-c4c(F)c(F)c(F)c(F)c4F)c4ccc([nH]4)c(-c4c(F)c(F)c(F)c(F)c4F)c4nc(c(-c5c(F)c(F)c(F)c(F)c5F)c5ccc2[nH]5)C=C4)C=C3)cc1
REMARK SMILES IDX 4 1 3 2 1 3 2 4 24 6 25 7 86 8 26 9 85 10 27 11 28 12 29 13
REMARK SMILES IDX 79 14 30 15 84 16 78 17 80 18 31 19 83 20 77 21 76 22 32 24
REMARK SMILES IDX 64 25 44 26 63 27 45 28 48 29 62 30 81 31 46 32 47 33 61 35
REMARK SMILES IDX 82 36 49 37 33 38 34 39 42 40 35 41 36 42 40 43 43 44 37 45
REMARK SMILES IDX 38 46 41 47 39 48 65 49 66 50 74 51 67 52 68 53 72 54 75 55
REMARK SMILES IDX 69 56 70 57 73 58 71 59 50 60 51 61 59 62 52 63 53 64 57 65
REMARK SMILES IDX 60 66 54 67 55 68 58 69 56 70 5 71 6 72 7 73 8 74 9 76 10 77
REMARK SMILES IDX 11 78 15 79 12 80 14 81 13 82 16 83 17 84 23 85 18 86 21 87
REMARK SMILES IDX 19 88 20 89 22 90
REMARK H PARENT 3 5 80 23 48 34 7 75
REMARK Flexibility Score: inf
ROOT
ATOM      1  C   UNL A   1      33.018  29.114  25.656  1.00  0.00     0.118 C 
ENDROOT
BRANCH   1   2
ATOM      2  N   UNL A   1      32.627  30.459  26.067  1.00  0.00    -0.352 N 
ATOM      3  O   UNL A   1      32.597  32.363  27.273  1.00  0.00    -0.269 OA
ATOM      4  C   UNL A   1      33.186  31.326  26.977  1.00  0.00     0.251 C 
ATOM      5  H   UNL A   1      31.823  30.805  25.615  1.00  0.00     0.163 HD
BRANCH   4   6
ATOM      6  C   UNL A   1      34.474  31.005  27.626  1.00  0.00     0.039 A 
ATOM      7  C   UNL A   1      34.758  29.707  28.044  1.00  0.00     0.014 A 
ATOM      8  C   UNL A   1      35.425  32.014  27.812  1.00  0.00     0.014 A 
ATOM      9  C   UNL A   1      35.869  29.462  28.835  1.00  0.00     0.010 A 
ATOM     10  C   UNL A   1      36.616  31.735  28.493  1.00  0.00     0.010 A 
ATOM     11  C   UNL A   1      36.827  30.466  29.050  1.00  0.00    -0.014 A 
BRANCH  11  12
ATOM     12  C   UNL A   1      38.059  30.124  29.805  1.00  0.00     0.031 A 
ATOM     13  C   UNL A   1      38.271  30.595  31.216  1.00  0.00     0.074 A 
ATOM     14  C   UNL A   1      38.968  29.320  29.216  1.00  0.00     0.049 A 
ATOM     15  N   UNL A   1      39.275  30.352  32.023  1.00  0.00    -0.248 NA
ATOM     16  C   UNL A   1      37.234  31.459  31.798  1.00  0.00     0.031 C 
ATOM     17  C   UNL A   1      38.872  28.809  27.845  1.00  0.00     0.029 A 
ATOM     18  N   UNL A   1      40.126  28.765  29.694  1.00  0.00    -0.354 N 
ATOM     19  C   UNL A   1      39.004  31.052  33.192  1.00  0.00     0.074 A 
ATOM     20  C   UNL A   1      37.751  31.746  32.986  1.00  0.00     0.031 C 
ATOM     21  C   UNL A   1      39.884  27.961  27.619  1.00  0.00     0.029 A 
ATOM     22  C   UNL A   1      40.744  27.931  28.794  1.00  0.00     0.049 A 
ATOM     23  H   UNL A   1      40.480  28.946  30.595  1.00  0.00     0.167 HD
ATOM     24  C   UNL A   1      39.735  31.102  34.331  1.00  0.00     0.037 A 
ATOM     25  C   UNL A   1      41.887  27.230  28.895  1.00  0.00     0.037 A 
ATOM     26  C   UNL A   1      40.968  30.385  34.537  1.00  0.00     0.049 A 
ATOM     27  C   UNL A   1      42.677  27.312  30.167  1.00  0.00     0.074 A 
ATOM     28  C   UNL A   1      41.765  30.344  35.669  1.00  0.00     0.029 A 
ATOM     29  N   UNL A   1      41.584  29.581  33.589  1.00  0.00    -0.354 N 
ATOM     30  N   UNL A   1      42.400  27.965  31.269  1.00  0.00    -0.248 NA
ATOM     31  C   UNL A   1      43.943  26.569  30.206  1.00  0.00     0.031 C 
ATOM     32  C   UNL A   1      42.882  29.549  35.391  1.00  0.00     0.029 A 
ATOM     33  C   UNL A   1      42.760  29.057  34.102  1.00  0.00     0.049 A 
ATOM     34  H   UNL A   1      41.235  29.408  32.684  1.00  0.00     0.167 HD
ATOM     35  C   UNL A   1      43.452  27.709  32.135  1.00  0.00     0.074 A 
ATOM     36  C   UNL A   1      44.359  26.818  31.440  1.00  0.00     0.031 C 
ATOM     37  C   UNL A   1      43.651  28.176  33.391  1.00  0.00     0.037 A 
BRANCH  24  38
ATOM     38  C   UNL A   1      39.236  31.976  35.445  1.00  0.00     0.064 A 
ATOM     39  C   UNL A   1      38.428  31.474  36.475  1.00  0.00     0.173 A 
ATOM     40  C   UNL A   1      39.616  33.326  35.510  1.00  0.00     0.173 A 
ATOM     41  F   UNL A   1      38.026  30.194  36.454  1.00  0.00    -0.203 F 
ATOM     42  C   UNL A   1      38.004  32.294  37.519  1.00  0.00     0.198 A 
ATOM     43  C   UNL A   1      39.212  34.137  36.568  1.00  0.00     0.198 A 
ATOM     44  F   UNL A   1      40.393  33.857  34.553  1.00  0.00    -0.203 F 
ATOM     45  F   UNL A   1      37.202  31.801  38.473  1.00  0.00    -0.200 F 
ATOM     46  C   UNL A   1      38.402  33.621  37.568  1.00  0.00     0.200 A 
ATOM     47  F   UNL A   1      39.607  35.417  36.620  1.00  0.00    -0.200 F 
ATOM     48  F   UNL A   1      38.000  34.406  38.578  1.00  0.00    -0.200 F 
ENDBRANCH  24  38
BRANCH  25  49
ATOM     49  C   UNL A   1      42.347  26.407  27.748  1.00  0.00     0.064 A 
ATOM     50  C   UNL A   1      41.831  25.123  27.527  1.00  0.00     0.173 A 
ATOM     51  C   UNL A   1      43.289  26.900  26.833  1.00  0.00     0.173 A 
ATOM     52  F   UNL A   1      40.941  24.603  28.384  1.00  0.00    -0.203 F 
ATOM     53  C   UNL A   1      42.247  24.360  26.438  1.00  0.00     0.198 A 
ATOM     54  C   UNL A   1      43.681  26.149  25.727  1.00  0.00     0.198 A 
ATOM     55  F   UNL A   1      43.808  28.126  26.998  1.00  0.00    -0.203 F 
ATOM     56  F   UNL A   1      41.764  23.122  26.266  1.00  0.00    -0.200 F 
ATOM     57  C   UNL A   1      43.164  24.877  25.535  1.00  0.00     0.200 A 
ATOM     58  F   UNL A   1      44.553  26.661  24.848  1.00  0.00    -0.200 F 
ATOM     59  F   UNL A   1      43.553  24.149  24.480  1.00  0.00    -0.200 F 
ENDBRANCH  25  49
BRANCH  37  60
ATOM     60  C   UNL A   1      44.892  27.716  34.094  1.00  0.00     0.064 A 
ATOM     61  C   UNL A   1      46.086  28.449  34.024  1.00  0.00     0.173 A 
ATOM     62  C   UNL A   1      44.883  26.542  34.860  1.00  0.00     0.173 A 
ATOM     63  F   UNL A   1      46.148  29.570  33.289  1.00  0.00    -0.203 F 
ATOM     64  C   UNL A   1      47.234  28.008  34.676  1.00  0.00     0.198 A 
ATOM     65  C   UNL A   1      46.025  26.117  35.533  1.00  0.00     0.198 A 
ATOM     66  F   UNL A   1      43.764  25.808  34.959  1.00  0.00    -0.203 F 
ATOM     67  F   UNL A   1      48.376  28.698  34.557  1.00  0.00    -0.200 F 
ATOM     68  C   UNL A   1      47.201  26.846  35.434  1.00  0.00     0.200 A 
ATOM     69  F   UNL A   1      45.989  25.000  36.271  1.00  0.00    -0.200 F 
ATOM     70  F   UNL A   1      48.306  26.423  36.062  1.00  0.00    -0.200 F 
ENDBRANCH  37  60
ENDBRANCH  11  12
ENDBRANCH   4   6
ENDBRANCH   1   2
BRANCH   1  71
ATOM     71  C   UNL A   1      32.044  28.035  26.102  1.00  0.00     0.042 C 
BRANCH  71  72
ATOM     72  C   UNL A   1      32.714  26.729  26.475  1.00  0.00     0.118 C 
BRANCH  72  73
ATOM     73  N   UNL A   1      31.809  25.595  26.485  1.00  0.00    -0.351 N 
ATOM     74  C   UNL A   1      31.427  24.791  25.436  1.00  0.00     0.270 C 
ATOM     75  H   UNL A   1      31.416  25.372  27.359  1.00  0.00     0.163 HD
ATOM     76  O   UNL A   1      30.710  23.817  25.658  1.00  0.00    -0.267 OA
BRANCH  74  77
ATOM     77  C   UNL A   1      31.884  25.089  24.047  1.00  0.00     0.135 A 
ATOM     78  N   UNL A   1      31.049  25.935  23.377  1.00  0.00    -0.250 NA
ATOM     79  C   UNL A   1      33.069  24.549  23.516  1.00  0.00     0.013 A 
ATOM     80  C   UNL A   1      31.392  26.263  22.119  1.00  0.00     0.112 A 
ATOM     81  C   UNL A   1      33.376  24.936  22.203  1.00  0.00     0.013 A 
ATOM     82  C   UNL A   1      32.535  25.798  21.497  1.00  0.00     0.021 A 
BRANCH  79  83
ATOM     83  C   UNL A   1      34.000  23.692  24.278  1.00  0.00    -0.013 A 
ATOM     84  C   UNL A   1      33.821  22.294  24.289  1.00  0.00     0.029 A 
ATOM     85  C   UNL A   1      35.140  24.212  24.914  1.00  0.00     0.029 A 
ATOM     86  C   UNL A   1      34.782  21.452  24.852  1.00  0.00     0.043 A 
ATOM     87  C   UNL A   1      36.091  23.358  25.481  1.00  0.00     0.043 A 
ATOM     88  Cl  UNL A   1      34.575  19.747  24.751  1.00  0.00    -0.084 Cl
ATOM     89  C   UNL A   1      35.925  21.977  25.441  1.00  0.00     0.041 A 
ATOM     90  Cl  UNL A   1      37.510  24.021  26.195  1.00  0.00    -0.084 Cl
ENDBRANCH  79  83
ENDBRANCH  74  77
ENDBRANCH  72  73
ENDBRANCH  71  72
ENDBRANCH   1  71
TORSDOF 11
ENDMDL
MODEL 3
REMARK VINA RESULT:     -11.9      1.383      1.907
REMARK SMILES O=C(NCCCNC(=O)c1ncccc1-c1cc(Cl)cc(Cl)c1)c1ccc(-c2c3nc(c(-c4c(F)c(F)c(F)c(F)c4F)c4ccc([nH]4)c(-c4c(F)c(F)c(F)c(F)c4F)c4nc(c(-c5c(F)c(F)c(F)c(F)c5F)c5ccc2[nH]5)C=C4)C=C3)cc1
REMARK SMILES IDX 4 1 3 2 1 3 2 4 24 6 25 7 86 8 26 9 85 10 27 11 28 12 29 13
REMARK SMILES IDX 79 14 30 15 84 16 78 17 80 18 31 19 83 20 77 21 76 22 32 24
REMARK SMILES IDX 64 25 44 26 63 27 45 28 48 29 62 30 81 31 46 32 47 33 61 35
REMARK SMILES IDX 82 36 49 37 33 38 34 39 42 40 35 41 36 42 40 43 43 44 37 45
REMARK SMILES IDX 38 46 41 47 39 48 65 49 66 50 74 51 67 52 68 53 72 54 75 55
REMARK SMILES IDX 69 56 70 57 73 58 71 59 50 60 51 61 59 62 52 63 53 64 57 65
REMARK SMILES IDX 60 66 54 67 55 68 58 69 56 70 5 71 6 72 7 73 8 74 9 76 10 77
REMARK SMILES IDX 11 78 15 79 12 80 14 81 13 82 16 83 17 84 23 85 18 86 21 87
REMARK SMILES IDX 19 88 20 89 22 90
REMARK H PARENT 3 5 80 23 48 34 7 75
REMARK Flexibility Score: inf
ROOT
ATOM      1  C   UNL A   1      33.100  28.724  25.495  1.00  0.00     0.118 C 
ENDROOT
BRANCH   1   2
ATOM      2  N   UNL A   1      32.633  30.042  25.913  1.00  0.00    -0.352 N 
ATOM      3  O   UNL A   1      32.490  31.932  27.133  1.00  0.00    -0.269 OA
ATOM      4  C   UNL A   1      33.137  30.931  26.834  1.00  0.00     0.251 C 
ATOM      5  H   UNL A   1      31.815  30.348  25.458  1.00  0.00     0.163 HD
BRANCH   4   6
ATOM      6  C   UNL A   1      34.436  30.675  27.491  1.00  0.00     0.039 A 
ATOM      7  C   UNL A   1      34.755  29.407  27.970  1.00  0.00     0.014 A 
ATOM      8  C   UNL A   1      35.361  31.716  27.623  1.00  0.00     0.014 A 
ATOM      9  C   UNL A   1      35.876  29.230  28.766  1.00  0.00     0.010 A 
ATOM     10  C   UNL A   1      36.561  31.502  28.310  1.00  0.00     0.010 A 
ATOM     11  C   UNL A   1      36.808  30.267  28.927  1.00  0.00    -0.014 A 
BRANCH  11  12
ATOM     12  C   UNL A   1      38.051  29.994  29.691  1.00  0.00     0.031 A 
ATOM     13  C   UNL A   1      38.235  30.495  31.096  1.00  0.00     0.074 A 
ATOM     14  C   UNL A   1      38.999  29.226  29.117  1.00  0.00     0.049 A 
ATOM     15  N   UNL A   1      39.245  30.310  31.910  1.00  0.00    -0.248 NA
ATOM     16  C   UNL A   1      37.156  31.317  31.662  1.00  0.00     0.031 C 
ATOM     17  C   UNL A   1      38.933  28.692  27.753  1.00  0.00     0.029 A 
ATOM     18  N   UNL A   1      40.180  28.733  29.607  1.00  0.00    -0.354 N 
ATOM     19  C   UNL A   1      38.937  31.012  33.068  1.00  0.00     0.074 A 
ATOM     20  C   UNL A   1      37.653  31.644  32.848  1.00  0.00     0.031 C 
ATOM     21  C   UNL A   1      39.985  27.890  27.542  1.00  0.00     0.029 A 
ATOM     22  C   UNL A   1      40.841  27.916  28.721  1.00  0.00     0.049 A 
ATOM     23  H   UNL A   1      40.522  28.943  30.506  1.00  0.00     0.167 HD
ATOM     24  C   UNL A   1      39.660  31.113  34.209  1.00  0.00     0.037 A 
ATOM     25  C   UNL A   1      42.015  27.272  28.835  1.00  0.00     0.037 A 
ATOM     26  C   UNL A   1      40.925  30.458  34.429  1.00  0.00     0.049 A 
ATOM     27  C   UNL A   1      42.795  27.408  30.109  1.00  0.00     0.074 A 
ATOM     28  C   UNL A   1      41.718  30.470  35.565  1.00  0.00     0.029 A 
ATOM     29  N   UNL A   1      41.581  29.671  33.495  1.00  0.00    -0.354 N 
ATOM     30  N   UNL A   1      42.483  28.063  31.201  1.00  0.00    -0.248 NA
ATOM     31  C   UNL A   1      44.094  26.727  30.163  1.00  0.00     0.031 C 
ATOM     32  C   UNL A   1      42.872  29.725  35.302  1.00  0.00     0.029 A 
ATOM     33  C   UNL A   1      42.779  29.210  34.019  1.00  0.00     0.049 A 
ATOM     34  H   UNL A   1      41.245  29.469  32.591  1.00  0.00     0.167 HD
ATOM     35  C   UNL A   1      43.542  27.869  32.074  1.00  0.00     0.074 A 
ATOM     36  C   UNL A   1      44.493  27.012  31.395  1.00  0.00     0.031 C 
ATOM     37  C   UNL A   1      43.713  28.362  33.324  1.00  0.00     0.037 A 
BRANCH  24  38
ATOM     38  C   UNL A   1      39.115  31.978  35.308  1.00  0.00     0.064 A 
ATOM     39  C   UNL A   1      38.364  31.446  36.366  1.00  0.00     0.173 A 
ATOM     40  C   UNL A   1      39.396  33.354  35.332  1.00  0.00     0.173 A 
ATOM     41  F   UNL A   1      38.057  30.140  36.385  1.00  0.00    -0.203 F 
ATOM     42  C   UNL A   1      37.897  32.261  37.395  1.00  0.00     0.198 A 
ATOM     43  C   UNL A   1      38.949  34.161  36.375  1.00  0.00     0.198 A 
ATOM     44  F   UNL A   1      40.116  33.914  34.348  1.00  0.00    -0.203 F 
ATOM     45  F   UNL A   1      37.148  31.736  38.376  1.00  0.00    -0.200 F 
ATOM     46  C   UNL A   1      38.196  33.615  37.403  1.00  0.00     0.200 A 
ATOM     47  F   UNL A   1      39.250  35.467  36.387  1.00  0.00    -0.200 F 
ATOM     48  F   UNL A   1      37.754  34.395  38.400  1.00  0.00    -0.200 F 
ENDBRANCH  24  38
BRANCH  25  49
ATOM     49  C   UNL A   1      42.519  26.455  27.702  1.00  0.00     0.064 A 
ATOM     50  C   UNL A   1      42.069  25.144  27.500  1.00  0.00     0.173 A 
ATOM     51  C   UNL A   1      43.436  26.981  26.780  1.00  0.00     0.173 A 
ATOM     52  F   UNL A   1      41.205  24.592  28.364  1.00  0.00    -0.203 F 
ATOM     53  C   UNL A   1      42.524  24.387  26.423  1.00  0.00     0.198 A 
ATOM     54  C   UNL A   1      43.867  26.234  25.687  1.00  0.00     0.198 A 
ATOM     55  F   UNL A   1      43.891  28.234  26.927  1.00  0.00    -0.203 F 
ATOM     56  F   UNL A   1      42.105  23.123  26.271  1.00  0.00    -0.200 F 
ATOM     57  C   UNL A   1      43.416  24.935  25.513  1.00  0.00     0.200 A 
ATOM     58  F   UNL A   1      44.714  26.776  24.800  1.00  0.00    -0.200 F 
ATOM     59  F   UNL A   1      43.843  24.211  24.470  1.00  0.00    -0.200 F 
ENDBRANCH  25  49
BRANCH  37  60
ATOM     60  C   UNL A   1      44.972  27.971  34.038  1.00  0.00     0.064 A 
ATOM     61  C   UNL A   1      46.132  28.755  33.956  1.00  0.00     0.173 A 
ATOM     62  C   UNL A   1      45.013  26.812  34.826  1.00  0.00     0.173 A 
ATOM     63  F   UNL A   1      46.146  29.863  33.200  1.00  0.00    -0.203 F 
ATOM     64  C   UNL A   1      47.297  28.378  34.619  1.00  0.00     0.198 A 
ATOM     65  C   UNL A   1      46.171  26.452  35.509  1.00  0.00     0.198 A 
ATOM     66  F   UNL A   1      43.927  26.032  34.937  1.00  0.00    -0.203 F 
ATOM     67  F   UNL A   1      48.408  29.115  34.489  1.00  0.00    -0.200 F 
ATOM     68  C   UNL A   1      47.314  27.230  35.398  1.00  0.00     0.200 A 
ATOM     69  F   UNL A   1      46.182  25.349  36.268  1.00  0.00    -0.200 F 
ATOM     70  F   UNL A   1      48.435  26.869  36.037  1.00  0.00    -0.200 F 
ENDBRANCH  37  60
ENDBRANCH  11  12
ENDBRANCH   4   6
ENDBRANCH   1   2
BRANCH   1  71
ATOM     71  C   UNL A   1      34.143  28.771  24.391  1.00  0.00     0.042 C 
BRANCH  71  72
ATOM     72  C   UNL A   1      33.563  29.044  23.019  1.00  0.00     0.118 C 
BRANCH  72  73
ATOM     73  N   UNL A   1      33.730  27.943  22.089  1.00  0.00    -0.351 N 
ATOM     74  C   UNL A   1      32.861  26.913  21.812  1.00  0.00     0.270 C 
ATOM     75  H   UNL A   1      34.578  27.932  21.591  1.00  0.00     0.163 HD
ATOM     76  O   UNL A   1      33.145  26.113  20.922  1.00  0.00    -0.267 OA
BRANCH  74  77
ATOM     77  C   UNL A   1      31.585  26.772  22.573  1.00  0.00     0.135 A 
ATOM     78  N   UNL A   1      30.697  27.777  22.322  1.00  0.00    -0.250 NA
ATOM     79  C   UNL A   1      31.346  25.693  23.443  1.00  0.00     0.013 A 
ATOM     80  C   UNL A   1      29.515  27.723  22.961  1.00  0.00     0.112 A 
ATOM     81  C   UNL A   1      30.093  25.689  24.073  1.00  0.00     0.013 A 
ATOM     82  C   UNL A   1      29.169  26.708  23.833  1.00  0.00     0.021 A 
BRANCH  79  83
ATOM     83  C   UNL A   1      32.289  24.575  23.650  1.00  0.00    -0.013 A 
ATOM     84  C   UNL A   1      33.507  24.798  24.324  1.00  0.00     0.029 A 
ATOM     85  C   UNL A   1      31.968  23.255  23.293  1.00  0.00     0.029 A 
ATOM     86  C   UNL A   1      34.331  23.731  24.686  1.00  0.00     0.043 A 
ATOM     87  C   UNL A   1      32.807  22.196  23.655  1.00  0.00     0.043 A 
ATOM     88  Cl  UNL A   1      35.757  24.036  25.601  1.00  0.00    -0.084 Cl
ATOM     89  C   UNL A   1      33.982  22.425  24.364  1.00  0.00     0.041 A 
ATOM     90  Cl  UNL A   1      32.356  20.582  23.262  1.00  0.00    -0.084 Cl
ENDBRANCH  79  83
ENDBRANCH  74  77
ENDBRANCH  72  73
ENDBRANCH  71  72
ENDBRANCH   1  71
TORSDOF 11
ENDMDL
