MODEL 1
REMARK VINA RESULT:     -12.2      0.000      0.000
REMARK SMILES O=C(C[C@@H]1CN(C(=O)CCn2cncn2)CCO1)NCCCNC(=O)c1ccc(-c2c3nc(c(-c4c(F)c(F)c(F)c(F)c4F)c4ccc([nH]4)c(-c4c(F)c(F)c(F)c(F)c4F)c4nc(c(-c5c(F)c(F)c(F)c(F)c5F)c5ccc2[nH]5)C=C4)C=C3)cc1
REMARK SMILES IDX 1 1 2 2 19 3 3 5 4 6 5 7 18 8 6 9 17 10 16 11 7 12 8 13 9 14
REMARK SMILES IDX 10 15 11 16 12 17 15 18 13 19 14 20 20 21 21 22 22 23 23 24
REMARK SMILES IDX 24 25 25 27 26 28 27 29 88 30 28 31 87 32 29 33 30 34 31 35
REMARK SMILES IDX 81 36 32 37 86 38 80 39 82 40 33 41 85 42 79 43 78 44 34 46
REMARK SMILES IDX 66 47 46 48 65 49 47 50 50 51 64 52 83 53 48 54 49 55 63 57
REMARK SMILES IDX 84 58 51 59 35 60 36 61 44 62 37 63 38 64 42 65 45 66 39 67
REMARK SMILES IDX 40 68 43 69 41 70 67 71 68 72 76 73 69 74 70 75 74 76 77 77
REMARK SMILES IDX 71 78 72 79 75 80 73 81 52 82 53 83 61 84 54 85 55 86 59 87
REMARK SMILES IDX 62 88 56 89 57 90 60 91 58 92
REMARK H PARENT 19 4 23 26 82 45 50 56
REMARK Flexibility Score: inf
ROOT
ATOM      1  O   UNL A   1      38.976  22.799  26.783  1.00  0.00    -0.275 OA
ATOM      2  C   UNL A   1      38.746  21.962  25.920  1.00  0.00     0.222 C 
ATOM      3  N   UNL A   1      39.514  20.837  25.719  1.00  0.00    -0.356 N 
ATOM      4  H   UNL A   1      39.270  20.228  24.984  1.00  0.00     0.163 HD
ENDROOT
BRANCH   2   5
ATOM      5  C   UNL A   1      37.604  22.095  24.936  1.00  0.00     0.133 C 
BRANCH   5   6
ATOM      6  C   UNL A   1      36.268  21.926  25.661  1.00  0.00     0.147 C 
ATOM      7  C   UNL A   1      35.214  21.400  24.684  1.00  0.00     0.152 C 
ATOM      8  O   UNL A   1      35.860  23.192  26.209  1.00  0.00    -0.374 OA
ATOM      9  N   UNL A   1      33.881  21.336  25.273  1.00  0.00    -0.338 N 
ATOM     10  C   UNL A   1      34.609  23.053  26.910  1.00  0.00     0.182 C 
ATOM     11  C   UNL A   1      33.490  22.554  25.987  1.00  0.00     0.148 C 
BRANCH   9  12
ATOM     12  C   UNL A   1      32.911  20.404  24.943  1.00  0.00     0.224 C 
ATOM     13  O   UNL A   1      31.777  20.444  25.425  1.00  0.00    -0.275 OA
BRANCH  12  14
ATOM     14  C   UNL A   1      33.266  19.268  23.999  1.00  0.00     0.124 C 
BRANCH  14  15
ATOM     15  C   UNL A   1      32.517  17.977  24.309  1.00  0.00     0.156 C 
BRANCH  15  16
ATOM     16  N   UNL A   1      33.357  16.861  24.687  1.00  0.00    -0.252 N 
ATOM     17  C   UNL A   1      32.976  15.615  25.081  1.00  0.00     0.219 A 
ATOM     18  N   UNL A   1      34.697  16.979  24.697  1.00  0.00    -0.160 NA
ATOM     19  N   UNL A   1      34.042  14.909  25.384  1.00  0.00    -0.224 NA
ATOM     20  C   UNL A   1      35.068  15.768  25.119  1.00  0.00     0.246 A 
ENDBRANCH  15  16
ENDBRANCH  14  15
ENDBRANCH  12  14
ENDBRANCH   9  12
ENDBRANCH   5   6
ENDBRANCH   2   5
BRANCH   3  21
ATOM     21  C   UNL A   1      40.670  20.505  26.534  1.00  0.00     0.117 C 
BRANCH  21  22
ATOM     22  C   UNL A   1      41.424  19.279  26.014  1.00  0.00     0.042 C 
BRANCH  22  23
ATOM     23  C   UNL A   1      42.886  19.230  26.439  1.00  0.00     0.118 C 
BRANCH  23  24
ATOM     24  N   UNL A   1      43.821  19.080  25.322  1.00  0.00    -0.352 N 
ATOM     25  C   UNL A   1      44.346  20.070  24.504  1.00  0.00     0.251 C 
ATOM     26  H   UNL A   1      44.114  18.160  25.126  1.00  0.00     0.163 HD
ATOM     27  O   UNL A   1      44.807  19.807  23.408  1.00  0.00    -0.269 OA
BRANCH  25  28
ATOM     28  C   UNL A   1      44.341  21.462  24.995  1.00  0.00     0.039 A 
ATOM     29  C   UNL A   1      43.373  22.384  24.588  1.00  0.00     0.014 A 
ATOM     30  C   UNL A   1      45.315  21.817  25.921  1.00  0.00     0.014 A 
ATOM     31  C   UNL A   1      43.342  23.638  25.196  1.00  0.00     0.010 A 
ATOM     32  C   UNL A   1      45.173  22.971  26.641  1.00  0.00     0.010 A 
ATOM     33  C   UNL A   1      44.232  23.916  26.244  1.00  0.00    -0.014 A 
BRANCH  33  34
ATOM     34  C   UNL A   1      44.123  25.136  27.041  1.00  0.00     0.031 A 
ATOM     35  C   UNL A   1      45.168  26.153  26.740  1.00  0.00     0.074 A 
ATOM     36  C   UNL A   1      43.021  25.420  27.775  1.00  0.00     0.049 A 
ATOM     37  N   UNL A   1      46.075  26.613  27.535  1.00  0.00    -0.248 NA
ATOM     38  C   UNL A   1      45.303  26.630  25.351  1.00  0.00     0.031 C 
ATOM     39  C   UNL A   1      41.788  24.620  27.866  1.00  0.00     0.029 A 
ATOM     40  N   UNL A   1      42.699  26.535  28.496  1.00  0.00    -0.354 N 
ATOM     41  C   UNL A   1      46.740  27.607  26.818  1.00  0.00     0.074 A 
ATOM     42  C   UNL A   1      46.370  27.428  25.441  1.00  0.00     0.031 C 
ATOM     43  C   UNL A   1      40.789  25.372  28.371  1.00  0.00     0.029 A 
ATOM     44  C   UNL A   1      41.349  26.629  28.825  1.00  0.00     0.049 A 
ATOM     45  H   UNL A   1      43.364  27.211  28.759  1.00  0.00     0.167 HD
ATOM     46  C   UNL A   1      47.267  28.681  27.468  1.00  0.00     0.037 A 
ATOM     47  C   UNL A   1      40.721  27.661  29.438  1.00  0.00     0.037 A 
ATOM     48  C   UNL A   1      47.321  28.433  28.886  1.00  0.00     0.049 A 
ATOM     49  C   UNL A   1      41.751  28.451  30.141  1.00  0.00     0.074 A 
ATOM     50  C   UNL A   1      48.116  27.725  29.757  1.00  0.00     0.029 A 
ATOM     51  N   UNL A   1      46.141  28.695  29.528  1.00  0.00    -0.354 N 
ATOM     52  N   UNL A   1      42.417  28.004  31.169  1.00  0.00    -0.248 NA
ATOM     53  C   UNL A   1      42.303  29.640  29.502  1.00  0.00     0.031 C 
ATOM     54  C   UNL A   1      47.311  27.452  30.905  1.00  0.00     0.029 A 
ATOM     55  C   UNL A   1      46.060  28.035  30.723  1.00  0.00     0.049 A 
ATOM     56  H   UNL A   1      45.438  29.285  29.174  1.00  0.00     0.167 HD
ATOM     57  C   UNL A   1      43.666  28.570  31.027  1.00  0.00     0.074 A 
ATOM     58  C   UNL A   1      43.485  29.696  30.121  1.00  0.00     0.031 C 
ATOM     59  C   UNL A   1      44.782  27.870  31.371  1.00  0.00     0.037 A 
BRANCH  46  60
ATOM     60  C   UNL A   1      47.253  30.110  26.954  1.00  0.00     0.064 A 
ATOM     61  C   UNL A   1      48.420  30.894  27.096  1.00  0.00     0.173 A 
ATOM     62  C   UNL A   1      46.079  30.832  26.646  1.00  0.00     0.173 A 
ATOM     63  F   UNL A   1      49.594  30.323  27.405  1.00  0.00    -0.203 F 
ATOM     64  C   UNL A   1      48.392  32.292  27.014  1.00  0.00     0.198 A 
ATOM     65  C   UNL A   1      46.066  32.221  26.514  1.00  0.00     0.198 A 
ATOM     66  F   UNL A   1      44.878  30.248  26.576  1.00  0.00    -0.203 F 
ATOM     67  F   UNL A   1      49.499  32.998  27.278  1.00  0.00    -0.200 F 
ATOM     68  C   UNL A   1      47.213  32.953  26.729  1.00  0.00     0.200 A 
ATOM     69  F   UNL A   1      44.906  32.846  26.262  1.00  0.00    -0.200 F 
ATOM     70  F   UNL A   1      47.168  34.292  26.709  1.00  0.00    -0.200 F 
ENDBRANCH  46  60
BRANCH  47  71
ATOM     71  C   UNL A   1      39.318  28.120  29.345  1.00  0.00     0.064 A 
ATOM     72  C   UNL A   1      38.517  28.239  30.493  1.00  0.00     0.173 A 
ATOM     73  C   UNL A   1      38.840  28.738  28.176  1.00  0.00     0.173 A 
ATOM     74  F   UNL A   1      38.917  27.699  31.654  1.00  0.00    -0.203 F 
ATOM     75  C   UNL A   1      37.331  28.979  30.485  1.00  0.00     0.198 A 
ATOM     76  C   UNL A   1      37.654  29.474  28.168  1.00  0.00     0.198 A 
ATOM     77  F   UNL A   1      39.569  28.721  27.050  1.00  0.00    -0.203 F 
ATOM     78  F   UNL A   1      36.631  29.131  31.618  1.00  0.00    -0.200 F 
ATOM     79  C   UNL A   1      36.910  29.610  29.327  1.00  0.00     0.200 A 
ATOM     80  F   UNL A   1      37.274  30.111  27.051  1.00  0.00    -0.200 F 
ATOM     81  F   UNL A   1      35.815  30.384  29.337  1.00  0.00    -0.200 F 
ENDBRANCH  47  71
BRANCH  59  82
ATOM     82  C   UNL A   1      44.615  26.763  32.360  1.00  0.00     0.064 A 
ATOM     83  C   UNL A   1      44.460  26.944  33.744  1.00  0.00     0.173 A 
ATOM     84  C   UNL A   1      44.558  25.454  31.867  1.00  0.00     0.173 A 
ATOM     85  F   UNL A   1      44.433  28.171  34.279  1.00  0.00    -0.203 F 
ATOM     86  C   UNL A   1      44.298  25.855  34.598  1.00  0.00     0.198 A 
ATOM     87  C   UNL A   1      44.361  24.371  32.717  1.00  0.00     0.198 A 
ATOM     88  F   UNL A   1      44.663  25.229  30.548  1.00  0.00    -0.203 F 
ATOM     89  F   UNL A   1      44.175  26.050  35.920  1.00  0.00    -0.200 F 
ATOM     90  C   UNL A   1      44.242  24.570  34.082  1.00  0.00     0.200 A 
ATOM     91  F   UNL A   1      44.270  23.135  32.208  1.00  0.00    -0.200 F 
ATOM     92  F   UNL A   1      44.058  23.524  34.899  1.00  0.00    -0.200 F 
ENDBRANCH  59  82
ENDBRANCH  33  34
ENDBRANCH  25  28
ENDBRANCH  23  24
ENDBRANCH  22  23
ENDBRANCH  21  22
ENDBRANCH   3  21
TORSDOF 15
ENDMDL
MODEL 2
REMARK VINA RESULT:     -11.8      2.147      3.033
REMARK SMILES O=C(C[C@@H]1CN(C(=O)CCn2cncn2)CCO1)NCCCNC(=O)c1ccc(-c2c3nc(c(-c4c(F)c(F)c(F)c(F)c4F)c4ccc([nH]4)c(-c4c(F)c(F)c(F)c(F)c4F)c4nc(c(-c5c(F)c(F)c(F)c(F)c5F)c5ccc2[nH]5)C=C4)C=C3)cc1
REMARK SMILES IDX 1 1 2 2 19 3 3 5 4 6 5 7 18 8 6 9 17 10 16 11 7 12 8 13 9 14
REMARK SMILES IDX 10 15 11 16 12 17 15 18 13 19 14 20 20 21 21 22 22 23 23 24
REMARK SMILES IDX 24 25 25 27 26 28 27 29 88 30 28 31 87 32 29 33 30 34 31 35
REMARK SMILES IDX 81 36 32 37 86 38 80 39 82 40 33 41 85 42 79 43 78 44 34 46
REMARK SMILES IDX 66 47 46 48 65 49 47 50 50 51 64 52 83 53 48 54 49 55 63 57
REMARK SMILES IDX 84 58 51 59 35 60 36 61 44 62 37 63 38 64 42 65 45 66 39 67
REMARK SMILES IDX 40 68 43 69 41 70 67 71 68 72 76 73 69 74 70 75 74 76 77 77
REMARK SMILES IDX 71 78 72 79 75 80 73 81 52 82 53 83 61 84 54 85 55 86 59 87
REMARK SMILES IDX 62 88 56 89 57 90 60 91 58 92
REMARK H PARENT 19 4 23 26 82 45 50 56
REMARK Flexibility Score: inf
ROOT
ATOM      1  O   UNL A   1      38.168  23.866  26.523  1.00  0.00    -0.275 OA
ATOM      2  C   UNL A   1      38.034  23.003  25.665  1.00  0.00     0.222 C 
ATOM      3  N   UNL A   1      38.809  21.866  25.595  1.00  0.00    -0.356 N 
ATOM      4  H   UNL A   1      38.648  21.236  24.856  1.00  0.00     0.163 HD
ENDROOT
BRANCH   2   5
ATOM      5  C   UNL A   1      37.022  23.113  24.546  1.00  0.00     0.133 C 
BRANCH   5   6
ATOM      6  C   UNL A   1      35.625  22.782  25.071  1.00  0.00     0.147 C 
ATOM      7  C   UNL A   1      34.902  24.073  25.464  1.00  0.00     0.152 C 
ATOM      8  O   UNL A   1      35.737  21.901  26.202  1.00  0.00    -0.374 OA
ATOM      9  N   UNL A   1      33.610  23.826  26.095  1.00  0.00    -0.338 N 
ATOM     10  C   UNL A   1      34.430  21.565  26.704  1.00  0.00     0.182 C 
ATOM     11  C   UNL A   1      33.651  22.809  27.149  1.00  0.00     0.148 C 
BRANCH   9  12
ATOM     12  C   UNL A   1      32.509  24.660  26.001  1.00  0.00     0.224 C 
ATOM     13  O   UNL A   1      32.530  25.819  26.422  1.00  0.00    -0.275 OA
BRANCH  12  14
ATOM     14  C   UNL A   1      31.219  24.120  25.407  1.00  0.00     0.124 C 
BRANCH  14  15
ATOM     15  C   UNL A   1      31.436  23.346  24.111  1.00  0.00     0.156 C 
BRANCH  15  16
ATOM     16  N   UNL A   1      31.945  24.132  23.010  1.00  0.00    -0.252 N 
ATOM     17  C   UNL A   1      33.043  23.895  22.241  1.00  0.00     0.219 A 
ATOM     18  N   UNL A   1      31.333  25.270  22.632  1.00  0.00    -0.160 NA
ATOM     19  N   UNL A   1      33.191  24.874  21.377  1.00  0.00    -0.224 NA
ATOM     20  C   UNL A   1      32.120  25.679  21.635  1.00  0.00     0.246 A 
ENDBRANCH  15  16
ENDBRANCH  14  15
ENDBRANCH  12  14
ENDBRANCH   9  12
ENDBRANCH   5   6
ENDBRANCH   2   5
BRANCH   3  21
ATOM     21  C   UNL A   1      39.853  21.552  26.555  1.00  0.00     0.117 C 
BRANCH  21  22
ATOM     22  C   UNL A   1      40.585  20.250  26.223  1.00  0.00     0.042 C 
BRANCH  22  23
ATOM     23  C   UNL A   1      41.919  20.094  26.942  1.00  0.00     0.118 C 
BRANCH  23  24
ATOM     24  N   UNL A   1      43.038  19.785  26.049  1.00  0.00    -0.352 N 
ATOM     25  C   UNL A   1      43.799  20.665  25.292  1.00  0.00     0.251 C 
ATOM     26  H   UNL A   1      43.281  18.833  25.977  1.00  0.00     0.163 HD
ATOM     27  O   UNL A   1      44.441  20.281  24.332  1.00  0.00    -0.269 OA
BRANCH  25  28
ATOM     28  C   UNL A   1      43.820  22.088  25.682  1.00  0.00     0.039 A 
ATOM     29  C   UNL A   1      43.004  23.035  25.058  1.00  0.00     0.014 A 
ATOM     30  C   UNL A   1      44.656  22.451  26.732  1.00  0.00     0.014 A 
ATOM     31  C   UNL A   1      42.970  24.333  25.567  1.00  0.00     0.010 A 
ATOM     32  C   UNL A   1      44.488  23.665  27.339  1.00  0.00     0.010 A 
ATOM     33  C   UNL A   1      43.698  24.634  26.729  1.00  0.00    -0.014 A 
BRANCH  33  34
ATOM     34  C   UNL A   1      43.554  25.918  27.413  1.00  0.00     0.031 A 
ATOM     35  C   UNL A   1      44.555  26.940  27.001  1.00  0.00     0.074 A 
ATOM     36  C   UNL A   1      42.454  26.227  28.138  1.00  0.00     0.049 A 
ATOM     37  N   UNL A   1      45.457  27.504  27.734  1.00  0.00    -0.248 NA
ATOM     38  C   UNL A   1      44.652  27.292  25.573  1.00  0.00     0.031 C 
ATOM     39  C   UNL A   1      41.254  25.394  28.325  1.00  0.00     0.029 A 
ATOM     40  N   UNL A   1      42.101  27.391  28.760  1.00  0.00    -0.354 N 
ATOM     41  C   UNL A   1      46.072  28.451  26.917  1.00  0.00     0.074 A 
ATOM     42  C   UNL A   1      45.689  28.133  25.569  1.00  0.00     0.031 C 
ATOM     43  C   UNL A   1      40.234  26.153  28.778  1.00  0.00     0.029 A 
ATOM     44  C   UNL A   1      40.753  27.466  29.104  1.00  0.00     0.049 A 
ATOM     45  H   UNL A   1      42.743  28.113  28.948  1.00  0.00     0.167 HD
ATOM     46  C   UNL A   1      46.568  29.600  27.457  1.00  0.00     0.037 A 
ATOM     47  C   UNL A   1      40.095  28.526  29.632  1.00  0.00     0.037 A 
ATOM     48  C   UNL A   1      46.652  29.485  28.891  1.00  0.00     0.049 A 
ATOM     49  C   UNL A   1      41.106  29.415  30.241  1.00  0.00     0.074 A 
ATOM     50  C   UNL A   1      47.487  28.889  29.807  1.00  0.00     0.029 A 
ATOM     51  N   UNL A   1      45.473  29.762  29.527  1.00  0.00    -0.354 N 
ATOM     52  N   UNL A   1      41.804  29.088  31.293  1.00  0.00    -0.248 NA
ATOM     53  C   UNL A   1      41.602  30.559  29.486  1.00  0.00     0.031 C 
ATOM     54  C   UNL A   1      46.710  28.694  30.990  1.00  0.00     0.029 A 
ATOM     55  C   UNL A   1      45.436  29.212  30.779  1.00  0.00     0.049 A 
ATOM     56  H   UNL A   1      44.743  30.291  29.133  1.00  0.00     0.167 HD
ATOM     57  C   UNL A   1      43.027  29.684  31.077  1.00  0.00     0.074 A 
ATOM     58  C   UNL A   1      42.791  30.715  30.075  1.00  0.00     0.031 C 
ATOM     59  C   UNL A   1      44.175  29.060  31.463  1.00  0.00     0.037 A 
BRANCH  46  60
ATOM     60  C   UNL A   1      46.492  30.973  26.815  1.00  0.00     0.064 A 
ATOM     61  C   UNL A   1      47.645  31.789  26.817  1.00  0.00     0.173 A 
ATOM     62  C   UNL A   1      45.286  31.642  26.509  1.00  0.00     0.173 A 
ATOM     63  F   UNL A   1      48.848  31.271  27.110  1.00  0.00    -0.203 F 
ATOM     64  C   UNL A   1      47.580  33.172  26.608  1.00  0.00     0.198 A 
ATOM     65  C   UNL A   1      45.232  33.012  26.251  1.00  0.00     0.198 A 
ATOM     66  F   UNL A   1      44.097  31.032  26.562  1.00  0.00    -0.203 F 
ATOM     67  F   UNL A   1      48.684  33.920  26.742  1.00  0.00    -0.200 F 
ATOM     68  C   UNL A   1      46.372  33.782  26.331  1.00  0.00     0.200 A 
ATOM     69  F   UNL A   1      44.046  33.589  26.009  1.00  0.00    -0.200 F 
ATOM     70  F   UNL A   1      46.294  35.112  26.191  1.00  0.00    -0.200 F 
ENDBRANCH  46  60
BRANCH  47  71
ATOM     71  C   UNL A   1      38.675  28.923  29.523  1.00  0.00     0.064 A 
ATOM     72  C   UNL A   1      37.887  29.115  30.671  1.00  0.00     0.173 A 
ATOM     73  C   UNL A   1      38.157  29.416  28.313  1.00  0.00     0.173 A 
ATOM     74  F   UNL A   1      38.323  28.697  31.867  1.00  0.00    -0.203 F 
ATOM     75  C   UNL A   1      36.673  29.807  30.618  1.00  0.00     0.198 A 
ATOM     76  C   UNL A   1      36.944  30.104  28.261  1.00  0.00     0.198 A 
ATOM     77  F   UNL A   1      38.869  29.325  27.180  1.00  0.00    -0.203 F 
ATOM     78  F   UNL A   1      35.985  30.035  31.745  1.00  0.00    -0.200 F 
ATOM     79  C   UNL A   1      36.212  30.316  29.416  1.00  0.00     0.200 A 
ATOM     80  F   UNL A   1      36.523  30.624  27.098  1.00  0.00    -0.200 F 
ATOM     81  F   UNL A   1      35.088  31.047  29.377  1.00  0.00    -0.200 F 
ENDBRANCH  47  71
BRANCH  59  82
ATOM     82  C   UNL A   1      44.064  28.043  32.552  1.00  0.00     0.064 A 
ATOM     83  C   UNL A   1      43.996  26.656  32.345  1.00  0.00     0.173 A 
ATOM     84  C   UNL A   1      44.079  28.502  33.874  1.00  0.00     0.173 A 
ATOM     85  F   UNL A   1      44.049  26.140  31.111  1.00  0.00    -0.203 F 
ATOM     86  C   UNL A   1      43.905  25.773  33.419  1.00  0.00     0.198 A 
ATOM     87  C   UNL A   1      44.023  27.618  34.945  1.00  0.00     0.198 A 
ATOM     88  F   UNL A   1      44.180  29.817  34.126  1.00  0.00    -0.203 F 
ATOM     89  F   UNL A   1      43.818  24.452  33.199  1.00  0.00    -0.200 F 
ATOM     90  C   UNL A   1      43.925  26.255  34.718  1.00  0.00     0.200 A 
ATOM     91  F   UNL A   1      44.081  28.088  36.198  1.00  0.00    -0.200 F 
ATOM     92  F   UNL A   1      43.866  25.405  35.752  1.00  0.00    -0.200 F 
ENDBRANCH  59  82
ENDBRANCH  33  34
ENDBRANCH  25  28
ENDBRANCH  23  24
ENDBRANCH  22  23
ENDBRANCH  21  22
ENDBRANCH   3  21
TORSDOF 15
ENDMDL
MODEL 3
REMARK VINA RESULT:     -11.7      2.318      3.515
REMARK SMILES O=C(C[C@@H]1CN(C(=O)CCn2cncn2)CCO1)NCCCNC(=O)c1ccc(-c2c3nc(c(-c4c(F)c(F)c(F)c(F)c4F)c4ccc([nH]4)c(-c4c(F)c(F)c(F)c(F)c4F)c4nc(c(-c5c(F)c(F)c(F)c(F)c5F)c5ccc2[nH]5)C=C4)C=C3)cc1
REMARK SMILES IDX 1 1 2 2 19 3 3 5 4 6 5 7 18 8 6 9 17 10 16 11 7 12 8 13 9 14
REMARK SMILES IDX 10 15 11 16 12 17 15 18 13 19 14 20 20 21 21 22 22 23 23 24
REMARK SMILES IDX 24 25 25 27 26 28 27 29 88 30 28 31 87 32 29 33 30 34 31 35
REMARK SMILES IDX 81 36 32 37 86 38 80 39 82 40 33 41 85 42 79 43 78 44 34 46
REMARK SMILES IDX 66 47 46 48 65 49 47 50 50 51 64 52 83 53 48 54 49 55 63 57
REMARK SMILES IDX 84 58 51 59 35 60 36 61 44 62 37 63 38 64 42 65 45 66 39 67
REMARK SMILES IDX 40 68 43 69 41 70 67 71 68 72 76 73 69 74 70 75 74 76 77 77
REMARK SMILES IDX 71 78 72 79 75 80 73 81 52 82 53 83 61 84 54 85 55 86 59 87
REMARK SMILES IDX 62 88 56 89 57 90 60 91 58 92
REMARK H PARENT 19 4 23 26 82 45 50 56
REMARK Flexibility Score: inf
ROOT
ATOM      1  O   UNL A   1      36.856  24.021  25.729  1.00  0.00    -0.275 OA
ATOM      2  C   UNL A   1      37.182  23.220  24.862  1.00  0.00     0.222 C 
ATOM      3  N   UNL A   1      38.166  22.271  25.026  1.00  0.00    -0.356 N 
ATOM      4  H   UNL A   1      38.381  21.683  24.266  1.00  0.00     0.163 HD
ENDROOT
BRANCH   2   5
ATOM      5  C   UNL A   1      36.566  23.216  23.480  1.00  0.00     0.133 C 
BRANCH   5   6
ATOM      6  C   UNL A   1      35.041  23.171  23.588  1.00  0.00     0.147 C 
ATOM      7  C   UNL A   1      34.604  21.824  24.168  1.00  0.00     0.152 C 
ATOM      8  O   UNL A   1      34.466  23.370  22.285  1.00  0.00    -0.374 OA
ATOM      9  N   UNL A   1      33.155  21.659  24.181  1.00  0.00    -0.338 N 
ATOM     10  C   UNL A   1      33.028  23.347  22.366  1.00  0.00     0.182 C 
ATOM     11  C   UNL A   1      32.508  22.012  22.914  1.00  0.00     0.148 C 
BRANCH   9  12
ATOM     12  C   UNL A   1      32.447  20.933  25.123  1.00  0.00     0.224 C 
ATOM     13  O   UNL A   1      31.303  21.244  25.463  1.00  0.00    -0.275 OA
BRANCH  12  14
ATOM     14  C   UNL A   1      33.114  19.747  25.799  1.00  0.00     0.124 C 
BRANCH  14  15
ATOM     15  C   UNL A   1      32.420  18.422  25.501  1.00  0.00     0.156 C 
BRANCH  15  16
ATOM     16  N   UNL A   1      33.225  17.461  24.780  1.00  0.00    -0.252 N 
ATOM     17  C   UNL A   1      33.884  16.375  25.271  1.00  0.00     0.219 A 
ATOM     18  N   UNL A   1      33.421  17.581  23.454  1.00  0.00    -0.160 NA
ATOM     19  N   UNL A   1      34.542  15.787  24.298  1.00  0.00    -0.224 NA
ATOM     20  C   UNL A   1      34.219  16.540  23.207  1.00  0.00     0.246 A 
ENDBRANCH  15  16
ENDBRANCH  14  15
ENDBRANCH  12  14
ENDBRANCH   9  12
ENDBRANCH   5   6
ENDBRANCH   2   5
BRANCH   3  21
ATOM     21  C   UNL A   1      38.905  22.095  26.265  1.00  0.00     0.117 C 
BRANCH  21  22
ATOM     22  C   UNL A   1      39.707  20.792  26.292  1.00  0.00     0.042 C 
BRANCH  22  23
ATOM     23  C   UNL A   1      41.051  20.910  26.998  1.00  0.00     0.118 C 
BRANCH  23  24
ATOM     24  N   UNL A   1      42.172  21.174  26.093  1.00  0.00    -0.352 N 
ATOM     25  C   UNL A   1      42.709  22.400  25.728  1.00  0.00     0.251 C 
ATOM     26  H   UNL A   1      42.599  20.381  25.694  1.00  0.00     0.163 HD
ATOM     27  O   UNL A   1      43.376  22.522  24.717  1.00  0.00    -0.269 OA
BRANCH  25  28
ATOM     28  C   UNL A   1      42.460  23.563  26.601  1.00  0.00     0.039 A 
ATOM     29  C   UNL A   1      43.092  23.703  27.840  1.00  0.00     0.014 A 
ATOM     30  C   UNL A   1      41.600  24.546  26.127  1.00  0.00     0.014 A 
ATOM     31  C   UNL A   1      42.921  24.890  28.552  1.00  0.00     0.010 A 
ATOM     32  C   UNL A   1      41.578  25.772  26.734  1.00  0.00     0.010 A 
ATOM     33  C   UNL A   1      42.180  25.934  27.977  1.00  0.00    -0.014 A 
BRANCH  33  34
ATOM     34  C   UNL A   1      42.124  27.261  28.588  1.00  0.00     0.031 A 
ATOM     35  C   UNL A   1      43.241  28.160  28.186  1.00  0.00     0.074 A 
ATOM     36  C   UNL A   1      41.021  27.712  29.229  1.00  0.00     0.049 A 
ATOM     37  N   UNL A   1      44.152  28.676  28.943  1.00  0.00    -0.248 NA
ATOM     38  C   UNL A   1      43.449  28.422  26.750  1.00  0.00     0.031 C 
ATOM     39  C   UNL A   1      39.738  27.008  29.385  1.00  0.00     0.029 A 
ATOM     40  N   UNL A   1      40.750  28.937  29.771  1.00  0.00    -0.354 N 
ATOM     41  C   UNL A   1      44.900  29.515  28.117  1.00  0.00     0.074 A 
ATOM     42  C   UNL A   1      44.562  29.161  26.767  1.00  0.00     0.031 C 
ATOM     43  C   UNL A   1      38.773  27.883  29.738  1.00  0.00     0.029 A 
ATOM     44  C   UNL A   1      39.399  29.158  30.030  1.00  0.00     0.049 A 
ATOM     45  H   UNL A   1      41.448  29.604  29.961  1.00  0.00     0.167 HD
ATOM     46  C   UNL A   1      45.475  30.639  28.628  1.00  0.00     0.037 A 
ATOM     47  C   UNL A   1      38.820  30.302  30.464  1.00  0.00     0.037 A 
ATOM     48  C   UNL A   1      45.469  30.596  30.069  1.00  0.00     0.049 A 
ATOM     49  C   UNL A   1      39.877  31.124  31.088  1.00  0.00     0.074 A 
ATOM     50  C   UNL A   1      46.191  29.975  31.062  1.00  0.00     0.029 A 
ATOM     51  N   UNL A   1      44.290  31.017  30.619  1.00  0.00    -0.354 N 
ATOM     52  N   UNL A   1      40.481  30.791  32.194  1.00  0.00    -0.248 NA
ATOM     53  C   UNL A   1      40.522  32.173  30.307  1.00  0.00     0.031 C 
ATOM     54  C   UNL A   1      45.335  29.920  32.205  1.00  0.00     0.029 A 
ATOM     55  C   UNL A   1      44.131  30.543  31.892  1.00  0.00     0.049 A 
ATOM     56  H   UNL A   1      43.637  31.590  30.157  1.00  0.00     0.167 HD
ATOM     57  C   UNL A   1      41.767  31.256  32.022  1.00  0.00     0.074 A 
ATOM     58  C   UNL A   1      41.687  32.249  30.958  1.00  0.00     0.031 C 
ATOM     59  C   UNL A   1      42.825  30.549  32.506  1.00  0.00     0.037 A 
BRANCH  46  60
ATOM     60  C   UNL A   1      45.568  31.976  27.916  1.00  0.00     0.064 A 
ATOM     61  C   UNL A   1      44.375  32.609  27.499  1.00  0.00     0.173 A 
ATOM     62  C   UNL A   1      46.751  32.489  27.339  1.00  0.00     0.173 A 
ATOM     63  F   UNL A   1      43.186  32.199  27.965  1.00  0.00    -0.203 F 
ATOM     64  C   UNL A   1      44.367  33.615  26.526  1.00  0.00     0.198 A 
ATOM     65  C   UNL A   1      46.743  33.527  26.407  1.00  0.00     0.198 A 
ATOM     66  F   UNL A   1      47.949  31.936  27.555  1.00  0.00    -0.203 F 
ATOM     67  F   UNL A   1      43.201  34.097  26.074  1.00  0.00    -0.200 F 
ATOM     68  C   UNL A   1      45.551  34.069  25.976  1.00  0.00     0.200 A 
ATOM     69  F   UNL A   1      47.901  33.935  25.867  1.00  0.00    -0.200 F 
ATOM     70  F   UNL A   1      45.545  34.988  25.002  1.00  0.00    -0.200 F 
ENDBRANCH  46  60
BRANCH  47  71
ATOM     71  C   UNL A   1      37.453  30.825  30.251  1.00  0.00     0.064 A 
ATOM     72  C   UNL A   1      36.631  31.168  31.338  1.00  0.00     0.173 A 
ATOM     73  C   UNL A   1      37.047  31.282  28.985  1.00  0.00     0.173 A 
ATOM     74  F   UNL A   1      36.964  30.792  32.581  1.00  0.00    -0.203 F 
ATOM     75  C   UNL A   1      35.496  31.968  31.174  1.00  0.00     0.198 A 
ATOM     76  C   UNL A   1      35.912  32.078  28.822  1.00  0.00     0.198 A 
ATOM     77  F   UNL A   1      37.802  31.047  27.902  1.00  0.00    -0.203 F 
ATOM     78  F   UNL A   1      34.778  32.336  32.244  1.00  0.00    -0.200 F 
ATOM     79  C   UNL A   1      35.148  32.436  29.918  1.00  0.00     0.200 A 
ATOM     80  F   UNL A   1      35.603  32.556  27.607  1.00  0.00    -0.200 F 
ATOM     81  F   UNL A   1      34.105  33.267  29.771  1.00  0.00    -0.200 F 
ENDBRANCH  47  71
BRANCH  59  82
ATOM     82  C   UNL A   1      42.557  29.608  33.636  1.00  0.00     0.064 A 
ATOM     83  C   UNL A   1      42.242  28.249  33.485  1.00  0.00     0.173 A 
ATOM     84  C   UNL A   1      42.676  30.106  34.938  1.00  0.00     0.173 A 
ATOM     85  F   UNL A   1      42.180  27.686  32.271  1.00  0.00    -0.203 F 
ATOM     86  C   UNL A   1      42.016  27.436  34.594  1.00  0.00     0.198 A 
ATOM     87  C   UNL A   1      42.485  29.286  36.044  1.00  0.00     0.198 A 
ATOM     88  F   UNL A   1      43.012  31.391  35.138  1.00  0.00    -0.203 F 
ATOM     89  F   UNL A   1      41.694  26.144  34.427  1.00  0.00    -0.200 F 
ATOM     90  C   UNL A   1      42.144  27.954  35.872  1.00  0.00     0.200 A 
ATOM     91  F   UNL A   1      42.647  29.784  37.277  1.00  0.00    -0.200 F 
ATOM     92  F   UNL A   1      41.955  27.167  36.940  1.00  0.00    -0.200 F 
ENDBRANCH  59  82
ENDBRANCH  33  34
ENDBRANCH  25  28
ENDBRANCH  23  24
ENDBRANCH  22  23
ENDBRANCH  21  22
ENDBRANCH   3  21
TORSDOF 15
ENDMDL
