MODEL 1
REMARK VINA RESULT:     -12.1      0.000      0.000
REMARK SMILES CC(C)(O)C#Cc1ccc(C(=O)N[C@@H](CCC(N)=O)C(=O)NCCCNC(=O)c2ccc(-c3c4nc(c(-c5c(F)c(F)c(F)c(F)c5F)c5ccc([nH]5)c(-c5c(F)c(F)c(F)c(F)c5F)c5nc(c(-c6c(F)c(F)c(F)c(F)c6F)c6ccc3[nH]6)C=C5)C=C4)cc2)s1
REMARK SMILES IDX 20 1 21 2 22 3 14 5 13 6 11 7 12 8 10 10 7 11 8 12 92 13
REMARK SMILES IDX 9 14 6 15 5 16 2 17 1 18 3 19 4 20 15 22 16 23 17 24 18 25
REMARK SMILES IDX 19 26 23 29 24 30 25 31 26 32 27 33 28 35 29 36 30 37 91 38
REMARK SMILES IDX 31 39 90 40 32 41 33 42 34 43 84 44 35 45 89 46 83 47 85 48
REMARK SMILES IDX 36 49 88 50 82 51 81 52 37 54 69 55 49 56 68 57 50 58 53 59
REMARK SMILES IDX 67 60 86 61 51 62 52 63 66 65 87 66 54 67 38 68 39 69 47 70
REMARK SMILES IDX 40 71 41 72 45 73 48 74 42 75 43 76 46 77 44 78 70 79 71 80
REMARK SMILES IDX 79 81 72 82 73 83 77 84 80 85 74 86 75 87 78 88 76 89 55 90
REMARK SMILES IDX 56 91 64 92 57 93 58 94 62 95 65 96 59 97 60 98 63 99 61 100
REMARK H PARENT 22 4 13 9 4 21 18 27 18 28 26 34 85 53 53 64
REMARK Flexibility Score: inf
ROOT
ATOM      1  C   UNL A   1      31.751  27.598  26.360  1.00  0.00     0.242 C 
ATOM      2  O   UNL A   1      31.144  26.647  26.858  1.00  0.00    -0.273 OA
ATOM      3  N   UNL A   1      32.603  28.291  27.176  1.00  0.00    -0.354 N 
ATOM      4  H   UNL A   1      32.547  28.059  28.131  1.00  0.00     0.163 HD
ENDROOT
BRANCH   1   5
ATOM      5  C   UNL A   1      31.523  28.015  24.890  1.00  0.00     0.172 C 
BRANCH   5   6
ATOM      6  N   UNL A   1      32.660  27.510  24.096  1.00  0.00    -0.340 N 
ATOM      7  C   UNL A   1      32.857  26.312  23.440  1.00  0.00     0.262 C 
ATOM      8  O   UNL A   1      33.792  26.295  22.635  1.00  0.00    -0.268 OA
ATOM      9  H   UNL A   1      33.413  28.140  24.022  1.00  0.00     0.164 HD
BRANCH   7  10
ATOM     10  C   UNL A   1      32.147  25.110  23.820  1.00  0.00     0.093 A 
ATOM     11  C   UNL A   1      31.872  22.768  24.272  1.00  0.00     0.078 A 
ATOM     12  C   UNL A   1      30.824  23.233  23.508  1.00  0.00     0.030 A 
ATOM     13  S   UNL A   1      32.607  24.064  25.091  1.00  0.00    -0.121 S 
ATOM     14  C   UNL A   1      30.961  24.638  23.276  1.00  0.00     0.027 A 
BRANCH  11  15
ATOM     15  C   UNL A   1      32.269  21.420  24.435  1.00  0.00    -0.053 C 
ATOM     16  C   UNL A   1      32.670  20.212  24.715  1.00  0.00    -0.063 C 
BRANCH  16  17
ATOM     17  C   UNL A   1      33.136  18.803  25.043  1.00  0.00     0.120 C 
ATOM     18  C   UNL A   1      34.618  18.657  24.704  1.00  0.00     0.056 C 
ATOM     19  C   UNL A   1      32.289  17.788  24.280  1.00  0.00     0.056 C 
BRANCH  17  20
ATOM     20  O   UNL A   1      32.960  18.595  26.441  1.00  0.00    -0.378 OA
ATOM     21  H   UNL A   1      32.233  19.151  26.762  1.00  0.00     0.212 HD
ENDBRANCH  17  20
ENDBRANCH  16  17
ENDBRANCH  11  15
ENDBRANCH   7  10
ENDBRANCH   5   6
BRANCH   5  22
ATOM     22  C   UNL A   1      30.141  27.836  24.229  1.00  0.00     0.045 C 
BRANCH  22  23
ATOM     23  C   UNL A   1      29.896  28.177  22.763  1.00  0.00     0.102 C 
BRANCH  23  24
ATOM     24  C   UNL A   1      29.863  29.660  22.466  1.00  0.00     0.217 C 
ATOM     25  N   UNL A   1      30.832  30.090  21.610  1.00  0.00    -0.370 N 
ATOM     26  O   UNL A   1      29.055  30.443  22.946  1.00  0.00    -0.275 OA
ATOM     27  H   UNL A   1      31.475  29.448  21.232  1.00  0.00     0.159 HD
ATOM     28  H   UNL A   1      30.888  31.043  21.369  1.00  0.00     0.159 HD
ENDBRANCH  23  24
ENDBRANCH  22  23
ENDBRANCH   5  22
ENDBRANCH   1   5
BRANCH   3  29
ATOM     29  C   UNL A   1      33.574  29.312  26.849  1.00  0.00     0.117 C 
BRANCH  29  30
ATOM     30  C   UNL A   1      33.212  30.707  27.337  1.00  0.00     0.042 C 
BRANCH  30  31
ATOM     31  C   UNL A   1      34.445  31.508  27.714  1.00  0.00     0.118 C 
BRANCH  31  32
ATOM     32  N   UNL A   1      34.423  31.961  29.108  1.00  0.00    -0.352 N 
ATOM     33  C   UNL A   1      35.335  31.672  30.105  1.00  0.00     0.251 C 
ATOM     34  H   UNL A   1      33.669  32.540  29.364  1.00  0.00     0.163 HD
ATOM     35  O   UNL A   1      35.115  31.922  31.274  1.00  0.00    -0.269 OA
BRANCH  33  36
ATOM     36  C   UNL A   1      36.584  31.018  29.687  1.00  0.00     0.039 A 
ATOM     37  C   UNL A   1      37.757  31.764  29.564  1.00  0.00     0.014 A 
ATOM     38  C   UNL A   1      36.591  29.628  29.645  1.00  0.00     0.014 A 
ATOM     39  C   UNL A   1      38.975  31.091  29.515  1.00  0.00     0.010 A 
ATOM     40  C   UNL A   1      37.800  28.977  29.733  1.00  0.00     0.010 A 
ATOM     41  C   UNL A   1      38.999  29.694  29.648  1.00  0.00    -0.014 A 
BRANCH  41  42
ATOM     42  C   UNL A   1      40.273  28.992  29.847  1.00  0.00     0.031 A 
ATOM     43  C   UNL A   1      40.729  28.811  31.263  1.00  0.00     0.074 A 
ATOM     44  C   UNL A   1      40.881  28.308  28.853  1.00  0.00     0.049 A 
ATOM     45  N   UNL A   1      41.868  29.135  31.788  1.00  0.00    -0.248 NA
ATOM     46  C   UNL A   1      39.779  28.236  32.231  1.00  0.00     0.031 C 
ATOM     47  C   UNL A   1      40.412  28.113  27.476  1.00  0.00     0.029 A 
ATOM     48  N   UNL A   1      41.988  27.515  28.910  1.00  0.00    -0.354 N 
ATOM     49  C   UNL A   1      41.847  28.671  33.107  1.00  0.00     0.074 A 
ATOM     50  C   UNL A   1      40.498  28.235  33.357  1.00  0.00     0.031 C 
ATOM     51  C   UNL A   1      41.066  27.072  26.921  1.00  0.00     0.029 A 
ATOM     52  C   UNL A   1      42.121  26.660  27.825  1.00  0.00     0.049 A 
ATOM     53  H   UNL A   1      42.634  27.544  29.653  1.00  0.00     0.167 HD
ATOM     54  C   UNL A   1      42.993  28.499  33.825  1.00  0.00     0.037 A 
ATOM     55  C   UNL A   1      43.018  25.661  27.674  1.00  0.00     0.037 A 
ATOM     56  C   UNL A   1      44.091  29.219  33.236  1.00  0.00     0.049 A 
ATOM     57  C   UNL A   1      44.140  25.924  28.600  1.00  0.00     0.074 A 
ATOM     58  C   UNL A   1      44.384  30.545  32.991  1.00  0.00     0.029 A 
ATOM     59  N   UNL A   1      44.999  28.497  32.506  1.00  0.00    -0.354 N 
ATOM     60  N   UNL A   1      44.965  26.926  28.481  1.00  0.00    -0.248 NA
ATOM     61  C   UNL A   1      44.131  25.275  29.900  1.00  0.00     0.031 C 
ATOM     62  C   UNL A   1      45.134  30.541  31.777  1.00  0.00     0.029 A 
ATOM     63  C   UNL A   1      45.287  29.213  31.377  1.00  0.00     0.049 A 
ATOM     64  H   UNL A   1      45.375  27.621  32.749  1.00  0.00     0.167 HD
ATOM     65  C   UNL A   1      45.248  27.303  29.784  1.00  0.00     0.074 A 
ATOM     66  C   UNL A   1      44.832  26.169  30.601  1.00  0.00     0.031 C 
ATOM     67  C   UNL A   1      45.524  28.605  30.088  1.00  0.00     0.037 A 
BRANCH  54  68
ATOM     68  C   UNL A   1      43.237  27.400  34.843  1.00  0.00     0.064 A 
ATOM     69  C   UNL A   1      43.576  27.754  36.169  1.00  0.00     0.173 A 
ATOM     70  C   UNL A   1      43.481  26.054  34.500  1.00  0.00     0.173 A 
ATOM     71  F   UNL A   1      43.389  29.007  36.613  1.00  0.00    -0.203 F 
ATOM     72  C   UNL A   1      44.212  26.862  37.038  1.00  0.00     0.198 A 
ATOM     73  C   UNL A   1      44.068  25.150  35.389  1.00  0.00     0.198 A 
ATOM     74  F   UNL A   1      43.269  25.584  33.266  1.00  0.00    -0.203 F 
ATOM     75  F   UNL A   1      44.644  27.289  38.232  1.00  0.00    -0.200 F 
ATOM     76  C   UNL A   1      44.469  25.564  36.642  1.00  0.00     0.200 A 
ATOM     77  F   UNL A   1      44.319  23.898  34.984  1.00  0.00    -0.200 F 
ATOM     78  F   UNL A   1      45.143  24.727  37.442  1.00  0.00    -0.200 F 
ENDBRANCH  54  68
BRANCH  55  79
ATOM     79  C   UNL A   1      42.853  24.389  26.941  1.00  0.00     0.064 A 
ATOM     80  C   UNL A   1      43.549  24.138  25.751  1.00  0.00     0.173 A 
ATOM     81  C   UNL A   1      42.196  23.290  27.532  1.00  0.00     0.173 A 
ATOM     82  F   UNL A   1      44.232  25.123  25.151  1.00  0.00    -0.203 F 
ATOM     83  C   UNL A   1      43.607  22.857  25.195  1.00  0.00     0.198 A 
ATOM     84  C   UNL A   1      42.246  22.014  26.972  1.00  0.00     0.198 A 
ATOM     85  F   UNL A   1      41.572  23.417  28.712  1.00  0.00    -0.203 F 
ATOM     86  F   UNL A   1      44.333  22.641  24.089  1.00  0.00    -0.200 F 
ATOM     87  C   UNL A   1      42.963  21.795  25.810  1.00  0.00     0.200 A 
ATOM     88  F   UNL A   1      41.649  20.989  27.596  1.00  0.00    -0.200 F 
ATOM     89  F   UNL A   1      43.069  20.556  25.309  1.00  0.00    -0.200 F 
ENDBRANCH  55  79
BRANCH  67  90
ATOM     90  C   UNL A   1      45.851  29.532  28.953  1.00  0.00     0.064 A 
ATOM     91  C   UNL A   1      44.894  30.287  28.252  1.00  0.00     0.173 A 
ATOM     92  C   UNL A   1      47.199  29.761  28.651  1.00  0.00     0.173 A 
ATOM     93  F   UNL A   1      43.594  30.204  28.552  1.00  0.00    -0.203 F 
ATOM     94  C   UNL A   1      45.271  31.191  27.260  1.00  0.00     0.198 A 
ATOM     95  C   UNL A   1      47.575  30.692  27.688  1.00  0.00     0.198 A 
ATOM     96  F   UNL A   1      48.158  29.113  29.331  1.00  0.00    -0.203 F 
ATOM     97  F   UNL A   1      44.337  31.887  26.596  1.00  0.00    -0.200 F 
ATOM     98  C   UNL A   1      46.612  31.398  26.985  1.00  0.00     0.200 A 
ATOM     99  F   UNL A   1      48.875  30.926  27.460  1.00  0.00    -0.200 F 
ATOM    100  F   UNL A   1      46.977  32.296  26.060  1.00  0.00    -0.200 F 
ENDBRANCH  67  90
ENDBRANCH  41  42
ENDBRANCH  33  36
ENDBRANCH  31  32
ENDBRANCH  30  31
ENDBRANCH  29  30
ENDBRANCH   3  29
TORSDOF 18
ENDMDL
MODEL 2
REMARK VINA RESULT:     -12.0      3.291      9.100
REMARK SMILES CC(C)(O)C#Cc1ccc(C(=O)N[C@@H](CCC(N)=O)C(=O)NCCCNC(=O)c2ccc(-c3c4nc(c(-c5c(F)c(F)c(F)c(F)c5F)c5ccc([nH]5)c(-c5c(F)c(F)c(F)c(F)c5F)c5nc(c(-c6c(F)c(F)c(F)c(F)c6F)c6ccc3[nH]6)C=C5)C=C4)cc2)s1
REMARK SMILES IDX 20 1 21 2 22 3 14 5 13 6 11 7 12 8 10 10 7 11 8 12 92 13
REMARK SMILES IDX 9 14 6 15 5 16 2 17 1 18 3 19 4 20 15 22 16 23 17 24 18 25
REMARK SMILES IDX 19 26 23 29 24 30 25 31 26 32 27 33 28 35 29 36 30 37 91 38
REMARK SMILES IDX 31 39 90 40 32 41 33 42 34 43 84 44 35 45 89 46 83 47 85 48
REMARK SMILES IDX 36 49 88 50 82 51 81 52 37 54 69 55 49 56 68 57 50 58 53 59
REMARK SMILES IDX 67 60 86 61 51 62 52 63 66 65 87 66 54 67 38 68 39 69 47 70
REMARK SMILES IDX 40 71 41 72 45 73 48 74 42 75 43 76 46 77 44 78 70 79 71 80
REMARK SMILES IDX 79 81 72 82 73 83 77 84 80 85 74 86 75 87 78 88 76 89 55 90
REMARK SMILES IDX 56 91 64 92 57 93 58 94 62 95 65 96 59 97 60 98 63 99 61 100
REMARK H PARENT 22 4 13 9 4 21 18 27 18 28 26 34 85 53 53 64
REMARK Flexibility Score: inf
ROOT
ATOM      1  C   UNL A   1      34.746  23.088  25.734  1.00  0.00     0.242 C 
ATOM      2  O   UNL A   1      34.402  23.616  26.794  1.00  0.00    -0.273 OA
ATOM      3  N   UNL A   1      36.087  22.899  25.537  1.00  0.00    -0.354 N 
ATOM      4  H   UNL A   1      36.671  23.336  26.198  1.00  0.00     0.163 HD
ENDROOT
BRANCH   1   5
ATOM      5  C   UNL A   1      33.709  22.698  24.656  1.00  0.00     0.172 C 
BRANCH   5   6
ATOM      6  N   UNL A   1      33.974  23.519  23.459  1.00  0.00    -0.340 N 
ATOM      7  C   UNL A   1      33.668  24.833  23.164  1.00  0.00     0.262 C 
ATOM      8  O   UNL A   1      34.266  25.312  22.197  1.00  0.00    -0.268 OA
ATOM      9  H   UNL A   1      34.455  23.046  22.742  1.00  0.00     0.164 HD
BRANCH   7  10
ATOM     10  C   UNL A   1      32.580  25.526  23.818  1.00  0.00     0.093 A 
ATOM     11  C   UNL A   1      30.777  27.099  24.014  1.00  0.00     0.078 A 
ATOM     12  C   UNL A   1      31.577  27.149  25.134  1.00  0.00     0.030 A 
ATOM     13  S   UNL A   1      30.977  25.605  23.228  1.00  0.00    -0.121 S 
ATOM     14  C   UNL A   1      32.625  26.180  25.041  1.00  0.00     0.027 A 
BRANCH  11  15
ATOM     15  C   UNL A   1      29.862  28.088  23.582  1.00  0.00    -0.053 C 
ATOM     16  C   UNL A   1      28.925  28.896  23.170  1.00  0.00    -0.063 C 
BRANCH  16  17
ATOM     17  C   UNL A   1      27.833  29.838  22.690  1.00  0.00     0.120 C 
ATOM     18  C   UNL A   1      28.110  30.258  21.248  1.00  0.00     0.056 C 
ATOM     19  C   UNL A   1      27.751  31.049  23.616  1.00  0.00     0.056 C 
BRANCH  17  20
ATOM     20  O   UNL A   1      26.595  29.135  22.736  1.00  0.00    -0.378 OA
ATOM     21  H   UNL A   1      26.089  29.319  21.928  1.00  0.00     0.212 HD
ENDBRANCH  17  20
ENDBRANCH  16  17
ENDBRANCH  11  15
ENDBRANCH   7  10
ENDBRANCH   5   6
BRANCH   5  22
ATOM     22  C   UNL A   1      33.396  21.216  24.370  1.00  0.00     0.045 C 
BRANCH  22  23
ATOM     23  C   UNL A   1      33.535  20.139  25.442  1.00  0.00     0.102 C 
BRANCH  23  24
ATOM     24  C   UNL A   1      33.017  18.779  25.028  1.00  0.00     0.217 C 
ATOM     25  N   UNL A   1      33.579  18.278  23.892  1.00  0.00    -0.370 N 
ATOM     26  O   UNL A   1      32.156  18.154  25.631  1.00  0.00    -0.275 OA
ATOM     27  H   UNL A   1      34.271  18.792  23.418  1.00  0.00     0.159 HD
ATOM     28  H   UNL A   1      33.294  17.401  23.548  1.00  0.00     0.159 HD
ENDBRANCH  23  24
ENDBRANCH  22  23
ENDBRANCH   5  22
ENDBRANCH   1   5
BRANCH   3  29
ATOM     29  C   UNL A   1      36.777  22.155  24.505  1.00  0.00     0.117 C 
BRANCH  29  30
ATOM     30  C   UNL A   1      37.764  21.121  25.026  1.00  0.00     0.042 C 
BRANCH  30  31
ATOM     31  C   UNL A   1      38.745  21.728  26.013  1.00  0.00     0.118 C 
BRANCH  31  32
ATOM     32  N   UNL A   1      40.143  21.541  25.612  1.00  0.00    -0.352 N 
ATOM     33  C   UNL A   1      41.220  22.361  25.892  1.00  0.00     0.251 C 
ATOM     34  H   UNL A   1      40.338  20.735  25.080  1.00  0.00     0.163 HD
ATOM     35  O   UNL A   1      42.293  22.229  25.338  1.00  0.00    -0.269 OA
BRANCH  33  36
ATOM     36  C   UNL A   1      40.997  23.428  26.879  1.00  0.00     0.039 A 
ATOM     37  C   UNL A   1      41.798  23.504  28.020  1.00  0.00     0.014 A 
ATOM     38  C   UNL A   1      40.131  24.455  26.522  1.00  0.00     0.014 A 
ATOM     39  C   UNL A   1      41.812  24.691  28.747  1.00  0.00     0.010 A 
ATOM     40  C   UNL A   1      40.251  25.666  27.163  1.00  0.00     0.010 A 
ATOM     41  C   UNL A   1      41.072  25.792  28.290  1.00  0.00    -0.014 A 
BRANCH  41  42
ATOM     42  C   UNL A   1      41.265  27.115  28.897  1.00  0.00     0.031 A 
ATOM     43  C   UNL A   1      42.415  27.930  28.386  1.00  0.00     0.074 A 
ATOM     44  C   UNL A   1      40.324  27.695  29.673  1.00  0.00     0.049 A 
ATOM     45  N   UNL A   1      43.370  28.484  29.063  1.00  0.00    -0.248 NA
ATOM     46  C   UNL A   1      42.544  28.114  26.930  1.00  0.00     0.031 C 
ATOM     47  C   UNL A   1      38.996  27.173  30.022  1.00  0.00     0.029 A 
ATOM     48  N   UNL A   1      40.302  28.952  30.201  1.00  0.00    -0.354 N 
ATOM     49  C   UNL A   1      44.135  29.216  28.150  1.00  0.00     0.074 A 
ATOM     50  C   UNL A   1      43.652  28.854  26.843  1.00  0.00     0.031 C 
ATOM     51  C   UNL A   1      38.218  28.182  30.465  1.00  0.00     0.029 A 
ATOM     52  C   UNL A   1      39.043  29.365  30.612  1.00  0.00     0.049 A 
ATOM     53  H   UNL A   1      41.105  29.515  30.283  1.00  0.00     0.167 HD
ATOM     54  C   UNL A   1      44.975  30.211  28.553  1.00  0.00     0.037 A 
ATOM     55  C   UNL A   1      38.680  30.599  31.027  1.00  0.00     0.037 A 
ATOM     56  C   UNL A   1      45.265  30.112  29.958  1.00  0.00     0.049 A 
ATOM     57  C   UNL A   1      39.908  31.308  31.446  1.00  0.00     0.074 A 
ATOM     58  C   UNL A   1      45.887  29.189  30.775  1.00  0.00     0.029 A 
ATOM     59  N   UNL A   1      44.607  30.970  30.801  1.00  0.00    -0.354 N 
ATOM     60  N   UNL A   1      40.626  30.974  32.481  1.00  0.00    -0.248 NA
ATOM     61  C   UNL A   1      40.563  32.183  30.488  1.00  0.00     0.031 C 
ATOM     62  C   UNL A   1      45.189  29.264  32.018  1.00  0.00     0.029 A 
ATOM     63  C   UNL A   1      44.212  30.252  31.897  1.00  0.00     0.049 A 
ATOM     64  H   UNL A   1      44.446  31.928  30.645  1.00  0.00     0.167 HD
ATOM     65  C   UNL A   1      41.933  31.229  32.096  1.00  0.00     0.074 A 
ATOM     66  C   UNL A   1      41.818  32.102  30.934  1.00  0.00     0.031 C 
ATOM     67  C   UNL A   1      42.962  30.476  32.584  1.00  0.00     0.037 A 
BRANCH  54  68
ATOM     68  C   UNL A   1      45.251  31.493  27.787  1.00  0.00     0.064 A 
ATOM     69  C   UNL A   1      46.589  31.853  27.511  1.00  0.00     0.173 A 
ATOM     70  C   UNL A   1      44.304  32.524  27.617  1.00  0.00     0.173 A 
ATOM     71  F   UNL A   1      47.581  30.957  27.636  1.00  0.00    -0.203 F 
ATOM     72  C   UNL A   1      46.958  33.166  27.203  1.00  0.00     0.198 A 
ATOM     73  C   UNL A   1      44.670  33.823  27.257  1.00  0.00     0.198 A 
ATOM     74  F   UNL A   1      43.007  32.354  27.899  1.00  0.00    -0.203 F 
ATOM     75  F   UNL A   1      48.254  33.486  27.093  1.00  0.00    -0.200 F 
ATOM     76  C   UNL A   1      45.998  34.153  27.089  1.00  0.00     0.200 A 
ATOM     77  F   UNL A   1      43.726  34.770  27.161  1.00  0.00    -0.200 F 
ATOM     78  F   UNL A   1      46.351  35.426  26.868  1.00  0.00    -0.200 F 
ENDBRANCH  54  68
BRANCH  55  79
ATOM     79  C   UNL A   1      37.370  31.266  30.872  1.00  0.00     0.064 A 
ATOM     80  C   UNL A   1      36.553  31.532  31.979  1.00  0.00     0.173 A 
ATOM     81  C   UNL A   1      37.010  31.883  29.657  1.00  0.00     0.173 A 
ATOM     82  F   UNL A   1      36.854  31.014  33.177  1.00  0.00    -0.203 F 
ATOM     83  C   UNL A   1      35.451  32.386  31.883  1.00  0.00     0.198 A 
ATOM     84  C   UNL A   1      35.904  32.727  29.560  1.00  0.00     0.198 A 
ATOM     85  F   UNL A   1      37.777  31.751  28.565  1.00  0.00    -0.203 F 
ATOM     86  F   UNL A   1      34.726  32.665  32.975  1.00  0.00    -0.200 F 
ATOM     87  C   UNL A   1      35.133  32.989  30.677  1.00  0.00     0.200 A 
ATOM     88  F   UNL A   1      35.628  33.333  28.397  1.00  0.00    -0.200 F 
ATOM     89  F   UNL A   1      34.111  33.854  30.601  1.00  0.00    -0.200 F 
ENDBRANCH  55  79
BRANCH  67  90
ATOM     90  C   UNL A   1      42.688  29.618  33.787  1.00  0.00     0.064 A 
ATOM     91  C   UNL A   1      42.185  28.307  33.720  1.00  0.00     0.173 A 
ATOM     92  C   UNL A   1      43.073  30.097  35.045  1.00  0.00     0.173 A 
ATOM     93  F   UNL A   1      41.893  27.738  32.546  1.00  0.00    -0.203 F 
ATOM     94  C   UNL A   1      42.029  27.533  34.868  1.00  0.00     0.198 A 
ATOM     95  C   UNL A   1      42.954  29.308  36.185  1.00  0.00     0.198 A 
ATOM     96  F   UNL A   1      43.617  31.319  35.160  1.00  0.00    -0.203 F 
ATOM     97  F   UNL A   1      41.533  26.290  34.779  1.00  0.00    -0.200 F 
ATOM     98  C   UNL A   1      42.421  28.032  36.099  1.00  0.00     0.200 A 
ATOM     99  F   UNL A   1      43.380  29.776  37.366  1.00  0.00    -0.200 F 
ATOM    100  F   UNL A   1      42.309  27.274  37.199  1.00  0.00    -0.200 F 
ENDBRANCH  67  90
ENDBRANCH  41  42
ENDBRANCH  33  36
ENDBRANCH  31  32
ENDBRANCH  30  31
ENDBRANCH  29  30
ENDBRANCH   3  29
TORSDOF 18
ENDMDL
MODEL 3
REMARK VINA RESULT:     -11.9      2.087      7.089
REMARK SMILES CC(C)(O)C#Cc1ccc(C(=O)N[C@@H](CCC(N)=O)C(=O)NCCCNC(=O)c2ccc(-c3c4nc(c(-c5c(F)c(F)c(F)c(F)c5F)c5ccc([nH]5)c(-c5c(F)c(F)c(F)c(F)c5F)c5nc(c(-c6c(F)c(F)c(F)c(F)c6F)c6ccc3[nH]6)C=C5)C=C4)cc2)s1
REMARK SMILES IDX 20 1 21 2 22 3 14 5 13 6 11 7 12 8 10 10 7 11 8 12 92 13
REMARK SMILES IDX 9 14 6 15 5 16 2 17 1 18 3 19 4 20 15 22 16 23 17 24 18 25
REMARK SMILES IDX 19 26 23 29 24 30 25 31 26 32 27 33 28 35 29 36 30 37 91 38
REMARK SMILES IDX 31 39 90 40 32 41 33 42 34 43 84 44 35 45 89 46 83 47 85 48
REMARK SMILES IDX 36 49 88 50 82 51 81 52 37 54 69 55 49 56 68 57 50 58 53 59
REMARK SMILES IDX 67 60 86 61 51 62 52 63 66 65 87 66 54 67 38 68 39 69 47 70
REMARK SMILES IDX 40 71 41 72 45 73 48 74 42 75 43 76 46 77 44 78 70 79 71 80
REMARK SMILES IDX 79 81 72 82 73 83 77 84 80 85 74 86 75 87 78 88 76 89 55 90
REMARK SMILES IDX 56 91 64 92 57 93 58 94 62 95 65 96 59 97 60 98 63 99 61 100
REMARK H PARENT 22 4 13 9 4 21 18 27 18 28 26 34 85 53 53 64
REMARK Flexibility Score: inf
ROOT
ATOM      1  C   UNL A   1      30.934  27.104  25.175  1.00  0.00     0.242 C 
ATOM      2  O   UNL A   1      29.878  27.334  24.581  1.00  0.00    -0.273 OA
ATOM      3  N   UNL A   1      31.549  28.161  25.789  1.00  0.00    -0.354 N 
ATOM      4  H   UNL A   1      31.169  29.044  25.578  1.00  0.00     0.163 HD
ENDROOT
BRANCH   1   5
ATOM      5  C   UNL A   1      31.558  25.690  25.187  1.00  0.00     0.172 C 
BRANCH   5   6
ATOM      6  N   UNL A   1      30.632  24.795  25.908  1.00  0.00    -0.340 N 
ATOM      7  C   UNL A   1      30.846  23.613  26.587  1.00  0.00     0.262 C 
ATOM      8  O   UNL A   1      29.922  23.247  27.319  1.00  0.00    -0.268 OA
ATOM      9  H   UNL A   1      29.694  25.095  25.904  1.00  0.00     0.164 HD
BRANCH   7  10
ATOM     10  C   UNL A   1      31.984  22.767  26.302  1.00  0.00     0.093 A 
ATOM     11  C   UNL A   1      33.138  20.709  25.854  1.00  0.00     0.078 A 
ATOM     12  C   UNL A   1      33.830  21.451  26.786  1.00  0.00     0.030 A 
ATOM     13  S   UNL A   1      32.114  21.724  24.954  1.00  0.00    -0.121 S 
ATOM     14  C   UNL A   1      33.170  22.698  27.020  1.00  0.00     0.027 A 
BRANCH  11  15
ATOM     15  C   UNL A   1      33.274  19.323  25.604  1.00  0.00    -0.053 C 
ATOM     16  C   UNL A   1      33.501  18.080  25.283  1.00  0.00    -0.063 C 
BRANCH  16  17
ATOM     17  C   UNL A   1      33.766  16.631  24.909  1.00  0.00     0.120 C 
ATOM     18  C   UNL A   1      33.963  16.515  23.399  1.00  0.00     0.056 C 
ATOM     19  C   UNL A   1      32.610  15.755  25.387  1.00  0.00     0.056 C 
BRANCH  17  20
ATOM     20  O   UNL A   1      34.961  16.218  25.564  1.00  0.00    -0.378 OA
ATOM     21  H   UNL A   1      35.593  16.955  25.578  1.00  0.00     0.212 HD
ENDBRANCH  17  20
ENDBRANCH  16  17
ENDBRANCH  11  15
ENDBRANCH   7  10
ENDBRANCH   5   6
BRANCH   5  22
ATOM     22  C   UNL A   1      32.169  25.093  23.904  1.00  0.00     0.045 C 
BRANCH  22  23
ATOM     23  C   UNL A   1      32.809  25.968  22.831  1.00  0.00     0.102 C 
BRANCH  23  24
ATOM     24  C   UNL A   1      31.920  26.240  21.637  1.00  0.00     0.217 C 
ATOM     25  N   UNL A   1      32.279  25.580  20.500  1.00  0.00    -0.370 N 
ATOM     26  O   UNL A   1      30.955  26.992  21.650  1.00  0.00    -0.275 OA
ATOM     27  H   UNL A   1      33.057  24.978  20.505  1.00  0.00     0.159 HD
ATOM     28  H   UNL A   1      31.758  25.706  19.673  1.00  0.00     0.159 HD
ENDBRANCH  23  24
ENDBRANCH  22  23
ENDBRANCH   5  22
ENDBRANCH   1   5
BRANCH   3  29
ATOM     29  C   UNL A   1      32.672  28.179  26.700  1.00  0.00     0.117 C 
BRANCH  29  30
ATOM     30  C   UNL A   1      33.532  29.432  26.618  1.00  0.00     0.042 C 
BRANCH  30  31
ATOM     31  C   UNL A   1      34.868  29.243  27.315  1.00  0.00     0.118 C 
BRANCH  31  32
ATOM     32  N   UNL A   1      35.107  30.240  28.363  1.00  0.00    -0.352 N 
ATOM     33  C   UNL A   1      36.194  30.330  29.212  1.00  0.00     0.251 C 
ATOM     34  H   UNL A   1      34.410  30.927  28.476  1.00  0.00     0.163 HD
ATOM     35  O   UNL A   1      36.197  31.062  30.182  1.00  0.00    -0.269 OA
BRANCH  33  36
ATOM     36  C   UNL A   1      37.346  29.470  28.901  1.00  0.00     0.039 A 
ATOM     37  C   UNL A   1      38.126  29.726  27.773  1.00  0.00     0.014 A 
ATOM     38  C   UNL A   1      37.743  28.562  29.876  1.00  0.00     0.014 A 
ATOM     39  C   UNL A   1      39.386  29.142  27.686  1.00  0.00     0.010 A 
ATOM     40  C   UNL A   1      39.038  28.097  29.850  1.00  0.00     0.010 A 
ATOM     41  C   UNL A   1      39.864  28.363  28.751  1.00  0.00    -0.014 A 
BRANCH  41  42
ATOM     42  C   UNL A   1      41.271  27.946  28.790  1.00  0.00     0.031 A 
ATOM     43  C   UNL A   1      41.626  26.701  28.034  1.00  0.00     0.074 A 
ATOM     44  C   UNL A   1      42.250  28.758  29.244  1.00  0.00     0.049 A 
ATOM     45  N   UNL A   1      42.246  25.649  28.465  1.00  0.00    -0.248 NA
ATOM     46  C   UNL A   1      41.196  26.594  26.629  1.00  0.00     0.031 C 
ATOM     47  C   UNL A   1      42.124  30.138  29.729  1.00  0.00     0.029 A 
ATOM     48  N   UNL A   1      43.600  28.566  29.229  1.00  0.00    -0.354 N 
ATOM     49  C   UNL A   1      42.427  24.811  27.362  1.00  0.00     0.074 A 
ATOM     50  C   UNL A   1      41.658  25.388  26.290  1.00  0.00     0.031 C 
ATOM     51  C   UNL A   1      43.333  30.734  29.712  1.00  0.00     0.029 A 
ATOM     52  C   UNL A   1      44.333  29.731  29.404  1.00  0.00     0.049 A 
ATOM     53  H   UNL A   1      44.016  27.683  29.106  1.00  0.00     0.167 HD
ATOM     54  C   UNL A   1      43.356  23.813  27.363  1.00  0.00     0.037 A 
ATOM     55  C   UNL A   1      45.671  29.883  29.284  1.00  0.00     0.037 A 
ATOM     56  C   UNL A   1      43.777  23.494  28.701  1.00  0.00     0.049 A 
ATOM     57  C   UNL A   1      46.286  28.546  29.426  1.00  0.00     0.074 A 
ATOM     58  C   UNL A   1      43.168  22.996  29.835  1.00  0.00     0.029 A 
ATOM     59  N   UNL A   1      44.989  23.982  29.114  1.00  0.00    -0.354 N 
ATOM     60  N   UNL A   1      46.282  27.854  30.531  1.00  0.00    -0.248 NA
ATOM     61  C   UNL A   1      46.596  27.795  28.221  1.00  0.00     0.031 C 
ATOM     62  C   UNL A   1      43.836  23.631  30.924  1.00  0.00     0.029 A 
ATOM     63  C   UNL A   1      44.836  24.446  30.392  1.00  0.00     0.049 A 
ATOM     64  H   UNL A   1      45.820  23.997  28.587  1.00  0.00     0.167 HD
ATOM     65  C   UNL A   1      46.155  26.537  30.117  1.00  0.00     0.074 A 
ATOM     66  C   UNL A   1      46.503  26.553  28.701  1.00  0.00     0.031 C 
ATOM     67  C   UNL A   1      45.506  25.622  30.895  1.00  0.00     0.037 A 
BRANCH  54  68
ATOM     68  C   UNL A   1      44.169  23.366  26.162  1.00  0.00     0.064 A 
ATOM     69  C   UNL A   1      44.160  22.002  25.794  1.00  0.00     0.173 A 
ATOM     70  C   UNL A   1      45.196  24.139  25.580  1.00  0.00     0.173 A 
ATOM     71  F   UNL A   1      43.230  21.166  26.283  1.00  0.00    -0.203 F 
ATOM     72  C   UNL A   1      45.165  21.437  25.003  1.00  0.00     0.198 A 
ATOM     73  C   UNL A   1      46.168  23.582  24.745  1.00  0.00     0.198 A 
ATOM     74  F   UNL A   1      45.372  25.430  25.877  1.00  0.00    -0.203 F 
ATOM     75  F   UNL A   1      45.192  20.113  24.804  1.00  0.00    -0.200 F 
ATOM     76  C   UNL A   1      46.176  22.226  24.489  1.00  0.00     0.200 A 
ATOM     77  F   UNL A   1      47.147  24.360  24.265  1.00  0.00    -0.200 F 
ATOM     78  F   UNL A   1      47.182  21.679  23.793  1.00  0.00    -0.200 F 
ENDBRANCH  54  68
BRANCH  55  79
ATOM     79  C   UNL A   1      46.418  31.077  28.837  1.00  0.00     0.064 A 
ATOM     80  C   UNL A   1      46.256  31.596  27.546  1.00  0.00     0.173 A 
ATOM     81  C   UNL A   1      47.119  31.881  29.759  1.00  0.00     0.173 A 
ATOM     82  F   UNL A   1      45.565  30.908  26.626  1.00  0.00    -0.203 F 
ATOM     83  C   UNL A   1      46.746  32.859  27.201  1.00  0.00     0.198 A 
ATOM     84  C   UNL A   1      47.616  33.136  29.411  1.00  0.00     0.198 A 
ATOM     85  F   UNL A   1      47.253  31.502  31.038  1.00  0.00    -0.203 F 
ATOM     86  F   UNL A   1      46.520  33.350  25.974  1.00  0.00    -0.200 F 
ATOM     87  C   UNL A   1      47.417  33.631  28.135  1.00  0.00     0.200 A 
ATOM     88  F   UNL A   1      48.233  33.888  30.334  1.00  0.00    -0.200 F 
ATOM     89  F   UNL A   1      47.835  34.865  27.820  1.00  0.00    -0.200 F 
ENDBRANCH  55  79
BRANCH  67  90
ATOM     90  C   UNL A   1      45.249  25.985  32.330  1.00  0.00     0.064 A 
ATOM     91  C   UNL A   1      44.089  26.639  32.781  1.00  0.00     0.173 A 
ATOM     92  C   UNL A   1      46.153  25.536  33.301  1.00  0.00     0.173 A 
ATOM     93  F   UNL A   1      43.127  27.006  31.927  1.00  0.00    -0.203 F 
ATOM     94  C   UNL A   1      43.872  26.876  34.136  1.00  0.00     0.198 A 
ATOM     95  C   UNL A   1      45.916  25.738  34.657  1.00  0.00     0.198 A 
ATOM     96  F   UNL A   1      47.247  24.852  32.932  1.00  0.00    -0.203 F 
ATOM     97  F   UNL A   1      42.765  27.516  34.539  1.00  0.00    -0.200 F 
ATOM     98  C   UNL A   1      44.783  26.419  35.074  1.00  0.00     0.200 A 
ATOM     99  F   UNL A   1      46.774  25.251  35.563  1.00  0.00    -0.200 F 
ATOM    100  F   UNL A   1      44.556  26.610  36.381  1.00  0.00    -0.200 F 
ENDBRANCH  67  90
ENDBRANCH  41  42
ENDBRANCH  33  36
ENDBRANCH  31  32
ENDBRANCH  30  31
ENDBRANCH  29  30
ENDBRANCH   3  29
TORSDOF 18
ENDMDL
