MODEL 1
REMARK VINA RESULT:     -12.7      0.000      0.000
REMARK SMILES O=C(NCCCNC(=O)[C@@H]1CS[C@H](c2ncc(-c3ccccc3)s2)[NH2+]1)c1ccc(-c2c3nc(c(-c4c(F)c(F)c(F)c(F)c4F)c4ccc([nH]4)c(-c4c(F)c(F)c(F)c(F)c4F)c4nc(c(-c5c(F)c(F)c(F)c(F)c5F)c5ccc2[nH]5)C=C4)C=C3)cc1
REMARK SMILES IDX 5 1 4 2 3 3 1 4 2 5 26 7 27 8 88 9 28 10 87 11 29 12 30 13
REMARK SMILES IDX 31 14 81 15 32 16 86 17 80 18 82 19 33 20 85 21 79 22 78 23
REMARK SMILES IDX 34 25 66 26 46 27 65 28 47 29 50 30 64 31 83 32 48 33 49 34
REMARK SMILES IDX 63 36 84 37 51 38 35 39 36 40 44 41 37 42 38 43 42 44 45 45
REMARK SMILES IDX 39 46 40 47 43 48 41 49 67 50 68 51 76 52 69 53 70 54 74 55
REMARK SMILES IDX 77 56 71 57 72 58 75 59 73 60 52 61 53 62 61 63 54 64 55 65
REMARK SMILES IDX 59 66 62 67 56 68 57 69 60 70 58 71 6 72 7 73 8 74 9 76
REMARK SMILES IDX 10 77 11 78 25 79 12 80 13 81 14 84 15 85 24 86 16 87 17 88
REMARK SMILES IDX 18 89 19 90 23 91 20 92 22 93 21 94
REMARK H PARENT 3 6 82 24 50 35 7 75 25 82 25 83
REMARK Flexibility Score: inf
ROOT
ATOM      1  C   UNL A   1      32.104  28.059  26.063  1.00  0.00     0.042 C 
ENDROOT
BRANCH   1   2
ATOM      2  C   UNL A   1      33.122  29.093  25.594  1.00  0.00     0.118 C 
BRANCH   2   3
ATOM      3  N   UNL A   1      32.746  30.454  25.951  1.00  0.00    -0.352 N 
ATOM      4  O   UNL A   1      32.626  32.316  27.208  1.00  0.00    -0.269 OA
ATOM      5  C   UNL A   1      33.224  31.274  26.940  1.00  0.00     0.251 C 
ATOM      6  H   UNL A   1      32.037  30.847  25.393  1.00  0.00     0.163 HD
BRANCH   5   7
ATOM      7  C   UNL A   1      34.441  30.914  27.699  1.00  0.00     0.039 A 
ATOM      8  C   UNL A   1      34.625  29.621  28.190  1.00  0.00     0.014 A 
ATOM      9  C   UNL A   1      35.440  31.878  27.881  1.00  0.00     0.014 A 
ATOM     10  C   UNL A   1      35.727  29.332  28.987  1.00  0.00     0.010 A 
ATOM     11  C   UNL A   1      36.594  31.556  28.599  1.00  0.00     0.010 A 
ATOM     12  C   UNL A   1      36.734  30.288  29.183  1.00  0.00    -0.014 A 
BRANCH  12  13
ATOM     13  C   UNL A   1      37.955  29.914  29.942  1.00  0.00     0.031 A 
ATOM     14  C   UNL A   1      38.188  30.413  31.339  1.00  0.00     0.074 A 
ATOM     15  C   UNL A   1      38.851  29.096  29.358  1.00  0.00     0.049 A 
ATOM     16  N   UNL A   1      39.190  30.168  32.146  1.00  0.00    -0.248 NA
ATOM     17  C   UNL A   1      37.171  31.313  31.901  1.00  0.00     0.031 C 
ATOM     18  C   UNL A   1      38.736  28.556  28.001  1.00  0.00     0.029 A 
ATOM     19  N   UNL A   1      40.022  28.560  29.830  1.00  0.00    -0.354 N 
ATOM     20  C   UNL A   1      38.933  30.893  33.303  1.00  0.00     0.074 A 
ATOM     21  C   UNL A   1      37.699  31.615  33.079  1.00  0.00     0.031 C 
ATOM     22  C   UNL A   1      39.765  27.731  27.767  1.00  0.00     0.029 A 
ATOM     23  C   UNL A   1      40.648  27.736  28.928  1.00  0.00     0.049 A 
ATOM     24  H   UNL A   1      40.379  28.749  30.728  1.00  0.00     0.167 HD
ATOM     25  C   UNL A   1      39.658  30.941  34.448  1.00  0.00     0.037 A 
ATOM     26  C   UNL A   1      41.813  27.069  29.017  1.00  0.00     0.037 A 
ATOM     27  C   UNL A   1      40.887  30.216  34.660  1.00  0.00     0.049 A 
ATOM     28  C   UNL A   1      42.618  27.177  30.279  1.00  0.00     0.074 A 
ATOM     29  C   UNL A   1      41.675  30.167  35.796  1.00  0.00     0.029 A 
ATOM     30  N   UNL A   1      41.512  29.422  33.708  1.00  0.00    -0.354 N 
ATOM     31  N   UNL A   1      42.344  27.828  31.383  1.00  0.00    -0.248 NA
ATOM     32  C   UNL A   1      43.899  26.459  30.307  1.00  0.00     0.031 C 
ATOM     33  C   UNL A   1      42.809  29.397  35.511  1.00  0.00     0.029 A 
ATOM     34  C   UNL A   1      42.695  28.908  34.220  1.00  0.00     0.049 A 
ATOM     35  H   UNL A   1      41.167  29.250  32.802  1.00  0.00     0.167 HD
ATOM     36  C   UNL A   1      43.401  27.580  32.245  1.00  0.00     0.074 A 
ATOM     37  C   UNL A   1      44.315  26.703  31.540  1.00  0.00     0.031 C 
ATOM     38  C   UNL A   1      43.597  28.037  33.507  1.00  0.00     0.037 A 
BRANCH  25  39
ATOM     39  C   UNL A   1      39.157  31.834  35.551  1.00  0.00     0.064 A 
ATOM     40  C   UNL A   1      38.319  31.356  36.570  1.00  0.00     0.173 A 
ATOM     41  C   UNL A   1      39.540  33.184  35.600  1.00  0.00     0.173 A 
ATOM     42  F   UNL A   1      37.915  30.078  36.569  1.00  0.00    -0.203 F 
ATOM     43  C   UNL A   1      37.852  32.204  37.573  1.00  0.00     0.198 A 
ATOM     44  C   UNL A   1      39.100  34.020  36.622  1.00  0.00     0.198 A 
ATOM     45  F   UNL A   1      40.347  33.693  34.658  1.00  0.00    -0.203 F 
ATOM     46  F   UNL A   1      37.003  31.740  38.500  1.00  0.00    -0.200 F 
ATOM     47  C   UNL A   1      38.247  33.533  37.601  1.00  0.00     0.200 A 
ATOM     48  F   UNL A   1      39.496  35.300  36.657  1.00  0.00    -0.200 F 
ATOM     49  F   UNL A   1      37.798  34.347  38.567  1.00  0.00    -0.200 F 
ENDBRANCH  25  39
BRANCH  26  50
ATOM     50  C   UNL A   1      42.275  26.242  27.873  1.00  0.00     0.064 A 
ATOM     51  C   UNL A   1      41.790  24.941  27.683  1.00  0.00     0.173 A 
ATOM     52  C   UNL A   1      43.186  26.743  26.932  1.00  0.00     0.173 A 
ATOM     53  F   UNL A   1      40.929  24.412  28.565  1.00  0.00    -0.203 F 
ATOM     54  C   UNL A   1      42.209  24.169  26.602  1.00  0.00     0.198 A 
ATOM     55  C   UNL A   1      43.579  25.982  25.833  1.00  0.00     0.198 A 
ATOM     56  F   UNL A   1      43.673  27.986  27.064  1.00  0.00    -0.203 F 
ATOM     57  F   UNL A   1      41.759  22.913  26.464  1.00  0.00    -0.200 F 
ATOM     58  C   UNL A   1      43.096  24.693  25.674  1.00  0.00     0.200 A 
ATOM     59  F   UNL A   1      44.420  26.501  24.928  1.00  0.00    -0.200 F 
ATOM     60  F   UNL A   1      43.487  23.954  24.627  1.00  0.00    -0.200 F 
ENDBRANCH  26  50
BRANCH  38  61
ATOM     61  C   UNL A   1      44.831  27.566  34.221  1.00  0.00     0.064 A 
ATOM     62  C   UNL A   1      46.034  28.289  34.177  1.00  0.00     0.173 A 
ATOM     63  C   UNL A   1      44.802  26.388  34.985  1.00  0.00     0.173 A 
ATOM     64  F   UNL A   1      46.121  29.411  33.448  1.00  0.00    -0.203 F 
ATOM     65  C   UNL A   1      47.168  27.832  34.843  1.00  0.00     0.198 A 
ATOM     66  C   UNL A   1      45.928  25.954  35.678  1.00  0.00     0.198 A 
ATOM     67  F   UNL A   1      43.678  25.662  35.065  1.00  0.00    -0.203 F 
ATOM     68  F   UNL A   1      48.320  28.508  34.739  1.00  0.00    -0.200 F 
ATOM     69  C   UNL A   1      47.112  26.671  35.599  1.00  0.00     0.200 A 
ATOM     70  F   UNL A   1      45.868  24.840  36.419  1.00  0.00    -0.200 F 
ATOM     71  F   UNL A   1      48.203  26.237  36.246  1.00  0.00    -0.200 F 
ENDBRANCH  38  61
ENDBRANCH  12  13
ENDBRANCH   5   7
ENDBRANCH   2   3
ENDBRANCH   1   2
BRANCH   1  72
ATOM     72  C   UNL A   1      32.653  26.638  26.138  1.00  0.00     0.118 C 
BRANCH  72  73
ATOM     73  N   UNL A   1      31.684  25.709  26.679  1.00  0.00    -0.351 N 
ATOM     74  C   UNL A   1      31.465  24.382  26.499  1.00  0.00     0.279 C 
ATOM     75  H   UNL A   1      31.052  26.126  27.308  1.00  0.00     0.163 HD
ATOM     76  O   UNL A   1      30.606  23.903  27.251  1.00  0.00    -0.268 OA
BRANCH  74  77
ATOM     77  C   UNL A   1      32.279  23.486  25.527  1.00  0.00     0.284 C 
ATOM     78  C   UNL A   1      33.626  24.003  25.020  1.00  0.00     0.151 C 
ATOM     79  N   UNL A   1      31.401  23.119  24.362  1.00  0.00    -0.319 N 
ATOM     80  S   UNL A   1      33.700  23.529  23.286  1.00  0.00    -0.085 SA
ATOM     81  C   UNL A   1      31.907  23.749  23.132  1.00  0.00     0.303 C 
ATOM     82  H   UNL A   1      30.450  23.442  24.541  1.00  0.00     0.348 HD
ATOM     83  H   UNL A   1      31.405  22.106  24.245  1.00  0.00     0.348 HD
BRANCH  81  84
ATOM     84  C   UNL A   1      31.529  25.217  22.926  1.00  0.00     0.162 A 
ATOM     85  N   UNL A   1      32.327  26.129  22.395  1.00  0.00    -0.242 NA
ATOM     86  S   UNL A   1      29.961  25.813  23.338  1.00  0.00    -0.112 S 
ATOM     87  C   UNL A   1      31.705  27.364  22.376  1.00  0.00     0.132 A 
ATOM     88  C   UNL A   1      30.438  27.400  22.915  1.00  0.00     0.055 A 
BRANCH  88  89
ATOM     89  C   UNL A   1      29.531  28.521  23.117  1.00  0.00    -0.007 A 
ATOM     90  C   UNL A   1      28.149  28.354  22.949  1.00  0.00     0.009 A 
ATOM     91  C   UNL A   1      30.027  29.779  23.476  1.00  0.00     0.009 A 
ATOM     92  C   UNL A   1      27.278  29.430  23.126  1.00  0.00     0.001 A 
ATOM     93  C   UNL A   1      29.155  30.857  23.648  1.00  0.00     0.001 A 
ATOM     94  C   UNL A   1      27.784  30.682  23.472  1.00  0.00     0.000 A 
ENDBRANCH  88  89
ENDBRANCH  81  84
ENDBRANCH  74  77
ENDBRANCH  72  73
ENDBRANCH   1  72
TORSDOF 12
ENDMDL
MODEL 2
REMARK VINA RESULT:     -12.7      0.073      1.602
REMARK SMILES O=C(NCCCNC(=O)[C@@H]1CS[C@H](c2ncc(-c3ccccc3)s2)[NH2+]1)c1ccc(-c2c3nc(c(-c4c(F)c(F)c(F)c(F)c4F)c4ccc([nH]4)c(-c4c(F)c(F)c(F)c(F)c4F)c4nc(c(-c5c(F)c(F)c(F)c(F)c5F)c5ccc2[nH]5)C=C4)C=C3)cc1
REMARK SMILES IDX 5 1 4 2 3 3 1 4 2 5 26 7 27 8 88 9 28 10 87 11 29 12 30 13
REMARK SMILES IDX 31 14 81 15 32 16 86 17 80 18 82 19 33 20 85 21 79 22 78 23
REMARK SMILES IDX 34 25 66 26 46 27 65 28 47 29 50 30 64 31 83 32 48 33 49 34
REMARK SMILES IDX 63 36 84 37 51 38 35 39 36 40 44 41 37 42 38 43 42 44 45 45
REMARK SMILES IDX 39 46 40 47 43 48 41 49 67 50 68 51 76 52 69 53 70 54 74 55
REMARK SMILES IDX 77 56 71 57 72 58 75 59 73 60 52 61 53 62 61 63 54 64 55 65
REMARK SMILES IDX 59 66 62 67 56 68 57 69 60 70 58 71 6 72 7 73 8 74 9 76
REMARK SMILES IDX 10 77 11 78 25 79 12 80 13 81 14 84 15 85 24 86 16 87 17 88
REMARK SMILES IDX 18 89 19 90 23 91 20 92 22 93 21 94
REMARK H PARENT 3 6 82 24 50 35 7 75 25 82 25 83
REMARK Flexibility Score: inf
ROOT
ATOM      1  C   UNL A   1      32.061  28.062  26.163  1.00  0.00     0.042 C 
ENDROOT
BRANCH   1   2
ATOM      2  C   UNL A   1      33.061  29.088  25.641  1.00  0.00     0.118 C 
BRANCH   2   3
ATOM      3  N   UNL A   1      32.696  30.455  25.987  1.00  0.00    -0.352 N 
ATOM      4  O   UNL A   1      32.599  32.331  27.225  1.00  0.00    -0.269 OA
ATOM      5  C   UNL A   1      33.189  31.282  26.962  1.00  0.00     0.251 C 
ATOM      6  H   UNL A   1      31.983  30.846  25.432  1.00  0.00     0.163 HD
BRANCH   5   7
ATOM      7  C   UNL A   1      34.412  30.925  27.711  1.00  0.00     0.039 A 
ATOM      8  C   UNL A   1      34.607  29.629  28.190  1.00  0.00     0.014 A 
ATOM      9  C   UNL A   1      35.405  31.893  27.898  1.00  0.00     0.014 A 
ATOM     10  C   UNL A   1      35.715  29.340  28.980  1.00  0.00     0.010 A 
ATOM     11  C   UNL A   1      36.565  31.574  28.607  1.00  0.00     0.010 A 
ATOM     12  C   UNL A   1      36.717  30.302  29.179  1.00  0.00    -0.014 A 
BRANCH  12  13
ATOM     13  C   UNL A   1      37.944  29.929  29.929  1.00  0.00     0.031 A 
ATOM     14  C   UNL A   1      38.188  30.432  31.322  1.00  0.00     0.074 A 
ATOM     15  C   UNL A   1      38.835  29.109  29.340  1.00  0.00     0.049 A 
ATOM     16  N   UNL A   1      39.197  30.189  32.122  1.00  0.00    -0.248 NA
ATOM     17  C   UNL A   1      37.176  31.333  31.891  1.00  0.00     0.031 C 
ATOM     18  C   UNL A   1      38.709  28.566  27.985  1.00  0.00     0.029 A 
ATOM     19  N   UNL A   1      40.009  28.575  29.803  1.00  0.00    -0.354 N 
ATOM     20  C   UNL A   1      38.949  30.916  33.279  1.00  0.00     0.074 A 
ATOM     21  C   UNL A   1      37.713  31.638  33.064  1.00  0.00     0.031 C 
ATOM     22  C   UNL A   1      39.736  27.741  27.744  1.00  0.00     0.029 A 
ATOM     23  C   UNL A   1      40.628  27.748  28.898  1.00  0.00     0.049 A 
ATOM     24  H   UNL A   1      40.374  28.766  30.697  1.00  0.00     0.167 HD
ATOM     25  C   UNL A   1      39.684  30.967  34.419  1.00  0.00     0.037 A 
ATOM     26  C   UNL A   1      41.794  27.082  28.978  1.00  0.00     0.037 A 
ATOM     27  C   UNL A   1      40.914  30.242  34.622  1.00  0.00     0.049 A 
ATOM     28  C   UNL A   1      42.610  27.193  30.234  1.00  0.00     0.074 A 
ATOM     29  C   UNL A   1      41.712  30.196  35.752  1.00  0.00     0.029 A 
ATOM     30  N   UNL A   1      41.531  29.446  33.666  1.00  0.00    -0.354 N 
ATOM     31  N   UNL A   1      42.344  27.846  31.338  1.00  0.00    -0.248 NA
ATOM     32  C   UNL A   1      43.890  26.474  30.253  1.00  0.00     0.031 C 
ATOM     33  C   UNL A   1      42.843  29.425  35.458  1.00  0.00     0.029 A 
ATOM     34  C   UNL A   1      42.719  28.933  34.169  1.00  0.00     0.049 A 
ATOM     35  H   UNL A   1      41.179  29.271  32.764  1.00  0.00     0.167 HD
ATOM     36  C   UNL A   1      43.409  27.600  32.192  1.00  0.00     0.074 A 
ATOM     37  C   UNL A   1      44.317  26.721  31.482  1.00  0.00     0.031 C 
ATOM     38  C   UNL A   1      43.615  28.060  33.452  1.00  0.00     0.037 A 
BRANCH  25  39
ATOM     39  C   UNL A   1      39.192  31.862  35.523  1.00  0.00     0.064 A 
ATOM     40  C   UNL A   1      39.547  33.218  35.593  1.00  0.00     0.173 A 
ATOM     41  C   UNL A   1      38.333  31.361  36.513  1.00  0.00     0.173 A 
ATOM     42  F   UNL A   1      40.371  33.749  34.678  1.00  0.00    -0.203 F 
ATOM     43  C   UNL A   1      39.094  34.026  36.634  1.00  0.00     0.198 A 
ATOM     44  C   UNL A   1      37.854  32.179  37.533  1.00  0.00     0.198 A 
ATOM     45  F   UNL A   1      37.953  30.075  36.491  1.00  0.00    -0.203 F 
ATOM     46  F   UNL A   1      39.496  35.302  36.715  1.00  0.00    -0.200 F 
ATOM     47  C   UNL A   1      38.245  33.508  37.600  1.00  0.00     0.200 A 
ATOM     48  F   UNL A   1      37.020  31.679  38.455  1.00  0.00    -0.200 F 
ATOM     49  F   UNL A   1      37.808  34.286  38.600  1.00  0.00    -0.200 F 
ENDBRANCH  25  39
BRANCH  26  50
ATOM     50  C   UNL A   1      42.246  26.251  27.832  1.00  0.00     0.064 A 
ATOM     51  C   UNL A   1      43.100  26.778  26.854  1.00  0.00     0.173 A 
ATOM     52  C   UNL A   1      41.858  24.909  27.707  1.00  0.00     0.173 A 
ATOM     53  F   UNL A   1      43.486  28.060  26.922  1.00  0.00    -0.203 F 
ATOM     54  C   UNL A   1      43.538  25.996  25.788  1.00  0.00     0.198 A 
ATOM     55  C   UNL A   1      42.323  24.120  26.659  1.00  0.00     0.198 A 
ATOM     56  F   UNL A   1      41.048  24.356  28.622  1.00  0.00    -0.203 F 
ATOM     57  F   UNL A   1      44.325  26.534  24.845  1.00  0.00    -0.200 F 
ATOM     58  C   UNL A   1      43.157  24.666  25.696  1.00  0.00     0.200 A 
ATOM     59  F   UNL A   1      41.969  22.830  26.586  1.00  0.00    -0.200 F 
ATOM     60  F   UNL A   1      43.591  23.912  24.677  1.00  0.00    -0.200 F 
ENDBRANCH  26  50
BRANCH  38  61
ATOM     61  C   UNL A   1      44.855  27.591  34.157  1.00  0.00     0.064 A 
ATOM     62  C   UNL A   1      46.057  28.315  34.104  1.00  0.00     0.173 A 
ATOM     63  C   UNL A   1      44.834  26.412  34.919  1.00  0.00     0.173 A 
ATOM     64  F   UNL A   1      46.136  29.439  33.375  1.00  0.00    -0.203 F 
ATOM     65  C   UNL A   1      47.196  27.860  34.762  1.00  0.00     0.198 A 
ATOM     66  C   UNL A   1      45.966  25.979  35.604  1.00  0.00     0.198 A 
ATOM     67  F   UNL A   1      43.711  25.684  35.007  1.00  0.00    -0.203 F 
ATOM     68  F   UNL A   1      48.346  28.538  34.650  1.00  0.00    -0.200 F 
ATOM     69  C   UNL A   1      47.148  26.699  35.517  1.00  0.00     0.200 A 
ATOM     70  F   UNL A   1      45.913  24.865  36.345  1.00  0.00    -0.200 F 
ATOM     71  F   UNL A   1      48.244  26.266  36.156  1.00  0.00    -0.200 F 
ENDBRANCH  38  61
ENDBRANCH  12  13
ENDBRANCH   5   7
ENDBRANCH   2   3
ENDBRANCH   1   2
BRANCH   1  72
ATOM     72  C   UNL A   1      32.578  26.627  26.142  1.00  0.00     0.118 C 
BRANCH  72  73
ATOM     73  N   UNL A   1      31.611  25.693  26.679  1.00  0.00    -0.351 N 
ATOM     74  C   UNL A   1      31.400  24.365  26.501  1.00  0.00     0.279 C 
ATOM     75  H   UNL A   1      30.973  26.109  27.304  1.00  0.00     0.163 HD
ATOM     76  O   UNL A   1      30.539  23.882  27.249  1.00  0.00    -0.268 OA
BRANCH  74  77
ATOM     77  C   UNL A   1      32.225  23.472  25.535  1.00  0.00     0.284 C 
ATOM     78  C   UNL A   1      33.580  23.987  25.049  1.00  0.00     0.151 C 
ATOM     79  N   UNL A   1      31.361  23.114  24.356  1.00  0.00    -0.319 N 
ATOM     80  S   UNL A   1      33.675  23.522  23.314  1.00  0.00    -0.085 SA
ATOM     81  C   UNL A   1      31.885  23.749  23.137  1.00  0.00     0.303 C 
ATOM     82  H   UNL A   1      30.409  23.439  24.525  1.00  0.00     0.348 HD
ATOM     83  H   UNL A   1      31.363  22.101  24.234  1.00  0.00     0.348 HD
BRANCH  81  84
ATOM     84  C   UNL A   1      31.514  25.219  22.934  1.00  0.00     0.162 A 
ATOM     85  N   UNL A   1      32.319  26.130  22.410  1.00  0.00    -0.242 NA
ATOM     86  S   UNL A   1      29.946  25.820  23.338  1.00  0.00    -0.112 S 
ATOM     87  C   UNL A   1      31.702  27.367  22.392  1.00  0.00     0.132 A 
ATOM     88  C   UNL A   1      30.432  27.406  22.923  1.00  0.00     0.055 A 
BRANCH  88  89
ATOM     89  C   UNL A   1      29.529  28.531  23.124  1.00  0.00    -0.007 A 
ATOM     90  C   UNL A   1      28.146  28.368  22.953  1.00  0.00     0.009 A 
ATOM     91  C   UNL A   1      30.029  29.787  23.485  1.00  0.00     0.009 A 
ATOM     92  C   UNL A   1      27.279  29.447  23.130  1.00  0.00     0.001 A 
ATOM     93  C   UNL A   1      29.160  30.868  23.655  1.00  0.00     0.001 A 
ATOM     94  C   UNL A   1      27.788  30.698  23.477  1.00  0.00     0.000 A 
ENDBRANCH  88  89
ENDBRANCH  81  84
ENDBRANCH  74  77
ENDBRANCH  72  73
ENDBRANCH   1  72
TORSDOF 12
ENDMDL
MODEL 3
REMARK VINA RESULT:     -12.7      1.798      8.210
REMARK SMILES O=C(NCCCNC(=O)[C@@H]1CS[C@H](c2ncc(-c3ccccc3)s2)[NH2+]1)c1ccc(-c2c3nc(c(-c4c(F)c(F)c(F)c(F)c4F)c4ccc([nH]4)c(-c4c(F)c(F)c(F)c(F)c4F)c4nc(c(-c5c(F)c(F)c(F)c(F)c5F)c5ccc2[nH]5)C=C4)C=C3)cc1
REMARK SMILES IDX 5 1 4 2 3 3 1 4 2 5 26 7 27 8 88 9 28 10 87 11 29 12 30 13
REMARK SMILES IDX 31 14 81 15 32 16 86 17 80 18 82 19 33 20 85 21 79 22 78 23
REMARK SMILES IDX 34 25 66 26 46 27 65 28 47 29 50 30 64 31 83 32 48 33 49 34
REMARK SMILES IDX 63 36 84 37 51 38 35 39 36 40 44 41 37 42 38 43 42 44 45 45
REMARK SMILES IDX 39 46 40 47 43 48 41 49 67 50 68 51 76 52 69 53 70 54 74 55
REMARK SMILES IDX 77 56 71 57 72 58 75 59 73 60 52 61 53 62 61 63 54 64 55 65
REMARK SMILES IDX 59 66 62 67 56 68 57 69 60 70 58 71 6 72 7 73 8 74 9 76
REMARK SMILES IDX 10 77 11 78 25 79 12 80 13 81 14 84 15 85 24 86 16 87 17 88
REMARK SMILES IDX 18 89 19 90 23 91 20 92 22 93 21 94
REMARK H PARENT 3 6 82 24 50 35 7 75 25 82 25 83
REMARK Flexibility Score: inf
ROOT
ATOM      1  C   UNL A   1      33.890  28.943  23.541  1.00  0.00     0.042 C 
ENDROOT
BRANCH   1   2
ATOM      2  C   UNL A   1      33.696  28.903  25.053  1.00  0.00     0.118 C 
BRANCH   2   3
ATOM      3  N   UNL A   1      33.061  30.106  25.571  1.00  0.00    -0.352 N 
ATOM      4  O   UNL A   1      32.540  31.703  27.068  1.00  0.00    -0.269 OA
ATOM      5  C   UNL A   1      33.331  30.834  26.701  1.00  0.00     0.251 C 
ATOM      6  H   UNL A   1      32.321  30.452  25.022  1.00  0.00     0.163 HD
BRANCH   5   7
ATOM      7  C   UNL A   1      34.554  30.578  27.491  1.00  0.00     0.039 A 
ATOM      8  C   UNL A   1      34.791  29.327  28.062  1.00  0.00     0.014 A 
ATOM      9  C   UNL A   1      35.504  31.597  27.626  1.00  0.00     0.014 A 
ATOM     10  C   UNL A   1      35.895  29.137  28.885  1.00  0.00     0.010 A 
ATOM     11  C   UNL A   1      36.663  31.374  28.373  1.00  0.00     0.010 A 
ATOM     12  C   UNL A   1      36.854  30.150  29.034  1.00  0.00    -0.014 A 
BRANCH  12  13
ATOM     13  C   UNL A   1      38.082  29.880  29.826  1.00  0.00     0.031 A 
ATOM     14  C   UNL A   1      39.209  29.065  29.262  1.00  0.00     0.074 A 
ATOM     15  C   UNL A   1      38.176  30.399  31.065  1.00  0.00     0.049 A 
ATOM     16  N   UNL A   1      40.356  28.750  29.812  1.00  0.00    -0.248 NA
ATOM     17  C   UNL A   1      39.025  28.522  27.908  1.00  0.00     0.031 C 
ATOM     18  C   UNL A   1      37.139  31.198  31.722  1.00  0.00     0.029 A 
ATOM     19  N   UNL A   1      39.191  30.350  31.986  1.00  0.00    -0.354 N 
ATOM     20  C   UNL A   1      41.021  27.963  28.882  1.00  0.00     0.074 A 
ATOM     21  C   UNL A   1      40.136  27.818  27.746  1.00  0.00     0.031 C 
ATOM     22  C   UNL A   1      37.587  31.603  32.918  1.00  0.00     0.029 A 
ATOM     23  C   UNL A   1      38.913  31.038  33.142  1.00  0.00     0.049 A 
ATOM     24  H   UNL A   1      40.035  29.867  31.835  1.00  0.00     0.167 HD
ATOM     25  C   UNL A   1      42.262  27.420  28.967  1.00  0.00     0.037 A 
ATOM     26  C   UNL A   1      39.637  31.185  34.266  1.00  0.00     0.037 A 
ATOM     27  C   UNL A   1      43.135  27.572  30.105  1.00  0.00     0.049 A 
ATOM     28  C   UNL A   1      40.988  30.536  34.351  1.00  0.00     0.074 A 
ATOM     29  C   UNL A   1      44.424  27.096  30.273  1.00  0.00     0.029 A 
ATOM     30  N   UNL A   1      42.804  28.244  31.274  1.00  0.00    -0.354 N 
ATOM     31  N   UNL A   1      41.626  29.832  33.449  1.00  0.00    -0.248 NA
ATOM     32  C   UNL A   1      41.718  30.699  35.615  1.00  0.00     0.031 C 
ATOM     33  C   UNL A   1      44.846  27.423  31.567  1.00  0.00     0.029 A 
ATOM     34  C   UNL A   1      43.850  28.163  32.182  1.00  0.00     0.049 A 
ATOM     35  H   UNL A   1      41.951  28.708  31.436  1.00  0.00     0.167 HD
ATOM     36  C   UNL A   1      42.841  29.488  34.022  1.00  0.00     0.074 A 
ATOM     37  C   UNL A   1      42.857  30.077  35.347  1.00  0.00     0.031 C 
ATOM     38  C   UNL A   1      43.853  28.752  33.498  1.00  0.00     0.037 A 
BRANCH  25  39
ATOM     39  C   UNL A   1      42.735  26.583  27.810  1.00  0.00     0.064 A 
ATOM     40  C   UNL A   1      42.500  25.201  27.749  1.00  0.00     0.173 A 
ATOM     41  C   UNL A   1      43.414  27.178  26.735  1.00  0.00     0.173 A 
ATOM     42  F   UNL A   1      41.864  24.578  28.751  1.00  0.00    -0.203 F 
ATOM     43  C   UNL A   1      42.963  24.441  26.675  1.00  0.00     0.198 A 
ATOM     44  C   UNL A   1      43.844  26.422  25.648  1.00  0.00     0.198 A 
ATOM     45  F   UNL A   1      43.658  28.497  26.736  1.00  0.00    -0.203 F 
ATOM     46  F   UNL A   1      42.781  23.113  26.668  1.00  0.00    -0.200 F 
ATOM     47  C   UNL A   1      43.629  25.053  25.624  1.00  0.00     0.200 A 
ATOM     48  F   UNL A   1      44.473  27.018  24.626  1.00  0.00    -0.200 F 
ATOM     49  F   UNL A   1      44.071  24.321  24.592  1.00  0.00    -0.200 F 
ENDBRANCH  25  39
BRANCH  26  50
ATOM     50  C   UNL A   1      39.091  31.987  35.391  1.00  0.00     0.064 A 
ATOM     51  C   UNL A   1      38.321  31.386  36.396  1.00  0.00     0.173 A 
ATOM     52  C   UNL A   1      39.351  33.360  35.501  1.00  0.00     0.173 A 
ATOM     53  F   UNL A   1      38.032  30.078  36.326  1.00  0.00    -0.203 F 
ATOM     54  C   UNL A   1      37.822  32.132  37.461  1.00  0.00     0.198 A 
ATOM     55  C   UNL A   1      38.879  34.099  36.584  1.00  0.00     0.198 A 
ATOM     56  F   UNL A   1      40.091  33.981  34.570  1.00  0.00    -0.203 F 
ATOM     57  F   UNL A   1      37.056  31.541  38.389  1.00  0.00    -0.200 F 
ATOM     58  C   UNL A   1      38.109  33.485  37.559  1.00  0.00     0.200 A 
ATOM     59  F   UNL A   1      39.177  35.401  36.685  1.00  0.00    -0.200 F 
ATOM     60  F   UNL A   1      37.640  34.199  38.592  1.00  0.00    -0.200 F 
ENDBRANCH  26  50
BRANCH  38  61
ATOM     61  C   UNL A   1      45.079  28.573  34.347  1.00  0.00     0.064 A 
ATOM     62  C   UNL A   1      46.148  29.481  34.305  1.00  0.00     0.173 A 
ATOM     63  C   UNL A   1      45.173  27.490  35.236  1.00  0.00     0.173 A 
ATOM     64  F   UNL A   1      46.117  30.523  33.461  1.00  0.00    -0.203 F 
ATOM     65  C   UNL A   1      47.277  29.294  35.098  1.00  0.00     0.198 A 
ATOM     66  C   UNL A   1      46.288  27.325  36.052  1.00  0.00     0.198 A 
ATOM     67  F   UNL A   1      44.178  26.594  35.318  1.00  0.00    -0.203 F 
ATOM     68  F   UNL A   1      48.310  30.142  34.999  1.00  0.00    -0.200 F 
ATOM     69  C   UNL A   1      47.343  28.222  35.975  1.00  0.00     0.200 A 
ATOM     70  F   UNL A   1      46.344  26.298  36.909  1.00  0.00    -0.200 F 
ATOM     71  F   UNL A   1      48.428  28.048  36.743  1.00  0.00    -0.200 F 
ENDBRANCH  38  61
ENDBRANCH  12  13
ENDBRANCH   5   7
ENDBRANCH   2   3
ENDBRANCH   1   2
BRANCH   1  72
ATOM     72  C   UNL A   1      32.721  28.363  22.751  1.00  0.00     0.118 C 
BRANCH  72  73
ATOM     73  N   UNL A   1      33.140  27.300  21.862  1.00  0.00    -0.351 N 
ATOM     74  C   UNL A   1      32.785  25.998  21.736  1.00  0.00     0.279 C 
ATOM     75  H   UNL A   1      33.827  27.581  21.214  1.00  0.00     0.163 HD
ATOM     76  O   UNL A   1      33.278  25.429  20.752  1.00  0.00    -0.268 OA
BRANCH  74  77
ATOM     77  C   UNL A   1      31.762  25.277  22.657  1.00  0.00     0.284 C 
ATOM     78  C   UNL A   1      31.845  25.524  24.164  1.00  0.00     0.151 C 
ATOM     79  N   UNL A   1      31.820  23.801  22.376  1.00  0.00    -0.319 N 
ATOM     80  S   UNL A   1      31.537  23.924  24.928  1.00  0.00    -0.085 SA
ATOM     81  C   UNL A   1      32.357  23.086  23.545  1.00  0.00     0.303 C 
ATOM     82  H   UNL A   1      32.424  23.633  21.571  1.00  0.00     0.348 HD
ATOM     83  H   UNL A   1      30.879  23.460  22.178  1.00  0.00     0.348 HD
BRANCH  81  84
ATOM     84  C   UNL A   1      33.879  23.094  23.696  1.00  0.00     0.162 A 
ATOM     85  N   UNL A   1      34.733  23.056  22.686  1.00  0.00    -0.242 NA
ATOM     86  S   UNL A   1      34.632  23.209  25.246  1.00  0.00    -0.112 S 
ATOM     87  C   UNL A   1      36.034  23.044  23.153  1.00  0.00     0.132 A 
ATOM     88  C   UNL A   1      36.174  23.050  24.524  1.00  0.00     0.055 A 
BRANCH  88  89
ATOM     89  C   UNL A   1      37.372  22.977  25.349  1.00  0.00    -0.007 A 
ATOM     90  C   UNL A   1      37.766  24.078  26.123  1.00  0.00     0.009 A 
ATOM     91  C   UNL A   1      38.145  21.811  25.376  1.00  0.00     0.009 A 
ATOM     92  C   UNL A   1      38.922  24.017  26.903  1.00  0.00     0.001 A 
ATOM     93  C   UNL A   1      39.305  21.754  26.152  1.00  0.00     0.001 A 
ATOM     94  C   UNL A   1      39.693  22.855  26.913  1.00  0.00     0.000 A 
ENDBRANCH  88  89
ENDBRANCH  81  84
ENDBRANCH  74  77
ENDBRANCH  72  73
ENDBRANCH   1  72
TORSDOF 12
ENDMDL
