MODEL 1
REMARK VINA RESULT:     -12.4      0.000      0.000
REMARK SMILES CN(Cc1ccnn1C)C(=O)c1c(C(=O)NCCCNC(=O)c2ccc(-c3c4nc(c(-c5c(F)c(F)c(F)c(F)c5F)c5ccc([nH]5)c(-c5c(F)c(F)c(F)c(F)c5F)c5nc(c(-c6c(F)c(F)c(F)c(F)c6F)c6ccc3[nH]6)C=C5)C=C4)cc2)cnn1C
REMARK SMILES IDX 17 1 16 2 14 3 15 4 13 6 12 7 88 8 86 9 87 10 89 11 10 12
REMARK SMILES IDX 11 13 2 14 1 15 3 16 4 17 5 18 8 19 6 20 7 21 9 22 18 23
REMARK SMILES IDX 19 24 20 25 21 26 22 28 23 29 24 30 85 31 25 32 84 33 26 34
REMARK SMILES IDX 27 35 28 36 78 37 29 38 83 39 77 40 79 41 30 42 82 43 76 44
REMARK SMILES IDX 75 45 31 47 63 48 43 49 62 50 44 51 47 52 61 53 80 54 45 55
REMARK SMILES IDX 46 56 60 58 81 59 48 60 32 61 33 62 41 63 34 64 35 65 39 66
REMARK SMILES IDX 42 67 36 68 37 69 40 70 38 71 64 72 65 73 73 74 66 75 67 76
REMARK SMILES IDX 71 77 74 78 68 79 69 80 72 81 70 82 49 83 50 84 58 85 51 86
REMARK SMILES IDX 52 87 56 88 59 89 53 90 54 91 57 92 55 93
REMARK H PARENT 16 5 20 27 79 46 47 57
REMARK Flexibility Score: inf
ROOT
ATOM      1  C   UNL A   1      31.436  30.880  26.545  1.00  0.00     0.118 C 
ENDROOT
BRANCH   1   2
ATOM      2  N   UNL A   1      32.437  30.452  25.590  1.00  0.00    -0.352 N 
ATOM      3  C   UNL A   1      32.624  29.291  24.894  1.00  0.00     0.255 C 
ATOM      4  O   UNL A   1      33.602  29.269  24.144  1.00  0.00    -0.269 OA
ATOM      5  H   UNL A   1      33.120  31.137  25.403  1.00  0.00     0.163 HD
BRANCH   3   6
ATOM      6  C   UNL A   1      31.710  28.160  24.927  1.00  0.00     0.090 A 
ATOM      7  C   UNL A   1      30.652  27.718  24.133  1.00  0.00     0.138 A 
ATOM      8  N   UNL A   1      30.252  26.523  24.688  1.00  0.00    -0.262 N 
ATOM      9  C   UNL A   1      31.713  27.240  26.011  1.00  0.00     0.149 A 
ATOM     10  N   UNL A   1      30.818  26.267  25.879  1.00  0.00    -0.180 NA
ATOM     11  C   UNL A   1      29.300  25.566  24.170  1.00  0.00     0.174 C 
BRANCH   7  12
ATOM     12  C   UNL A   1      30.032  28.261  22.951  1.00  0.00     0.273 C 
ATOM     13  O   UNL A   1      30.408  27.923  21.832  1.00  0.00    -0.267 OA
BRANCH  12  14
ATOM     14  N   UNL A   1      28.972  29.152  23.126  1.00  0.00    -0.334 N 
ATOM     15  C   UNL A   1      27.609  28.636  23.145  1.00  0.00     0.147 C 
BRANCH  14  16
ATOM     16  C   UNL A   1      29.138  30.580  23.383  1.00  0.00     0.175 C 
BRANCH  16  17
ATOM     17  C   UNL A   1      28.614  31.362  22.220  1.00  0.00     0.057 A 
ATOM     18  C   UNL A   1      28.114  30.963  20.992  1.00  0.00     0.047 A 
ATOM     19  N   UNL A   1      28.547  32.736  22.199  1.00  0.00    -0.271 N 
ATOM     20  C   UNL A   1      27.751  32.146  20.331  1.00  0.00     0.135 A 
ATOM     21  N   UNL A   1      28.006  33.226  21.067  1.00  0.00    -0.181 NA
ATOM     22  C   UNL A   1      28.949  33.667  23.228  1.00  0.00     0.174 C 
ENDBRANCH  16  17
ENDBRANCH  14  16
ENDBRANCH  12  14
ENDBRANCH   7  12
ENDBRANCH   3   6
ENDBRANCH   1   2
BRANCH   1  23
ATOM     23  C   UNL A   1      31.405  32.406  26.615  1.00  0.00     0.042 C 
BRANCH  23  24
ATOM     24  C   UNL A   1      32.683  33.013  27.191  1.00  0.00     0.118 C 
BRANCH  24  25
ATOM     25  N   UNL A   1      32.471  34.372  27.657  1.00  0.00    -0.352 N 
ATOM     26  C   UNL A   1      33.029  35.022  28.729  1.00  0.00     0.251 C 
ATOM     27  H   UNL A   1      31.835  34.904  27.127  1.00  0.00     0.163 HD
ATOM     28  O   UNL A   1      32.570  36.101  29.090  1.00  0.00    -0.269 OA
BRANCH  26  29
ATOM     29  C   UNL A   1      34.173  34.435  29.465  1.00  0.00     0.039 A 
ATOM     30  C   UNL A   1      35.457  34.577  28.926  1.00  0.00     0.014 A 
ATOM     31  C   UNL A   1      33.987  33.684  30.631  1.00  0.00     0.014 A 
ATOM     32  C   UNL A   1      36.554  33.991  29.564  1.00  0.00     0.010 A 
ATOM     33  C   UNL A   1      35.089  33.138  31.292  1.00  0.00     0.010 A 
ATOM     34  C   UNL A   1      36.378  33.274  30.758  1.00  0.00    -0.014 A 
BRANCH  34  35
ATOM     35  C   UNL A   1      37.531  32.631  31.437  1.00  0.00     0.031 A 
ATOM     36  C   UNL A   1      38.267  31.503  30.768  1.00  0.00     0.074 A 
ATOM     37  C   UNL A   1      37.888  33.027  32.673  1.00  0.00     0.049 A 
ATOM     38  N   UNL A   1      39.247  30.765  31.226  1.00  0.00    -0.248 NA
ATOM     39  C   UNL A   1      37.827  31.144  29.411  1.00  0.00     0.031 C 
ATOM     40  C   UNL A   1      37.234  34.086  33.442  1.00  0.00     0.029 A 
ATOM     41  N   UNL A   1      38.885  32.577  33.503  1.00  0.00    -0.354 N 
ATOM     42  C   UNL A   1      39.519  29.838  30.229  1.00  0.00     0.074 A 
ATOM     43  C   UNL A   1      38.586  30.089  29.152  1.00  0.00     0.031 C 
ATOM     44  C   UNL A   1      37.855  34.213  34.627  1.00  0.00     0.029 A 
ATOM     45  C   UNL A   1      38.932  33.231  34.709  1.00  0.00     0.049 A 
ATOM     46  H   UNL A   1      39.505  31.854  33.256  1.00  0.00     0.167 HD
ATOM     47  C   UNL A   1      40.469  28.873  30.209  1.00  0.00     0.037 A 
ATOM     48  C   UNL A   1      39.752  33.055  35.763  1.00  0.00     0.037 A 
ATOM     49  C   UNL A   1      41.427  28.652  31.259  1.00  0.00     0.049 A 
ATOM     50  C   UNL A   1      40.828  32.008  35.696  1.00  0.00     0.074 A 
ATOM     51  C   UNL A   1      42.464  27.735  31.305  1.00  0.00     0.029 A 
ATOM     52  N   UNL A   1      41.471  29.364  32.447  1.00  0.00    -0.354 N 
ATOM     53  N   UNL A   1      41.100  31.164  34.732  1.00  0.00    -0.248 NA
ATOM     54  C   UNL A   1      41.717  31.896  36.862  1.00  0.00     0.031 C 
ATOM     55  C   UNL A   1      43.124  27.880  32.531  1.00  0.00     0.029 A 
ATOM     56  C   UNL A   1      42.514  28.906  33.235  1.00  0.00     0.049 A 
ATOM     57  H   UNL A   1      40.853  30.090  32.694  1.00  0.00     0.167 HD
ATOM     58  C   UNL A   1      42.200  30.434  35.163  1.00  0.00     0.074 A 
ATOM     59  C   UNL A   1      42.553  30.942  36.472  1.00  0.00     0.031 C 
ATOM     60  C   UNL A   1      42.856  29.431  34.531  1.00  0.00     0.037 A 
BRANCH  47  61
ATOM     61  C   UNL A   1      40.520  27.980  29.006  1.00  0.00     0.064 A 
ATOM     62  C   UNL A   1      39.761  26.803  28.933  1.00  0.00     0.173 A 
ATOM     63  C   UNL A   1      41.315  28.321  27.901  1.00  0.00     0.173 A 
ATOM     64  F   UNL A   1      38.997  26.429  29.970  1.00  0.00    -0.203 F 
ATOM     65  C   UNL A   1      39.815  25.986  27.807  1.00  0.00     0.198 A 
ATOM     66  C   UNL A   1      41.349  27.513  26.768  1.00  0.00     0.198 A 
ATOM     67  F   UNL A   1      42.056  29.439  27.920  1.00  0.00    -0.203 F 
ATOM     68  F   UNL A   1      39.115  24.844  27.776  1.00  0.00    -0.200 F 
ATOM     69  C   UNL A   1      40.605  26.344  26.724  1.00  0.00     0.200 A 
ATOM     70  F   UNL A   1      42.106  27.863  25.718  1.00  0.00    -0.200 F 
ATOM     71  F   UNL A   1      40.654  25.556  25.641  1.00  0.00    -0.200 F 
ENDBRANCH  47  61
BRANCH  48  72
ATOM     72  C   UNL A   1      39.605  33.918  36.960  1.00  0.00     0.064 A 
ATOM     73  C   UNL A   1      40.230  35.171  37.019  1.00  0.00     0.173 A 
ATOM     74  C   UNL A   1      38.832  33.517  38.057  1.00  0.00     0.173 A 
ATOM     75  F   UNL A   1      40.995  35.586  36.000  1.00  0.00    -0.203 F 
ATOM     76  C   UNL A   1      40.096  35.988  38.140  1.00  0.00     0.198 A 
ATOM     77  C   UNL A   1      38.683  34.342  39.170  1.00  0.00     0.198 A 
ATOM     78  F   UNL A   1      38.211  32.328  38.044  1.00  0.00    -0.203 F 
ATOM     79  F   UNL A   1      40.728  37.168  38.186  1.00  0.00    -0.200 F 
ATOM     80  C   UNL A   1      39.318  35.575  39.212  1.00  0.00     0.200 A 
ATOM     81  F   UNL A   1      37.921  33.946  40.199  1.00  0.00    -0.200 F 
ATOM     82  F   UNL A   1      39.185  36.363  40.287  1.00  0.00    -0.200 F 
ENDBRANCH  48  72
BRANCH  60  83
ATOM     83  C   UNL A   1      44.036  28.838  35.235  1.00  0.00     0.064 A 
ATOM     84  C   UNL A   1      45.331  29.338  35.039  1.00  0.00     0.173 A 
ATOM     85  C   UNL A   1      43.866  27.783  36.145  1.00  0.00     0.173 A 
ATOM     86  F   UNL A   1      45.543  30.334  34.167  1.00  0.00    -0.203 F 
ATOM     87  C   UNL A   1      46.418  28.791  35.715  1.00  0.00     0.198 A 
ATOM     88  C   UNL A   1      44.951  27.252  36.833  1.00  0.00     0.198 A 
ATOM     89  F   UNL A   1      42.645  27.273  36.366  1.00  0.00    -0.203 F 
ATOM     90  F   UNL A   1      47.652  29.260  35.487  1.00  0.00    -0.200 F 
ATOM     91  C   UNL A   1      46.226  27.753  36.616  1.00  0.00     0.200 A 
ATOM     92  F   UNL A   1      44.765  26.252  37.707  1.00  0.00    -0.200 F 
ATOM     93  F   UNL A   1      47.273  27.229  37.268  1.00  0.00    -0.200 F 
ENDBRANCH  60  83
ENDBRANCH  34  35
ENDBRANCH  26  29
ENDBRANCH  24  25
ENDBRANCH  23  24
ENDBRANCH   1  23
TORSDOF 14
ENDMDL
MODEL 2
REMARK VINA RESULT:     -12.1      0.765      7.430
REMARK SMILES CN(Cc1ccnn1C)C(=O)c1c(C(=O)NCCCNC(=O)c2ccc(-c3c4nc(c(-c5c(F)c(F)c(F)c(F)c5F)c5ccc([nH]5)c(-c5c(F)c(F)c(F)c(F)c5F)c5nc(c(-c6c(F)c(F)c(F)c(F)c6F)c6ccc3[nH]6)C=C5)C=C4)cc2)cnn1C
REMARK SMILES IDX 17 1 16 2 14 3 15 4 13 6 12 7 88 8 86 9 87 10 89 11 10 12
REMARK SMILES IDX 11 13 2 14 1 15 3 16 4 17 5 18 8 19 6 20 7 21 9 22 18 23
REMARK SMILES IDX 19 24 20 25 21 26 22 28 23 29 24 30 85 31 25 32 84 33 26 34
REMARK SMILES IDX 27 35 28 36 78 37 29 38 83 39 77 40 79 41 30 42 82 43 76 44
REMARK SMILES IDX 75 45 31 47 63 48 43 49 62 50 44 51 47 52 61 53 80 54 45 55
REMARK SMILES IDX 46 56 60 58 81 59 48 60 32 61 33 62 41 63 34 64 35 65 39 66
REMARK SMILES IDX 42 67 36 68 37 69 40 70 38 71 64 72 65 73 73 74 66 75 67 76
REMARK SMILES IDX 71 77 74 78 68 79 69 80 72 81 70 82 49 83 50 84 58 85 51 86
REMARK SMILES IDX 52 87 56 88 59 89 53 90 54 91 57 92 55 93
REMARK H PARENT 16 5 20 27 79 46 47 57
REMARK Flexibility Score: inf
ROOT
ATOM      1  C   UNL A   1      31.402  30.862  26.567  1.00  0.00     0.118 C 
ENDROOT
BRANCH   1   2
ATOM      2  N   UNL A   1      32.412  30.444  25.617  1.00  0.00    -0.352 N 
ATOM      3  C   UNL A   1      32.605  29.291  24.911  1.00  0.00     0.255 C 
ATOM      4  O   UNL A   1      33.590  29.276  24.169  1.00  0.00    -0.269 OA
ATOM      5  H   UNL A   1      33.097  31.131  25.443  1.00  0.00     0.163 HD
BRANCH   3   6
ATOM      6  C   UNL A   1      31.691  28.160  24.923  1.00  0.00     0.090 A 
ATOM      7  C   UNL A   1      30.642  27.725  24.114  1.00  0.00     0.138 A 
ATOM      8  N   UNL A   1      30.235  26.525  24.654  1.00  0.00    -0.262 N 
ATOM      9  C   UNL A   1      31.682  27.230  25.998  1.00  0.00     0.149 A 
ATOM     10  N   UNL A   1      30.788  26.257  25.848  1.00  0.00    -0.180 NA
ATOM     11  C   UNL A   1      29.289  25.573  24.116  1.00  0.00     0.174 C 
BRANCH   7  12
ATOM     12  C   UNL A   1      30.034  28.279  22.931  1.00  0.00     0.273 C 
ATOM     13  O   UNL A   1      30.421  27.950  21.812  1.00  0.00    -0.267 OA
BRANCH  12  14
ATOM     14  N   UNL A   1      28.973  29.169  23.102  1.00  0.00    -0.334 N 
ATOM     15  C   UNL A   1      27.610  28.653  23.111  1.00  0.00     0.147 C 
BRANCH  14  16
ATOM     16  C   UNL A   1      29.138  30.596  23.365  1.00  0.00     0.175 C 
BRANCH  16  17
ATOM     17  C   UNL A   1      28.609  31.382  22.208  1.00  0.00     0.057 A 
ATOM     18  C   UNL A   1      28.112  30.989  20.977  1.00  0.00     0.047 A 
ATOM     19  N   UNL A   1      28.532  32.756  22.197  1.00  0.00    -0.271 N 
ATOM     20  C   UNL A   1      27.741  32.175  20.324  1.00  0.00     0.135 A 
ATOM     21  N   UNL A   1      27.988  33.250  21.068  1.00  0.00    -0.181 NA
ATOM     22  C   UNL A   1      28.927  33.683  23.233  1.00  0.00     0.174 C 
ENDBRANCH  16  17
ENDBRANCH  14  16
ENDBRANCH  12  14
ENDBRANCH   7  12
ENDBRANCH   3   6
ENDBRANCH   1   2
BRANCH   1  23
ATOM     23  C   UNL A   1      31.358  32.388  26.639  1.00  0.00     0.042 C 
BRANCH  23  24
ATOM     24  C   UNL A   1      32.713  33.020  26.950  1.00  0.00     0.118 C 
BRANCH  24  25
ATOM     25  N   UNL A   1      32.570  34.280  27.658  1.00  0.00    -0.352 N 
ATOM     26  C   UNL A   1      33.211  34.722  28.787  1.00  0.00     0.251 C 
ATOM     27  H   UNL A   1      31.917  34.908  27.271  1.00  0.00     0.163 HD
ATOM     28  O   UNL A   1      32.806  35.729  29.360  1.00  0.00    -0.269 OA
BRANCH  26  29
ATOM     29  C   UNL A   1      34.382  33.995  29.333  1.00  0.00     0.039 A 
ATOM     30  C   UNL A   1      34.154  32.927  30.208  1.00  0.00     0.014 A 
ATOM     31  C   UNL A   1      35.691  34.402  29.057  1.00  0.00     0.014 A 
ATOM     32  C   UNL A   1      35.233  32.251  30.785  1.00  0.00     0.010 A 
ATOM     33  C   UNL A   1      36.769  33.698  29.598  1.00  0.00     0.010 A 
ATOM     34  C   UNL A   1      36.550  32.627  30.476  1.00  0.00    -0.014 A 
BRANCH  34  35
ATOM     35  C   UNL A   1      37.706  31.931  31.095  1.00  0.00     0.031 A 
ATOM     36  C   UNL A   1      38.135  32.279  32.494  1.00  0.00     0.074 A 
ATOM     37  C   UNL A   1      38.399  31.021  30.387  1.00  0.00     0.049 A 
ATOM     38  N   UNL A   1      39.160  31.841  33.180  1.00  0.00    -0.248 NA
ATOM     39  C   UNL A   1      37.313  33.269  33.206  1.00  0.00     0.031 C 
ATOM     40  C   UNL A   1      38.105  30.619  29.011  1.00  0.00     0.029 A 
ATOM     41  N   UNL A   1      39.502  30.276  30.724  1.00  0.00    -0.354 N 
ATOM     42  C   UNL A   1      39.124  32.522  34.390  1.00  0.00     0.074 A 
ATOM     43  C   UNL A   1      37.991  33.421  34.335  1.00  0.00     0.031 C 
ATOM     44  C   UNL A   1      38.997  29.691  28.626  1.00  0.00     0.029 A 
ATOM     45  C   UNL A   1      39.937  29.451  29.717  1.00  0.00     0.049 A 
ATOM     46  H   UNL A   1      39.938  30.328  31.605  1.00  0.00     0.167 HD
ATOM     47  C   UNL A   1      39.952  32.399  35.455  1.00  0.00     0.037 A 
ATOM     48  C   UNL A   1      40.978  28.598  29.679  1.00  0.00     0.037 A 
ATOM     49  C   UNL A   1      41.051  31.473  35.528  1.00  0.00     0.049 A 
ATOM     50  C   UNL A   1      41.855  28.447  30.891  1.00  0.00     0.074 A 
ATOM     51  C   UNL A   1      41.913  31.236  36.585  1.00  0.00     0.029 A 
ATOM     52  N   UNL A   1      41.434  30.622  34.502  1.00  0.00    -0.354 N 
ATOM     53  N   UNL A   1      41.787  29.068  32.042  1.00  0.00    -0.248 NA
ATOM     54  C   UNL A   1      42.949  27.469  30.799  1.00  0.00     0.031 C 
ATOM     55  C   UNL A   1      42.830  30.254  36.192  1.00  0.00     0.029 A 
ATOM     56  C   UNL A   1      42.521  29.862  34.899  1.00  0.00     0.049 A 
ATOM     57  H   UNL A   1      40.996  30.566  33.622  1.00  0.00     0.167 HD
ATOM     58  C   UNL A   1      42.812  28.545  32.818  1.00  0.00     0.074 A 
ATOM     59  C   UNL A   1      43.482  27.548  32.011  1.00  0.00     0.031 C 
ATOM     60  C   UNL A   1      43.168  28.866  34.085  1.00  0.00     0.037 A 
BRANCH  47  61
ATOM     61  C   UNL A   1      39.699  33.291  36.632  1.00  0.00     0.064 A 
ATOM     62  C   UNL A   1      38.806  32.927  37.649  1.00  0.00     0.173 A 
ATOM     63  C   UNL A   1      40.381  34.511  36.759  1.00  0.00     0.173 A 
ATOM     64  F   UNL A   1      38.121  31.777  37.566  1.00  0.00    -0.203 F 
ATOM     65  C   UNL A   1      38.584  33.765  38.740  1.00  0.00     0.198 A 
ATOM     66  C   UNL A   1      40.173  35.335  37.861  1.00  0.00     0.198 A 
ATOM     67  F   UNL A   1      41.249  34.902  35.814  1.00  0.00    -0.203 F 
ATOM     68  F   UNL A   1      37.694  33.417  39.679  1.00  0.00    -0.200 F 
ATOM     69  C   UNL A   1      39.271  34.965  38.847  1.00  0.00     0.200 A 
ATOM     70  F   UNL A   1      40.844  36.491  37.968  1.00  0.00    -0.200 F 
ATOM     71  F   UNL A   1      39.057  35.768  39.898  1.00  0.00    -0.200 F 
ENDBRANCH  47  61
BRANCH  48  72
ATOM     72  C   UNL A   1      41.227  27.796  28.456  1.00  0.00     0.064 A 
ATOM     73  C   UNL A   1      40.563  26.579  28.253  1.00  0.00     0.173 A 
ATOM     74  C   UNL A   1      42.118  28.232  27.467  1.00  0.00     0.173 A 
ATOM     75  F   UNL A   1      39.718  26.114  29.183  1.00  0.00    -0.203 F 
ATOM     76  C   UNL A   1      40.791  25.820  27.107  1.00  0.00     0.198 A 
ATOM     77  C   UNL A   1      42.330  27.482  26.312  1.00  0.00     0.198 A 
ATOM     78  F   UNL A   1      42.772  29.394  27.616  1.00  0.00    -0.203 F 
ATOM     79  F   UNL A   1      40.168  24.645  26.949  1.00  0.00    -0.200 F 
ATOM     80  C   UNL A   1      41.670  26.275  26.135  1.00  0.00     0.200 A 
ATOM     81  F   UNL A   1      43.171  27.930  25.369  1.00  0.00    -0.200 F 
ATOM     82  F   UNL A   1      41.885  25.548  25.031  1.00  0.00    -0.200 F 
ENDBRANCH  48  72
BRANCH  60  83
ATOM     83  C   UNL A   1      44.314  28.113  34.684  1.00  0.00     0.064 A 
ATOM     84  C   UNL A   1      44.118  26.898  35.356  1.00  0.00     0.173 A 
ATOM     85  C   UNL A   1      45.626  28.590  34.552  1.00  0.00     0.173 A 
ATOM     86  F   UNL A   1      42.879  26.411  35.520  1.00  0.00    -0.203 F 
ATOM     87  C   UNL A   1      45.195  26.195  35.891  1.00  0.00     0.198 A 
ATOM     88  C   UNL A   1      46.702  27.877  35.071  1.00  0.00     0.198 A 
ATOM     89  F   UNL A   1      45.863  29.748  33.916  1.00  0.00    -0.203 F 
ATOM     90  F   UNL A   1      44.983  25.054  36.559  1.00  0.00    -0.200 F 
ATOM     91  C   UNL A   1      46.485  26.683  35.742  1.00  0.00     0.200 A 
ATOM     92  F   UNL A   1      47.949  28.345  34.924  1.00  0.00    -0.200 F 
ATOM     93  F   UNL A   1      47.521  26.005  36.255  1.00  0.00    -0.200 F 
ENDBRANCH  60  83
ENDBRANCH  34  35
ENDBRANCH  26  29
ENDBRANCH  24  25
ENDBRANCH  23  24
ENDBRANCH   1  23
TORSDOF 14
ENDMDL
MODEL 3
REMARK VINA RESULT:     -12.1      1.052      2.191
REMARK SMILES CN(Cc1ccnn1C)C(=O)c1c(C(=O)NCCCNC(=O)c2ccc(-c3c4nc(c(-c5c(F)c(F)c(F)c(F)c5F)c5ccc([nH]5)c(-c5c(F)c(F)c(F)c(F)c5F)c5nc(c(-c6c(F)c(F)c(F)c(F)c6F)c6ccc3[nH]6)C=C5)C=C4)cc2)cnn1C
REMARK SMILES IDX 17 1 16 2 14 3 15 4 13 6 12 7 88 8 86 9 87 10 89 11 10 12
REMARK SMILES IDX 11 13 2 14 1 15 3 16 4 17 5 18 8 19 6 20 7 21 9 22 18 23
REMARK SMILES IDX 19 24 20 25 21 26 22 28 23 29 24 30 85 31 25 32 84 33 26 34
REMARK SMILES IDX 27 35 28 36 78 37 29 38 83 39 77 40 79 41 30 42 82 43 76 44
REMARK SMILES IDX 75 45 31 47 63 48 43 49 62 50 44 51 47 52 61 53 80 54 45 55
REMARK SMILES IDX 46 56 60 58 81 59 48 60 32 61 33 62 41 63 34 64 35 65 39 66
REMARK SMILES IDX 42 67 36 68 37 69 40 70 38 71 64 72 65 73 73 74 66 75 67 76
REMARK SMILES IDX 71 77 74 78 68 79 69 80 72 81 70 82 49 83 50 84 58 85 51 86
REMARK SMILES IDX 52 87 56 88 59 89 53 90 54 91 57 92 55 93
REMARK H PARENT 16 5 20 27 79 46 47 57
REMARK Flexibility Score: inf
ROOT
ATOM      1  C   UNL A   1      31.381  30.947  26.147  1.00  0.00     0.118 C 
ENDROOT
BRANCH   1   2
ATOM      2  N   UNL A   1      32.728  30.458  26.357  1.00  0.00    -0.352 N 
ATOM      3  C   UNL A   1      33.258  29.202  26.448  1.00  0.00     0.255 C 
ATOM      4  O   UNL A   1      34.476  29.148  26.630  1.00  0.00    -0.269 OA
ATOM      5  H   UNL A   1      33.397  31.175  26.451  1.00  0.00     0.163 HD
BRANCH   3   6
ATOM      6  C   UNL A   1      32.499  27.977  26.259  1.00  0.00     0.090 A 
ATOM      7  C   UNL A   1      32.342  27.059  25.221  1.00  0.00     0.138 A 
ATOM      8  N   UNL A   1      31.524  26.072  25.724  1.00  0.00    -0.262 N 
ATOM      9  C   UNL A   1      31.585  27.515  27.245  1.00  0.00     0.149 A 
ATOM     10  N   UNL A   1      30.979  26.379  26.913  1.00  0.00    -0.180 NA
ATOM     11  C   UNL A   1      31.170  24.805  25.124  1.00  0.00     0.174 C 
BRANCH   7  12
ATOM     12  C   UNL A   1      32.878  27.003  23.884  1.00  0.00     0.273 C 
ATOM     13  O   UNL A   1      34.020  26.598  23.682  1.00  0.00    -0.267 OA
BRANCH  12  14
ATOM     14  N   UNL A   1      32.045  27.390  22.834  1.00  0.00    -0.334 N 
ATOM     15  C   UNL A   1      31.700  26.415  21.807  1.00  0.00     0.147 C 
BRANCH  14  16
ATOM     16  C   UNL A   1      31.410  28.702  22.735  1.00  0.00     0.175 C 
BRANCH  16  17
ATOM     17  C   UNL A   1      29.928  28.553  22.874  1.00  0.00     0.057 A 
ATOM     18  C   UNL A   1      29.154  27.597  23.509  1.00  0.00     0.047 A 
ATOM     19  N   UNL A   1      29.023  29.436  22.331  1.00  0.00    -0.271 N 
ATOM     20  C   UNL A   1      27.825  28.004  23.322  1.00  0.00     0.135 A 
ATOM     21  N   UNL A   1      27.743  29.127  22.613  1.00  0.00    -0.181 NA
ATOM     22  C   UNL A   1      29.289  30.623  21.552  1.00  0.00     0.174 C 
ENDBRANCH  16  17
ENDBRANCH  14  16
ENDBRANCH  12  14
ENDBRANCH   7  12
ENDBRANCH   3   6
ENDBRANCH   1   2
BRANCH   1  23
ATOM     23  C   UNL A   1      31.315  32.439  26.474  1.00  0.00     0.042 C 
BRANCH  23  24
ATOM     24  C   UNL A   1      32.545  32.951  27.220  1.00  0.00     0.118 C 
BRANCH  24  25
ATOM     25  N   UNL A   1      32.392  34.339  27.620  1.00  0.00    -0.352 N 
ATOM     26  C   UNL A   1      33.005  35.024  28.639  1.00  0.00     0.251 C 
ATOM     27  H   UNL A   1      31.756  34.865  27.083  1.00  0.00     0.163 HD
ATOM     28  O   UNL A   1      32.593  36.136  28.957  1.00  0.00    -0.269 OA
BRANCH  26  29
ATOM     29  C   UNL A   1      34.153  34.438  29.370  1.00  0.00     0.039 A 
ATOM     30  C   UNL A   1      35.427  34.536  28.799  1.00  0.00     0.014 A 
ATOM     31  C   UNL A   1      33.978  33.729  30.563  1.00  0.00     0.014 A 
ATOM     32  C   UNL A   1      36.527  33.948  29.432  1.00  0.00     0.010 A 
ATOM     33  C   UNL A   1      35.082  33.181  31.218  1.00  0.00     0.010 A 
ATOM     34  C   UNL A   1      36.362  33.274  30.652  1.00  0.00    -0.014 A 
BRANCH  34  35
ATOM     35  C   UNL A   1      37.517  32.629  31.327  1.00  0.00     0.031 A 
ATOM     36  C   UNL A   1      38.265  31.518  30.645  1.00  0.00     0.074 A 
ATOM     37  C   UNL A   1      37.864  33.009  32.571  1.00  0.00     0.049 A 
ATOM     38  N   UNL A   1      39.248  30.780  31.096  1.00  0.00    -0.248 NA
ATOM     39  C   UNL A   1      37.835  31.177  29.280  1.00  0.00     0.031 C 
ATOM     40  C   UNL A   1      37.198  34.050  33.354  1.00  0.00     0.029 A 
ATOM     41  N   UNL A   1      38.860  32.553  33.399  1.00  0.00    -0.354 N 
ATOM     42  C   UNL A   1      39.533  29.871  30.086  1.00  0.00     0.074 A 
ATOM     43  C   UNL A   1      38.603  30.131  29.008  1.00  0.00     0.031 C 
ATOM     44  C   UNL A   1      37.811  34.163  34.543  1.00  0.00     0.029 A 
ATOM     45  C   UNL A   1      38.896  33.188  34.615  1.00  0.00     0.049 A 
ATOM     46  H   UNL A   1      39.488  31.839  33.145  1.00  0.00     0.167 HD
ATOM     47  C   UNL A   1      40.491  28.913  30.056  1.00  0.00     0.037 A 
ATOM     48  C   UNL A   1      39.712  33.002  35.671  1.00  0.00     0.037 A 
ATOM     49  C   UNL A   1      41.445  28.683  31.107  1.00  0.00     0.049 A 
ATOM     50  C   UNL A   1      40.797  31.965  35.593  1.00  0.00     0.074 A 
ATOM     51  C   UNL A   1      42.489  27.774  31.145  1.00  0.00     0.029 A 
ATOM     52  N   UNL A   1      41.477  29.378  32.307  1.00  0.00    -0.354 N 
ATOM     53  N   UNL A   1      41.080  31.138  34.618  1.00  0.00    -0.248 NA
ATOM     54  C   UNL A   1      41.680  31.841  36.762  1.00  0.00     0.031 C 
ATOM     55  C   UNL A   1      43.141  27.905  32.377  1.00  0.00     0.029 A 
ATOM     56  C   UNL A   1      42.519  28.915  33.093  1.00  0.00     0.049 A 
ATOM     57  H   UNL A   1      40.852  30.094  32.561  1.00  0.00     0.167 HD
ATOM     58  C   UNL A   1      42.183  30.410  35.043  1.00  0.00     0.074 A 
ATOM     59  C   UNL A   1      42.525  30.900  36.362  1.00  0.00     0.031 C 
ATOM     60  C   UNL A   1      42.850  29.422  34.399  1.00  0.00     0.037 A 
BRANCH  47  61
ATOM     61  C   UNL A   1      40.555  28.041  28.839  1.00  0.00     0.064 A 
ATOM     62  C   UNL A   1      41.350  28.379  27.735  1.00  0.00     0.173 A 
ATOM     63  C   UNL A   1      39.836  26.837  28.789  1.00  0.00     0.173 A 
ATOM     64  F   UNL A   1      42.045  29.525  27.730  1.00  0.00    -0.203 F 
ATOM     65  C   UNL A   1      41.403  27.555  26.612  1.00  0.00     0.198 A 
ATOM     66  C   UNL A   1      39.908  26.005  27.675  1.00  0.00     0.198 A 
ATOM     67  F   UNL A   1      39.064  26.467  29.823  1.00  0.00    -0.203 F 
ATOM     68  F   UNL A   1      42.136  27.918  25.551  1.00  0.00    -0.200 F 
ATOM     69  C   UNL A   1      40.686  26.368  26.586  1.00  0.00     0.200 A 
ATOM     70  F   UNL A   1      39.222  24.854  27.653  1.00  0.00    -0.200 F 
ATOM     71  F   UNL A   1      40.740  25.576  25.506  1.00  0.00    -0.200 F 
ENDBRANCH  47  61
BRANCH  48  72
ATOM     72  C   UNL A   1      39.552  33.845  36.881  1.00  0.00     0.064 A 
ATOM     73  C   UNL A   1      40.131  35.119  36.946  1.00  0.00     0.173 A 
ATOM     74  C   UNL A   1      38.811  33.402  37.985  1.00  0.00     0.173 A 
ATOM     75  F   UNL A   1      40.865  35.574  35.921  1.00  0.00    -0.203 F 
ATOM     76  C   UNL A   1      39.985  35.917  38.078  1.00  0.00     0.198 A 
ATOM     77  C   UNL A   1      38.649  34.209  39.109  1.00  0.00     0.198 A 
ATOM     78  F   UNL A   1      38.233  32.192  37.965  1.00  0.00    -0.203 F 
ATOM     79  F   UNL A   1      40.573  37.119  38.130  1.00  0.00    -0.200 F 
ATOM     80  C   UNL A   1      39.239  35.463  39.157  1.00  0.00     0.200 A 
ATOM     81  F   UNL A   1      37.918  33.773  40.145  1.00  0.00    -0.200 F 
ATOM     82  F   UNL A   1      39.094  36.233  40.244  1.00  0.00    -0.200 F 
ENDBRANCH  48  72
BRANCH  60  83
ATOM     83  C   UNL A   1      44.031  28.827  35.100  1.00  0.00     0.064 A 
ATOM     84  C   UNL A   1      43.894  27.722  35.953  1.00  0.00     0.173 A 
ATOM     85  C   UNL A   1      45.319  29.341  34.887  1.00  0.00     0.173 A 
ATOM     86  F   UNL A   1      42.680  27.207  36.198  1.00  0.00    -0.203 F 
ATOM     87  C   UNL A   1      45.003  27.164  36.582  1.00  0.00     0.198 A 
ATOM     88  C   UNL A   1      46.427  28.770  35.503  1.00  0.00     0.198 A 
ATOM     89  F   UNL A   1      45.499  30.397  34.078  1.00  0.00    -0.203 F 
ATOM     90  F   UNL A   1      44.847  26.131  37.420  1.00  0.00    -0.200 F 
ATOM     91  C   UNL A   1      46.269  27.684  36.352  1.00  0.00     0.200 A 
ATOM     92  F   UNL A   1      47.651  29.269  35.277  1.00  0.00    -0.200 F 
ATOM     93  F   UNL A   1      47.336  27.145  36.956  1.00  0.00    -0.200 F 
ENDBRANCH  60  83
ENDBRANCH  34  35
ENDBRANCH  26  29
ENDBRANCH  24  25
ENDBRANCH  23  24
ENDBRANCH   1  23
TORSDOF 14
ENDMDL
