MODEL 1
REMARK VINA RESULT:      -9.0      0.000      0.000
REMARK SMILES CSCC[C@@H](C(=O)NCCCNC(=O)c1ccc(-c2c3nc(c(-c4c(F)c(F)c(F)c(F)c4F)c4ccc([nH]4)c(-c4c(F)c(F)c(F)c(F)c4F)c4nc(c(-c5c(F)c(F)c(F)c(F)c5F)c5ccc2[nH]5)C=C4)C=C3)cc1)N1C(=O)/C(=C/c2ccc(-c3ccccc3Cl)o2)SC1=S
REMARK SMILES IDX 9 1 8 2 6 3 7 4 5 6 4 7 3 8 2 9 1 10 78 11 79 12 96 13 80 14
REMARK SMILES IDX 81 15 95 16 97 17 82 18 83 19 84 20 94 21 85 22 86 23 87 24
REMARK SMILES IDX 88 25 92 26 89 27 91 28 93 29 90 30 10 31 11 32 12 33 13 34
REMARK SMILES IDX 14 36 15 37 16 38 77 39 17 40 76 41 18 42 19 43 20 44 70 45
REMARK SMILES IDX 21 46 75 47 69 48 71 49 22 50 74 51 68 52 67 53 23 55 55 56
REMARK SMILES IDX 35 57 54 58 36 59 39 60 53 61 72 62 37 63 38 64 52 66 73 67
REMARK SMILES IDX 40 68 24 69 25 70 33 71 26 72 27 73 31 74 34 75 28 76 29 77
REMARK SMILES IDX 32 78 30 79 56 80 57 81 65 82 58 83 59 84 63 85 66 86 60 87
REMARK SMILES IDX 61 88 64 89 62 90 41 91 42 92 50 93 43 94 44 95 48 96 51 97
REMARK SMILES IDX 45 98 46 99 49 100 47 101
REMARK H PARENT 8 5 12 35 71 54 39 65
REMARK Flexibility Score: inf
ROOT
ATOM      1  C   UNL A   1      44.383  22.581  25.488  1.00  0.00     0.117 C 
ENDROOT
BRANCH   1   2
ATOM      2  N   UNL A   1      43.507  23.640  25.062  1.00  0.00    -0.354 N 
ATOM      3  C   UNL A   1      42.482  24.249  25.710  1.00  0.00     0.243 C 
ATOM      4  O   UNL A   1      42.166  25.351  25.242  1.00  0.00    -0.273 OA
ATOM      5  H   UNL A   1      43.678  23.976  24.153  1.00  0.00     0.163 HD
BRANCH   3   6
ATOM      6  C   UNL A   1      41.814  23.690  27.006  1.00  0.00     0.182 C 
BRANCH   6   7
ATOM      7  C   UNL A   1      40.753  22.575  26.952  1.00  0.00     0.046 C 
BRANCH   7   8
ATOM      8  C   UNL A   1      41.010  21.237  26.249  1.00  0.00     0.072 C 
BRANCH   8   9
ATOM      9  S   UNL A   1      41.897  19.895  27.113  1.00  0.00    -0.165 SA
ATOM     10  C   UNL A   1      42.914  19.120  25.831  1.00  0.00     0.085 C 
ENDBRANCH   8   9
ENDBRANCH   7   8
ENDBRANCH   6   7
BRANCH   6  11
ATOM     11  N   UNL A   1      41.212  24.886  27.678  1.00  0.00    -0.280 N 
ATOM     12  C   UNL A   1      42.021  25.672  28.483  1.00  0.00     0.267 C 
ATOM     13  C   UNL A   1      39.884  25.277  27.578  1.00  0.00     0.149 C 
ATOM     14  O   UNL A   1      43.200  25.462  28.737  1.00  0.00    -0.268 OA
ATOM     15  C   UNL A   1      41.240  26.786  29.085  1.00  0.00     0.084 C 
ATOM     16  S   UNL A   1      39.623  26.743  28.506  1.00  0.00    -0.054 SA
ATOM     17  S   UNL A   1      38.607  24.555  26.774  1.00  0.00    -0.052 S 
ATOM     18  C   UNL A   1      41.779  27.654  29.952  1.00  0.00     0.068 C 
BRANCH  18  19
ATOM     19  C   UNL A   1      41.028  28.690  30.577  1.00  0.00     0.128 A 
ATOM     20  C   UNL A   1      40.457  28.730  31.845  1.00  0.00     0.051 A 
ATOM     21  O   UNL A   1      40.748  29.890  29.960  1.00  0.00    -0.457 OA
ATOM     22  C   UNL A   1      39.758  29.947  31.971  1.00  0.00     0.051 A 
ATOM     23  C   UNL A   1      39.941  30.616  30.784  1.00  0.00     0.136 A 
BRANCH  23  24
ATOM     24  C   UNL A   1      39.460  31.899  30.295  1.00  0.00     0.036 A 
ATOM     25  C   UNL A   1      39.973  33.066  30.891  1.00  0.00     0.013 A 
ATOM     26  C   UNL A   1      38.444  32.031  29.335  1.00  0.00     0.052 A 
ATOM     27  C   UNL A   1      39.477  34.326  30.554  1.00  0.00     0.001 A 
ATOM     28  C   UNL A   1      37.947  33.298  29.001  1.00  0.00     0.021 A 
ATOM     29  Cl  UNL A   1      37.699  30.669  28.568  1.00  0.00    -0.084 Cl
ATOM     30  C   UNL A   1      38.458  34.442  29.615  1.00  0.00     0.002 A 
ENDBRANCH  23  24
ENDBRANCH  18  19
ENDBRANCH   6  11
ENDBRANCH   3   6
ENDBRANCH   1   2
BRANCH   1  31
ATOM     31  C   UNL A   1      45.829  22.837  25.101  1.00  0.00     0.042 C 
BRANCH  31  32
ATOM     32  C   UNL A   1      46.356  24.144  25.665  1.00  0.00     0.118 C 
BRANCH  32  33
ATOM     33  N   UNL A   1      47.182  24.863  24.701  1.00  0.00    -0.352 N 
ATOM     34  C   UNL A   1      47.375  26.214  24.533  1.00  0.00     0.251 C 
ATOM     35  H   UNL A   1      47.680  24.291  24.073  1.00  0.00     0.163 HD
ATOM     36  O   UNL A   1      47.940  26.633  23.533  1.00  0.00    -0.269 OA
BRANCH  34  37
ATOM     37  C   UNL A   1      46.874  27.159  25.554  1.00  0.00     0.039 A 
ATOM     38  C   UNL A   1      45.496  27.331  25.711  1.00  0.00     0.014 A 
ATOM     39  C   UNL A   1      47.766  27.867  26.362  1.00  0.00     0.014 A 
ATOM     40  C   UNL A   1      45.017  28.149  26.736  1.00  0.00     0.010 A 
ATOM     41  C   UNL A   1      47.289  28.583  27.449  1.00  0.00     0.010 A 
ATOM     42  C   UNL A   1      45.909  28.744  27.642  1.00  0.00    -0.014 A 
BRANCH  42  43
ATOM     43  C   UNL A   1      45.441  29.563  28.787  1.00  0.00     0.031 A 
ATOM     44  C   UNL A   1      45.158  28.901  30.107  1.00  0.00     0.074 A 
ATOM     45  C   UNL A   1      45.181  30.874  28.614  1.00  0.00     0.049 A 
ATOM     46  N   UNL A   1      44.612  29.398  31.187  1.00  0.00    -0.248 NA
ATOM     47  C   UNL A   1      45.499  27.471  30.214  1.00  0.00     0.031 C 
ATOM     48  C   UNL A   1      45.372  31.620  27.369  1.00  0.00     0.029 A 
ATOM     49  N   UNL A   1      44.681  31.809  29.486  1.00  0.00    -0.354 N 
ATOM     50  C   UNL A   1      44.523  28.342  32.085  1.00  0.00     0.074 A 
ATOM     51  C   UNL A   1      45.008  27.163  31.404  1.00  0.00     0.031 C 
ATOM     52  C   UNL A   1      45.016  32.900  27.563  1.00  0.00     0.029 A 
ATOM     53  C   UNL A   1      44.523  33.055  28.927  1.00  0.00     0.049 A 
ATOM     54  H   UNL A   1      44.457  31.606  30.423  1.00  0.00     0.167 HD
ATOM     55  C   UNL A   1      44.100  28.362  33.370  1.00  0.00     0.037 A 
ATOM     56  C   UNL A   1      44.022  34.188  29.455  1.00  0.00     0.037 A 
ATOM     57  C   UNL A   1      43.650  29.547  34.049  1.00  0.00     0.049 A 
ATOM     58  C   UNL A   1      43.543  34.180  30.882  1.00  0.00     0.074 A 
ATOM     59  C   UNL A   1      43.261  29.690  35.368  1.00  0.00     0.029 A 
ATOM     60  N   UNL A   1      43.528  30.796  33.456  1.00  0.00    -0.354 N 
ATOM     61  N   UNL A   1      43.525  33.191  31.743  1.00  0.00    -0.248 NA
ATOM     62  C   UNL A   1      43.016  35.445  31.413  1.00  0.00     0.031 C 
ATOM     63  C   UNL A   1      42.849  31.012  35.559  1.00  0.00     0.029 A 
ATOM     64  C   UNL A   1      43.045  31.709  34.377  1.00  0.00     0.049 A 
ATOM     65  H   UNL A   1      43.753  31.002  32.520  1.00  0.00     0.167 HD
ATOM     66  C   UNL A   1      43.022  33.722  32.924  1.00  0.00     0.074 A 
ATOM     67  C   UNL A   1      42.754  35.121  32.671  1.00  0.00     0.031 C 
ATOM     68  C   UNL A   1      42.804  33.104  34.111  1.00  0.00     0.037 A 
BRANCH  55  69
ATOM     69  C   UNL A   1      44.107  27.064  34.126  1.00  0.00     0.064 A 
ATOM     70  C   UNL A   1      42.925  26.353  34.387  1.00  0.00     0.173 A 
ATOM     71  C   UNL A   1      45.316  26.506  34.570  1.00  0.00     0.173 A 
ATOM     72  F   UNL A   1      41.740  26.846  33.996  1.00  0.00    -0.203 F 
ATOM     73  C   UNL A   1      42.950  25.153  35.092  1.00  0.00     0.198 A 
ATOM     74  C   UNL A   1      45.341  25.287  35.243  1.00  0.00     0.198 A 
ATOM     75  F   UNL A   1      46.478  27.140  34.344  1.00  0.00    -0.203 F 
ATOM     76  F   UNL A   1      41.802  24.523  35.379  1.00  0.00    -0.200 F 
ATOM     77  C   UNL A   1      44.158  24.616  35.512  1.00  0.00     0.200 A 
ATOM     78  F   UNL A   1      46.510  24.763  35.634  1.00  0.00    -0.200 F 
ATOM     79  F   UNL A   1      44.180  23.456  36.182  1.00  0.00    -0.200 F 
ENDBRANCH  55  69
BRANCH  56  80
ATOM     80  C   UNL A   1      43.962  35.429  28.635  1.00  0.00     0.064 A 
ATOM     81  C   UNL A   1      45.110  36.203  28.420  1.00  0.00     0.173 A 
ATOM     82  C   UNL A   1      42.763  35.867  28.057  1.00  0.00     0.173 A 
ATOM     83  F   UNL A   1      46.278  35.836  28.967  1.00  0.00    -0.203 F 
ATOM     84  C   UNL A   1      45.056  37.383  27.678  1.00  0.00     0.198 A 
ATOM     85  C   UNL A   1      42.715  37.029  27.288  1.00  0.00     0.198 A 
ATOM     86  F   UNL A   1      41.636  35.159  28.225  1.00  0.00    -0.203 F 
ATOM     87  F   UNL A   1      46.157  38.130  27.530  1.00  0.00    -0.200 F 
ATOM     88  C   UNL A   1      43.860  37.792  27.108  1.00  0.00     0.200 A 
ATOM     89  F   UNL A   1      41.561  37.411  26.724  1.00  0.00    -0.200 F 
ATOM     90  F   UNL A   1      43.809  38.922  26.391  1.00  0.00    -0.200 F 
ENDBRANCH  56  80
BRANCH  68  91
ATOM     91  C   UNL A   1      42.296  33.944  35.248  1.00  0.00     0.064 A 
ATOM     92  C   UNL A   1      40.928  34.049  35.536  1.00  0.00     0.173 A 
ATOM     93  C   UNL A   1      43.201  34.592  36.103  1.00  0.00     0.173 A 
ATOM     94  F   UNL A   1      40.022  33.460  34.741  1.00  0.00    -0.203 F 
ATOM     95  C   UNL A   1      40.485  34.786  36.631  1.00  0.00     0.198 A 
ATOM     96  C   UNL A   1      42.756  35.300  37.215  1.00  0.00     0.198 A 
ATOM     97  F   UNL A   1      44.522  34.515  35.874  1.00  0.00    -0.203 F 
ATOM     98  F   UNL A   1      39.171  34.906  36.868  1.00  0.00    -0.200 F 
ATOM     99  C   UNL A   1      41.399  35.401  37.475  1.00  0.00     0.200 A 
ATOM    100  F   UNL A   1      43.643  35.876  38.038  1.00  0.00    -0.200 F 
ATOM    101  F   UNL A   1      40.970  36.093  38.539  1.00  0.00    -0.200 F 
ENDBRANCH  68  91
ENDBRANCH  42  43
ENDBRANCH  34  37
ENDBRANCH  32  33
ENDBRANCH  31  32
ENDBRANCH   1  31
TORSDOF 16
ENDMDL
MODEL 2
REMARK VINA RESULT:      -9.0      8.144     14.239
REMARK SMILES CSCC[C@@H](C(=O)NCCCNC(=O)c1ccc(-c2c3nc(c(-c4c(F)c(F)c(F)c(F)c4F)c4ccc([nH]4)c(-c4c(F)c(F)c(F)c(F)c4F)c4nc(c(-c5c(F)c(F)c(F)c(F)c5F)c5ccc2[nH]5)C=C4)C=C3)cc1)N1C(=O)/C(=C/c2ccc(-c3ccccc3Cl)o2)SC1=S
REMARK SMILES IDX 9 1 8 2 6 3 7 4 5 6 4 7 3 8 2 9 1 10 78 11 79 12 96 13 80 14
REMARK SMILES IDX 81 15 95 16 97 17 82 18 83 19 84 20 94 21 85 22 86 23 87 24
REMARK SMILES IDX 88 25 92 26 89 27 91 28 93 29 90 30 10 31 11 32 12 33 13 34
REMARK SMILES IDX 14 36 15 37 16 38 77 39 17 40 76 41 18 42 19 43 20 44 70 45
REMARK SMILES IDX 21 46 75 47 69 48 71 49 22 50 74 51 68 52 67 53 23 55 55 56
REMARK SMILES IDX 35 57 54 58 36 59 39 60 53 61 72 62 37 63 38 64 52 66 73 67
REMARK SMILES IDX 40 68 24 69 25 70 33 71 26 72 27 73 31 74 34 75 28 76 29 77
REMARK SMILES IDX 32 78 30 79 56 80 57 81 65 82 58 83 59 84 63 85 66 86 60 87
REMARK SMILES IDX 61 88 64 89 62 90 41 91 42 92 50 93 43 94 44 95 48 96 51 97
REMARK SMILES IDX 45 98 46 99 49 100 47 101
REMARK H PARENT 8 5 12 35 71 54 39 65
REMARK Flexibility Score: inf
ROOT
ATOM      1  C   UNL A   1      47.018  39.905  25.861  1.00  0.00     0.117 C 
ENDROOT
BRANCH   1   2
ATOM      2  N   UNL A   1      46.925  39.953  24.425  1.00  0.00    -0.354 N 
ATOM      3  C   UNL A   1      46.750  41.007  23.588  1.00  0.00     0.243 C 
ATOM      4  O   UNL A   1      47.078  40.785  22.415  1.00  0.00    -0.273 OA
ATOM      5  H   UNL A   1      46.997  39.079  23.978  1.00  0.00     0.163 HD
BRANCH   3   6
ATOM      6  C   UNL A   1      46.289  42.423  24.054  1.00  0.00     0.182 C 
BRANCH   6   7
ATOM      7  C   UNL A   1      45.118  42.609  25.039  1.00  0.00     0.046 C 
BRANCH   7   8
ATOM      8  C   UNL A   1      44.894  43.918  25.804  1.00  0.00     0.072 C 
BRANCH   8   9
ATOM      9  S   UNL A   1      46.274  45.087  26.058  1.00  0.00    -0.165 SA
ATOM     10  C   UNL A   1      45.932  45.858  27.660  1.00  0.00     0.085 C 
ENDBRANCH   8   9
ENDBRANCH   7   8
ENDBRANCH   6   7
BRANCH   6  11
ATOM     11  N   UNL A   1      45.968  43.161  22.791  1.00  0.00    -0.280 N 
ATOM     12  C   UNL A   1      44.739  42.943  22.188  1.00  0.00     0.267 C 
ATOM     13  C   UNL A   1      46.817  44.051  22.145  1.00  0.00     0.149 C 
ATOM     14  O   UNL A   1      43.881  42.161  22.574  1.00  0.00    -0.268 OA
ATOM     15  C   UNL A   1      44.621  43.736  20.935  1.00  0.00     0.084 C 
ATOM     16  S   UNL A   1      46.027  44.699  20.719  1.00  0.00    -0.054 SA
ATOM     17  S   UNL A   1      48.382  44.509  22.519  1.00  0.00    -0.052 S 
ATOM     18  C   UNL A   1      43.550  43.655  20.133  1.00  0.00     0.068 C 
BRANCH  18  19
ATOM     19  C   UNL A   1      43.449  44.366  18.904  1.00  0.00     0.128 A 
ATOM     20  C   UNL A   1      42.976  43.936  17.668  1.00  0.00     0.051 A 
ATOM     21  O   UNL A   1      43.832  45.682  18.765  1.00  0.00    -0.457 OA
ATOM     22  C   UNL A   1      43.144  44.989  16.746  1.00  0.00     0.051 A 
ATOM     23  C   UNL A   1      43.695  46.031  17.455  1.00  0.00     0.136 A 
BRANCH  23  24
ATOM     24  C   UNL A   1      44.116  47.369  17.067  1.00  0.00     0.036 A 
ATOM     25  C   UNL A   1      45.494  47.611  16.924  1.00  0.00     0.013 A 
ATOM     26  C   UNL A   1      43.230  48.449  16.924  1.00  0.00     0.052 A 
ATOM     27  C   UNL A   1      45.978  48.894  16.664  1.00  0.00     0.001 A 
ATOM     28  C   UNL A   1      43.720  49.735  16.666  1.00  0.00     0.021 A 
ATOM     29  Cl  UNL A   1      41.517  48.287  17.124  1.00  0.00    -0.084 Cl
ATOM     30  C   UNL A   1      45.092  49.958  16.544  1.00  0.00     0.002 A 
ENDBRANCH  23  24
ENDBRANCH  18  19
ENDBRANCH   6  11
ENDBRANCH   3   6
ENDBRANCH   1   2
BRANCH   1  31
ATOM     31  C   UNL A   1      46.153  38.810  26.459  1.00  0.00     0.042 C 
BRANCH  31  32
ATOM     32  C   UNL A   1      46.978  37.684  27.057  1.00  0.00     0.118 C 
BRANCH  32  33
ATOM     33  N   UNL A   1      47.234  37.886  28.479  1.00  0.00    -0.352 N 
ATOM     34  C   UNL A   1      46.770  37.190  29.570  1.00  0.00     0.251 C 
ATOM     35  H   UNL A   1      47.833  38.639  28.690  1.00  0.00     0.163 HD
ATOM     36  O   UNL A   1      46.926  37.641  30.696  1.00  0.00    -0.269 OA
BRANCH  34  37
ATOM     37  C   UNL A   1      46.061  35.908  29.375  1.00  0.00     0.039 A 
ATOM     38  C   UNL A   1      45.163  35.776  28.313  1.00  0.00     0.014 A 
ATOM     39  C   UNL A   1      46.293  34.833  30.235  1.00  0.00     0.014 A 
ATOM     40  C   UNL A   1      44.563  34.539  28.068  1.00  0.00     0.010 A 
ATOM     41  C   UNL A   1      45.789  33.580  29.921  1.00  0.00     0.010 A 
ATOM     42  C   UNL A   1      44.908  33.420  28.842  1.00  0.00    -0.014 A 
BRANCH  42  43
ATOM     43  C   UNL A   1      44.349  32.072  28.573  1.00  0.00     0.031 A 
ATOM     44  C   UNL A   1      43.017  31.690  29.158  1.00  0.00     0.074 A 
ATOM     45  C   UNL A   1      45.077  31.167  27.889  1.00  0.00     0.049 A 
ATOM     46  N   UNL A   1      42.416  30.529  29.167  1.00  0.00    -0.248 NA
ATOM     47  C   UNL A   1      42.279  32.751  29.865  1.00  0.00     0.031 C 
ATOM     48  C   UNL A   1      46.401  31.404  27.311  1.00  0.00     0.029 A 
ATOM     49  N   UNL A   1      44.812  29.856  27.581  1.00  0.00    -0.354 N 
ATOM     50  C   UNL A   1      41.249  30.715  29.897  1.00  0.00     0.074 A 
ATOM     51  C   UNL A   1      41.256  32.080  30.372  1.00  0.00     0.031 C 
ATOM     52  C   UNL A   1      46.822  30.286  26.700  1.00  0.00     0.029 A 
ATOM     53  C   UNL A   1      45.824  29.238  26.887  1.00  0.00     0.049 A 
ATOM     54  H   UNL A   1      43.975  29.402  27.833  1.00  0.00     0.167 HD
ATOM     55  C   UNL A   1      40.249  29.833  30.128  1.00  0.00     0.037 A 
ATOM     56  C   UNL A   1      45.938  27.964  26.463  1.00  0.00     0.037 A 
ATOM     57  C   UNL A   1      40.235  28.486  29.624  1.00  0.00     0.049 A 
ATOM     58  C   UNL A   1      44.818  26.998  26.746  1.00  0.00     0.074 A 
ATOM     59  C   UNL A   1      39.242  27.530  29.745  1.00  0.00     0.029 A 
ATOM     60  N   UNL A   1      41.268  27.904  28.902  1.00  0.00    -0.354 N 
ATOM     61  N   UNL A   1      43.689  27.203  27.380  1.00  0.00    -0.248 NA
ATOM     62  C   UNL A   1      44.986  25.624  26.252  1.00  0.00     0.031 C 
ATOM     63  C   UNL A   1      39.698  26.353  29.146  1.00  0.00     0.029 A 
ATOM     64  C   UNL A   1      40.946  26.593  28.594  1.00  0.00     0.049 A 
ATOM     65  H   UNL A   1      42.105  28.357  28.648  1.00  0.00     0.167 HD
ATOM     66  C   UNL A   1      42.999  25.998  27.331  1.00  0.00     0.074 A 
ATOM     67  C   UNL A   1      43.833  25.070  26.597  1.00  0.00     0.031 C 
ATOM     68  C   UNL A   1      41.783  25.690  27.845  1.00  0.00     0.037 A 
BRANCH  55  69
ATOM     69  C   UNL A   1      39.087  30.298  30.958  1.00  0.00     0.064 A 
ATOM     70  C   UNL A   1      39.054  30.120  32.350  1.00  0.00     0.173 A 
ATOM     71  C   UNL A   1      38.004  30.959  30.358  1.00  0.00     0.173 A 
ATOM     72  F   UNL A   1      40.056  29.483  32.974  1.00  0.00    -0.203 F 
ATOM     73  C   UNL A   1      37.966  30.554  33.103  1.00  0.00     0.198 A 
ATOM     74  C   UNL A   1      36.935  31.425  31.119  1.00  0.00     0.198 A 
ATOM     75  F   UNL A   1      37.985  31.162  29.031  1.00  0.00    -0.203 F 
ATOM     76  F   UNL A   1      37.932  30.320  34.423  1.00  0.00    -0.200 F 
ATOM     77  C   UNL A   1      36.912  31.214  32.490  1.00  0.00     0.200 A 
ATOM     78  F   UNL A   1      35.926  32.076  30.527  1.00  0.00    -0.200 F 
ATOM     79  F   UNL A   1      35.872  31.640  33.218  1.00  0.00    -0.200 F 
ENDBRANCH  55  69
BRANCH  56  80
ATOM     80  C   UNL A   1      47.149  27.533  25.714  1.00  0.00     0.064 A 
ATOM     81  C   UNL A   1      48.244  26.967  26.383  1.00  0.00     0.173 A 
ATOM     82  C   UNL A   1      47.241  27.679  24.323  1.00  0.00     0.173 A 
ATOM     83  F   UNL A   1      48.213  26.823  27.716  1.00  0.00    -0.203 F 
ATOM     84  C   UNL A   1      49.393  26.589  25.692  1.00  0.00     0.198 A 
ATOM     85  C   UNL A   1      48.378  27.270  23.628  1.00  0.00     0.198 A 
ATOM     86  F   UNL A   1      46.219  28.207  23.633  1.00  0.00    -0.203 F 
ATOM     87  F   UNL A   1      50.444  26.098  26.362  1.00  0.00    -0.200 F 
ATOM     88  C   UNL A   1      49.458  26.734  24.314  1.00  0.00     0.200 A 
ATOM     89  F   UNL A   1      48.428  27.397  22.295  1.00  0.00    -0.200 F 
ATOM     90  F   UNL A   1      50.560  26.365  23.650  1.00  0.00    -0.200 F 
ENDBRANCH  56  80
BRANCH  68  91
ATOM     91  C   UNL A   1      41.251  24.310  27.592  1.00  0.00     0.064 A 
ATOM     92  C   UNL A   1      40.195  24.075  26.701  1.00  0.00     0.173 A 
ATOM     93  C   UNL A   1      41.860  23.199  28.198  1.00  0.00     0.173 A 
ATOM     94  F   UNL A   1      39.571  25.104  26.107  1.00  0.00    -0.203 F 
ATOM     95  C   UNL A   1      39.757  22.780  26.437  1.00  0.00     0.198 A 
ATOM     96  C   UNL A   1      41.441  21.904  27.908  1.00  0.00     0.198 A 
ATOM     97  F   UNL A   1      42.880  23.370  29.053  1.00  0.00    -0.203 F 
ATOM     98  F   UNL A   1      38.721  22.580  25.611  1.00  0.00    -0.200 F 
ATOM     99  C   UNL A   1      40.387  21.696  27.032  1.00  0.00     0.200 A 
ATOM    100  F   UNL A   1      42.065  20.859  28.469  1.00  0.00    -0.200 F 
ATOM    101  F   UNL A   1      39.977  20.450  26.761  1.00  0.00    -0.200 F 
ENDBRANCH  68  91
ENDBRANCH  42  43
ENDBRANCH  34  37
ENDBRANCH  32  33
ENDBRANCH  31  32
ENDBRANCH   1  31
TORSDOF 16
ENDMDL
MODEL 3
REMARK VINA RESULT:      -8.8      7.021     12.329
REMARK SMILES CSCC[C@@H](C(=O)NCCCNC(=O)c1ccc(-c2c3nc(c(-c4c(F)c(F)c(F)c(F)c4F)c4ccc([nH]4)c(-c4c(F)c(F)c(F)c(F)c4F)c4nc(c(-c5c(F)c(F)c(F)c(F)c5F)c5ccc2[nH]5)C=C4)C=C3)cc1)N1C(=O)/C(=C/c2ccc(-c3ccccc3Cl)o2)SC1=S
REMARK SMILES IDX 9 1 8 2 6 3 7 4 5 6 4 7 3 8 2 9 1 10 78 11 79 12 96 13 80 14
REMARK SMILES IDX 81 15 95 16 97 17 82 18 83 19 84 20 94 21 85 22 86 23 87 24
REMARK SMILES IDX 88 25 92 26 89 27 91 28 93 29 90 30 10 31 11 32 12 33 13 34
REMARK SMILES IDX 14 36 15 37 16 38 77 39 17 40 76 41 18 42 19 43 20 44 70 45
REMARK SMILES IDX 21 46 75 47 69 48 71 49 22 50 74 51 68 52 67 53 23 55 55 56
REMARK SMILES IDX 35 57 54 58 36 59 39 60 53 61 72 62 37 63 38 64 52 66 73 67
REMARK SMILES IDX 40 68 24 69 25 70 33 71 26 72 27 73 31 74 34 75 28 76 29 77
REMARK SMILES IDX 32 78 30 79 56 80 57 81 65 82 58 83 59 84 63 85 66 86 60 87
REMARK SMILES IDX 61 88 64 89 62 90 41 91 42 92 50 93 43 94 44 95 48 96 51 97
REMARK SMILES IDX 45 98 46 99 49 100 47 101
REMARK H PARENT 8 5 12 35 71 54 39 65
REMARK Flexibility Score: inf
ROOT
ATOM      1  C   UNL A   1      47.199  24.284  39.034  1.00  0.00     0.117 C 
ENDROOT
BRANCH   1   2
ATOM      2  N   UNL A   1      48.033  23.599  39.986  1.00  0.00    -0.354 N 
ATOM      3  C   UNL A   1      48.683  22.411  39.893  1.00  0.00     0.243 C 
ATOM      4  O   UNL A   1      49.602  22.267  40.710  1.00  0.00    -0.273 OA
ATOM      5  H   UNL A   1      48.151  24.067  40.844  1.00  0.00     0.163 HD
BRANCH   3   6
ATOM      6  C   UNL A   1      48.399  21.345  38.788  1.00  0.00     0.182 C 
BRANCH   6   7
ATOM      7  C   UNL A   1      47.490  21.654  37.582  1.00  0.00     0.046 C 
BRANCH   7   8
ATOM      8  C   UNL A   1      47.255  20.641  36.457  1.00  0.00     0.072 C 
BRANCH   8   9
ATOM      9  S   UNL A   1      45.743  20.729  35.436  1.00  0.00    -0.165 SA
ATOM     10  C   UNL A   1      45.322  22.489  35.391  1.00  0.00     0.085 C 
ENDBRANCH   8   9
ENDBRANCH   7   8
ENDBRANCH   6   7
BRANCH   6  11
ATOM     11  N   UNL A   1      47.832  20.169  39.522  1.00  0.00    -0.280 N 
ATOM     12  C   UNL A   1      46.543  20.258  40.025  1.00  0.00     0.267 C 
ATOM     13  C   UNL A   1      48.501  18.977  39.763  1.00  0.00     0.149 C 
ATOM     14  O   UNL A   1      45.816  21.240  39.961  1.00  0.00    -0.268 OA
ATOM     15  C   UNL A   1      46.174  19.010  40.745  1.00  0.00     0.084 C 
ATOM     16  S   UNL A   1      47.454  17.871  40.633  1.00  0.00    -0.054 SA
ATOM     17  S   UNL A   1      50.067  18.526  39.384  1.00  0.00    -0.052 S 
ATOM     18  C   UNL A   1      45.000  18.868  41.377  1.00  0.00     0.068 C 
BRANCH  18  19
ATOM     19  C   UNL A   1      44.656  17.701  42.116  1.00  0.00     0.128 A 
ATOM     20  C   UNL A   1      45.196  17.211  43.302  1.00  0.00     0.051 A 
ATOM     21  O   UNL A   1      43.660  16.831  41.727  1.00  0.00    -0.457 OA
ATOM     22  C   UNL A   1      44.564  15.987  43.597  1.00  0.00     0.051 A 
ATOM     23  C   UNL A   1      43.648  15.780  42.592  1.00  0.00     0.136 A 
BRANCH  23  24
ATOM     24  C   UNL A   1      42.713  14.697  42.323  1.00  0.00     0.036 A 
ATOM     25  C   UNL A   1      42.307  13.893  43.405  1.00  0.00     0.013 A 
ATOM     26  C   UNL A   1      42.273  14.355  41.035  1.00  0.00     0.052 A 
ATOM     27  C   UNL A   1      41.503  12.770  43.206  1.00  0.00     0.001 A 
ATOM     28  C   UNL A   1      41.468  13.225  40.840  1.00  0.00     0.021 A 
ATOM     29  Cl  UNL A   1      42.743  15.237  39.621  1.00  0.00    -0.084 Cl
ATOM     30  C   UNL A   1      41.090  12.431  41.923  1.00  0.00     0.002 A 
ENDBRANCH  23  24
ENDBRANCH  18  19
ENDBRANCH   6  11
ENDBRANCH   3   6
ENDBRANCH   1   2
BRANCH   1  31
ATOM     31  C   UNL A   1      46.621  25.571  39.594  1.00  0.00     0.042 C 
BRANCH  31  32
ATOM     32  C   UNL A   1      46.752  26.733  38.626  1.00  0.00     0.118 C 
BRANCH  32  33
ATOM     33  N   UNL A   1      47.940  26.617  37.787  1.00  0.00    -0.352 N 
ATOM     34  C   UNL A   1      48.060  26.611  36.417  1.00  0.00     0.251 C 
ATOM     35  H   UNL A   1      48.789  26.528  38.279  1.00  0.00     0.163 HD
ATOM     36  O   UNL A   1      49.119  26.290  35.896  1.00  0.00    -0.269 OA
BRANCH  34  37
ATOM     37  C   UNL A   1      46.898  26.972  35.577  1.00  0.00     0.039 A 
ATOM     38  C   UNL A   1      45.761  26.160  35.596  1.00  0.00     0.014 A 
ATOM     39  C   UNL A   1      46.929  28.118  34.781  1.00  0.00     0.014 A 
ATOM     40  C   UNL A   1      44.627  26.546  34.879  1.00  0.00     0.010 A 
ATOM     41  C   UNL A   1      45.767  28.559  34.167  1.00  0.00     0.010 A 
ATOM     42  C   UNL A   1      44.606  27.773  34.197  1.00  0.00    -0.014 A 
BRANCH  42  43
ATOM     43  C   UNL A   1      43.399  28.257  33.481  1.00  0.00     0.031 A 
ATOM     44  C   UNL A   1      43.193  27.883  32.039  1.00  0.00     0.074 A 
ATOM     45  C   UNL A   1      42.548  29.103  34.094  1.00  0.00     0.049 A 
ATOM     46  N   UNL A   1      42.292  28.308  31.191  1.00  0.00    -0.248 NA
ATOM     47  C   UNL A   1      44.156  26.931  31.459  1.00  0.00     0.031 C 
ATOM     48  C   UNL A   1      42.667  29.574  35.475  1.00  0.00     0.029 A 
ATOM     49  N   UNL A   1      41.422  29.733  33.625  1.00  0.00    -0.354 N 
ATOM     50  C   UNL A   1      42.596  27.698  29.981  1.00  0.00     0.074 A 
ATOM     51  C   UNL A   1      43.800  26.925  30.184  1.00  0.00     0.031 C 
ATOM     52  C   UNL A   1      41.644  30.399  35.748  1.00  0.00     0.029 A 
ATOM     53  C   UNL A   1      40.827  30.557  34.550  1.00  0.00     0.049 A 
ATOM     54  H   UNL A   1      41.074  29.606  32.713  1.00  0.00     0.167 HD
ATOM     55  C   UNL A   1      41.915  27.756  28.813  1.00  0.00     0.037 A 
ATOM     56  C   UNL A   1      39.752  31.361  34.435  1.00  0.00     0.037 A 
ATOM     57  C   UNL A   1      40.698  28.500  28.630  1.00  0.00     0.049 A 
ATOM     58  C   UNL A   1      39.021  31.419  33.121  1.00  0.00     0.074 A 
ATOM     59  C   UNL A   1      39.894  28.575  27.507  1.00  0.00     0.029 A 
ATOM     60  N   UNL A   1      40.112  29.304  29.598  1.00  0.00    -0.354 N 
ATOM     61  N   UNL A   1      39.278  30.786  32.002  1.00  0.00    -0.248 NA
ATOM     62  C   UNL A   1      37.847  32.302  33.052  1.00  0.00     0.031 C 
ATOM     63  C   UNL A   1      38.853  29.467  27.777  1.00  0.00     0.029 A 
ATOM     64  C   UNL A   1      38.970  29.897  29.089  1.00  0.00     0.049 A 
ATOM     65  H   UNL A   1      40.458  29.430  30.512  1.00  0.00     0.167 HD
ATOM     66  C   UNL A   1      38.282  31.164  31.111  1.00  0.00     0.074 A 
ATOM     67  C   UNL A   1      37.412  32.076  31.821  1.00  0.00     0.031 C 
ATOM     68  C   UNL A   1      38.105  30.788  29.820  1.00  0.00     0.037 A 
BRANCH  55  69
ATOM     69  C   UNL A   1      42.467  26.990  27.645  1.00  0.00     0.064 A 
ATOM     70  C   UNL A   1      43.373  27.569  26.743  1.00  0.00     0.173 A 
ATOM     71  C   UNL A   1      42.111  25.647  27.442  1.00  0.00     0.173 A 
ATOM     72  F   UNL A   1      43.738  28.853  26.882  1.00  0.00    -0.203 F 
ATOM     73  C   UNL A   1      43.873  26.846  25.663  1.00  0.00     0.198 A 
ATOM     74  C   UNL A   1      42.642  24.915  26.383  1.00  0.00     0.198 A 
ATOM     75  F   UNL A   1      41.253  25.040  28.277  1.00  0.00    -0.203 F 
ATOM     76  F   UNL A   1      44.690  27.439  24.782  1.00  0.00    -0.200 F 
ATOM     77  C   UNL A   1      43.514  25.517  25.489  1.00  0.00     0.200 A 
ATOM     78  F   UNL A   1      42.306  23.628  26.225  1.00  0.00    -0.200 F 
ATOM     79  F   UNL A   1      44.004  24.820  24.455  1.00  0.00    -0.200 F 
ENDBRANCH  55  69
BRANCH  56  80
ATOM     80  C   UNL A   1      39.293  32.162  35.602  1.00  0.00     0.064 A 
ATOM     81  C   UNL A   1      38.412  31.617  36.546  1.00  0.00     0.173 A 
ATOM     82  C   UNL A   1      39.719  33.483  35.796  1.00  0.00     0.173 A 
ATOM     83  F   UNL A   1      37.960  30.363  36.395  1.00  0.00    -0.203 F 
ATOM     84  C   UNL A   1      37.954  32.372  37.625  1.00  0.00     0.198 A 
ATOM     85  C   UNL A   1      39.287  34.227  36.893  1.00  0.00     0.198 A 
ATOM     86  F   UNL A   1      40.569  34.051  34.928  1.00  0.00    -0.203 F 
ATOM     87  F   UNL A   1      37.072  31.842  38.483  1.00  0.00    -0.200 F 
ATOM     88  C   UNL A   1      38.396  33.674  37.802  1.00  0.00     0.200 A 
ATOM     89  F   UNL A   1      39.731  35.479  37.069  1.00  0.00    -0.200 F 
ATOM     90  F   UNL A   1      37.960  34.397  38.841  1.00  0.00    -0.200 F 
ENDBRANCH  56  80
BRANCH  68  91
ATOM     91  C   UNL A   1      36.897  31.317  29.102  1.00  0.00     0.064 A 
ATOM     92  C   UNL A   1      35.779  30.512  28.842  1.00  0.00     0.173 A 
ATOM     93  C   UNL A   1      36.833  32.670  28.736  1.00  0.00     0.173 A 
ATOM     94  F   UNL A   1      35.796  29.208  29.161  1.00  0.00    -0.203 F 
ATOM     95  C   UNL A   1      34.647  31.040  28.228  1.00  0.00     0.198 A 
ATOM     96  C   UNL A   1      35.688  33.202  28.151  1.00  0.00     0.198 A 
ATOM     97  F   UNL A   1      37.875  33.485  28.970  1.00  0.00    -0.203 F 
ATOM     98  F   UNL A   1      33.604  30.245  27.953  1.00  0.00    -0.200 F 
ATOM     99  C   UNL A   1      34.599  32.386  27.893  1.00  0.00     0.200 A 
ATOM    100  F   UNL A   1      35.638  34.506  27.847  1.00  0.00    -0.200 F 
ATOM    101  F   UNL A   1      33.500  32.895  27.319  1.00  0.00    -0.200 F 
ENDBRANCH  68  91
ENDBRANCH  42  43
ENDBRANCH  34  37
ENDBRANCH  32  33
ENDBRANCH  31  32
ENDBRANCH   1  31
TORSDOF 16
ENDMDL
