MODEL 1
REMARK VINA RESULT:     -13.1      0.000      0.000
REMARK SMILES O=C(NCCCNC(=O)c1ccc(-c2c3nc(c(-c4c(F)c(F)c(F)c(F)c4F)c4ccc([nH]4)c(-c4c(F)c(F)c(F)c(F)c4F)c4nc(c(-c5c(F)c(F)c(F)c(F)c5F)c5ccc2[nH]5)C=C4)C=C3)cc1)c1ccc(Cc2nc3ccccc3s2)cc1
REMARK SMILES IDX 5 1 4 2 3 3 1 4 2 5 73 7 74 8 88 9 75 10 87 11 76 12 77 13
REMARK SMILES IDX 78 14 79 15 86 16 80 17 85 18 81 19 84 20 82 21 83 22 6 23
REMARK SMILES IDX 7 24 8 25 9 27 10 28 11 29 72 30 12 31 71 32 13 33 14 34
REMARK SMILES IDX 15 35 65 36 16 37 70 38 64 39 66 40 17 41 69 42 63 43 62 44
REMARK SMILES IDX 18 46 50 47 30 48 49 49 31 50 34 51 48 52 67 53 32 54 33 55
REMARK SMILES IDX 47 57 68 58 35 59 19 60 20 61 28 62 21 63 22 64 26 65 29 66
REMARK SMILES IDX 23 67 24 68 27 69 25 70 51 71 52 72 60 73 53 74 54 75 58 76
REMARK SMILES IDX 61 77 55 78 56 79 59 80 57 81 36 82 37 83 45 84 38 85 39 86
REMARK SMILES IDX 43 87 46 88 40 89 41 90 44 91 42 92
REMARK H PARENT 3 6 7 26 66 45 34 56
REMARK Flexibility Score: inf
ROOT
ATOM      1  C   UNL A   1      33.220  29.137  23.886  1.00  0.00     0.042 C 
ENDROOT
BRANCH   1   2
ATOM      2  C   UNL A   1      32.062  28.510  23.121  1.00  0.00     0.118 C 
BRANCH   2   3
ATOM      3  N   UNL A   1      32.495  27.712  21.984  1.00  0.00    -0.352 N 
ATOM      4  O   UNL A   1      33.308  25.918  20.889  1.00  0.00    -0.269 OA
ATOM      5  C   UNL A   1      32.821  26.377  21.914  1.00  0.00     0.251 C 
ATOM      6  H   UNL A   1      32.566  28.203  21.132  1.00  0.00     0.163 HD
BRANCH   5   7
ATOM      7  C   UNL A   1      32.626  25.508  23.094  1.00  0.00     0.039 A 
ATOM      8  C   UNL A   1      33.614  25.385  24.075  1.00  0.00     0.014 A 
ATOM      9  C   UNL A   1      31.439  24.781  23.196  1.00  0.00     0.014 A 
ATOM     10  C   UNL A   1      33.479  24.424  25.077  1.00  0.00     0.005 A 
ATOM     11  C   UNL A   1      31.293  23.837  24.212  1.00  0.00     0.005 A 
ATOM     12  C   UNL A   1      32.330  23.620  25.133  1.00  0.00    -0.041 A 
BRANCH  12  13
ATOM     13  C   UNL A   1      32.261  22.464  26.108  1.00  0.00     0.103 C 
BRANCH  13  14
ATOM     14  C   UNL A   1      32.753  21.168  25.513  1.00  0.00     0.098 A 
ATOM     15  N   UNL A   1      31.998  20.277  24.904  1.00  0.00    -0.241 NA
ATOM     16  S   UNL A   1      34.419  20.759  25.627  1.00  0.00    -0.118 S 
ATOM     17  C   UNL A   1      32.763  19.206  24.479  1.00  0.00     0.082 A 
ATOM     18  C   UNL A   1      34.122  19.284  24.789  1.00  0.00     0.055 A 
ATOM     19  C   UNL A   1      32.289  18.075  23.783  1.00  0.00     0.030 A 
ATOM     20  C   UNL A   1      35.023  18.266  24.431  1.00  0.00     0.021 A 
ATOM     21  C   UNL A   1      33.177  17.057  23.421  1.00  0.00     0.002 A 
ATOM     22  C   UNL A   1      34.526  17.153  23.745  1.00  0.00     0.002 A 
ENDBRANCH  13  14
ENDBRANCH  12  13
ENDBRANCH   5   7
ENDBRANCH   2   3
ENDBRANCH   1   2
BRANCH   1  23
ATOM     23  C   UNL A   1      33.055  29.141  25.400  1.00  0.00     0.118 C 
BRANCH  23  24
ATOM     24  N   UNL A   1      32.682  30.444  25.930  1.00  0.00    -0.352 N 
ATOM     25  C   UNL A   1      33.212  31.194  26.949  1.00  0.00     0.251 C 
ATOM     26  H   UNL A   1      31.914  30.861  25.477  1.00  0.00     0.163 HD
ATOM     27  O   UNL A   1      32.612  32.198  27.324  1.00  0.00    -0.269 OA
BRANCH  25  28
ATOM     28  C   UNL A   1      34.477  30.810  27.620  1.00  0.00     0.039 A 
ATOM     29  C   UNL A   1      35.455  31.793  27.801  1.00  0.00     0.014 A 
ATOM     30  C   UNL A   1      34.738  29.499  28.024  1.00  0.00     0.014 A 
ATOM     31  C   UNL A   1      36.657  31.474  28.437  1.00  0.00     0.010 A 
ATOM     32  C   UNL A   1      35.895  29.203  28.746  1.00  0.00     0.010 A 
ATOM     33  C   UNL A   1      36.873  30.186  28.952  1.00  0.00    -0.014 A 
BRANCH  33  34
ATOM     34  C   UNL A   1      38.114  29.871  29.708  1.00  0.00     0.031 A 
ATOM     35  C   UNL A   1      38.339  30.425  31.089  1.00  0.00     0.074 A 
ATOM     36  C   UNL A   1      39.060  29.105  29.130  1.00  0.00     0.049 A 
ATOM     37  N   UNL A   1      39.352  30.241  31.899  1.00  0.00    -0.248 NA
ATOM     38  C   UNL A   1      37.305  31.325  31.625  1.00  0.00     0.031 C 
ATOM     39  C   UNL A   1      38.994  28.564  27.771  1.00  0.00     0.029 A 
ATOM     40  N   UNL A   1      40.261  28.645  29.610  1.00  0.00    -0.354 N 
ATOM     41  C   UNL A   1      39.082  31.004  33.029  1.00  0.00     0.074 A 
ATOM     42  C   UNL A   1      37.839  31.701  32.777  1.00  0.00     0.031 C 
ATOM     43  C   UNL A   1      40.083  27.817  27.540  1.00  0.00     0.029 A 
ATOM     44  C   UNL A   1      40.945  27.855  28.718  1.00  0.00     0.049 A 
ATOM     45  H   UNL A   1      40.602  28.860  30.509  1.00  0.00     0.167 HD
ATOM     46  C   UNL A   1      39.792  31.096  34.179  1.00  0.00     0.037 A 
ATOM     47  C   UNL A   1      42.132  27.231  28.833  1.00  0.00     0.037 A 
ATOM     48  C   UNL A   1      41.017  30.384  34.434  1.00  0.00     0.049 A 
ATOM     49  C   UNL A   1      42.892  27.339  30.128  1.00  0.00     0.074 A 
ATOM     50  C   UNL A   1      41.773  30.354  35.593  1.00  0.00     0.029 A 
ATOM     51  N   UNL A   1      41.672  29.581  33.511  1.00  0.00    -0.354 N 
ATOM     52  N   UNL A   1      42.577  27.990  31.223  1.00  0.00    -0.248 NA
ATOM     53  C   UNL A   1      44.166  26.614  30.209  1.00  0.00     0.031 C 
ATOM     54  C   UNL A   1      42.915  29.583  35.353  1.00  0.00     0.029 A 
ATOM     55  C   UNL A   1      42.839  29.077  34.065  1.00  0.00     0.049 A 
ATOM     56  H   UNL A   1      41.356  29.397  32.598  1.00  0.00     0.167 HD
ATOM     57  C   UNL A   1      43.600  27.733  32.127  1.00  0.00     0.074 A 
ATOM     58  C   UNL A   1      44.528  26.842  31.462  1.00  0.00     0.031 C 
ATOM     59  C   UNL A   1      43.759  28.196  33.391  1.00  0.00     0.037 A 
BRANCH  46  60
ATOM     60  C   UNL A   1      39.261  31.997  35.259  1.00  0.00     0.064 A 
ATOM     61  C   UNL A   1      38.469  31.507  36.309  1.00  0.00     0.173 A 
ATOM     62  C   UNL A   1      39.597  33.360  35.277  1.00  0.00     0.173 A 
ATOM     63  F   UNL A   1      38.110  30.214  36.336  1.00  0.00    -0.203 F 
ATOM     64  C   UNL A   1      38.012  32.349  37.319  1.00  0.00     0.198 A 
ATOM     65  C   UNL A   1      39.167  34.193  36.306  1.00  0.00     0.198 A 
ATOM     66  F   UNL A   1      40.357  33.882  34.302  1.00  0.00    -0.203 F 
ATOM     67  F   UNL A   1      37.219  31.866  38.285  1.00  0.00    -0.200 F 
ATOM     68  C   UNL A   1      38.369  33.689  37.321  1.00  0.00     0.200 A 
ATOM     69  F   UNL A   1      39.525  35.484  36.315  1.00  0.00    -0.200 F 
ATOM     70  F   UNL A   1      37.940  34.496  38.302  1.00  0.00    -0.200 F 
ENDBRANCH  46  60
BRANCH  47  71
ATOM     71  C   UNL A   1      42.668  26.430  27.701  1.00  0.00     0.064 A 
ATOM     72  C   UNL A   1      43.569  26.986  26.782  1.00  0.00     0.173 A 
ATOM     73  C   UNL A   1      42.278  25.097  27.504  1.00  0.00     0.173 A 
ATOM     74  F   UNL A   1      43.959  28.262  26.915  1.00  0.00    -0.203 F 
ATOM     75  C   UNL A   1      44.035  26.251  25.694  1.00  0.00     0.198 A 
ATOM     76  C   UNL A   1      42.771  24.352  26.436  1.00  0.00     0.198 A 
ATOM     77  F   UNL A   1      41.424  24.513  28.357  1.00  0.00    -0.203 F 
ATOM     78  F   UNL A   1      44.849  26.826  24.799  1.00  0.00    -0.200 F 
ATOM     79  C   UNL A   1      43.640  24.932  25.524  1.00  0.00     0.200 A 
ATOM     80  F   UNL A   1      42.402  23.072  26.287  1.00  0.00    -0.200 F 
ATOM     81  F   UNL A   1      44.090  24.225  24.480  1.00  0.00    -0.200 F 
ENDBRANCH  47  71
BRANCH  59  82
ATOM     82  C   UNL A   1      44.969  27.723  34.145  1.00  0.00     0.064 A 
ATOM     83  C   UNL A   1      44.954  26.541  34.901  1.00  0.00     0.173 A 
ATOM     84  C   UNL A   1      46.164  28.460  34.107  1.00  0.00     0.173 A 
ATOM     85  F   UNL A   1      43.835  25.806  34.983  1.00  0.00    -0.203 F 
ATOM     86  C   UNL A   1      46.074  26.138  35.626  1.00  0.00     0.198 A 
ATOM     87  C   UNL A   1      47.293  28.033  34.801  1.00  0.00     0.198 A 
ATOM     88  F   UNL A   1      46.239  29.592  33.392  1.00  0.00    -0.203 F 
ATOM     89  F   UNL A   1      46.011  25.044  36.397  1.00  0.00    -0.200 F 
ATOM     90  C   UNL A   1      47.243  26.881  35.571  1.00  0.00     0.200 A 
ATOM     91  F   UNL A   1      48.427  28.744  34.732  1.00  0.00    -0.200 F 
ATOM     92  F   UNL A   1      48.318  26.494  36.269  1.00  0.00    -0.200 F 
ENDBRANCH  59  82
ENDBRANCH  33  34
ENDBRANCH  25  28
ENDBRANCH  23  24
ENDBRANCH   1  23
TORSDOF 12
ENDMDL
MODEL 2
REMARK VINA RESULT:     -13.0      0.424      2.003
REMARK SMILES O=C(NCCCNC(=O)c1ccc(-c2c3nc(c(-c4c(F)c(F)c(F)c(F)c4F)c4ccc([nH]4)c(-c4c(F)c(F)c(F)c(F)c4F)c4nc(c(-c5c(F)c(F)c(F)c(F)c5F)c5ccc2[nH]5)C=C4)C=C3)cc1)c1ccc(Cc2nc3ccccc3s2)cc1
REMARK SMILES IDX 5 1 4 2 3 3 1 4 2 5 73 7 74 8 88 9 75 10 87 11 76 12 77 13
REMARK SMILES IDX 78 14 79 15 86 16 80 17 85 18 81 19 84 20 82 21 83 22 6 23
REMARK SMILES IDX 7 24 8 25 9 27 10 28 11 29 72 30 12 31 71 32 13 33 14 34
REMARK SMILES IDX 15 35 65 36 16 37 70 38 64 39 66 40 17 41 69 42 63 43 62 44
REMARK SMILES IDX 18 46 50 47 30 48 49 49 31 50 34 51 48 52 67 53 32 54 33 55
REMARK SMILES IDX 47 57 68 58 35 59 19 60 20 61 28 62 21 63 22 64 26 65 29 66
REMARK SMILES IDX 23 67 24 68 27 69 25 70 51 71 52 72 60 73 53 74 54 75 58 76
REMARK SMILES IDX 61 77 55 78 56 79 59 80 57 81 36 82 37 83 45 84 38 85 39 86
REMARK SMILES IDX 43 87 46 88 40 89 41 90 44 91 42 92
REMARK H PARENT 3 6 7 26 66 45 34 56
REMARK Flexibility Score: inf
ROOT
ATOM      1  C   UNL A   1      33.285  29.238  24.463  1.00  0.00     0.042 C 
ENDROOT
BRANCH   1   2
ATOM      2  C   UNL A   1      32.218  28.759  23.487  1.00  0.00     0.118 C 
BRANCH   2   3
ATOM      3  N   UNL A   1      32.766  28.021  22.360  1.00  0.00    -0.352 N 
ATOM      4  O   UNL A   1      33.653  26.270  21.253  1.00  0.00    -0.269 OA
ATOM      5  C   UNL A   1      33.055  26.680  22.238  1.00  0.00     0.251 C 
ATOM      6  H   UNL A   1      32.961  28.563  21.560  1.00  0.00     0.163 HD
BRANCH   5   7
ATOM      7  C   UNL A   1      32.682  25.745  23.321  1.00  0.00     0.039 A 
ATOM      8  C   UNL A   1      33.530  25.522  24.410  1.00  0.00     0.014 A 
ATOM      9  C   UNL A   1      31.472  25.058  23.219  1.00  0.00     0.014 A 
ATOM     10  C   UNL A   1      33.238  24.504  25.317  1.00  0.00     0.005 A 
ATOM     11  C   UNL A   1      31.168  24.056  24.141  1.00  0.00     0.005 A 
ATOM     12  C   UNL A   1      32.069  23.742  25.170  1.00  0.00    -0.041 A 
BRANCH  12  13
ATOM     13  C   UNL A   1      31.840  22.529  26.047  1.00  0.00     0.103 C 
BRANCH  13  14
ATOM     14  C   UNL A   1      32.411  21.264  25.453  1.00  0.00     0.098 A 
ATOM     15  N   UNL A   1      31.782  20.469  24.612  1.00  0.00    -0.241 NA
ATOM     16  S   UNL A   1      33.996  20.761  25.891  1.00  0.00    -0.118 S 
ATOM     17  C   UNL A   1      32.589  19.400  24.266  1.00  0.00     0.082 A 
ATOM     18  C   UNL A   1      33.845  19.380  24.872  1.00  0.00     0.055 A 
ATOM     19  C   UNL A   1      32.245  18.359  23.378  1.00  0.00     0.030 A 
ATOM     20  C   UNL A   1      34.770  18.351  24.626  1.00  0.00     0.021 A 
ATOM     21  C   UNL A   1      33.159  17.330  23.126  1.00  0.00     0.002 A 
ATOM     22  C   UNL A   1      34.404  17.328  23.745  1.00  0.00     0.002 A 
ENDBRANCH  13  14
ENDBRANCH  12  13
ENDBRANCH   5   7
ENDBRANCH   2   3
ENDBRANCH   1   2
BRANCH   1  23
ATOM     23  C   UNL A   1      32.807  29.399  25.900  1.00  0.00     0.118 C 
BRANCH  23  24
ATOM     24  N   UNL A   1      32.643  30.790  26.294  1.00  0.00    -0.352 N 
ATOM     25  C   UNL A   1      33.336  31.567  27.187  1.00  0.00     0.251 C 
ATOM     26  H   UNL A   1      31.904  31.256  25.841  1.00  0.00     0.163 HD
ATOM     27  O   UNL A   1      32.898  32.678  27.476  1.00  0.00    -0.269 OA
BRANCH  25  28
ATOM     28  C   UNL A   1      34.586  31.091  27.825  1.00  0.00     0.039 A 
ATOM     29  C   UNL A   1      35.630  32.004  28.001  1.00  0.00     0.014 A 
ATOM     30  C   UNL A   1      34.769  29.758  28.203  1.00  0.00     0.014 A 
ATOM     31  C   UNL A   1      36.821  31.598  28.606  1.00  0.00     0.010 A 
ATOM     32  C   UNL A   1      35.918  29.376  28.896  1.00  0.00     0.010 A 
ATOM     33  C   UNL A   1      36.962  30.289  29.097  1.00  0.00    -0.014 A 
BRANCH  33  34
ATOM     34  C   UNL A   1      38.195  29.882  29.822  1.00  0.00     0.031 A 
ATOM     35  C   UNL A   1      38.475  30.384  31.213  1.00  0.00     0.074 A 
ATOM     36  C   UNL A   1      39.085  29.077  29.207  1.00  0.00     0.049 A 
ATOM     37  N   UNL A   1      39.489  30.119  31.999  1.00  0.00    -0.248 NA
ATOM     38  C   UNL A   1      37.506  31.328  31.790  1.00  0.00     0.031 C 
ATOM     39  C   UNL A   1      38.964  28.578  27.836  1.00  0.00     0.029 A 
ATOM     40  N   UNL A   1      40.263  28.535  29.653  1.00  0.00    -0.354 N 
ATOM     41  C   UNL A   1      39.284  30.866  33.152  1.00  0.00     0.074 A 
ATOM     42  C   UNL A   1      38.081  31.641  32.942  1.00  0.00     0.031 C 
ATOM     43  C   UNL A   1      40.002  27.774  27.566  1.00  0.00     0.029 A 
ATOM     44  C   UNL A   1      40.884  27.730  28.728  1.00  0.00     0.049 A 
ATOM     45  H   UNL A   1      40.631  28.705  30.550  1.00  0.00     0.167 HD
ATOM     46  C   UNL A   1      40.017  30.884  34.292  1.00  0.00     0.037 A 
ATOM     47  C   UNL A   1      42.034  27.034  28.806  1.00  0.00     0.037 A 
ATOM     48  C   UNL A   1      41.203  30.095  34.505  1.00  0.00     0.049 A 
ATOM     49  C   UNL A   1      42.820  27.062  30.089  1.00  0.00     0.074 A 
ATOM     50  C   UNL A   1      41.974  29.989  35.649  1.00  0.00     0.029 A 
ATOM     51  N   UNL A   1      41.793  29.280  33.550  1.00  0.00    -0.354 N 
ATOM     52  N   UNL A   1      42.564  27.700  31.205  1.00  0.00    -0.248 NA
ATOM     53  C   UNL A   1      44.050  26.261  30.127  1.00  0.00     0.031 C 
ATOM     54  C   UNL A   1      43.064  29.159  35.368  1.00  0.00     0.029 A 
ATOM     55  C   UNL A   1      42.937  28.693  34.070  1.00  0.00     0.049 A 
ATOM     56  H   UNL A   1      41.451  29.140  32.638  1.00  0.00     0.167 HD
ATOM     57  C   UNL A   1      43.584  27.359  32.084  1.00  0.00     0.074 A 
ATOM     58  C   UNL A   1      44.446  26.434  31.379  1.00  0.00     0.031 C 
ATOM     59  C   UNL A   1      43.791  27.778  33.356  1.00  0.00     0.037 A 
BRANCH  46  60
ATOM     60  C   UNL A   1      39.559  31.786  35.404  1.00  0.00     0.064 A 
ATOM     61  C   UNL A   1      40.004  33.113  35.510  1.00  0.00     0.173 A 
ATOM     62  C   UNL A   1      38.618  31.336  36.343  1.00  0.00     0.173 A 
ATOM     63  F   UNL A   1      40.911  33.593  34.645  1.00  0.00    -0.203 F 
ATOM     64  C   UNL A   1      39.545  33.945  36.528  1.00  0.00     0.198 A 
ATOM     65  C   UNL A   1      38.136  32.181  37.339  1.00  0.00     0.198 A 
ATOM     66  F   UNL A   1      38.153  30.079  36.285  1.00  0.00    -0.203 F 
ATOM     67  F   UNL A   1      40.020  35.194  36.636  1.00  0.00    -0.200 F 
ATOM     68  C   UNL A   1      38.605  33.481  37.436  1.00  0.00     0.200 A 
ATOM     69  F   UNL A   1      37.215  31.736  38.206  1.00  0.00    -0.200 F 
ATOM     70  F   UNL A   1      38.154  34.288  38.406  1.00  0.00    -0.200 F 
ENDBRANCH  46  60
BRANCH  47  71
ATOM     71  C   UNL A   1      42.502  26.233  27.643  1.00  0.00     0.064 A 
ATOM     72  C   UNL A   1      42.033  24.930  27.425  1.00  0.00     0.173 A 
ATOM     73  C   UNL A   1      43.440  26.747  26.735  1.00  0.00     0.173 A 
ATOM     74  F   UNL A   1      41.149  24.385  28.273  1.00  0.00    -0.203 F 
ATOM     75  C   UNL A   1      42.505  24.162  26.362  1.00  0.00     0.198 A 
ATOM     76  C   UNL A   1      43.886  25.991  25.654  1.00  0.00     0.198 A 
ATOM     77  F   UNL A   1      43.916  27.991  26.894  1.00  0.00    -0.203 F 
ATOM     78  F   UNL A   1      42.084  22.899  26.212  1.00  0.00    -0.200 F 
ATOM     79  C   UNL A   1      43.428  24.695  25.474  1.00  0.00     0.200 A 
ATOM     80  F   UNL A   1      44.762  26.518  24.788  1.00  0.00    -0.200 F 
ATOM     81  F   UNL A   1      43.880  23.958  24.452  1.00  0.00    -0.200 F 
ENDBRANCH  47  71
BRANCH  59  82
ATOM     82  C   UNL A   1      44.984  27.214  34.075  1.00  0.00     0.064 A 
ATOM     83  C   UNL A   1      46.230  27.860  34.058  1.00  0.00     0.173 A 
ATOM     84  C   UNL A   1      44.879  26.014  34.796  1.00  0.00     0.173 A 
ATOM     85  F   UNL A   1      46.390  29.002  33.374  1.00  0.00    -0.203 F 
ATOM     86  C   UNL A   1      47.336  27.303  34.698  1.00  0.00     0.198 A 
ATOM     87  C   UNL A   1      45.976  25.480  35.466  1.00  0.00     0.198 A 
ATOM     88  F   UNL A   1      43.709  25.360  34.855  1.00  0.00    -0.203 F 
ATOM     89  F   UNL A   1      48.531  27.901  34.606  1.00  0.00    -0.200 F 
ATOM     90  C   UNL A   1      47.206  26.117  35.405  1.00  0.00     0.200 A 
ATOM     91  F   UNL A   1      45.845  24.344  36.164  1.00  0.00    -0.200 F 
ATOM     92  F   UNL A   1      48.270  25.581  36.017  1.00  0.00    -0.200 F 
ENDBRANCH  59  82
ENDBRANCH  33  34
ENDBRANCH  25  28
ENDBRANCH  23  24
ENDBRANCH   1  23
TORSDOF 12
ENDMDL
MODEL 3
REMARK VINA RESULT:     -13.0      2.397      8.074
REMARK SMILES O=C(NCCCNC(=O)c1ccc(-c2c3nc(c(-c4c(F)c(F)c(F)c(F)c4F)c4ccc([nH]4)c(-c4c(F)c(F)c(F)c(F)c4F)c4nc(c(-c5c(F)c(F)c(F)c(F)c5F)c5ccc2[nH]5)C=C4)C=C3)cc1)c1ccc(Cc2nc3ccccc3s2)cc1
REMARK SMILES IDX 5 1 4 2 3 3 1 4 2 5 73 7 74 8 88 9 75 10 87 11 76 12 77 13
REMARK SMILES IDX 78 14 79 15 86 16 80 17 85 18 81 19 84 20 82 21 83 22 6 23
REMARK SMILES IDX 7 24 8 25 9 27 10 28 11 29 72 30 12 31 71 32 13 33 14 34
REMARK SMILES IDX 15 35 65 36 16 37 70 38 64 39 66 40 17 41 69 42 63 43 62 44
REMARK SMILES IDX 18 46 50 47 30 48 49 49 31 50 34 51 48 52 67 53 32 54 33 55
REMARK SMILES IDX 47 57 68 58 35 59 19 60 20 61 28 62 21 63 22 64 26 65 29 66
REMARK SMILES IDX 23 67 24 68 27 69 25 70 51 71 52 72 60 73 53 74 54 75 58 76
REMARK SMILES IDX 61 77 55 78 56 79 59 80 57 81 36 82 37 83 45 84 38 85 39 86
REMARK SMILES IDX 43 87 46 88 40 89 41 90 44 91 42 92
REMARK H PARENT 3 6 7 26 66 45 34 56
REMARK Flexibility Score: inf
ROOT
ATOM      1  C   UNL A   1      31.406  32.249  26.602  1.00  0.00     0.042 C 
ENDROOT
BRANCH   1   2
ATOM      2  C   UNL A   1      31.593  30.809  26.144  1.00  0.00     0.118 C 
BRANCH   2   3
ATOM      3  N   UNL A   1      31.527  29.849  27.235  1.00  0.00    -0.352 N 
ATOM      4  O   UNL A   1      31.405  27.828  28.224  1.00  0.00    -0.269 OA
ATOM      5  C   UNL A   1      31.635  28.477  27.212  1.00  0.00     0.251 C 
ATOM      6  H   UNL A   1      31.384  30.241  28.127  1.00  0.00     0.163 HD
BRANCH   5   7
ATOM      7  C   UNL A   1      31.985  27.786  25.953  1.00  0.00     0.039 A 
ATOM      8  C   UNL A   1      30.995  27.321  25.082  1.00  0.00     0.014 A 
ATOM      9  C   UNL A   1      33.333  27.576  25.661  1.00  0.00     0.014 A 
ATOM     10  C   UNL A   1      31.348  26.516  23.999  1.00  0.00     0.005 A 
ATOM     11  C   UNL A   1      33.688  26.792  24.563  1.00  0.00     0.005 A 
ATOM     12  C   UNL A   1      32.697  26.220  23.751  1.00  0.00    -0.041 A 
BRANCH  12  13
ATOM     13  C   UNL A   1      33.066  25.209  22.686  1.00  0.00     0.103 C 
BRANCH  13  14
ATOM     14  C   UNL A   1      33.864  24.050  23.232  1.00  0.00     0.098 A 
ATOM     15  N   UNL A   1      35.174  23.929  23.162  1.00  0.00    -0.241 NA
ATOM     16  S   UNL A   1      33.049  22.746  24.001  1.00  0.00    -0.118 S 
ATOM     17  C   UNL A   1      35.581  22.750  23.758  1.00  0.00     0.082 A 
ATOM     18  C   UNL A   1      34.555  21.957  24.275  1.00  0.00     0.055 A 
ATOM     19  C   UNL A   1      36.912  22.300  23.876  1.00  0.00     0.030 A 
ATOM     20  C   UNL A   1      34.814  20.726  24.902  1.00  0.00     0.021 A 
ATOM     21  C   UNL A   1      37.182  21.076  24.498  1.00  0.00     0.002 A 
ATOM     22  C   UNL A   1      36.143  20.300  25.002  1.00  0.00     0.002 A 
ENDBRANCH  13  14
ENDBRANCH  12  13
ENDBRANCH   5   7
ENDBRANCH   2   3
ENDBRANCH   1   2
BRANCH   1  23
ATOM     23  C   UNL A   1      32.685  32.945  27.052  1.00  0.00     0.118 C 
BRANCH  23  24
ATOM     24  N   UNL A   1      32.445  34.262  27.625  1.00  0.00    -0.352 N 
ATOM     25  C   UNL A   1      32.995  34.890  28.713  1.00  0.00     0.251 C 
ATOM     26  H   UNL A   1      31.771  34.795  27.147  1.00  0.00     0.163 HD
ATOM     27  O   UNL A   1      32.503  35.947  29.102  1.00  0.00    -0.269 OA
BRANCH  25  28
ATOM     28  C   UNL A   1      34.149  34.315  29.442  1.00  0.00     0.039 A 
ATOM     29  C   UNL A   1      33.896  33.521  30.565  1.00  0.00     0.014 A 
ATOM     30  C   UNL A   1      35.470  34.583  29.075  1.00  0.00     0.014 A 
ATOM     31  C   UNL A   1      34.956  32.953  31.275  1.00  0.00     0.010 A 
ATOM     32  C   UNL A   1      36.524  33.937  29.722  1.00  0.00     0.010 A 
ATOM     33  C   UNL A   1      36.280  33.122  30.836  1.00  0.00    -0.014 A 
BRANCH  33  34
ATOM     34  C   UNL A   1      37.402  32.443  31.538  1.00  0.00     0.031 A 
ATOM     35  C   UNL A   1      38.132  31.293  30.897  1.00  0.00     0.074 A 
ATOM     36  C   UNL A   1      37.743  32.848  32.778  1.00  0.00     0.049 A 
ATOM     37  N   UNL A   1      39.142  30.597  31.355  1.00  0.00    -0.248 NA
ATOM     38  C   UNL A   1      37.650  30.848  29.580  1.00  0.00     0.031 C 
ATOM     39  C   UNL A   1      37.070  33.903  33.536  1.00  0.00     0.029 A 
ATOM     40  N   UNL A   1      38.741  32.423  33.618  1.00  0.00    -0.354 N 
ATOM     41  C   UNL A   1      39.409  29.632  30.392  1.00  0.00     0.074 A 
ATOM     42  C   UNL A   1      38.418  29.793  29.351  1.00  0.00     0.031 C 
ATOM     43  C   UNL A   1      37.695  34.070  34.711  1.00  0.00     0.029 A 
ATOM     44  C   UNL A   1      38.789  33.109  34.808  1.00  0.00     0.049 A 
ATOM     45  H   UNL A   1      39.365  31.695  33.392  1.00  0.00     0.167 HD
ATOM     46  C   UNL A   1      40.405  28.713  30.366  1.00  0.00     0.037 A 
ATOM     47  C   UNL A   1      39.620  32.980  35.859  1.00  0.00     0.037 A 
ATOM     48  C   UNL A   1      41.403  28.570  31.395  1.00  0.00     0.049 A 
ATOM     49  C   UNL A   1      40.725  31.960  35.797  1.00  0.00     0.074 A 
ATOM     50  C   UNL A   1      42.493  27.718  31.427  1.00  0.00     0.029 A 
ATOM     51  N   UNL A   1      41.427  29.294  32.580  1.00  0.00    -0.354 N 
ATOM     52  N   UNL A   1      41.023  31.117  34.837  1.00  0.00    -0.248 NA
ATOM     53  C   UNL A   1      41.619  31.884  36.959  1.00  0.00     0.031 C 
ATOM     54  C   UNL A   1      43.142  27.883  32.656  1.00  0.00     0.029 A 
ATOM     55  C   UNL A   1      42.496  28.885  33.362  1.00  0.00     0.049 A 
ATOM     56  H   UNL A   1      40.781  29.993  32.827  1.00  0.00     0.167 HD
ATOM     57  C   UNL A   1      42.150  30.429  35.269  1.00  0.00     0.074 A 
ATOM     58  C   UNL A   1      42.499  30.976  36.563  1.00  0.00     0.031 C 
ATOM     59  C   UNL A   1      42.830  29.432  34.652  1.00  0.00     0.037 A 
BRANCH  46  60
ATOM     60  C   UNL A   1      40.471  27.786  29.185  1.00  0.00     0.064 A 
ATOM     61  C   UNL A   1      39.689  26.623  29.113  1.00  0.00     0.173 A 
ATOM     62  C   UNL A   1      41.284  28.095  28.083  1.00  0.00     0.173 A 
ATOM     63  F   UNL A   1      38.901  26.275  30.142  1.00  0.00    -0.203 F 
ATOM     64  C   UNL A   1      39.738  25.792  27.997  1.00  0.00     0.198 A 
ATOM     65  C   UNL A   1      41.306  27.280  26.955  1.00  0.00     0.198 A 
ATOM     66  F   UNL A   1      42.048  29.198  28.094  1.00  0.00    -0.203 F 
ATOM     67  F   UNL A   1      39.017  24.662  27.972  1.00  0.00    -0.200 F 
ATOM     68  C   UNL A   1      40.539  26.125  26.915  1.00  0.00     0.200 A 
ATOM     69  F   UNL A   1      42.069  27.612  25.904  1.00  0.00    -0.200 F 
ATOM     70  F   UNL A   1      40.575  25.332  25.836  1.00  0.00    -0.200 F 
ENDBRANCH  46  60
BRANCH  47  71
ATOM     71  C   UNL A   1      39.455  33.852  37.052  1.00  0.00     0.064 A 
ATOM     72  C   UNL A   1      38.722  33.423  38.168  1.00  0.00     0.173 A 
ATOM     73  C   UNL A   1      40.013  35.139  37.096  1.00  0.00     0.173 A 
ATOM     74  F   UNL A   1      38.154  32.209  38.169  1.00  0.00    -0.203 F 
ATOM     75  C   UNL A   1      38.528  34.257  39.268  1.00  0.00     0.198 A 
ATOM     76  C   UNL A   1      39.847  35.959  38.210  1.00  0.00     0.198 A 
ATOM     77  F   UNL A   1      40.729  35.596  36.059  1.00  0.00    -0.203 F 
ATOM     78  F   UNL A   1      37.774  33.843  40.294  1.00  0.00    -0.200 F 
ATOM     79  C   UNL A   1      39.095  35.523  39.290  1.00  0.00     0.200 A 
ATOM     80  F   UNL A   1      40.413  37.173  38.235  1.00  0.00    -0.200 F 
ATOM     81  F   UNL A   1      38.910  36.323  40.347  1.00  0.00    -0.200 F 
ENDBRANCH  47  71
BRANCH  59  82
ATOM     82  C   UNL A   1      44.039  28.889  35.361  1.00  0.00     0.064 A 
ATOM     83  C   UNL A   1      45.320  29.422  35.153  1.00  0.00     0.173 A 
ATOM     84  C   UNL A   1      43.913  27.824  36.268  1.00  0.00     0.173 A 
ATOM     85  F   UNL A   1      45.499  30.432  34.288  1.00  0.00    -0.203 F 
ATOM     86  C   UNL A   1      46.435  28.881  35.789  1.00  0.00     0.198 A 
ATOM     87  C   UNL A   1      45.024  27.311  36.931  1.00  0.00     0.198 A 
ATOM     88  F   UNL A   1      42.711  27.282  36.513  1.00  0.00    -0.203 F 
ATOM     89  F   UNL A   1      47.656  29.360  35.518  1.00  0.00    -0.200 F 
ATOM     90  C   UNL A   1      46.285  27.829  36.681  1.00  0.00     0.200 A 
ATOM     91  F   UNL A   1      44.875  26.307  37.806  1.00  0.00    -0.200 F 
ATOM     92  F   UNL A   1      47.358  27.308  37.291  1.00  0.00    -0.200 F 
ENDBRANCH  59  82
ENDBRANCH  33  34
ENDBRANCH  25  28
ENDBRANCH  23  24
ENDBRANCH   1  23
TORSDOF 12
ENDMDL
