MODEL 1
REMARK VINA RESULT:     -11.7      0.000      0.000
REMARK SMILES CC[C@@](C)(NC(=O)[C@@H](C)NC(=O)c1ccco1)C(=O)NCCCNC(=O)c1ccc(-c2c3nc(c(-c4c(F)c(F)c(F)c(F)c4F)c4ccc([nH]4)c(-c4c(F)c(F)c(F)c(F)c4F)c4nc(c(-c5c(F)c(F)c(F)c(F)c5F)c5ccc2[nH]5)C=C4)C=C3)cc1
REMARK SMILES IDX 21 1 20 2 18 3 19 4 3 6 4 7 2 8 1 9 5 10 6 11 7 13 8 14 9 15
REMARK SMILES IDX 10 16 11 17 12 19 13 20 14 21 17 22 15 23 16 24 22 25 23 26
REMARK SMILES IDX 24 27 25 28 26 30 27 31 28 32 89 33 29 34 88 35 30 36 31 37
REMARK SMILES IDX 32 38 82 39 33 40 87 41 81 42 83 43 34 44 86 45 80 46 79 47
REMARK SMILES IDX 35 49 67 50 47 51 66 52 48 53 51 54 65 55 84 56 49 57 50 58
REMARK SMILES IDX 64 60 85 61 52 62 36 63 37 64 45 65 38 66 39 67 43 68 46 69
REMARK SMILES IDX 40 70 41 71 44 72 42 73 68 74 69 75 77 76 70 77 71 78 75 79
REMARK SMILES IDX 78 80 72 81 73 82 76 83 74 84 53 85 54 86 62 87 55 88 56 89
REMARK SMILES IDX 60 90 63 91 57 92 58 93 61 94 59 95
REMARK H PARENT 20 5 5 12 10 18 24 29 83 48 51 59
REMARK Flexibility Score: inf
ROOT
ATOM      1  C   UNL A   1      32.279  28.174  22.916  1.00  0.00     0.117 C 
ENDROOT
BRANCH   1   2
ATOM      2  N   UNL A   1      32.498  27.297  21.781  1.00  0.00    -0.354 N 
ATOM      3  C   UNL A   1      32.656  25.952  21.655  1.00  0.00     0.245 C 
ATOM      4  O   UNL A   1      32.897  25.550  20.510  1.00  0.00    -0.272 OA
ATOM      5  H   UNL A   1      32.543  27.776  20.921  1.00  0.00     0.163 HD
BRANCH   3   6
ATOM      6  C   UNL A   1      32.646  24.958  22.846  1.00  0.00     0.116 C 
ATOM      7  C   UNL A   1      34.069  24.811  23.432  1.00  0.00     0.045 C 
BRANCH   6   8
ATOM      8  C   UNL A   1      31.720  25.440  24.001  1.00  0.00     0.035 C 
ATOM      9  C   UNL A   1      30.218  25.242  23.804  1.00  0.00     0.007 C 
ENDBRANCH   6   8
BRANCH   6  10
ATOM     10  N   UNL A   1      32.182  23.626  22.391  1.00  0.00    -0.340 N 
ATOM     11  C   UNL A   1      32.336  22.349  22.827  1.00  0.00     0.243 C 
ATOM     12  H   UNL A   1      31.631  23.680  21.578  1.00  0.00     0.164 HD
ATOM     13  O   UNL A   1      32.151  21.494  21.946  1.00  0.00    -0.273 OA
BRANCH  11  14
ATOM     14  C   UNL A   1      32.809  21.876  24.227  1.00  0.00     0.168 C 
ATOM     15  C   UNL A   1      31.676  21.792  25.244  1.00  0.00     0.041 C 
BRANCH  14  16
ATOM     16  N   UNL A   1      33.650  20.685  24.329  1.00  0.00    -0.338 N 
ATOM     17  C   UNL A   1      34.945  20.593  24.777  1.00  0.00     0.287 C 
ATOM     18  H   UNL A   1      33.235  19.841  24.040  1.00  0.00     0.164 HD
ATOM     19  O   UNL A   1      35.399  19.464  25.005  1.00  0.00    -0.266 OA
BRANCH  17  20
ATOM     20  C   UNL A   1      35.726  21.788  24.989  1.00  0.00     0.191 A 
ATOM     21  C   UNL A   1      35.808  22.630  26.083  1.00  0.00     0.056 A 
ATOM     22  O   UNL A   1      36.619  22.199  24.033  1.00  0.00    -0.459 OA
ATOM     23  C   UNL A   1      36.746  23.636  25.754  1.00  0.00     0.043 A 
ATOM     24  C   UNL A   1      37.216  23.326  24.501  1.00  0.00     0.196 A 
ENDBRANCH  17  20
ENDBRANCH  14  16
ENDBRANCH  11  14
ENDBRANCH   6  10
ENDBRANCH   3   6
ENDBRANCH   1   2
BRANCH   1  25
ATOM     25  C   UNL A   1      33.537  28.864  23.440  1.00  0.00     0.042 C 
BRANCH  25  26
ATOM     26  C   UNL A   1      33.654  28.968  24.957  1.00  0.00     0.118 C 
BRANCH  26  27
ATOM     27  N   UNL A   1      32.904  30.072  25.529  1.00  0.00    -0.352 N 
ATOM     28  C   UNL A   1      33.177  30.871  26.612  1.00  0.00     0.251 C 
ATOM     29  H   UNL A   1      32.062  30.281  25.065  1.00  0.00     0.163 HD
ATOM     30  O   UNL A   1      32.352  31.724  26.934  1.00  0.00    -0.269 OA
BRANCH  28  31
ATOM     31  C   UNL A   1      34.405  30.708  27.430  1.00  0.00     0.039 A 
ATOM     32  C   UNL A   1      34.593  29.477  28.074  1.00  0.00     0.014 A 
ATOM     33  C   UNL A   1      35.339  31.727  27.626  1.00  0.00     0.014 A 
ATOM     34  C   UNL A   1      35.731  29.251  28.852  1.00  0.00     0.010 A 
ATOM     35  C   UNL A   1      36.504  31.485  28.367  1.00  0.00     0.010 A 
ATOM     36  C   UNL A   1      36.715  30.244  28.983  1.00  0.00    -0.014 A 
BRANCH  36  37
ATOM     37  C   UNL A   1      37.966  29.950  29.732  1.00  0.00     0.031 A 
ATOM     38  C   UNL A   1      38.180  30.453  31.131  1.00  0.00     0.074 A 
ATOM     39  C   UNL A   1      38.930  29.217  29.141  1.00  0.00     0.049 A 
ATOM     40  N   UNL A   1      39.167  30.200  31.956  1.00  0.00    -0.248 NA
ATOM     41  C   UNL A   1      37.170  31.375  31.670  1.00  0.00     0.031 C 
ATOM     42  C   UNL A   1      38.890  28.725  27.763  1.00  0.00     0.029 A 
ATOM     43  N   UNL A   1      40.125  28.746  29.628  1.00  0.00    -0.354 N 
ATOM     44  C   UNL A   1      38.902  30.934  33.104  1.00  0.00     0.074 A 
ATOM     45  C   UNL A   1      37.681  31.672  32.858  1.00  0.00     0.031 C 
ATOM     46  C   UNL A   1      39.990  27.989  27.528  1.00  0.00     0.029 A 
ATOM     47  C   UNL A   1      40.810  27.961  28.736  1.00  0.00     0.049 A 
ATOM     48  H   UNL A   1      40.457  28.953  30.532  1.00  0.00     0.167 HD
ATOM     49  C   UNL A   1      39.603  30.977  34.263  1.00  0.00     0.037 A 
ATOM     50  C   UNL A   1      41.955  27.267  28.880  1.00  0.00     0.037 A 
ATOM     51  C   UNL A   1      40.799  30.221  34.533  1.00  0.00     0.049 A 
ATOM     52  C   UNL A   1      42.668  27.264  30.203  1.00  0.00     0.074 A 
ATOM     53  C   UNL A   1      41.537  30.159  35.704  1.00  0.00     0.029 A 
ATOM     54  N   UNL A   1      41.432  29.393  33.619  1.00  0.00    -0.354 N 
ATOM     55  N   UNL A   1      42.356  27.889  31.310  1.00  0.00    -0.248 NA
ATOM     56  C   UNL A   1      43.880  26.439  30.300  1.00  0.00     0.031 C 
ATOM     57  C   UNL A   1      42.629  29.308  35.492  1.00  0.00     0.029 A 
ATOM     58  C   UNL A   1      42.555  28.821  34.198  1.00  0.00     0.049 A 
ATOM     59  H   UNL A   1      41.129  29.234  32.696  1.00  0.00     0.167 HD
ATOM     60  C   UNL A   1      43.316  27.515  32.240  1.00  0.00     0.074 A 
ATOM     61  C   UNL A   1      44.216  26.600  31.572  1.00  0.00     0.031 C 
ATOM     62  C   UNL A   1      43.436  27.898  33.534  1.00  0.00     0.037 A 
BRANCH  49  63
ATOM     63  C   UNL A   1      39.086  31.870  35.348  1.00  0.00     0.064 A 
ATOM     64  C   UNL A   1      38.285  31.368  36.384  1.00  0.00     0.173 A 
ATOM     65  C   UNL A   1      39.437  33.227  35.383  1.00  0.00     0.173 A 
ATOM     66  F   UNL A   1      37.917  30.078  36.388  1.00  0.00    -0.203 F 
ATOM     67  C   UNL A   1      37.839  32.200  37.408  1.00  0.00     0.198 A 
ATOM     68  C   UNL A   1      39.005  34.051  36.419  1.00  0.00     0.198 A 
ATOM     69  F   UNL A   1      40.206  33.752  34.417  1.00  0.00    -0.203 F 
ATOM     70  F   UNL A   1      37.049  31.706  38.373  1.00  0.00    -0.200 F 
ATOM     71  C   UNL A   1      38.204  33.538  37.428  1.00  0.00     0.200 A 
ATOM     72  F   UNL A   1      39.365  35.341  36.443  1.00  0.00    -0.200 F 
ATOM     73  F   UNL A   1      37.778  34.334  38.418  1.00  0.00    -0.200 F 
ENDBRANCH  49  63
BRANCH  50  74
ATOM     74  C   UNL A   1      42.465  26.450  27.752  1.00  0.00     0.064 A 
ATOM     75  C   UNL A   1      41.988  25.150  27.541  1.00  0.00     0.173 A 
ATOM     76  C   UNL A   1      43.434  26.949  26.873  1.00  0.00     0.173 A 
ATOM     77  F   UNL A   1      41.075  24.629  28.374  1.00  0.00    -0.203 F 
ATOM     78  C   UNL A   1      42.474  24.370  26.496  1.00  0.00     0.198 A 
ATOM     79  C   UNL A   1      43.908  26.174  25.818  1.00  0.00     0.198 A 
ATOM     80  F   UNL A   1      43.916  28.189  27.038  1.00  0.00    -0.203 F 
ATOM     81  F   UNL A   1      42.028  23.117  26.334  1.00  0.00    -0.200 F 
ATOM     82  C   UNL A   1      43.431  24.883  25.633  1.00  0.00     0.200 A 
ATOM     83  F   UNL A   1      44.827  26.673  24.982  1.00  0.00    -0.200 F 
ATOM     84  F   UNL A   1      43.901  24.131  24.628  1.00  0.00    -0.200 F 
ENDBRANCH  50  74
BRANCH  62  85
ATOM     85  C   UNL A   1      44.562  27.306  34.323  1.00  0.00     0.064 A 
ATOM     86  C   UNL A   1      44.451  26.044  34.924  1.00  0.00     0.173 A 
ATOM     87  C   UNL A   1      45.775  27.997  34.459  1.00  0.00     0.173 A 
ATOM     88  F   UNL A   1      43.305  25.353  34.834  1.00  0.00    -0.203 F 
ATOM     89  C   UNL A   1      45.508  25.504  35.652  1.00  0.00     0.198 A 
ATOM     90  C   UNL A   1      46.836  27.446  35.173  1.00  0.00     0.198 A 
ATOM     91  F   UNL A   1      45.929  29.207  33.901  1.00  0.00    -0.203 F 
ATOM     92  F   UNL A   1      45.368  24.312  36.250  1.00  0.00    -0.200 F 
ATOM     93  C   UNL A   1      46.700  26.203  35.772  1.00  0.00     0.200 A 
ATOM     94  F   UNL A   1      47.989  28.121  35.284  1.00  0.00    -0.200 F 
ATOM     95  F   UNL A   1      47.716  25.682  36.474  1.00  0.00    -0.200 F 
ENDBRANCH  62  85
ENDBRANCH  36  37
ENDBRANCH  28  31
ENDBRANCH  26  27
ENDBRANCH  25  26
ENDBRANCH   1  25
TORSDOF 15
ENDMDL
MODEL 2
REMARK VINA RESULT:     -11.7      1.404      2.127
REMARK SMILES CC[C@@](C)(NC(=O)[C@@H](C)NC(=O)c1ccco1)C(=O)NCCCNC(=O)c1ccc(-c2c3nc(c(-c4c(F)c(F)c(F)c(F)c4F)c4ccc([nH]4)c(-c4c(F)c(F)c(F)c(F)c4F)c4nc(c(-c5c(F)c(F)c(F)c(F)c5F)c5ccc2[nH]5)C=C4)C=C3)cc1
REMARK SMILES IDX 21 1 20 2 18 3 19 4 3 6 4 7 2 8 1 9 5 10 6 11 7 13 8 14 9 15
REMARK SMILES IDX 10 16 11 17 12 19 13 20 14 21 17 22 15 23 16 24 22 25 23 26
REMARK SMILES IDX 24 27 25 28 26 30 27 31 28 32 89 33 29 34 88 35 30 36 31 37
REMARK SMILES IDX 32 38 82 39 33 40 87 41 81 42 83 43 34 44 86 45 80 46 79 47
REMARK SMILES IDX 35 49 67 50 47 51 66 52 48 53 51 54 65 55 84 56 49 57 50 58
REMARK SMILES IDX 64 60 85 61 52 62 36 63 37 64 45 65 38 66 39 67 43 68 46 69
REMARK SMILES IDX 40 70 41 71 44 72 42 73 68 74 69 75 77 76 70 77 71 78 75 79
REMARK SMILES IDX 78 80 72 81 73 82 76 83 74 84 53 85 54 86 62 87 55 88 56 89
REMARK SMILES IDX 60 90 63 91 57 92 58 93 61 94 59 95
REMARK H PARENT 20 5 5 12 10 18 24 29 83 48 51 59
REMARK Flexibility Score: inf
ROOT
ATOM      1  C   UNL A   1      32.171  27.737  27.354  1.00  0.00     0.117 C 
ENDROOT
BRANCH   1   2
ATOM      2  N   UNL A   1      33.104  27.185  26.388  1.00  0.00    -0.354 N 
ATOM      3  C   UNL A   1      32.970  26.313  25.353  1.00  0.00     0.245 C 
ATOM      4  O   UNL A   1      34.021  26.010  24.774  1.00  0.00    -0.272 OA
ATOM      5  H   UNL A   1      34.026  27.508  26.508  1.00  0.00     0.163 HD
BRANCH   3   6
ATOM      6  C   UNL A   1      31.633  25.635  24.950  1.00  0.00     0.116 C 
ATOM      7  C   UNL A   1      30.626  26.695  24.450  1.00  0.00     0.045 C 
BRANCH   6   8
ATOM      8  C   UNL A   1      31.826  24.604  23.800  1.00  0.00     0.035 C 
ATOM      9  C   UNL A   1      30.567  23.906  23.287  1.00  0.00     0.007 C 
ENDBRANCH   6   8
BRANCH   6  10
ATOM     10  N   UNL A   1      31.046  24.939  26.118  1.00  0.00    -0.340 N 
ATOM     11  C   UNL A   1      31.241  23.740  26.726  1.00  0.00     0.243 C 
ATOM     12  H   UNL A   1      30.346  25.472  26.559  1.00  0.00     0.164 HD
ATOM     13  O   UNL A   1      30.272  23.359  27.404  1.00  0.00    -0.273 OA
BRANCH  11  14
ATOM     14  C   UNL A   1      32.457  22.788  26.577  1.00  0.00     0.168 C 
ATOM     15  C   UNL A   1      33.179  22.531  27.895  1.00  0.00     0.041 C 
BRANCH  14  16
ATOM     16  N   UNL A   1      32.291  21.530  25.853  1.00  0.00    -0.338 N 
ATOM     17  C   UNL A   1      33.214  20.858  25.091  1.00  0.00     0.287 C 
ATOM     18  H   UNL A   1      31.404  21.110  25.921  1.00  0.00     0.164 HD
ATOM     19  O   UNL A   1      32.951  19.696  24.754  1.00  0.00    -0.266 OA
BRANCH  17  20
ATOM     20  C   UNL A   1      34.454  21.497  24.722  1.00  0.00     0.191 A 
ATOM     21  C   UNL A   1      34.720  22.475  23.781  1.00  0.00     0.056 A 
ATOM     22  O   UNL A   1      35.604  21.207  25.411  1.00  0.00    -0.459 OA
ATOM     23  C   UNL A   1      36.107  22.746  23.855  1.00  0.00     0.043 A 
ATOM     24  C   UNL A   1      36.598  21.955  24.865  1.00  0.00     0.196 A 
ENDBRANCH  17  20
ENDBRANCH  14  16
ENDBRANCH  11  14
ENDBRANCH   6  10
ENDBRANCH   3   6
ENDBRANCH   1   2
BRANCH   1  25
ATOM     25  C   UNL A   1      31.655  29.134  27.015  1.00  0.00     0.042 C 
BRANCH  25  26
ATOM     26  C   UNL A   1      32.609  30.018  26.216  1.00  0.00     0.118 C 
BRANCH  26  27
ATOM     27  N   UNL A   1      32.531  31.426  26.561  1.00  0.00    -0.352 N 
ATOM     28  C   UNL A   1      33.363  32.205  27.326  1.00  0.00     0.251 C 
ATOM     29  H   UNL A   1      31.754  31.899  26.186  1.00  0.00     0.163 HD
ATOM     30  O   UNL A   1      33.057  33.381  27.516  1.00  0.00    -0.269 OA
BRANCH  28  31
ATOM     31  C   UNL A   1      34.589  31.665  27.968  1.00  0.00     0.039 A 
ATOM     32  C   UNL A   1      35.667  32.544  28.138  1.00  0.00     0.014 A 
ATOM     33  C   UNL A   1      34.732  30.330  28.352  1.00  0.00     0.014 A 
ATOM     34  C   UNL A   1      36.849  32.106  28.743  1.00  0.00     0.010 A 
ATOM     35  C   UNL A   1      35.898  29.903  29.002  1.00  0.00     0.010 A 
ATOM     36  C   UNL A   1      36.966  30.787  29.209  1.00  0.00    -0.014 A 
BRANCH  36  37
ATOM     37  C   UNL A   1      38.192  30.367  29.939  1.00  0.00     0.031 A 
ATOM     38  C   UNL A   1      38.438  30.780  31.362  1.00  0.00     0.074 A 
ATOM     39  C   UNL A   1      39.103  29.599  29.309  1.00  0.00     0.049 A 
ATOM     40  N   UNL A   1      39.403  30.416  32.171  1.00  0.00    -0.248 NA
ATOM     41  C   UNL A   1      37.494  31.742  31.949  1.00  0.00     0.031 C 
ATOM     42  C   UNL A   1      39.032  29.184  27.907  1.00  0.00     0.029 A 
ATOM     43  N   UNL A   1      40.261  29.021  29.769  1.00  0.00    -0.354 N 
ATOM     44  C   UNL A   1      39.189  31.106  33.356  1.00  0.00     0.074 A 
ATOM     45  C   UNL A   1      38.023  31.940  33.150  1.00  0.00     0.031 C 
ATOM     46  C   UNL A   1      40.077  28.386  27.633  1.00  0.00     0.029 A 
ATOM     47  C   UNL A   1      40.891  28.237  28.836  1.00  0.00     0.049 A 
ATOM     48  H   UNL A   1      40.605  29.157  30.682  1.00  0.00     0.167 HD
ATOM     49  C   UNL A   1      39.889  31.040  34.514  1.00  0.00     0.037 A 
ATOM     50  C   UNL A   1      41.984  27.458  28.942  1.00  0.00     0.037 A 
ATOM     51  C   UNL A   1      41.028  30.189  34.743  1.00  0.00     0.049 A 
ATOM     52  C   UNL A   1      42.692  27.335  30.262  1.00  0.00     0.074 A 
ATOM     53  C   UNL A   1      41.757  30.014  35.908  1.00  0.00     0.029 A 
ATOM     54  N   UNL A   1      41.602  29.367  33.786  1.00  0.00    -0.354 N 
ATOM     55  N   UNL A   1      42.423  27.923  31.401  1.00  0.00    -0.248 NA
ATOM     56  C   UNL A   1      43.843  26.423  30.314  1.00  0.00     0.031 C 
ATOM     57  C   UNL A   1      42.786  29.100  35.650  1.00  0.00     0.029 A 
ATOM     58  C   UNL A   1      42.681  28.687  34.333  1.00  0.00     0.049 A 
ATOM     59  H   UNL A   1      41.291  29.278  32.857  1.00  0.00     0.167 HD
ATOM     60  C   UNL A   1      43.352  27.435  32.309  1.00  0.00     0.074 A 
ATOM     61  C   UNL A   1      44.187  26.494  31.593  1.00  0.00     0.031 C 
ATOM     62  C   UNL A   1      43.496  27.740  33.620  1.00  0.00     0.037 A 
BRANCH  49  63
ATOM     63  C   UNL A   1      39.433  31.910  35.646  1.00  0.00     0.064 A 
ATOM     64  C   UNL A   1      38.466  31.468  36.560  1.00  0.00     0.173 A 
ATOM     65  C   UNL A   1      40.006  33.174  35.848  1.00  0.00     0.173 A 
ATOM     66  F   UNL A   1      37.886  30.269  36.401  1.00  0.00    -0.203 F 
ATOM     67  C   UNL A   1      38.076  32.270  37.629  1.00  0.00     0.198 A 
ATOM     68  C   UNL A   1      39.626  33.965  36.929  1.00  0.00     0.198 A 
ATOM     69  F   UNL A   1      40.939  33.637  35.003  1.00  0.00    -0.203 F 
ATOM     70  F   UNL A   1      37.129  31.840  38.476  1.00  0.00    -0.200 F 
ATOM     71  C   UNL A   1      38.660  33.514  37.816  1.00  0.00     0.200 A 
ATOM     72  F   UNL A   1      40.198  35.163  37.115  1.00  0.00    -0.200 F 
ATOM     73  F   UNL A   1      38.288  34.281  38.850  1.00  0.00    -0.200 F 
ENDBRANCH  49  63
BRANCH  50  74
ATOM     74  C   UNL A   1      42.437  26.667  27.773  1.00  0.00     0.064 A 
ATOM     75  C   UNL A   1      43.385  27.189  26.883  1.00  0.00     0.173 A 
ATOM     76  C   UNL A   1      41.932  25.384  27.522  1.00  0.00     0.173 A 
ATOM     77  F   UNL A   1      43.877  28.421  27.077  1.00  0.00    -0.203 F 
ATOM     78  C   UNL A   1      43.802  26.460  25.772  1.00  0.00     0.198 A 
ATOM     79  C   UNL A   1      42.361  24.651  26.420  1.00  0.00     0.198 A 
ATOM     80  F   UNL A   1      41.024  24.847  28.350  1.00  0.00    -0.203 F 
ATOM     81  F   UNL A   1      44.684  26.994  24.916  1.00  0.00    -0.200 F 
ATOM     82  C   UNL A   1      43.292  25.191  25.543  1.00  0.00     0.200 A 
ATOM     83  F   UNL A   1      41.873  23.423  26.203  1.00  0.00    -0.200 F 
ATOM     84  F   UNL A   1      43.692  24.491  24.473  1.00  0.00    -0.200 F 
ENDBRANCH  50  74
BRANCH  62  85
ATOM     85  C   UNL A   1      44.576  27.030  34.375  1.00  0.00     0.064 A 
ATOM     86  C   UNL A   1      44.350  25.786  34.983  1.00  0.00     0.173 A 
ATOM     87  C   UNL A   1      45.860  27.587  34.473  1.00  0.00     0.173 A 
ATOM     88  F   UNL A   1      43.134  25.222  34.930  1.00  0.00    -0.203 F 
ATOM     89  C   UNL A   1      45.364  25.136  35.679  1.00  0.00     0.198 A 
ATOM     90  C   UNL A   1      46.877  26.925  35.155  1.00  0.00     0.198 A 
ATOM     91  F   UNL A   1      46.125  28.774  33.907  1.00  0.00    -0.203 F 
ATOM     92  F   UNL A   1      45.116  23.966  36.284  1.00  0.00    -0.200 F 
ATOM     93  C   UNL A   1      46.627  25.703  35.760  1.00  0.00     0.200 A 
ATOM     94  F   UNL A   1      48.098  27.472  35.229  1.00  0.00    -0.200 F 
ATOM     95  F   UNL A   1      47.603  25.075  36.432  1.00  0.00    -0.200 F 
ENDBRANCH  62  85
ENDBRANCH  36  37
ENDBRANCH  28  31
ENDBRANCH  26  27
ENDBRANCH  25  26
ENDBRANCH   1  25
TORSDOF 15
ENDMDL
MODEL 3
REMARK VINA RESULT:     -11.6      1.743      3.721
REMARK SMILES CC[C@@](C)(NC(=O)[C@@H](C)NC(=O)c1ccco1)C(=O)NCCCNC(=O)c1ccc(-c2c3nc(c(-c4c(F)c(F)c(F)c(F)c4F)c4ccc([nH]4)c(-c4c(F)c(F)c(F)c(F)c4F)c4nc(c(-c5c(F)c(F)c(F)c(F)c5F)c5ccc2[nH]5)C=C4)C=C3)cc1
REMARK SMILES IDX 21 1 20 2 18 3 19 4 3 6 4 7 2 8 1 9 5 10 6 11 7 13 8 14 9 15
REMARK SMILES IDX 10 16 11 17 12 19 13 20 14 21 17 22 15 23 16 24 22 25 23 26
REMARK SMILES IDX 24 27 25 28 26 30 27 31 28 32 89 33 29 34 88 35 30 36 31 37
REMARK SMILES IDX 32 38 82 39 33 40 87 41 81 42 83 43 34 44 86 45 80 46 79 47
REMARK SMILES IDX 35 49 67 50 47 51 66 52 48 53 51 54 65 55 84 56 49 57 50 58
REMARK SMILES IDX 64 60 85 61 52 62 36 63 37 64 45 65 38 66 39 67 43 68 46 69
REMARK SMILES IDX 40 70 41 71 44 72 42 73 68 74 69 75 77 76 70 77 71 78 75 79
REMARK SMILES IDX 78 80 72 81 73 82 76 83 74 84 53 85 54 86 62 87 55 88 56 89
REMARK SMILES IDX 60 90 63 91 57 92 58 93 61 94 59 95
REMARK H PARENT 20 5 5 12 10 18 24 29 83 48 51 59
REMARK Flexibility Score: inf
ROOT
ATOM      1  C   UNL A   1      32.180  27.526  27.061  1.00  0.00     0.117 C 
ENDROOT
BRANCH   1   2
ATOM      2  N   UNL A   1      31.410  26.375  26.626  1.00  0.00    -0.354 N 
ATOM      3  C   UNL A   1      31.674  25.337  25.787  1.00  0.00     0.245 C 
ATOM      4  O   UNL A   1      30.732  24.557  25.595  1.00  0.00    -0.272 OA
ATOM      5  H   UNL A   1      30.508  26.339  27.019  1.00  0.00     0.163 HD
BRANCH   3   6
ATOM      6  C   UNL A   1      33.009  25.153  25.019  1.00  0.00     0.116 C 
ATOM      7  C   UNL A   1      34.115  24.659  25.979  1.00  0.00     0.045 C 
BRANCH   6   8
ATOM      8  C   UNL A   1      32.886  24.101  23.878  1.00  0.00     0.035 C 
ATOM      9  C   UNL A   1      33.609  22.772  24.090  1.00  0.00     0.007 C 
ENDBRANCH   6   8
BRANCH   6  10
ATOM     10  N   UNL A   1      33.437  26.444  24.430  1.00  0.00    -0.340 N 
ATOM     11  C   UNL A   1      33.045  27.199  23.372  1.00  0.00     0.243 C 
ATOM     12  H   UNL A   1      34.185  26.851  24.924  1.00  0.00     0.164 HD
ATOM     13  O   UNL A   1      33.917  27.986  22.969  1.00  0.00    -0.273 OA
BRANCH  11  14
ATOM     14  C   UNL A   1      31.713  27.105  22.582  1.00  0.00     0.168 C 
ATOM     15  C   UNL A   1      31.832  26.276  21.308  1.00  0.00     0.041 C 
BRANCH  14  16
ATOM     16  N   UNL A   1      30.488  26.744  23.292  1.00  0.00    -0.338 N 
ATOM     17  C   UNL A   1      29.321  27.459  23.395  1.00  0.00     0.287 C 
ATOM     18  H   UNL A   1      30.501  25.875  23.754  1.00  0.00     0.164 HD
ATOM     19  O   UNL A   1      28.323  26.878  23.842  1.00  0.00    -0.266 OA
BRANCH  17  20
ATOM     20  C   UNL A   1      29.275  28.838  22.972  1.00  0.00     0.191 A 
ATOM     21  C   UNL A   1      29.594  30.001  23.649  1.00  0.00     0.056 A 
ATOM     22  O   UNL A   1      28.941  29.145  21.678  1.00  0.00    -0.459 OA
ATOM     23  C   UNL A   1      29.383  31.070  22.747  1.00  0.00     0.043 A 
ATOM     24  C   UNL A   1      28.993  30.497  21.560  1.00  0.00     0.196 A 
ENDBRANCH  17  20
ENDBRANCH  14  16
ENDBRANCH  11  14
ENDBRANCH   6  10
ENDBRANCH   3   6
ENDBRANCH   1   2
BRANCH   1  25
ATOM     25  C   UNL A   1      31.644  28.871  26.576  1.00  0.00     0.042 C 
BRANCH  25  26
ATOM     26  C   UNL A   1      32.680  29.826  25.989  1.00  0.00     0.118 C 
BRANCH  26  27
ATOM     27  N   UNL A   1      32.517  31.203  26.418  1.00  0.00    -0.352 N 
ATOM     28  C   UNL A   1      33.293  31.980  27.242  1.00  0.00     0.251 C 
ATOM     29  H   UNL A   1      31.719  31.654  26.058  1.00  0.00     0.163 HD
ATOM     30  O   UNL A   1      32.917  33.123  27.497  1.00  0.00    -0.269 OA
BRANCH  28  31
ATOM     31  C   UNL A   1      34.539  31.471  27.870  1.00  0.00     0.039 A 
ATOM     32  C   UNL A   1      35.579  32.388  28.072  1.00  0.00     0.014 A 
ATOM     33  C   UNL A   1      34.736  30.132  28.214  1.00  0.00     0.014 A 
ATOM     34  C   UNL A   1      36.777  31.981  28.666  1.00  0.00     0.010 A 
ATOM     35  C   UNL A   1      35.918  29.734  28.853  1.00  0.00     0.010 A 
ATOM     36  C   UNL A   1      36.948  30.654  29.091  1.00  0.00    -0.014 A 
BRANCH  36  37
ATOM     37  C   UNL A   1      38.189  30.263  29.812  1.00  0.00     0.031 A 
ATOM     38  C   UNL A   1      38.449  30.705  31.224  1.00  0.00     0.074 A 
ATOM     39  C   UNL A   1      39.101  29.496  29.183  1.00  0.00     0.049 A 
ATOM     40  N   UNL A   1      39.429  30.367  32.025  1.00  0.00    -0.248 NA
ATOM     41  C   UNL A   1      37.501  31.665  31.807  1.00  0.00     0.031 C 
ATOM     42  C   UNL A   1      39.017  29.055  27.790  1.00  0.00     0.029 A 
ATOM     43  N   UNL A   1      40.273  28.941  29.637  1.00  0.00    -0.354 N 
ATOM     44  C   UNL A   1      39.222  31.076  33.200  1.00  0.00     0.074 A 
ATOM     45  C   UNL A   1      38.043  31.892  32.996  1.00  0.00     0.031 C 
ATOM     46  C   UNL A   1      40.068  28.265  27.515  1.00  0.00     0.029 A 
ATOM     47  C   UNL A   1      40.899  28.147  28.710  1.00  0.00     0.049 A 
ATOM     48  H   UNL A   1      40.627  29.097  30.542  1.00  0.00     0.167 HD
ATOM     49  C   UNL A   1      39.939  31.039  34.350  1.00  0.00     0.037 A 
ATOM     50  C   UNL A   1      42.004  27.384  28.815  1.00  0.00     0.037 A 
ATOM     51  C   UNL A   1      41.091  30.207  34.578  1.00  0.00     0.049 A 
ATOM     52  C   UNL A   1      42.731  27.294  30.126  1.00  0.00     0.074 A 
ATOM     53  C   UNL A   1      41.838  30.062  35.736  1.00  0.00     0.029 A 
ATOM     54  N   UNL A   1      41.664  29.375  33.629  1.00  0.00    -0.354 N 
ATOM     55  N   UNL A   1      42.470  27.899  31.259  1.00  0.00    -0.248 NA
ATOM     56  C   UNL A   1      43.894  26.398  30.179  1.00  0.00     0.031 C 
ATOM     57  C   UNL A   1      42.876  29.157  35.481  1.00  0.00     0.029 A 
ATOM     58  C   UNL A   1      42.758  28.719  34.173  1.00  0.00     0.049 A 
ATOM     59  H   UNL A   1      41.341  29.265  32.706  1.00  0.00     0.167 HD
ATOM     60  C   UNL A   1      43.418  27.439  32.162  1.00  0.00     0.074 A 
ATOM     61  C   UNL A   1      44.255  26.496  31.451  1.00  0.00     0.031 C 
ATOM     62  C   UNL A   1      43.575  27.770  33.466  1.00  0.00     0.037 A 
BRANCH  49  63
ATOM     63  C   UNL A   1      39.487  31.924  35.472  1.00  0.00     0.064 A 
ATOM     64  C   UNL A   1      39.920  33.254  35.571  1.00  0.00     0.173 A 
ATOM     65  C   UNL A   1      38.574  31.454  36.427  1.00  0.00     0.173 A 
ATOM     66  F   UNL A   1      40.801  33.743  34.685  1.00  0.00    -0.203 F 
ATOM     67  C   UNL A   1      39.467  34.078  36.597  1.00  0.00     0.198 A 
ATOM     68  C   UNL A   1      38.108  32.287  37.440  1.00  0.00     0.198 A 
ATOM     69  F   UNL A   1      38.126  30.190  36.370  1.00  0.00    -0.203 F 
ATOM     70  F   UNL A   1      39.916  35.338  36.690  1.00  0.00    -0.200 F 
ATOM     71  C   UNL A   1      38.557  33.596  37.527  1.00  0.00     0.200 A 
ATOM     72  F   UNL A   1      37.222  31.824  38.333  1.00  0.00    -0.200 F 
ATOM     73  F   UNL A   1      38.117  34.394  38.510  1.00  0.00    -0.200 F 
ENDBRANCH  49  63
BRANCH  50  74
ATOM     74  C   UNL A   1      42.451  26.578  27.654  1.00  0.00     0.064 A 
ATOM     75  C   UNL A   1      41.918  25.303  27.423  1.00  0.00     0.173 A 
ATOM     76  C   UNL A   1      43.416  27.062  26.761  1.00  0.00     0.173 A 
ATOM     77  F   UNL A   1      41.007  24.796  28.267  1.00  0.00    -0.203 F 
ATOM     78  C   UNL A   1      42.346  24.532  26.345  1.00  0.00     0.198 A 
ATOM     79  C   UNL A   1      43.832  26.296  25.675  1.00  0.00     0.198 A 
ATOM     80  F   UNL A   1      43.952  28.277  26.945  1.00  0.00    -0.203 F 
ATOM     81  F   UNL A   1      41.846  23.302  26.164  1.00  0.00    -0.200 F 
ATOM     82  C   UNL A   1      43.300  25.030  25.470  1.00  0.00     0.200 A 
ATOM     83  F   UNL A   1      44.748  26.781  24.827  1.00  0.00    -0.200 F 
ATOM     84  F   UNL A   1      43.712  24.287  24.435  1.00  0.00    -0.200 F 
ENDBRANCH  50  74
BRANCH  62  85
ATOM     85  C   UNL A   1      44.675  27.087  34.219  1.00  0.00     0.064 A 
ATOM     86  C   UNL A   1      44.466  25.862  34.870  1.00  0.00     0.173 A 
ATOM     87  C   UNL A   1      45.958  27.651  34.269  1.00  0.00     0.173 A 
ATOM     88  F   UNL A   1      43.251  25.293  34.862  1.00  0.00    -0.203 F 
ATOM     89  C   UNL A   1      45.498  25.237  35.563  1.00  0.00     0.198 A 
ATOM     90  C   UNL A   1      46.993  27.013  34.949  1.00  0.00     0.198 A 
ATOM     91  F   UNL A   1      46.207  28.820  33.661  1.00  0.00    -0.203 F 
ATOM     92  F   UNL A   1      45.268  24.086  36.210  1.00  0.00    -0.200 F 
ATOM     93  C   UNL A   1      46.761  25.810  35.598  1.00  0.00     0.200 A 
ATOM     94  F   UNL A   1      48.214  27.566  34.978  1.00  0.00    -0.200 F 
ATOM     95  F   UNL A   1      47.753  25.207  36.267  1.00  0.00    -0.200 F 
ENDBRANCH  62  85
ENDBRANCH  36  37
ENDBRANCH  28  31
ENDBRANCH  26  27
ENDBRANCH  25  26
ENDBRANCH   1  25
TORSDOF 15
ENDMDL
