MODEL 1
REMARK VINA RESULT:     -12.5      0.000      0.000
REMARK SMILES C[C@@H](C(=O)NCCCNC(=O)c1ccc(-c2c3nc(c(-c4c(F)c(F)c(F)c(F)c4F)c4ccc([nH]4)c(-c4c(F)c(F)c(F)c(F)c4F)c4nc(c(-c5c(F)c(F)c(F)c(F)c5F)c5ccc2[nH]5)C=C4)C=C3)cc1)c1cccc(C(=O)c2ccccc2)c1
REMARK SMILES IDX 6 1 5 2 3 3 4 4 2 6 1 7 75 8 76 9 88 10 77 11 79 12 78 13
REMARK SMILES IDX 80 14 81 15 82 16 83 17 87 18 84 19 86 20 85 21 7 22 8 23
REMARK SMILES IDX 9 24 10 25 11 27 12 28 13 29 74 30 14 31 73 32 15 33 16 34
REMARK SMILES IDX 17 35 67 36 18 37 72 38 66 39 68 40 19 41 71 42 65 43 64 44
REMARK SMILES IDX 20 46 52 47 32 48 51 49 33 50 36 51 50 52 69 53 34 54 35 55
REMARK SMILES IDX 49 57 70 58 37 59 21 60 22 61 30 62 23 63 24 64 28 65 31 66
REMARK SMILES IDX 25 67 26 68 29 69 27 70 53 71 54 72 62 73 55 74 56 75 60 76
REMARK SMILES IDX 63 77 57 78 58 79 61 80 59 81 38 82 39 83 47 84 40 85 41 86
REMARK SMILES IDX 45 87 48 88 42 89 43 90 46 91 44 92
REMARK H PARENT 5 5 9 26 68 45 36 56
REMARK Flexibility Score: inf
ROOT
ATOM      1  C   UNL A   1      31.147  31.068  26.425  1.00  0.00     0.117 C 
ENDROOT
BRANCH   1   2
ATOM      2  N   UNL A   1      31.708  30.472  25.227  1.00  0.00    -0.356 N 
ATOM      3  C   UNL A   1      32.506  29.376  25.072  1.00  0.00     0.227 C 
ATOM      4  O   UNL A   1      32.907  29.148  23.928  1.00  0.00    -0.274 OA
ATOM      5  H   UNL A   1      31.474  30.932  24.390  1.00  0.00     0.163 HD
BRANCH   3   6
ATOM      6  C   UNL A   1      32.852  28.489  26.278  1.00  0.00     0.105 C 
ATOM      7  C   UNL A   1      34.368  28.393  26.501  1.00  0.00     0.023 C 
BRANCH   6   8
ATOM      8  C   UNL A   1      32.278  27.080  26.151  1.00  0.00    -0.035 A 
ATOM      9  C   UNL A   1      30.896  26.868  26.066  1.00  0.00     0.004 A 
ATOM     10  C   UNL A   1      33.131  25.962  26.156  1.00  0.00     0.016 A 
ATOM     11  C   UNL A   1      30.382  25.569  26.020  1.00  0.00     0.001 A 
ATOM     12  C   UNL A   1      32.621  24.659  26.167  1.00  0.00     0.023 A 
ATOM     13  C   UNL A   1      31.240  24.468  26.083  1.00  0.00     0.012 A 
BRANCH  12  14
ATOM     14  C   UNL A   1      33.518  23.470  26.249  1.00  0.00     0.193 C 
ATOM     15  O   UNL A   1      33.244  22.535  26.996  1.00  0.00    -0.289 OA
BRANCH  14  16
ATOM     16  C   UNL A   1      34.745  23.382  25.419  1.00  0.00     0.022 A 
ATOM     17  C   UNL A   1      35.985  23.516  26.049  1.00  0.00     0.012 A 
ATOM     18  C   UNL A   1      34.677  23.154  24.038  1.00  0.00     0.012 A 
ATOM     19  C   UNL A   1      37.157  23.368  25.308  1.00  0.00     0.001 A 
ATOM     20  C   UNL A   1      35.853  23.000  23.303  1.00  0.00     0.001 A 
ATOM     21  C   UNL A   1      37.091  23.099  23.939  1.00  0.00     0.000 A 
ENDBRANCH  14  16
ENDBRANCH  12  14
ENDBRANCH   6   8
ENDBRANCH   3   6
ENDBRANCH   1   2
BRANCH   1  22
ATOM     22  C   UNL A   1      31.329  32.585  26.440  1.00  0.00     0.042 C 
BRANCH  22  23
ATOM     23  C   UNL A   1      32.531  33.072  27.249  1.00  0.00     0.118 C 
BRANCH  23  24
ATOM     24  N   UNL A   1      32.369  34.435  27.729  1.00  0.00    -0.352 N 
ATOM     25  C   UNL A   1      33.006  35.101  28.744  1.00  0.00     0.251 C 
ATOM     26  H   UNL A   1      31.692  34.964  27.250  1.00  0.00     0.163 HD
ATOM     27  O   UNL A   1      32.586  36.204  29.093  1.00  0.00    -0.269 OA
BRANCH  25  28
ATOM     28  C   UNL A   1      34.174  34.515  29.438  1.00  0.00     0.039 A 
ATOM     29  C   UNL A   1      33.967  33.889  30.673  1.00  0.00     0.014 A 
ATOM     30  C   UNL A   1      35.469  34.620  28.923  1.00  0.00     0.014 A 
ATOM     31  C   UNL A   1      35.043  33.320  31.359  1.00  0.00     0.010 A 
ATOM     32  C   UNL A   1      36.535  34.000  29.580  1.00  0.00     0.010 A 
ATOM     33  C   UNL A   1      36.332  33.344  30.802  1.00  0.00    -0.014 A 
BRANCH  33  34
ATOM     34  C   UNL A   1      37.466  32.670  31.484  1.00  0.00     0.031 A 
ATOM     35  C   UNL A   1      38.159  31.499  30.842  1.00  0.00     0.074 A 
ATOM     36  C   UNL A   1      37.842  33.084  32.709  1.00  0.00     0.049 A 
ATOM     37  N   UNL A   1      39.130  30.756  31.310  1.00  0.00    -0.248 NA
ATOM     38  C   UNL A   1      37.686  31.099  29.508  1.00  0.00     0.031 C 
ATOM     39  C   UNL A   1      37.222  34.179  33.456  1.00  0.00     0.029 A 
ATOM     40  N   UNL A   1      38.830  32.627  33.546  1.00  0.00    -0.354 N 
ATOM     41  C   UNL A   1      39.377  29.797  30.336  1.00  0.00     0.074 A 
ATOM     42  C   UNL A   1      38.426  30.026  29.269  1.00  0.00     0.031 C 
ATOM     43  C   UNL A   1      37.853  34.319  34.634  1.00  0.00     0.029 A 
ATOM     44  C   UNL A   1      38.898  33.306  34.738  1.00  0.00     0.049 A 
ATOM     45  H   UNL A   1      39.432  31.884  33.315  1.00  0.00     0.167 HD
ATOM     46  C   UNL A   1      40.323  28.827  30.324  1.00  0.00     0.037 A 
ATOM     47  C   UNL A   1      39.709  33.128  35.798  1.00  0.00     0.037 A 
ATOM     48  C   UNL A   1      41.284  28.614  31.373  1.00  0.00     0.049 A 
ATOM     49  C   UNL A   1      40.755  32.049  35.755  1.00  0.00     0.074 A 
ATOM     50  C   UNL A   1      42.313  27.688  31.428  1.00  0.00     0.029 A 
ATOM     51  N   UNL A   1      41.338  29.337  32.555  1.00  0.00    -0.354 N 
ATOM     52  N   UNL A   1      41.012  31.186  34.803  1.00  0.00    -0.248 NA
ATOM     53  C   UNL A   1      41.626  31.922  36.931  1.00  0.00     0.031 C 
ATOM     54  C   UNL A   1      42.968  27.830  32.656  1.00  0.00     0.029 A 
ATOM     55  C   UNL A   1      42.372  28.870  33.351  1.00  0.00     0.049 A 
ATOM     56  H   UNL A   1      40.731  30.075  32.794  1.00  0.00     0.167 HD
ATOM     57  C   UNL A   1      42.086  30.431  35.253  1.00  0.00     0.074 A 
ATOM     58  C   UNL A   1      42.445  30.950  36.558  1.00  0.00     0.031 C 
ATOM     59  C   UNL A   1      42.718  29.399  34.644  1.00  0.00     0.037 A 
BRANCH  46  60
ATOM     60  C   UNL A   1      40.376  27.923  29.128  1.00  0.00     0.064 A 
ATOM     61  C   UNL A   1      39.604  26.753  29.062  1.00  0.00     0.173 A 
ATOM     62  C   UNL A   1      41.162  28.256  28.015  1.00  0.00     0.173 A 
ATOM     63  F   UNL A   1      38.844  26.386  30.105  1.00  0.00    -0.203 F 
ATOM     64  C   UNL A   1      39.632  25.940  27.933  1.00  0.00     0.198 A 
ATOM     65  C   UNL A   1      41.168  27.453  26.877  1.00  0.00     0.198 A 
ATOM     66  F   UNL A   1      41.914  29.367  28.026  1.00  0.00    -0.203 F 
ATOM     67  F   UNL A   1      38.913  24.809  27.905  1.00  0.00    -0.200 F 
ATOM     68  C   UNL A   1      40.407  26.293  26.838  1.00  0.00     0.200 A 
ATOM     69  F   UNL A   1      41.908  27.803  25.816  1.00  0.00    -0.200 F 
ATOM     70  F   UNL A   1      40.424  25.515  25.748  1.00  0.00    -0.200 F 
ENDBRANCH  46  60
BRANCH  47  71
ATOM     71  C   UNL A   1      39.575  34.007  36.989  1.00  0.00     0.064 A 
ATOM     72  C   UNL A   1      40.209  35.256  37.034  1.00  0.00     0.173 A 
ATOM     73  C   UNL A   1      38.826  33.612  38.105  1.00  0.00     0.173 A 
ATOM     74  F   UNL A   1      40.955  35.666  35.999  1.00  0.00    -0.203 F 
ATOM     75  C   UNL A   1      40.114  36.069  38.161  1.00  0.00     0.198 A 
ATOM     76  C   UNL A   1      38.709  34.437  39.221  1.00  0.00     0.198 A 
ATOM     77  F   UNL A   1      38.197  32.427  38.108  1.00  0.00    -0.203 F 
ATOM     78  F   UNL A   1      40.766  37.239  38.198  1.00  0.00    -0.200 F 
ATOM     79  C   UNL A   1      39.361  35.661  39.252  1.00  0.00     0.200 A 
ATOM     80  F   UNL A   1      37.970  34.045  40.268  1.00  0.00    -0.200 F 
ATOM     81  F   UNL A   1      39.268  36.445  40.336  1.00  0.00    -0.200 F 
ENDBRANCH  47  71
BRANCH  59  82
ATOM     82  C   UNL A   1      43.874  28.779  35.371  1.00  0.00     0.064 A 
ATOM     83  C   UNL A   1      45.190  29.217  35.164  1.00  0.00     0.173 A 
ATOM     84  C   UNL A   1      43.660  27.754  36.303  1.00  0.00     0.173 A 
ATOM     85  F   UNL A   1      45.447  30.184  34.269  1.00  0.00    -0.203 F 
ATOM     86  C   UNL A   1      46.254  28.632  35.845  1.00  0.00     0.198 A 
ATOM     87  C   UNL A   1      44.722  27.189  37.003  1.00  0.00     0.198 A 
ATOM     88  F   UNL A   1      42.419  27.303  36.540  1.00  0.00    -0.203 F 
ATOM     89  F   UNL A   1      47.508  29.034  35.598  1.00  0.00    -0.200 F 
ATOM     90  C   UNL A   1      46.019  27.623  36.768  1.00  0.00     0.200 A 
ATOM     91  F   UNL A   1      44.493  26.220  37.901  1.00  0.00    -0.200 F 
ATOM     92  F   UNL A   1      47.044  27.063  37.425  1.00  0.00    -0.200 F 
ENDBRANCH  59  82
ENDBRANCH  33  34
ENDBRANCH  25  28
ENDBRANCH  23  24
ENDBRANCH  22  23
ENDBRANCH   1  22
TORSDOF 13
ENDMDL
MODEL 2
REMARK VINA RESULT:     -12.4      3.312      8.688
REMARK SMILES C[C@@H](C(=O)NCCCNC(=O)c1ccc(-c2c3nc(c(-c4c(F)c(F)c(F)c(F)c4F)c4ccc([nH]4)c(-c4c(F)c(F)c(F)c(F)c4F)c4nc(c(-c5c(F)c(F)c(F)c(F)c5F)c5ccc2[nH]5)C=C4)C=C3)cc1)c1cccc(C(=O)c2ccccc2)c1
REMARK SMILES IDX 6 1 5 2 3 3 4 4 2 6 1 7 75 8 76 9 88 10 77 11 79 12 78 13
REMARK SMILES IDX 80 14 81 15 82 16 83 17 87 18 84 19 86 20 85 21 7 22 8 23
REMARK SMILES IDX 9 24 10 25 11 27 12 28 13 29 74 30 14 31 73 32 15 33 16 34
REMARK SMILES IDX 17 35 67 36 18 37 72 38 66 39 68 40 19 41 71 42 65 43 64 44
REMARK SMILES IDX 20 46 52 47 32 48 51 49 33 50 36 51 50 52 69 53 34 54 35 55
REMARK SMILES IDX 49 57 70 58 37 59 21 60 22 61 30 62 23 63 24 64 28 65 31 66
REMARK SMILES IDX 25 67 26 68 29 69 27 70 53 71 54 72 62 73 55 74 56 75 60 76
REMARK SMILES IDX 63 77 57 78 58 79 61 80 59 81 38 82 39 83 47 84 40 85 41 86
REMARK SMILES IDX 45 87 48 88 42 89 43 90 46 91 44 92
REMARK H PARENT 5 5 9 26 68 45 36 56
REMARK Flexibility Score: inf
ROOT
ATOM      1  C   UNL A   1      31.869  27.989  27.071  1.00  0.00     0.117 C 
ENDROOT
BRANCH   1   2
ATOM      2  N   UNL A   1      31.112  26.752  27.050  1.00  0.00    -0.356 N 
ATOM      3  C   UNL A   1      30.299  26.224  26.090  1.00  0.00     0.227 C 
ATOM      4  O   UNL A   1      29.709  25.182  26.383  1.00  0.00    -0.274 OA
ATOM      5  H   UNL A   1      31.200  26.202  27.862  1.00  0.00     0.163 HD
BRANCH   3   6
ATOM      6  C   UNL A   1      30.164  26.913  24.723  1.00  0.00     0.105 C 
ATOM      7  C   UNL A   1      28.998  26.337  23.906  1.00  0.00     0.023 C 
BRANCH   6   8
ATOM      8  C   UNL A   1      31.443  26.823  23.894  1.00  0.00    -0.035 A 
ATOM      9  C   UNL A   1      31.918  27.928  23.175  1.00  0.00     0.004 A 
ATOM     10  C   UNL A   1      32.150  25.611  23.807  1.00  0.00     0.016 A 
ATOM     11  C   UNL A   1      33.051  27.811  22.367  1.00  0.00     0.001 A 
ATOM     12  C   UNL A   1      33.252  25.471  22.957  1.00  0.00     0.023 A 
ATOM     13  C   UNL A   1      33.709  26.584  22.248  1.00  0.00     0.012 A 
BRANCH  12  14
ATOM     14  C   UNL A   1      33.960  24.166  22.803  1.00  0.00     0.193 C 
ATOM     15  O   UNL A   1      33.663  23.403  21.889  1.00  0.00    -0.289 OA
BRANCH  14  16
ATOM     16  C   UNL A   1      35.046  23.774  23.734  1.00  0.00     0.022 A 
ATOM     17  C   UNL A   1      35.966  22.810  23.314  1.00  0.00     0.012 A 
ATOM     18  C   UNL A   1      35.168  24.361  25.001  1.00  0.00     0.012 A 
ATOM     19  C   UNL A   1      37.039  22.473  24.139  1.00  0.00     0.001 A 
ATOM     20  C   UNL A   1      36.247  24.024  25.819  1.00  0.00     0.001 A 
ATOM     21  C   UNL A   1      37.186  23.087  25.385  1.00  0.00     0.000 A 
ENDBRANCH  14  16
ENDBRANCH  12  14
ENDBRANCH   6   8
ENDBRANCH   3   6
ENDBRANCH   1   2
BRANCH   1  22
ATOM     22  C   UNL A   1      33.345  27.754  26.754  1.00  0.00     0.042 C 
BRANCH  22  23
ATOM     23  C   UNL A   1      34.028  28.908  26.020  1.00  0.00     0.118 C 
BRANCH  23  24
ATOM     24  N   UNL A   1      33.804  30.193  26.662  1.00  0.00    -0.352 N 
ATOM     25  C   UNL A   1      34.500  30.820  27.663  1.00  0.00     0.251 C 
ATOM     26  H   UNL A   1      33.026  30.693  26.324  1.00  0.00     0.163 HD
ATOM     27  O   UNL A   1      34.029  31.834  28.177  1.00  0.00    -0.269 OA
BRANCH  25  28
ATOM     28  C   UNL A   1      35.794  30.293  28.150  1.00  0.00     0.039 A 
ATOM     29  C   UNL A   1      36.904  30.370  27.302  1.00  0.00     0.014 A 
ATOM     30  C   UNL A   1      35.918  29.677  29.398  1.00  0.00     0.014 A 
ATOM     31  C   UNL A   1      38.145  29.888  27.725  1.00  0.00     0.010 A 
ATOM     32  C   UNL A   1      37.170  29.247  29.845  1.00  0.00     0.010 A 
ATOM     33  C   UNL A   1      38.295  29.350  29.013  1.00  0.00    -0.014 A 
BRANCH  33  34
ATOM     34  C   UNL A   1      39.626  28.910  29.503  1.00  0.00     0.031 A 
ATOM     35  C   UNL A   1      40.395  29.747  30.487  1.00  0.00     0.074 A 
ATOM     36  C   UNL A   1      40.167  27.774  29.021  1.00  0.00     0.049 A 
ATOM     37  N   UNL A   1      41.591  29.549  30.985  1.00  0.00    -0.248 NA
ATOM     38  C   UNL A   1      39.744  30.978  30.961  1.00  0.00     0.031 C 
ATOM     39  C   UNL A   1      39.541  26.897  28.030  1.00  0.00     0.029 A 
ATOM     40  N   UNL A   1      41.368  27.167  29.290  1.00  0.00    -0.354 N 
ATOM     41  C   UNL A   1      41.839  30.632  31.819  1.00  0.00     0.074 A 
ATOM     42  C   UNL A   1      40.688  31.505  31.729  1.00  0.00     0.031 C 
ATOM     43  C   UNL A   1      40.356  25.857  27.786  1.00  0.00     0.029 A 
ATOM     44  C   UNL A   1      41.573  26.011  28.578  1.00  0.00     0.049 A 
ATOM     45  H   UNL A   1      42.021  27.526  29.933  1.00  0.00     0.167 HD
ATOM     46  C   UNL A   1      42.918  30.865  32.603  1.00  0.00     0.037 A 
ATOM     47  C   UNL A   1      42.626  25.172  28.560  1.00  0.00     0.037 A 
ATOM     48  C   UNL A   1      44.053  29.986  32.711  1.00  0.00     0.049 A 
ATOM     49  C   UNL A   1      43.808  25.452  29.446  1.00  0.00     0.074 A 
ATOM     50  C   UNL A   1      45.171  30.113  33.517  1.00  0.00     0.029 A 
ATOM     51  N   UNL A   1      44.213  28.811  31.992  1.00  0.00    -0.354 N 
ATOM     52  N   UNL A   1      44.003  26.451  30.271  1.00  0.00    -0.248 NA
ATOM     53  C   UNL A   1      44.913  24.485  29.401  1.00  0.00     0.031 C 
ATOM     54  C   UNL A   1      46.023  29.034  33.261  1.00  0.00     0.029 A 
ATOM     55  C   UNL A   1      45.418  28.212  32.324  1.00  0.00     0.049 A 
ATOM     56  H   UNL A   1      43.566  28.454  31.341  1.00  0.00     0.167 HD
ATOM     57  C   UNL A   1      45.239  26.222  30.860  1.00  0.00     0.074 A 
ATOM     58  C   UNL A   1      45.741  24.979  30.311  1.00  0.00     0.031 C 
ATOM     59  C   UNL A   1      45.901  26.974  31.772  1.00  0.00     0.037 A 
BRANCH  46  60
ATOM     60  C   UNL A   1      42.924  32.122  33.421  1.00  0.00     0.064 A 
ATOM     61  C   UNL A   1      43.406  33.332  32.899  1.00  0.00     0.173 A 
ATOM     62  C   UNL A   1      42.392  32.132  34.719  1.00  0.00     0.173 A 
ATOM     63  F   UNL A   1      43.935  33.372  31.667  1.00  0.00    -0.203 F 
ATOM     64  C   UNL A   1      43.373  34.501  33.654  1.00  0.00     0.198 A 
ATOM     65  C   UNL A   1      42.336  33.309  35.462  1.00  0.00     0.198 A 
ATOM     66  F   UNL A   1      41.912  31.003  35.262  1.00  0.00    -0.203 F 
ATOM     67  F   UNL A   1      43.871  35.638  33.147  1.00  0.00    -0.200 F 
ATOM     68  C   UNL A   1      42.831  34.492  34.930  1.00  0.00     0.200 A 
ATOM     69  F   UNL A   1      41.802  33.300  36.691  1.00  0.00    -0.200 F 
ATOM     70  F   UNL A   1      42.790  35.621  35.651  1.00  0.00    -0.200 F 
ENDBRANCH  46  60
BRANCH  47  71
ATOM     71  C   UNL A   1      42.603  23.973  27.683  1.00  0.00     0.064 A 
ATOM     72  C   UNL A   1      42.233  22.719  28.189  1.00  0.00     0.173 A 
ATOM     73  C   UNL A   1      42.960  24.054  26.330  1.00  0.00     0.173 A 
ATOM     74  F   UNL A   1      41.904  22.591  29.482  1.00  0.00    -0.203 F 
ATOM     75  C   UNL A   1      42.242  21.587  27.379  1.00  0.00     0.198 A 
ATOM     76  C   UNL A   1      42.943  22.925  25.514  1.00  0.00     0.198 A 
ATOM     77  F   UNL A   1      43.317  25.231  25.797  1.00  0.00    -0.203 F 
ATOM     78  F   UNL A   1      41.927  20.392  27.898  1.00  0.00    -0.200 F 
ATOM     79  C   UNL A   1      42.592  21.691  26.041  1.00  0.00     0.200 A 
ATOM     80  F   UNL A   1      43.270  23.032  24.219  1.00  0.00    -0.200 F 
ATOM     81  F   UNL A   1      42.599  20.601  25.261  1.00  0.00    -0.200 F 
ENDBRANCH  47  71
BRANCH  59  82
ATOM     82  C   UNL A   1      47.228  26.461  32.248  1.00  0.00     0.064 A 
ATOM     83  C   UNL A   1      48.428  26.866  31.647  1.00  0.00     0.173 A 
ATOM     84  C   UNL A   1      47.299  25.576  33.333  1.00  0.00     0.173 A 
ATOM     85  F   UNL A   1      48.409  27.699  30.595  1.00  0.00    -0.203 F 
ATOM     86  C   UNL A   1      49.652  26.382  32.099  1.00  0.00     0.198 A 
ATOM     87  C   UNL A   1      48.527  25.114  33.801  1.00  0.00     0.198 A 
ATOM     88  F   UNL A   1      46.179  25.163  33.944  1.00  0.00    -0.203 F 
ATOM     89  F   UNL A   1      50.785  26.746  31.481  1.00  0.00    -0.200 F 
ATOM     90  C   UNL A   1      49.702  25.512  33.178  1.00  0.00     0.200 A 
ATOM     91  F   UNL A   1      48.573  24.281  34.849  1.00  0.00    -0.200 F 
ATOM     92  F   UNL A   1      50.881  25.048  33.614  1.00  0.00    -0.200 F 
ENDBRANCH  59  82
ENDBRANCH  33  34
ENDBRANCH  25  28
ENDBRANCH  23  24
ENDBRANCH  22  23
ENDBRANCH   1  22
TORSDOF 13
ENDMDL
MODEL 3
REMARK VINA RESULT:     -12.4      0.859      1.947
REMARK SMILES C[C@@H](C(=O)NCCCNC(=O)c1ccc(-c2c3nc(c(-c4c(F)c(F)c(F)c(F)c4F)c4ccc([nH]4)c(-c4c(F)c(F)c(F)c(F)c4F)c4nc(c(-c5c(F)c(F)c(F)c(F)c5F)c5ccc2[nH]5)C=C4)C=C3)cc1)c1cccc(C(=O)c2ccccc2)c1
REMARK SMILES IDX 6 1 5 2 3 3 4 4 2 6 1 7 75 8 76 9 88 10 77 11 79 12 78 13
REMARK SMILES IDX 80 14 81 15 82 16 83 17 87 18 84 19 86 20 85 21 7 22 8 23
REMARK SMILES IDX 9 24 10 25 11 27 12 28 13 29 74 30 14 31 73 32 15 33 16 34
REMARK SMILES IDX 17 35 67 36 18 37 72 38 66 39 68 40 19 41 71 42 65 43 64 44
REMARK SMILES IDX 20 46 52 47 32 48 51 49 33 50 36 51 50 52 69 53 34 54 35 55
REMARK SMILES IDX 49 57 70 58 37 59 21 60 22 61 30 62 23 63 24 64 28 65 31 66
REMARK SMILES IDX 25 67 26 68 29 69 27 70 53 71 54 72 62 73 55 74 56 75 60 76
REMARK SMILES IDX 63 77 57 78 58 79 61 80 59 81 38 82 39 83 47 84 40 85 41 86
REMARK SMILES IDX 45 87 48 88 42 89 43 90 46 91 44 92
REMARK H PARENT 5 5 9 26 68 45 36 56
REMARK Flexibility Score: inf
ROOT
ATOM      1  C   UNL A   1      31.385  30.884  25.879  1.00  0.00     0.117 C 
ENDROOT
BRANCH   1   2
ATOM      2  N   UNL A   1      32.741  30.385  26.014  1.00  0.00    -0.356 N 
ATOM      3  C   UNL A   1      33.224  29.109  25.982  1.00  0.00     0.227 C 
ATOM      4  O   UNL A   1      34.427  28.973  26.212  1.00  0.00    -0.274 OA
ATOM      5  H   UNL A   1      33.423  31.080  26.150  1.00  0.00     0.163 HD
BRANCH   3   6
ATOM      6  C   UNL A   1      32.291  27.933  25.655  1.00  0.00     0.105 C 
ATOM      7  C   UNL A   1      31.524  27.451  26.895  1.00  0.00     0.023 C 
BRANCH   6   8
ATOM      8  C   UNL A   1      33.035  26.750  25.040  1.00  0.00    -0.035 A 
ATOM      9  C   UNL A   1      33.210  26.649  23.654  1.00  0.00     0.004 A 
ATOM     10  C   UNL A   1      33.526  25.716  25.857  1.00  0.00     0.016 A 
ATOM     11  C   UNL A   1      33.832  25.526  23.100  1.00  0.00     0.001 A 
ATOM     12  C   UNL A   1      34.099  24.565  25.307  1.00  0.00     0.023 A 
ATOM     13  C   UNL A   1      34.264  24.482  23.922  1.00  0.00     0.012 A 
BRANCH  12  14
ATOM     14  C   UNL A   1      34.552  23.431  26.165  1.00  0.00     0.193 C 
ATOM     15  O   UNL A   1      34.008  23.211  27.242  1.00  0.00    -0.289 OA
BRANCH  14  16
ATOM     16  C   UNL A   1      35.652  22.537  25.727  1.00  0.00     0.022 A 
ATOM     17  C   UNL A   1      36.958  23.034  25.740  1.00  0.00     0.012 A 
ATOM     18  C   UNL A   1      35.404  21.218  25.323  1.00  0.00     0.012 A 
ATOM     19  C   UNL A   1      38.021  22.195  25.403  1.00  0.00     0.001 A 
ATOM     20  C   UNL A   1      36.471  20.383  24.992  1.00  0.00     0.001 A 
ATOM     21  C   UNL A   1      37.778  20.869  25.040  1.00  0.00     0.000 A 
ENDBRANCH  14  16
ENDBRANCH  12  14
ENDBRANCH   6   8
ENDBRANCH   3   6
ENDBRANCH   1   2
BRANCH   1  22
ATOM     22  C   UNL A   1      31.229  32.271  26.501  1.00  0.00     0.042 C 
BRANCH  22  23
ATOM     23  C   UNL A   1      32.478  32.793  27.212  1.00  0.00     0.118 C 
BRANCH  23  24
ATOM     24  N   UNL A   1      32.349  34.181  27.625  1.00  0.00    -0.352 N 
ATOM     25  C   UNL A   1      33.026  34.889  28.584  1.00  0.00     0.251 C 
ATOM     26  H   UNL A   1      31.666  34.695  27.138  1.00  0.00     0.163 HD
ATOM     27  O   UNL A   1      32.633  36.015  28.887  1.00  0.00    -0.269 OA
BRANCH  25  28
ATOM     28  C   UNL A   1      34.205  34.321  29.274  1.00  0.00     0.039 A 
ATOM     29  C   UNL A   1      34.007  33.650  30.486  1.00  0.00     0.014 A 
ATOM     30  C   UNL A   1      35.501  34.487  28.779  1.00  0.00     0.014 A 
ATOM     31  C   UNL A   1      35.094  33.096  31.167  1.00  0.00     0.010 A 
ATOM     32  C   UNL A   1      36.581  33.883  29.428  1.00  0.00     0.010 A 
ATOM     33  C   UNL A   1      36.387  33.182  30.627  1.00  0.00    -0.014 A 
BRANCH  33  34
ATOM     34  C   UNL A   1      37.537  32.526  31.301  1.00  0.00     0.031 A 
ATOM     35  C   UNL A   1      38.265  31.389  30.639  1.00  0.00     0.074 A 
ATOM     36  C   UNL A   1      37.894  32.924  32.536  1.00  0.00     0.049 A 
ATOM     37  N   UNL A   1      39.254  30.663  31.097  1.00  0.00    -0.248 NA
ATOM     38  C   UNL A   1      37.810  31.003  29.294  1.00  0.00     0.031 C 
ATOM     39  C   UNL A   1      37.240  33.986  33.303  1.00  0.00     0.029 A 
ATOM     40  N   UNL A   1      38.890  32.478  33.370  1.00  0.00    -0.354 N 
ATOM     41  C   UNL A   1      39.532  29.731  30.105  1.00  0.00     0.074 A 
ATOM     42  C   UNL A   1      38.581  29.956  29.037  1.00  0.00     0.031 C 
ATOM     43  C   UNL A   1      37.860  34.119  34.487  1.00  0.00     0.029 A 
ATOM     44  C   UNL A   1      38.933  33.133  34.576  1.00  0.00     0.049 A 
ATOM     45  H   UNL A   1      39.514  31.757  33.126  1.00  0.00     0.167 HD
ATOM     46  C   UNL A   1      40.506  28.789  30.078  1.00  0.00     0.037 A 
ATOM     47  C   UNL A   1      39.743  32.955  35.637  1.00  0.00     0.037 A 
ATOM     48  C   UNL A   1      41.467  28.581  31.128  1.00  0.00     0.049 A 
ATOM     49  C   UNL A   1      40.819  31.907  35.577  1.00  0.00     0.074 A 
ATOM     50  C   UNL A   1      42.521  27.684  31.169  1.00  0.00     0.029 A 
ATOM     51  N   UNL A   1      41.494  29.281  32.325  1.00  0.00    -0.354 N 
ATOM     52  N   UNL A   1      41.105  31.072  34.608  1.00  0.00    -0.248 NA
ATOM     53  C   UNL A   1      41.687  31.780  36.756  1.00  0.00     0.031 C 
ATOM     54  C   UNL A   1      43.165  27.818  32.404  1.00  0.00     0.029 A 
ATOM     55  C   UNL A   1      42.537  28.826  33.116  1.00  0.00     0.049 A 
ATOM     56  H   UNL A   1      40.865  29.996  32.576  1.00  0.00     0.167 HD
ATOM     57  C   UNL A   1      42.198  30.338  35.050  1.00  0.00     0.074 A 
ATOM     58  C   UNL A   1      42.535  30.839  36.367  1.00  0.00     0.031 C 
ATOM     59  C   UNL A   1      42.861  29.338  34.423  1.00  0.00     0.037 A 
BRANCH  46  60
ATOM     60  C   UNL A   1      40.590  27.912  28.864  1.00  0.00     0.064 A 
ATOM     61  C   UNL A   1      39.847  26.726  28.766  1.00  0.00     0.173 A 
ATOM     62  C   UNL A   1      41.376  28.287  27.765  1.00  0.00     0.173 A 
ATOM     63  F   UNL A   1      39.089  26.318  29.796  1.00  0.00    -0.203 F 
ATOM     64  C   UNL A   1      39.904  25.938  27.621  1.00  0.00     0.198 A 
ATOM     65  C   UNL A   1      41.411  27.510  26.610  1.00  0.00     0.198 A 
ATOM     66  F   UNL A   1      42.101  29.416  27.805  1.00  0.00    -0.203 F 
ATOM     67  F   UNL A   1      39.214  24.790  27.564  1.00  0.00    -0.200 F 
ATOM     68  C   UNL A   1      40.679  26.333  26.541  1.00  0.00     0.200 A 
ATOM     69  F   UNL A   1      42.151  27.899  25.563  1.00  0.00    -0.200 F 
ATOM     70  F   UNL A   1      40.724  25.578  25.434  1.00  0.00    -0.200 F 
ENDBRANCH  46  60
BRANCH  47  71
ATOM     71  C   UNL A   1      39.579  33.805  36.844  1.00  0.00     0.064 A 
ATOM     72  C   UNL A   1      38.784  33.382  37.919  1.00  0.00     0.173 A 
ATOM     73  C   UNL A   1      40.200  35.057  36.943  1.00  0.00     0.173 A 
ATOM     74  F   UNL A   1      38.152  32.201  37.859  1.00  0.00    -0.203 F 
ATOM     75  C   UNL A   1      38.601  34.190  39.038  1.00  0.00     0.198 A 
ATOM     76  C   UNL A   1      40.038  35.853  38.075  1.00  0.00     0.198 A 
ATOM     77  F   UNL A   1      40.974  35.505  35.944  1.00  0.00    -0.203 F 
ATOM     78  F   UNL A   1      37.800  33.781  40.033  1.00  0.00    -0.200 F 
ATOM     79  C   UNL A   1      39.231  35.422  39.118  1.00  0.00     0.200 A 
ATOM     80  F   UNL A   1      40.659  37.038  38.154  1.00  0.00    -0.200 F 
ATOM     81  F   UNL A   1      39.056  36.198  40.197  1.00  0.00    -0.200 F 
ENDBRANCH  47  71
BRANCH  59  82
ATOM     82  C   UNL A   1      44.031  28.735  35.143  1.00  0.00     0.064 A 
ATOM     83  C   UNL A   1      43.877  27.630  35.994  1.00  0.00     0.173 A 
ATOM     84  C   UNL A   1      45.321  29.253  34.961  1.00  0.00     0.173 A 
ATOM     85  F   UNL A   1      42.660  27.111  36.212  1.00  0.00    -0.203 F 
ATOM     86  C   UNL A   1      44.972  27.081  36.656  1.00  0.00     0.198 A 
ATOM     87  C   UNL A   1      46.418  28.685  35.604  1.00  0.00     0.198 A 
ATOM     88  F   UNL A   1      45.520  30.306  34.155  1.00  0.00    -0.203 F 
ATOM     89  F   UNL A   1      44.796  26.055  37.500  1.00  0.00    -0.200 F 
ATOM     90  C   UNL A   1      46.241  27.605  36.457  1.00  0.00     0.200 A 
ATOM     91  F   UNL A   1      47.644  29.186  35.404  1.00  0.00    -0.200 F 
ATOM     92  F   UNL A   1      47.294  27.074  37.094  1.00  0.00    -0.200 F 
ENDBRANCH  59  82
ENDBRANCH  33  34
ENDBRANCH  25  28
ENDBRANCH  23  24
ENDBRANCH  22  23
ENDBRANCH   1  22
TORSDOF 13
ENDMDL
