MODEL 1
REMARK VINA RESULT:     -12.9      0.000      0.000
REMARK SMILES O=C(NCCCNC(=O)[C@H]1CC[C@H](CN2C(=O)c3cccnc3C2=O)O1)c1ccc(-c2c3nc(c(-c4c(F)c(F)c(F)c(F)c4F)c4ccc([nH]4)c(-c4c(F)c(F)c(F)c(F)c4F)c4nc(c(-c5c(F)c(F)c(F)c(F)c5F)c5ccc2[nH]5)C=C4)C=C3)cc1
REMARK SMILES IDX 5 1 4 2 3 3 1 4 2 5 27 7 28 8 89 9 29 10 88 11 30 12 31 13
REMARK SMILES IDX 32 14 82 15 33 16 87 17 81 18 83 19 34 20 86 21 80 22 79 23
REMARK SMILES IDX 35 25 67 26 47 27 66 28 48 29 51 30 65 31 84 32 49 33 50 34
REMARK SMILES IDX 64 36 85 37 52 38 36 39 37 40 45 41 38 42 39 43 43 44 46 45
REMARK SMILES IDX 40 46 41 47 44 48 42 49 68 50 69 51 77 52 70 53 71 54 75 55
REMARK SMILES IDX 78 56 72 57 73 58 76 59 74 60 53 61 54 62 62 63 55 64 56 65
REMARK SMILES IDX 60 66 63 67 57 68 58 69 61 70 59 71 6 72 7 73 8 74 9 76
REMARK SMILES IDX 10 77 11 78 26 79 12 80 13 81 14 82 15 83 16 84 24 85 17 86
REMARK SMILES IDX 18 87 23 88 25 89 19 90 22 91 20 92 21 93
REMARK H PARENT 3 6 83 24 51 35 7 75
REMARK Flexibility Score: inf
ROOT
ATOM      1  C   UNL A   1      37.887  19.780  24.933  1.00  0.00     0.042 C 
ENDROOT
BRANCH   1   2
ATOM      2  C   UNL A   1      39.047  20.255  25.800  1.00  0.00     0.118 C 
BRANCH   2   3
ATOM      3  N   UNL A   1      40.086  19.244  25.948  1.00  0.00    -0.352 N 
ATOM      4  O   UNL A   1      42.183  18.426  26.035  1.00  0.00    -0.269 OA
ATOM      5  C   UNL A   1      41.438  19.397  26.122  1.00  0.00     0.251 C 
ATOM      6  H   UNL A   1      39.770  18.312  25.920  1.00  0.00     0.163 HD
BRANCH   5   7
ATOM      7  C   UNL A   1      41.998  20.732  26.413  1.00  0.00     0.039 A 
ATOM      8  C   UNL A   1      42.266  21.628  25.376  1.00  0.00     0.014 A 
ATOM      9  C   UNL A   1      42.212  21.110  27.742  1.00  0.00     0.014 A 
ATOM     10  C   UNL A   1      42.853  22.855  25.655  1.00  0.00     0.010 A 
ATOM     11  C   UNL A   1      42.717  22.382  28.028  1.00  0.00     0.010 A 
ATOM     12  C   UNL A   1      43.046  23.261  26.984  1.00  0.00    -0.014 A 
BRANCH  12  13
ATOM     13  C   UNL A   1      43.455  24.660  27.255  1.00  0.00     0.031 A 
ATOM     14  C   UNL A   1      42.487  25.674  27.790  1.00  0.00     0.074 A 
ATOM     15  C   UNL A   1      44.735  25.001  27.003  1.00  0.00     0.049 A 
ATOM     16  N   UNL A   1      42.690  26.939  28.060  1.00  0.00    -0.248 NA
ATOM     17  C   UNL A   1      41.114  25.217  28.054  1.00  0.00     0.031 C 
ATOM     18  C   UNL A   1      45.754  24.096  26.461  1.00  0.00     0.029 A 
ATOM     19  N   UNL A   1      45.402  26.187  27.165  1.00  0.00    -0.354 N 
ATOM     20  C   UNL A   1      41.473  27.435  28.506  1.00  0.00     0.074 A 
ATOM     21  C   UNL A   1      40.528  26.338  28.458  1.00  0.00     0.031 C 
ATOM     22  C   UNL A   1      46.920  24.750  26.366  1.00  0.00     0.029 A 
ATOM     23  C   UNL A   1      46.715  26.136  26.763  1.00  0.00     0.049 A 
ATOM     24  H   UNL A   1      44.981  26.998  27.535  1.00  0.00     0.167 HD
ATOM     25  C   UNL A   1      41.183  28.691  28.919  1.00  0.00     0.037 A 
ATOM     26  C   UNL A   1      47.643  27.107  26.684  1.00  0.00     0.037 A 
ATOM     27  C   UNL A   1      42.142  29.766  28.979  1.00  0.00     0.049 A 
ATOM     28  C   UNL A   1      47.269  28.497  27.111  1.00  0.00     0.074 A 
ATOM     29  C   UNL A   1      41.960  31.055  29.453  1.00  0.00     0.029 A 
ATOM     30  N   UNL A   1      43.454  29.685  28.539  1.00  0.00    -0.354 N 
ATOM     31  N   UNL A   1      46.137  28.935  27.604  1.00  0.00    -0.248 NA
ATOM     32  C   UNL A   1      48.302  29.532  26.967  1.00  0.00     0.031 C 
ATOM     33  C   UNL A   1      43.139  31.773  29.233  1.00  0.00     0.029 A 
ATOM     34  C   UNL A   1      44.078  30.916  28.684  1.00  0.00     0.049 A 
ATOM     35  H   UNL A   1      43.881  28.875  28.177  1.00  0.00     0.167 HD
ATOM     36  C   UNL A   1      46.322  30.288  27.840  1.00  0.00     0.074 A 
ATOM     37  C   UNL A   1      47.689  30.593  27.470  1.00  0.00     0.031 C 
ATOM     38  C   UNL A   1      45.438  31.202  28.307  1.00  0.00     0.037 A 
BRANCH  25  39
ATOM     39  C   UNL A   1      39.772  29.004  29.323  1.00  0.00     0.064 A 
ATOM     40  C   UNL A   1      38.808  29.411  28.390  1.00  0.00     0.173 A 
ATOM     41  C   UNL A   1      39.352  28.778  30.644  1.00  0.00     0.173 A 
ATOM     42  F   UNL A   1      39.156  29.645  27.116  1.00  0.00    -0.203 F 
ATOM     43  C   UNL A   1      37.477  29.584  28.765  1.00  0.00     0.198 A 
ATOM     44  C   UNL A   1      38.016  28.926  31.009  1.00  0.00     0.198 A 
ATOM     45  F   UNL A   1      40.232  28.379  31.574  1.00  0.00    -0.203 F 
ATOM     46  F   UNL A   1      36.574  29.990  27.861  1.00  0.00    -0.200 F 
ATOM     47  C   UNL A   1      37.080  29.329  30.070  1.00  0.00     0.200 A 
ATOM     48  F   UNL A   1      37.634  28.661  32.266  1.00  0.00    -0.200 F 
ATOM     49  F   UNL A   1      35.795  29.469  30.421  1.00  0.00    -0.200 F 
ENDBRANCH  25  39
BRANCH  26  50
ATOM     50  C   UNL A   1      48.991  26.810  26.130  1.00  0.00     0.064 A 
ATOM     51  C   UNL A   1      49.293  27.053  24.784  1.00  0.00     0.173 A 
ATOM     52  C   UNL A   1      49.995  26.243  26.931  1.00  0.00     0.173 A 
ATOM     53  F   UNL A   1      48.363  27.578  23.972  1.00  0.00    -0.203 F 
ATOM     54  C   UNL A   1      50.532  26.702  24.251  1.00  0.00     0.198 A 
ATOM     55  C   UNL A   1      51.247  25.932  26.407  1.00  0.00     0.198 A 
ATOM     56  F   UNL A   1      49.762  25.996  28.229  1.00  0.00    -0.203 F 
ATOM     57  F   UNL A   1      50.768  26.879  22.944  1.00  0.00    -0.200 F 
ATOM     58  C   UNL A   1      51.509  26.148  25.063  1.00  0.00     0.200 A 
ATOM     59  F   UNL A   1      52.193  25.415  27.201  1.00  0.00    -0.200 F 
ATOM     60  F   UNL A   1      52.698  25.806  24.548  1.00  0.00    -0.200 F 
ENDBRANCH  26  50
BRANCH  38  61
ATOM     61  C   UNL A   1      45.930  32.612  28.458  1.00  0.00     0.064 A 
ATOM     62  C   UNL A   1      46.549  33.049  29.640  1.00  0.00     0.173 A 
ATOM     63  C   UNL A   1      45.809  33.527  27.402  1.00  0.00     0.173 A 
ATOM     64  F   UNL A   1      46.671  32.218  30.686  1.00  0.00    -0.203 F 
ATOM     65  C   UNL A   1      47.001  34.359  29.767  1.00  0.00     0.198 A 
ATOM     66  C   UNL A   1      46.296  34.826  27.521  1.00  0.00     0.198 A 
ATOM     67  F   UNL A   1      45.229  33.158  26.250  1.00  0.00    -0.203 F 
ATOM     68  F   UNL A   1      47.538  34.770  30.923  1.00  0.00    -0.200 F 
ATOM     69  C   UNL A   1      46.883  35.243  28.705  1.00  0.00     0.200 A 
ATOM     70  F   UNL A   1      46.194  35.674  26.488  1.00  0.00    -0.200 F 
ATOM     71  F   UNL A   1      47.327  36.501  28.826  1.00  0.00    -0.200 F 
ENDBRANCH  38  61
ENDBRANCH  12  13
ENDBRANCH   5   7
ENDBRANCH   2   3
ENDBRANCH   1   2
BRANCH   1  72
ATOM     72  C   UNL A   1      36.771  20.810  24.802  1.00  0.00     0.117 C 
BRANCH  72  73
ATOM     73  N   UNL A   1      35.816  20.703  25.890  1.00  0.00    -0.354 N 
ATOM     74  C   UNL A   1      34.689  21.451  26.098  1.00  0.00     0.249 C 
ATOM     75  H   UNL A   1      36.002  20.006  26.560  1.00  0.00     0.163 HD
ATOM     76  O   UNL A   1      34.050  21.264  27.134  1.00  0.00    -0.272 OA
BRANCH  74  77
ATOM     77  C   UNL A   1      34.247  22.435  24.997  1.00  0.00     0.207 C 
ATOM     78  C   UNL A   1      33.468  21.768  23.878  1.00  0.00     0.045 C 
ATOM     79  O   UNL A   1      33.394  23.461  25.527  1.00  0.00    -0.363 OA
ATOM     80  C   UNL A   1      32.044  21.902  24.353  1.00  0.00     0.037 C 
ATOM     81  C   UNL A   1      32.046  23.248  25.064  1.00  0.00     0.139 C 
BRANCH  81  82
ATOM     82  C   UNL A   1      31.658  24.443  24.175  1.00  0.00     0.161 C 
BRANCH  82  83
ATOM     83  N   UNL A   1      31.911  25.727  24.796  1.00  0.00    -0.270 N 
ATOM     84  C   UNL A   1      31.224  26.204  25.879  1.00  0.00     0.263 C 
ATOM     85  C   UNL A   1      32.879  26.602  24.379  1.00  0.00     0.280 C 
ATOM     86  O   UNL A   1      30.317  25.693  26.501  1.00  0.00    -0.269 OA
ATOM     87  C   UNL A   1      31.809  27.497  26.206  1.00  0.00     0.071 A 
ATOM     88  C   UNL A   1      32.817  27.742  25.304  1.00  0.00     0.141 A 
ATOM     89  O   UNL A   1      33.653  26.466  23.448  1.00  0.00    -0.267 OA
ATOM     90  C   UNL A   1      31.545  28.401  27.210  1.00  0.00     0.018 A 
ATOM     91  N   UNL A   1      33.623  28.818  25.299  1.00  0.00    -0.250 NA
ATOM     92  C   UNL A   1      32.351  29.541  27.251  1.00  0.00     0.021 A 
ATOM     93  C   UNL A   1      33.363  29.703  26.293  1.00  0.00     0.112 A 
ENDBRANCH  82  83
ENDBRANCH  81  82
ENDBRANCH  74  77
ENDBRANCH  72  73
ENDBRANCH   1  72
TORSDOF 12
ENDMDL
MODEL 2
REMARK VINA RESULT:     -12.8      5.564     11.246
REMARK SMILES O=C(NCCCNC(=O)[C@H]1CC[C@H](CN2C(=O)c3cccnc3C2=O)O1)c1ccc(-c2c3nc(c(-c4c(F)c(F)c(F)c(F)c4F)c4ccc([nH]4)c(-c4c(F)c(F)c(F)c(F)c4F)c4nc(c(-c5c(F)c(F)c(F)c(F)c5F)c5ccc2[nH]5)C=C4)C=C3)cc1
REMARK SMILES IDX 5 1 4 2 3 3 1 4 2 5 27 7 28 8 89 9 29 10 88 11 30 12 31 13
REMARK SMILES IDX 32 14 82 15 33 16 87 17 81 18 83 19 34 20 86 21 80 22 79 23
REMARK SMILES IDX 35 25 67 26 47 27 66 28 48 29 51 30 65 31 84 32 49 33 50 34
REMARK SMILES IDX 64 36 85 37 52 38 36 39 37 40 45 41 38 42 39 43 43 44 46 45
REMARK SMILES IDX 40 46 41 47 44 48 42 49 68 50 69 51 77 52 70 53 71 54 75 55
REMARK SMILES IDX 78 56 72 57 73 58 76 59 74 60 53 61 54 62 62 63 55 64 56 65
REMARK SMILES IDX 60 66 63 67 57 68 58 69 61 70 59 71 6 72 7 73 8 74 9 76
REMARK SMILES IDX 10 77 11 78 26 79 12 80 13 81 14 82 15 83 16 84 24 85 17 86
REMARK SMILES IDX 18 87 23 88 25 89 19 90 22 91 20 92 21 93
REMARK H PARENT 3 6 83 24 51 35 7 75
REMARK Flexibility Score: inf
ROOT
ATOM      1  C   UNL A   1      31.354  32.227  26.598  1.00  0.00     0.042 C 
ENDROOT
BRANCH   1   2
ATOM      2  C   UNL A   1      32.600  32.815  27.251  1.00  0.00     0.118 C 
BRANCH   2   3
ATOM      3  N   UNL A   1      32.428  34.212  27.627  1.00  0.00    -0.352 N 
ATOM      4  O   UNL A   1      32.633  36.052  28.910  1.00  0.00    -0.269 OA
ATOM      5  C   UNL A   1      33.046  34.935  28.616  1.00  0.00     0.251 C 
ATOM      6  H   UNL A   1      31.772  34.712  27.090  1.00  0.00     0.163 HD
BRANCH   5   7
ATOM      7  C   UNL A   1      34.208  34.367  29.329  1.00  0.00     0.039 A 
ATOM      8  C   UNL A   1      34.028  33.652  30.515  1.00  0.00     0.014 A 
ATOM      9  C   UNL A   1      35.485  34.509  28.780  1.00  0.00     0.014 A 
ATOM     10  C   UNL A   1      35.132  33.179  31.212  1.00  0.00     0.010 A 
ATOM     11  C   UNL A   1      36.587  33.952  29.435  1.00  0.00     0.010 A 
ATOM     12  C   UNL A   1      36.417  33.287  30.659  1.00  0.00    -0.014 A 
BRANCH  12  13
ATOM     13  C   UNL A   1      37.541  32.571  31.310  1.00  0.00     0.031 A 
ATOM     14  C   UNL A   1      38.236  31.423  30.640  1.00  0.00     0.074 A 
ATOM     15  C   UNL A   1      37.925  32.984  32.534  1.00  0.00     0.049 A 
ATOM     16  N   UNL A   1      39.220  30.685  31.088  1.00  0.00    -0.248 NA
ATOM     17  C   UNL A   1      37.766  31.044  29.298  1.00  0.00     0.031 C 
ATOM     18  C   UNL A   1      37.302  34.080  33.284  1.00  0.00     0.029 A 
ATOM     19  N   UNL A   1      38.923  32.543  33.364  1.00  0.00    -0.354 N 
ATOM     20  C   UNL A   1      39.478  29.748  30.098  1.00  0.00     0.074 A 
ATOM     21  C   UNL A   1      38.536  29.997  29.026  1.00  0.00     0.031 C 
ATOM     22  C   UNL A   1      37.950  34.244  34.446  1.00  0.00     0.029 A 
ATOM     23  C   UNL A   1      38.979  33.220  34.559  1.00  0.00     0.049 A 
ATOM     24  H   UNL A   1      39.539  31.812  33.127  1.00  0.00     0.167 HD
ATOM     25  C   UNL A   1      40.420  28.775  30.092  1.00  0.00     0.037 A 
ATOM     26  C   UNL A   1      39.748  33.013  35.644  1.00  0.00     0.037 A 
ATOM     27  C   UNL A   1      41.364  28.555  31.160  1.00  0.00     0.049 A 
ATOM     28  C   UNL A   1      40.751  31.897  35.615  1.00  0.00     0.074 A 
ATOM     29  C   UNL A   1      42.403  27.641  31.213  1.00  0.00     0.029 A 
ATOM     30  N   UNL A   1      41.374  29.241  32.365  1.00  0.00    -0.354 N 
ATOM     31  N   UNL A   1      41.037  31.067  34.641  1.00  0.00    -0.248 NA
ATOM     32  C   UNL A   1      41.537  31.683  36.837  1.00  0.00     0.031 C 
ATOM     33  C   UNL A   1      42.996  27.725  32.476  1.00  0.00     0.029 A 
ATOM     34  C   UNL A   1      42.370  28.736  33.187  1.00  0.00     0.049 A 
ATOM     35  H   UNL A   1      40.766  29.977  32.602  1.00  0.00     0.167 HD
ATOM     36  C   UNL A   1      42.041  30.243  35.127  1.00  0.00     0.074 A 
ATOM     37  C   UNL A   1      42.341  30.697  36.469  1.00  0.00     0.031 C 
ATOM     38  C   UNL A   1      42.652  29.197  34.522  1.00  0.00     0.037 A 
BRANCH  25  39
ATOM     39  C   UNL A   1      40.484  27.847  28.914  1.00  0.00     0.064 A 
ATOM     40  C   UNL A   1      39.688  26.696  28.836  1.00  0.00     0.173 A 
ATOM     41  C   UNL A   1      41.267  28.181  27.798  1.00  0.00     0.173 A 
ATOM     42  F   UNL A   1      38.924  26.329  29.876  1.00  0.00    -0.203 F 
ATOM     43  C   UNL A   1      39.676  25.911  27.684  1.00  0.00     0.198 A 
ATOM     44  C   UNL A   1      41.232  27.409  26.639  1.00  0.00     0.198 A 
ATOM     45  F   UNL A   1      42.039  29.277  27.817  1.00  0.00    -0.203 F 
ATOM     46  F   UNL A   1      38.921  24.805  27.635  1.00  0.00    -0.200 F 
ATOM     47  C   UNL A   1      40.438  26.276  26.583  1.00  0.00     0.200 A 
ATOM     48  F   UNL A   1      41.955  27.775  25.571  1.00  0.00    -0.200 F 
ATOM     49  F   UNL A   1      40.403  25.534  25.467  1.00  0.00    -0.200 F 
ENDBRANCH  25  39
BRANCH  26  50
ATOM     50  C   UNL A   1      39.560  33.845  36.863  1.00  0.00     0.064 A 
ATOM     51  C   UNL A   1      38.764  33.402  37.928  1.00  0.00     0.173 A 
ATOM     52  C   UNL A   1      40.144  35.116  36.971  1.00  0.00     0.173 A 
ATOM     53  F   UNL A   1      38.169  32.202  37.867  1.00  0.00    -0.203 F 
ATOM     54  C   UNL A   1      38.528  34.216  39.034  1.00  0.00     0.198 A 
ATOM     55  C   UNL A   1      39.942  35.911  38.096  1.00  0.00     0.198 A 
ATOM     56  F   UNL A   1      40.921  35.586  35.983  1.00  0.00    -0.203 F 
ATOM     57  F   UNL A   1      37.705  33.797  40.005  1.00  0.00    -0.200 F 
ATOM     58  C   UNL A   1      39.121  35.466  39.120  1.00  0.00     0.200 A 
ATOM     59  F   UNL A   1      40.534  37.110  38.182  1.00  0.00    -0.200 F 
ATOM     60  F   UNL A   1      38.889  36.249  40.182  1.00  0.00    -0.200 F 
ENDBRANCH  26  50
BRANCH  38  61
ATOM     61  C   UNL A   1      43.715  28.482  35.305  1.00  0.00     0.064 A 
ATOM     62  C   UNL A   1      45.066  28.850  35.211  1.00  0.00     0.173 A 
ATOM     63  C   UNL A   1      43.378  27.439  36.180  1.00  0.00     0.173 A 
ATOM     64  F   UNL A   1      45.443  29.829  34.374  1.00  0.00    -0.203 F 
ATOM     65  C   UNL A   1      46.042  28.181  35.943  1.00  0.00     0.198 A 
ATOM     66  C   UNL A   1      44.352  26.797  36.938  1.00  0.00     0.198 A 
ATOM     67  F   UNL A   1      42.100  27.051  36.310  1.00  0.00    -0.203 F 
ATOM     68  F   UNL A   1      47.332  28.512  35.795  1.00  0.00    -0.200 F 
ATOM     69  C   UNL A   1      45.683  27.161  36.812  1.00  0.00     0.200 A 
ATOM     70  F   UNL A   1      44.002  25.822  37.789  1.00  0.00    -0.200 F 
ATOM     71  F   UNL A   1      46.624  26.524  37.523  1.00  0.00    -0.200 F 
ENDBRANCH  38  61
ENDBRANCH  12  13
ENDBRANCH   5   7
ENDBRANCH   2   3
ENDBRANCH   1   2
BRANCH   1  72
ATOM     72  C   UNL A   1      31.573  30.828  26.035  1.00  0.00     0.117 C 
BRANCH  72  73
ATOM     73  N   UNL A   1      32.885  30.311  26.381  1.00  0.00    -0.354 N 
ATOM     74  C   UNL A   1      33.380  29.055  26.164  1.00  0.00     0.249 C 
ATOM     75  H   UNL A   1      33.493  30.944  26.827  1.00  0.00     0.163 HD
ATOM     76  O   UNL A   1      34.494  28.783  26.612  1.00  0.00    -0.272 OA
BRANCH  74  77
ATOM     77  C   UNL A   1      32.546  28.074  25.315  1.00  0.00     0.207 C 
ATOM     78  C   UNL A   1      33.321  26.834  24.903  1.00  0.00     0.045 C 
ATOM     79  O   UNL A   1      31.396  27.609  26.037  1.00  0.00    -0.363 OA
ATOM     80  C   UNL A   1      33.018  25.877  26.027  1.00  0.00     0.037 C 
ATOM     81  C   UNL A   1      31.583  26.226  26.396  1.00  0.00     0.139 C 
BRANCH  81  82
ATOM     82  C   UNL A   1      30.513  25.399  25.662  1.00  0.00     0.161 C 
BRANCH  82  83
ATOM     83  N   UNL A   1      30.980  24.089  25.257  1.00  0.00    -0.270 N 
ATOM     84  C   UNL A   1      31.301  23.751  23.970  1.00  0.00     0.263 C 
ATOM     85  C   UNL A   1      31.169  23.042  26.121  1.00  0.00     0.280 C 
ATOM     86  O   UNL A   1      31.259  24.428  22.964  1.00  0.00    -0.269 OA
ATOM     87  C   UNL A   1      31.755  22.369  24.004  1.00  0.00     0.071 A 
ATOM     88  C   UNL A   1      31.683  21.934  25.305  1.00  0.00     0.141 A 
ATOM     89  O   UNL A   1      30.975  23.027  27.323  1.00  0.00    -0.267 OA
ATOM     90  C   UNL A   1      32.231  21.530  23.020  1.00  0.00     0.018 A 
ATOM     91  N   UNL A   1      32.055  20.721  25.751  1.00  0.00    -0.250 NA
ATOM     92  C   UNL A   1      32.630  20.255  23.426  1.00  0.00     0.021 A 
ATOM     93  C   UNL A   1      32.528  19.901  24.780  1.00  0.00     0.112 A 
ENDBRANCH  82  83
ENDBRANCH  81  82
ENDBRANCH  74  77
ENDBRANCH  72  73
ENDBRANCH   1  72
TORSDOF 12
ENDMDL
MODEL 3
REMARK VINA RESULT:     -12.8      5.597     11.246
REMARK SMILES O=C(NCCCNC(=O)[C@H]1CC[C@H](CN2C(=O)c3cccnc3C2=O)O1)c1ccc(-c2c3nc(c(-c4c(F)c(F)c(F)c(F)c4F)c4ccc([nH]4)c(-c4c(F)c(F)c(F)c(F)c4F)c4nc(c(-c5c(F)c(F)c(F)c(F)c5F)c5ccc2[nH]5)C=C4)C=C3)cc1
REMARK SMILES IDX 5 1 4 2 3 3 1 4 2 5 27 7 28 8 89 9 29 10 88 11 30 12 31 13
REMARK SMILES IDX 32 14 82 15 33 16 87 17 81 18 83 19 34 20 86 21 80 22 79 23
REMARK SMILES IDX 35 25 67 26 47 27 66 28 48 29 51 30 65 31 84 32 49 33 50 34
REMARK SMILES IDX 64 36 85 37 52 38 36 39 37 40 45 41 38 42 39 43 43 44 46 45
REMARK SMILES IDX 40 46 41 47 44 48 42 49 68 50 69 51 77 52 70 53 71 54 75 55
REMARK SMILES IDX 78 56 72 57 73 58 76 59 74 60 53 61 54 62 62 63 55 64 56 65
REMARK SMILES IDX 60 66 63 67 57 68 58 69 61 70 59 71 6 72 7 73 8 74 9 76
REMARK SMILES IDX 10 77 11 78 26 79 12 80 13 81 14 82 15 83 16 84 24 85 17 86
REMARK SMILES IDX 18 87 23 88 25 89 19 90 22 91 20 92 21 93
REMARK H PARENT 3 6 83 24 51 35 7 75
REMARK Flexibility Score: inf
ROOT
ATOM      1  C   UNL A   1      31.420  32.337  26.534  1.00  0.00     0.042 C 
ENDROOT
BRANCH   1   2
ATOM      2  C   UNL A   1      32.614  32.884  27.308  1.00  0.00     0.118 C 
BRANCH   2   3
ATOM      3  N   UNL A   1      32.450  34.285  27.673  1.00  0.00    -0.352 N 
ATOM      4  O   UNL A   1      32.666  36.133  28.942  1.00  0.00    -0.269 OA
ATOM      5  C   UNL A   1      33.073  35.012  28.656  1.00  0.00     0.251 C 
ATOM      6  H   UNL A   1      31.794  34.784  27.135  1.00  0.00     0.163 HD
BRANCH   5   7
ATOM      7  C   UNL A   1      34.235  34.444  29.369  1.00  0.00     0.039 A 
ATOM      8  C   UNL A   1      34.055  33.735  30.559  1.00  0.00     0.014 A 
ATOM      9  C   UNL A   1      35.511  34.580  28.818  1.00  0.00     0.014 A 
ATOM     10  C   UNL A   1      35.159  33.262  31.257  1.00  0.00     0.010 A 
ATOM     11  C   UNL A   1      36.613  34.023  29.473  1.00  0.00     0.010 A 
ATOM     12  C   UNL A   1      36.443  33.364  30.701  1.00  0.00    -0.014 A 
BRANCH  12  13
ATOM     13  C   UNL A   1      37.566  32.649  31.353  1.00  0.00     0.031 A 
ATOM     14  C   UNL A   1      38.247  31.486  30.693  1.00  0.00     0.074 A 
ATOM     15  C   UNL A   1      37.962  33.074  32.570  1.00  0.00     0.049 A 
ATOM     16  N   UNL A   1      39.230  30.747  31.145  1.00  0.00    -0.248 NA
ATOM     17  C   UNL A   1      37.766  31.094  29.360  1.00  0.00     0.031 C 
ATOM     18  C   UNL A   1      37.352  34.185  33.309  1.00  0.00     0.029 A 
ATOM     19  N   UNL A   1      38.962  32.636  33.399  1.00  0.00    -0.354 N 
ATOM     20  C   UNL A   1      39.474  29.796  30.165  1.00  0.00     0.074 A 
ATOM     21  C   UNL A   1      38.526  30.038  29.097  1.00  0.00     0.031 C 
ATOM     22  C   UNL A   1      38.009  34.359  34.465  1.00  0.00     0.029 A 
ATOM     23  C   UNL A   1      39.031  33.328  34.584  1.00  0.00     0.049 A 
ATOM     24  H   UNL A   1      39.571  31.898  33.167  1.00  0.00     0.167 HD
ATOM     25  C   UNL A   1      40.408  28.816  30.165  1.00  0.00     0.037 A 
ATOM     26  C   UNL A   1      39.806  33.130  35.666  1.00  0.00     0.037 A 
ATOM     27  C   UNL A   1      41.358  28.601  31.229  1.00  0.00     0.049 A 
ATOM     28  C   UNL A   1      40.801  32.006  35.645  1.00  0.00     0.074 A 
ATOM     29  C   UNL A   1      42.391  27.681  31.287  1.00  0.00     0.029 A 
ATOM     30  N   UNL A   1      41.381  29.303  32.425  1.00  0.00    -0.354 N 
ATOM     31  N   UNL A   1      41.074  31.161  34.680  1.00  0.00    -0.248 NA
ATOM     32  C   UNL A   1      41.594  31.801  36.864  1.00  0.00     0.031 C 
ATOM     33  C   UNL A   1      42.992  27.776  32.545  1.00  0.00     0.029 A 
ATOM     34  C   UNL A   1      42.379  28.801  33.248  1.00  0.00     0.049 A 
ATOM     35  H   UNL A   1      40.780  30.047  32.657  1.00  0.00     0.167 HD
ATOM     36  C   UNL A   1      42.075  30.336  35.170  1.00  0.00     0.074 A 
ATOM     37  C   UNL A   1      42.387  30.804  36.504  1.00  0.00     0.031 C 
ATOM     38  C   UNL A   1      42.674  29.277  34.574  1.00  0.00     0.037 A 
BRANCH  25  39
ATOM     39  C   UNL A   1      40.457  27.872  28.999  1.00  0.00     0.064 A 
ATOM     40  C   UNL A   1      39.682  26.705  28.960  1.00  0.00     0.173 A 
ATOM     41  C   UNL A   1      41.202  28.204  27.856  1.00  0.00     0.173 A 
ATOM     42  F   UNL A   1      38.955  26.339  30.026  1.00  0.00    -0.203 F 
ATOM     43  C   UNL A   1      39.653  25.903  27.819  1.00  0.00     0.198 A 
ATOM     44  C   UNL A   1      41.150  27.415  26.710  1.00  0.00     0.198 A 
ATOM     45  F   UNL A   1      41.953  29.315  27.838  1.00  0.00    -0.203 F 
ATOM     46  F   UNL A   1      38.918  24.782  27.808  1.00  0.00    -0.200 F 
ATOM     47  C   UNL A   1      40.376  26.266  26.692  1.00  0.00     0.200 A 
ATOM     48  F   UNL A   1      41.835  27.779  25.617  1.00  0.00    -0.200 F 
ATOM     49  F   UNL A   1      40.325  25.508  25.588  1.00  0.00    -0.200 F 
ENDBRANCH  25  39
BRANCH  26  50
ATOM     50  C   UNL A   1      39.632  33.978  36.875  1.00  0.00     0.064 A 
ATOM     51  C   UNL A   1      38.838  33.557  37.950  1.00  0.00     0.173 A 
ATOM     52  C   UNL A   1      40.230  35.245  36.965  1.00  0.00     0.173 A 
ATOM     53  F   UNL A   1      38.230  32.362  37.907  1.00  0.00    -0.203 F 
ATOM     54  C   UNL A   1      38.616  34.387  39.047  1.00  0.00     0.198 A 
ATOM     55  C   UNL A   1      40.042  36.056  38.081  1.00  0.00     0.198 A 
ATOM     56  F   UNL A   1      41.007  35.695  35.967  1.00  0.00    -0.203 F 
ATOM     57  F   UNL A   1      37.793  33.989  40.028  1.00  0.00    -0.200 F 
ATOM     58  C   UNL A   1      39.222  35.632  39.115  1.00  0.00     0.200 A 
ATOM     59  F   UNL A   1      40.646  37.249  38.148  1.00  0.00    -0.200 F 
ATOM     60  F   UNL A   1      39.002  36.431  40.168  1.00  0.00    -0.200 F 
ENDBRANCH  26  50
BRANCH  38  61
ATOM     61  C   UNL A   1      43.737  28.564  35.359  1.00  0.00     0.064 A 
ATOM     62  C   UNL A   1      43.420  27.516  36.238  1.00  0.00     0.173 A 
ATOM     63  C   UNL A   1      45.087  28.910  35.210  1.00  0.00     0.173 A 
ATOM     64  F   UNL A   1      42.140  27.160  36.430  1.00  0.00    -0.203 F 
ATOM     65  C   UNL A   1      44.414  26.863  36.959  1.00  0.00     0.198 A 
ATOM     66  C   UNL A   1      46.082  28.230  35.905  1.00  0.00     0.198 A 
ATOM     67  F   UNL A   1      45.444  29.902  34.379  1.00  0.00    -0.203 F 
ATOM     68  F   UNL A   1      44.083  25.904  37.834  1.00  0.00    -0.200 F 
ATOM     69  C   UNL A   1      45.745  27.214  36.785  1.00  0.00     0.200 A 
ATOM     70  F   UNL A   1      47.369  28.559  35.725  1.00  0.00    -0.200 F 
ATOM     71  F   UNL A   1      46.701  26.577  37.474  1.00  0.00    -0.200 F 
ENDBRANCH  38  61
ENDBRANCH  12  13
ENDBRANCH   5   7
ENDBRANCH   2   3
ENDBRANCH   1   2
BRANCH   1  72
ATOM     72  C   UNL A   1      31.508  30.839  26.271  1.00  0.00     0.117 C 
BRANCH  72  73
ATOM     73  N   UNL A   1      32.844  30.329  26.523  1.00  0.00    -0.354 N 
ATOM     74  C   UNL A   1      33.351  29.098  26.207  1.00  0.00     0.249 C 
ATOM     75  H   UNL A   1      33.462  30.947  26.978  1.00  0.00     0.163 HD
ATOM     76  O   UNL A   1      34.489  28.822  26.586  1.00  0.00    -0.272 OA
BRANCH  74  77
ATOM     77  C   UNL A   1      32.495  28.153  25.340  1.00  0.00     0.207 C 
ATOM     78  C   UNL A   1      33.269  26.955  24.821  1.00  0.00     0.045 C 
ATOM     79  O   UNL A   1      31.386  27.626  26.083  1.00  0.00    -0.363 OA
ATOM     80  C   UNL A   1      33.033  25.928  25.899  1.00  0.00     0.037 C 
ATOM     81  C   UNL A   1      31.611  26.228  26.351  1.00  0.00     0.139 C 
BRANCH  81  82
ATOM     82  C   UNL A   1      30.523  25.425  25.618  1.00  0.00     0.161 C 
BRANCH  82  83
ATOM     83  N   UNL A   1      30.968  24.115  25.188  1.00  0.00    -0.270 N 
ATOM     84  C   UNL A   1      31.317  23.806  23.902  1.00  0.00     0.263 C 
ATOM     85  C   UNL A   1      31.105  23.040  26.027  1.00  0.00     0.280 C 
ATOM     86  O   UNL A   1      31.321  24.512  22.915  1.00  0.00    -0.269 OA
ATOM     87  C   UNL A   1      31.736  22.412  23.908  1.00  0.00     0.071 A 
ATOM     88  C   UNL A   1      31.615  21.942  25.194  1.00  0.00     0.141 A 
ATOM     89  O   UNL A   1      30.876  22.996  27.222  1.00  0.00    -0.267 OA
ATOM     90  C   UNL A   1      32.218  21.590  22.914  1.00  0.00     0.018 A 
ATOM     91  N   UNL A   1      31.943  20.708  25.614  1.00  0.00    -0.250 NA
ATOM     92  C   UNL A   1      32.573  20.294  23.294  1.00  0.00     0.021 A 
ATOM     93  C   UNL A   1      32.423  19.904  24.633  1.00  0.00     0.112 A 
ENDBRANCH  82  83
ENDBRANCH  81  82
ENDBRANCH  74  77
ENDBRANCH  72  73
ENDBRANCH   1  72
TORSDOF 12
ENDMDL
