MODEL 1
REMARK VINA RESULT:     -12.6      0.000      0.000
REMARK SMILES COC(=O)N/N=C/c1ccc(-c2cccc(C(=O)NCCCNC(=O)c3ccc(-c4c5nc(c(-c6c(F)c(F)c(F)c(F)c6F)c6ccc([nH]6)c(-c6c(F)c(F)c(F)c(F)c6F)c6nc(c(-c7c(F)c(F)c(F)c(F)c7F)c7ccc4[nH]7)C=C6)C=C5)cc3)c2)o1
REMARK SMILES IDX 20 1 19 2 17 3 18 4 16 6 12 7 13 8 89 9 14 10 15 11 11 12
REMARK SMILES IDX 8 13 9 14 90 15 10 16 7 17 6 18 5 19 3 20 4 21 2 23 1 24
REMARK SMILES IDX 21 25 22 26 23 27 24 28 25 30 26 31 27 32 88 33 28 34 87 35
REMARK SMILES IDX 29 36 30 37 31 38 81 39 32 40 86 41 80 42 82 43 33 44 85 45
REMARK SMILES IDX 79 46 78 47 34 49 66 50 46 51 65 52 47 53 50 54 64 55 83 56
REMARK SMILES IDX 48 57 49 58 63 60 84 61 51 62 35 63 36 64 44 65 37 66 38 67
REMARK SMILES IDX 42 68 45 69 39 70 40 71 43 72 41 73 67 74 68 75 76 76 69 77
REMARK SMILES IDX 70 78 74 79 77 80 71 81 72 82 75 83 73 84 52 85 53 86 61 87
REMARK SMILES IDX 54 88 55 89 59 90 62 91 56 92 57 93 60 94 58 95
REMARK H PARENT 19 5 5 22 23 29 82 48 50 59
REMARK Flexibility Score: inf
ROOT
ATOM      1  C   UNL A   1      37.435  20.955  24.639  1.00  0.00     0.118 C 
ENDROOT
BRANCH   1   2
ATOM      2  N   UNL A   1      37.943  22.196  25.206  1.00  0.00    -0.352 N 
ATOM      3  C   UNL A   1      37.389  23.345  25.720  1.00  0.00     0.251 C 
ATOM      4  O   UNL A   1      38.179  24.201  26.123  1.00  0.00    -0.269 OA
ATOM      5  H   UNL A   1      38.927  22.219  25.227  1.00  0.00     0.163 HD
BRANCH   3   6
ATOM      6  C   UNL A   1      35.929  23.650  25.759  1.00  0.00     0.040 A 
ATOM      7  C   UNL A   1      34.035  25.155  25.450  1.00  0.00     0.018 A 
ATOM      8  C   UNL A   1      33.222  24.295  26.186  1.00  0.00     0.012 A 
ATOM      9  C   UNL A   1      35.344  24.755  25.152  1.00  0.00     0.025 A 
ATOM     10  C   UNL A   1      33.735  23.085  26.656  1.00  0.00     0.002 A 
ATOM     11  C   UNL A   1      35.090  22.785  26.478  1.00  0.00     0.014 A 
BRANCH   7  12
ATOM     12  C   UNL A   1      33.632  26.502  25.072  1.00  0.00     0.134 A 
ATOM     13  C   UNL A   1      32.298  27.900  24.012  1.00  0.00     0.147 A 
ATOM     14  C   UNL A   1      33.015  28.652  24.921  1.00  0.00     0.053 A 
ATOM     15  O   UNL A   1      32.677  26.589  24.097  1.00  0.00    -0.455 OA
ATOM     16  C   UNL A   1      33.873  27.755  25.600  1.00  0.00     0.051 A 
BRANCH  13  17
ATOM     17  C   UNL A   1      31.294  28.261  23.051  1.00  0.00     0.180 C 
ATOM     18  N   UNL A   1      31.247  29.477  22.606  1.00  0.00    -0.175 NA
BRANCH  18  19
ATOM     19  N   UNL A   1      30.302  29.811  21.675  1.00  0.00    -0.212 N 
ATOM     20  C   UNL A   1      29.004  30.246  21.842  1.00  0.00     0.427 C 
ATOM     21  O   UNL A   1      28.296  30.509  20.878  1.00  0.00    -0.223 OA
ATOM     22  H   UNL A   1      30.595  29.727  20.738  1.00  0.00     0.197 HD
BRANCH  20  23
ATOM     23  O   UNL A   1      28.618  30.387  23.140  1.00  0.00    -0.452 OA
ATOM     24  C   UNL A   1      27.664  31.431  23.341  1.00  0.00     0.284 C 
ENDBRANCH  20  23
ENDBRANCH  18  19
ENDBRANCH  13  17
ENDBRANCH   7  12
ENDBRANCH   3   6
ENDBRANCH   1   2
BRANCH   1  25
ATOM     25  C   UNL A   1      38.262  19.732  25.000  1.00  0.00     0.042 C 
BRANCH  25  26
ATOM     26  C   UNL A   1      39.251  19.988  26.125  1.00  0.00     0.118 C 
BRANCH  26  27
ATOM     27  N   UNL A   1      40.372  19.049  26.103  1.00  0.00    -0.352 N 
ATOM     28  C   UNL A   1      41.727  19.263  26.058  1.00  0.00     0.251 C 
ATOM     29  H   UNL A   1      40.109  18.101  26.124  1.00  0.00     0.163 HD
ATOM     30  O   UNL A   1      42.480  18.333  25.784  1.00  0.00    -0.269 OA
BRANCH  28  31
ATOM     31  C   UNL A   1      42.285  20.602  26.332  1.00  0.00     0.039 A 
ATOM     32  C   UNL A   1      42.596  21.448  25.264  1.00  0.00     0.014 A 
ATOM     33  C   UNL A   1      42.534  21.013  27.642  1.00  0.00     0.014 A 
ATOM     34  C   UNL A   1      43.089  22.729  25.517  1.00  0.00     0.010 A 
ATOM     35  C   UNL A   1      42.912  22.323  27.897  1.00  0.00     0.010 A 
ATOM     36  C   UNL A   1      43.209  23.191  26.838  1.00  0.00    -0.014 A 
BRANCH  36  37
ATOM     37  C   UNL A   1      43.658  24.571  27.143  1.00  0.00     0.031 A 
ATOM     38  C   UNL A   1      42.673  25.583  27.658  1.00  0.00     0.074 A 
ATOM     39  C   UNL A   1      44.924  24.934  26.868  1.00  0.00     0.049 A 
ATOM     40  N   UNL A   1      42.841  26.860  27.889  1.00  0.00    -0.248 NA
ATOM     41  C   UNL A   1      41.305  25.104  27.909  1.00  0.00     0.031 C 
ATOM     42  C   UNL A   1      45.953  24.056  26.309  1.00  0.00     0.029 A 
ATOM     43  N   UNL A   1      45.557  26.143  27.004  1.00  0.00    -0.354 N 
ATOM     44  C   UNL A   1      41.598  27.337  28.288  1.00  0.00     0.074 A 
ATOM     45  C   UNL A   1      40.673  26.229  28.201  1.00  0.00     0.031 C 
ATOM     46  C   UNL A   1      47.094  24.748  26.172  1.00  0.00     0.029 A 
ATOM     47  C   UNL A   1      46.865  26.128  26.587  1.00  0.00     0.049 A 
ATOM     48  H   UNL A   1      45.116  26.945  27.367  1.00  0.00     0.167 HD
ATOM     49  C   UNL A   1      41.267  28.579  28.712  1.00  0.00     0.037 A 
ATOM     50  C   UNL A   1      47.774  27.120  26.532  1.00  0.00     0.037 A 
ATOM     51  C   UNL A   1      42.202  29.668  28.811  1.00  0.00     0.049 A 
ATOM     52  C   UNL A   1      47.386  28.492  27.006  1.00  0.00     0.074 A 
ATOM     53  C   UNL A   1      41.991  30.946  29.298  1.00  0.00     0.029 A 
ATOM     54  N   UNL A   1      43.528  29.610  28.403  1.00  0.00    -0.354 N 
ATOM     55  N   UNL A   1      46.230  28.915  27.460  1.00  0.00    -0.248 NA
ATOM     56  C   UNL A   1      48.429  29.525  26.968  1.00  0.00     0.031 C 
ATOM     57  C   UNL A   1      43.169  31.679  29.121  1.00  0.00     0.029 A 
ATOM     58  C   UNL A   1      44.137  30.840  28.594  1.00  0.00     0.049 A 
ATOM     59  H   UNL A   1      43.970  28.811  28.034  1.00  0.00     0.167 HD
ATOM     60  C   UNL A   1      46.412  30.252  27.786  1.00  0.00     0.074 A 
ATOM     61  C   UNL A   1      47.796  30.566  27.489  1.00  0.00     0.031 C 
ATOM     62  C   UNL A   1      45.516  31.138  28.288  1.00  0.00     0.037 A 
BRANCH  49  63
ATOM     63  C   UNL A   1      39.830  28.821  29.083  1.00  0.00     0.064 A 
ATOM     64  C   UNL A   1      38.883  29.261  28.143  1.00  0.00     0.173 A 
ATOM     65  C   UNL A   1      39.391  28.613  30.400  1.00  0.00     0.173 A 
ATOM     66  F   UNL A   1      39.248  29.486  26.872  1.00  0.00    -0.203 F 
ATOM     67  C   UNL A   1      37.570  29.534  28.519  1.00  0.00     0.198 A 
ATOM     68  C   UNL A   1      38.067  28.848  30.762  1.00  0.00     0.198 A 
ATOM     69  F   UNL A   1      40.247  28.186  31.340  1.00  0.00    -0.203 F 
ATOM     70  F   UNL A   1      36.707  30.027  27.619  1.00  0.00    -0.200 F 
ATOM     71  C   UNL A   1      37.161  29.322  29.826  1.00  0.00     0.200 A 
ATOM     72  F   UNL A   1      37.669  28.626  32.023  1.00  0.00    -0.200 F 
ATOM     73  F   UNL A   1      35.898  29.587  30.186  1.00  0.00    -0.200 F 
ENDBRANCH  49  63
BRANCH  50  74
ATOM     74  C   UNL A   1      49.142  26.829  26.032  1.00  0.00     0.064 A 
ATOM     75  C   UNL A   1      50.126  26.306  26.882  1.00  0.00     0.173 A 
ATOM     76  C   UNL A   1      49.483  27.028  24.685  1.00  0.00     0.173 A 
ATOM     77  F   UNL A   1      49.853  26.113  28.181  1.00  0.00    -0.203 F 
ATOM     78  C   UNL A   1      51.401  26.006  26.409  1.00  0.00     0.198 A 
ATOM     79  C   UNL A   1      50.750  26.699  24.206  1.00  0.00     0.198 A 
ATOM     80  F   UNL A   1      48.576  27.517  23.828  1.00  0.00    -0.203 F 
ATOM     81  F   UNL A   1      52.333  25.538  27.252  1.00  0.00    -0.200 F 
ATOM     82  C   UNL A   1      51.710  26.192  25.070  1.00  0.00     0.200 A 
ATOM     83  F   UNL A   1      51.036  26.862  22.907  1.00  0.00    -0.200 F 
ATOM     84  F   UNL A   1      52.931  25.887  24.612  1.00  0.00    -0.200 F 
ENDBRANCH  50  74
BRANCH  62  85
ATOM     85  C   UNL A   1      46.008  32.527  28.581  1.00  0.00     0.064 A 
ATOM     86  C   UNL A   1      46.597  32.859  29.809  1.00  0.00     0.173 A 
ATOM     87  C   UNL A   1      45.934  33.525  27.596  1.00  0.00     0.173 A 
ATOM     88  F   UNL A   1      46.680  31.946  30.788  1.00  0.00    -0.203 F 
ATOM     89  C   UNL A   1      47.070  34.147  30.051  1.00  0.00     0.198 A 
ATOM     90  C   UNL A   1      46.440  34.801  27.828  1.00  0.00     0.198 A 
ATOM     91  F   UNL A   1      45.387  33.258  26.400  1.00  0.00    -0.203 F 
ATOM     92  F   UNL A   1      47.583  34.456  31.249  1.00  0.00    -0.200 F 
ATOM     93  C   UNL A   1      47.000  35.113  29.057  1.00  0.00     0.200 A 
ATOM     94  F   UNL A   1      46.388  35.727  26.861  1.00  0.00    -0.200 F 
ATOM     95  F   UNL A   1      47.466  36.348  29.287  1.00  0.00    -0.200 F 
ENDBRANCH  62  85
ENDBRANCH  36  37
ENDBRANCH  28  31
ENDBRANCH  26  27
ENDBRANCH  25  26
ENDBRANCH   1  25
TORSDOF 14
ENDMDL
MODEL 2
REMARK VINA RESULT:     -12.4      5.754     11.515
REMARK SMILES COC(=O)N/N=C/c1ccc(-c2cccc(C(=O)NCCCNC(=O)c3ccc(-c4c5nc(c(-c6c(F)c(F)c(F)c(F)c6F)c6ccc([nH]6)c(-c6c(F)c(F)c(F)c(F)c6F)c6nc(c(-c7c(F)c(F)c(F)c(F)c7F)c7ccc4[nH]7)C=C6)C=C5)cc3)c2)o1
REMARK SMILES IDX 20 1 19 2 17 3 18 4 16 6 12 7 13 8 89 9 14 10 15 11 11 12
REMARK SMILES IDX 8 13 9 14 90 15 10 16 7 17 6 18 5 19 3 20 4 21 2 23 1 24
REMARK SMILES IDX 21 25 22 26 23 27 24 28 25 30 26 31 27 32 88 33 28 34 87 35
REMARK SMILES IDX 29 36 30 37 31 38 81 39 32 40 86 41 80 42 82 43 33 44 85 45
REMARK SMILES IDX 79 46 78 47 34 49 66 50 46 51 65 52 47 53 50 54 64 55 83 56
REMARK SMILES IDX 48 57 49 58 63 60 84 61 51 62 35 63 36 64 44 65 37 66 38 67
REMARK SMILES IDX 42 68 45 69 39 70 40 71 43 72 41 73 67 74 68 75 76 76 69 77
REMARK SMILES IDX 70 78 74 79 77 80 71 81 72 82 75 83 73 84 52 85 53 86 61 87
REMARK SMILES IDX 54 88 55 89 59 90 62 91 56 92 57 93 60 94 58 95
REMARK H PARENT 19 5 5 22 23 29 82 48 50 59
REMARK Flexibility Score: inf
ROOT
ATOM      1  C   UNL A   1      31.733  30.753  26.343  1.00  0.00     0.118 C 
ENDROOT
BRANCH   1   2
ATOM      2  N   UNL A   1      32.909  30.142  26.945  1.00  0.00    -0.352 N 
ATOM      3  C   UNL A   1      33.761  29.113  26.620  1.00  0.00     0.251 C 
ATOM      4  O   UNL A   1      34.681  28.893  27.411  1.00  0.00    -0.269 OA
ATOM      5  H   UNL A   1      33.156  30.572  27.796  1.00  0.00     0.163 HD
BRANCH   3   6
ATOM      6  C   UNL A   1      33.613  28.217  25.436  1.00  0.00     0.040 A 
ATOM      7  C   UNL A   1      33.853  26.060  24.325  1.00  0.00     0.018 A 
ATOM      8  C   UNL A   1      33.647  26.666  23.087  1.00  0.00     0.012 A 
ATOM      9  C   UNL A   1      33.714  26.832  25.484  1.00  0.00     0.025 A 
ATOM     10  C   UNL A   1      33.360  28.030  23.020  1.00  0.00     0.002 A 
ATOM     11  C   UNL A   1      33.384  28.807  24.184  1.00  0.00     0.014 A 
BRANCH   7  12
ATOM     12  C   UNL A   1      34.322  24.689  24.471  1.00  0.00     0.134 A 
ATOM     13  C   UNL A   1      33.952  22.532  24.730  1.00  0.00     0.147 A 
ATOM     14  C   UNL A   1      35.267  22.661  24.330  1.00  0.00     0.053 A 
ATOM     15  O   UNL A   1      33.375  23.768  24.823  1.00  0.00    -0.455 OA
ATOM     16  C   UNL A   1      35.506  24.046  24.165  1.00  0.00     0.051 A 
BRANCH  13  17
ATOM     17  C   UNL A   1      33.158  21.379  25.051  1.00  0.00     0.180 C 
ATOM     18  N   UNL A   1      33.705  20.383  25.674  1.00  0.00    -0.175 NA
BRANCH  18  19
ATOM     19  N   UNL A   1      32.939  19.297  25.996  1.00  0.00    -0.212 N 
ATOM     20  C   UNL A   1      32.739  18.116  25.313  1.00  0.00     0.427 C 
ATOM     21  O   UNL A   1      32.014  17.238  25.765  1.00  0.00    -0.223 OA
ATOM     22  H   UNL A   1      32.454  19.370  26.851  1.00  0.00     0.197 HD
BRANCH  20  23
ATOM     23  O   UNL A   1      33.435  18.012  24.148  1.00  0.00    -0.452 OA
ATOM     24  C   UNL A   1      32.617  18.124  22.982  1.00  0.00     0.284 C 
ENDBRANCH  20  23
ENDBRANCH  18  19
ENDBRANCH  13  17
ENDBRANCH   7  12
ENDBRANCH   3   6
ENDBRANCH   1   2
BRANCH   1  25
ATOM     25  C   UNL A   1      31.514  32.199  26.756  1.00  0.00     0.042 C 
BRANCH  25  26
ATOM     26  C   UNL A   1      32.800  32.920  27.122  1.00  0.00     0.118 C 
BRANCH  26  27
ATOM     27  N   UNL A   1      32.556  34.270  27.628  1.00  0.00    -0.352 N 
ATOM     28  C   UNL A   1      33.048  34.922  28.731  1.00  0.00     0.251 C 
ATOM     29  H   UNL A   1      31.932  34.802  27.084  1.00  0.00     0.163 HD
ATOM     30  O   UNL A   1      32.511  35.958  29.113  1.00  0.00    -0.269 OA
BRANCH  28  31
ATOM     31  C   UNL A   1      34.212  34.386  29.463  1.00  0.00     0.039 A 
ATOM     32  C   UNL A   1      34.015  33.738  30.686  1.00  0.00     0.014 A 
ATOM     33  C   UNL A   1      35.504  34.551  28.961  1.00  0.00     0.014 A 
ATOM     34  C   UNL A   1      35.108  33.196  31.365  1.00  0.00     0.010 A 
ATOM     35  C   UNL A   1      36.571  33.913  29.575  1.00  0.00     0.010 A 
ATOM     36  C   UNL A   1      36.389  33.242  30.792  1.00  0.00    -0.014 A 
BRANCH  36  37
ATOM     37  C   UNL A   1      37.560  32.612  31.448  1.00  0.00     0.031 A 
ATOM     38  C   UNL A   1      38.260  31.458  30.786  1.00  0.00     0.074 A 
ATOM     39  C   UNL A   1      37.930  33.016  32.677  1.00  0.00     0.049 A 
ATOM     40  N   UNL A   1      39.233  30.709  31.238  1.00  0.00    -0.248 NA
ATOM     41  C   UNL A   1      37.773  31.067  29.454  1.00  0.00     0.031 C 
ATOM     42  C   UNL A   1      37.289  34.084  33.445  1.00  0.00     0.029 A 
ATOM     43  N   UNL A   1      38.926  32.564  33.505  1.00  0.00    -0.354 N 
ATOM     44  C   UNL A   1      39.456  29.749  30.258  1.00  0.00     0.074 A 
ATOM     45  C   UNL A   1      38.472  29.969  29.221  1.00  0.00     0.031 C 
ATOM     46  C   UNL A   1      37.920  34.221  34.620  1.00  0.00     0.029 A 
ATOM     47  C   UNL A   1      38.979  33.221  34.709  1.00  0.00     0.049 A 
ATOM     48  H   UNL A   1      39.544  31.838  33.259  1.00  0.00     0.167 HD
ATOM     49  C   UNL A   1      40.410  28.790  30.216  1.00  0.00     0.037 A 
ATOM     50  C   UNL A   1      39.782  33.028  35.773  1.00  0.00     0.037 A 
ATOM     51  C   UNL A   1      41.394  28.594  31.248  1.00  0.00     0.049 A 
ATOM     52  C   UNL A   1      40.834  31.957  35.708  1.00  0.00     0.074 A 
ATOM     53  C   UNL A   1      42.452  27.702  31.274  1.00  0.00     0.029 A 
ATOM     54  N   UNL A   1      41.434  29.296  32.445  1.00  0.00    -0.354 N 
ATOM     55  N   UNL A   1      41.092  31.108  34.742  1.00  0.00    -0.248 NA
ATOM     56  C   UNL A   1      41.713  31.821  36.877  1.00  0.00     0.031 C 
ATOM     57  C   UNL A   1      43.089  27.818  32.514  1.00  0.00     0.029 A 
ATOM     58  C   UNL A   1      42.476  28.833  33.232  1.00  0.00     0.049 A 
ATOM     59  H   UNL A   1      40.813  30.018  32.697  1.00  0.00     0.167 HD
ATOM     60  C   UNL A   1      42.177  30.355  35.172  1.00  0.00     0.074 A 
ATOM     61  C   UNL A   1      42.536  30.859  36.483  1.00  0.00     0.031 C 
ATOM     62  C   UNL A   1      42.818  29.342  34.539  1.00  0.00     0.037 A 
BRANCH  49  63
ATOM     63  C   UNL A   1      40.418  27.875  29.023  1.00  0.00     0.064 A 
ATOM     64  C   UNL A   1      41.188  28.151  27.881  1.00  0.00     0.173 A 
ATOM     65  C   UNL A   1      39.644  26.705  29.019  1.00  0.00     0.173 A 
ATOM     66  F   UNL A   1      41.941  29.259  27.824  1.00  0.00    -0.203 F 
ATOM     67  C   UNL A   1      41.140  27.320  26.764  1.00  0.00     0.198 A 
ATOM     68  C   UNL A   1      39.630  25.856  27.915  1.00  0.00     0.198 A 
ATOM     69  F   UNL A   1      38.894  26.385  30.085  1.00  0.00    -0.203 F 
ATOM     70  F   UNL A   1      41.824  27.647  25.658  1.00  0.00    -0.200 F 
ATOM     71  C   UNL A   1      40.366  26.171  26.783  1.00  0.00     0.200 A 
ATOM     72  F   UNL A   1      38.893  24.736  27.943  1.00  0.00    -0.200 F 
ATOM     73  F   UNL A   1      40.318  25.374  25.707  1.00  0.00    -0.200 F 
ENDBRANCH  49  63
BRANCH  50  74
ATOM     74  C   UNL A   1      39.627  33.893  36.970  1.00  0.00     0.064 A 
ATOM     75  C   UNL A   1      40.235  35.155  37.033  1.00  0.00     0.173 A 
ATOM     76  C   UNL A   1      38.837  33.496  38.059  1.00  0.00     0.173 A 
ATOM     77  F   UNL A   1      41.014  35.572  36.024  1.00  0.00    -0.203 F 
ATOM     78  C   UNL A   1      40.069  35.980  38.143  1.00  0.00     0.198 A 
ATOM     79  C   UNL A   1      38.646  34.335  39.156  1.00  0.00     0.198 A 
ATOM     80  F   UNL A   1      38.225  32.303  38.045  1.00  0.00    -0.203 F 
ATOM     81  F   UNL A   1      40.689  37.168  38.190  1.00  0.00    -0.200 F 
ATOM     82  C   UNL A   1      39.266  35.575  39.198  1.00  0.00     0.200 A 
ATOM     83  F   UNL A   1      37.853  33.947  40.164  1.00  0.00    -0.200 F 
ATOM     84  F   UNL A   1      39.092  36.377  40.258  1.00  0.00    -0.200 F 
ENDBRANCH  50  74
BRANCH  62  85
ATOM     85  C   UNL A   1      43.997  28.727  35.238  1.00  0.00     0.064 A 
ATOM     86  C   UNL A   1      45.300  29.211  35.056  1.00  0.00     0.173 A 
ATOM     87  C   UNL A   1      43.809  27.669  36.142  1.00  0.00     0.173 A 
ATOM     88  F   UNL A   1      45.536  30.211  34.193  1.00  0.00    -0.203 F 
ATOM     89  C   UNL A   1      46.376  28.643  35.734  1.00  0.00     0.198 A 
ATOM     90  C   UNL A   1      44.882  27.127  36.845  1.00  0.00     0.198 A 
ATOM     91  F   UNL A   1      42.582  27.173  36.360  1.00  0.00    -0.203 F 
ATOM     92  F   UNL A   1      47.619  29.088  35.506  1.00  0.00    -0.200 F 
ATOM     93  C   UNL A   1      46.165  27.609  36.634  1.00  0.00     0.200 A 
ATOM     94  F   UNL A   1      44.673  26.141  37.727  1.00  0.00    -0.200 F 
ATOM     95  F   UNL A   1      47.199  27.071  37.294  1.00  0.00    -0.200 F 
ENDBRANCH  62  85
ENDBRANCH  36  37
ENDBRANCH  28  31
ENDBRANCH  26  27
ENDBRANCH  25  26
ENDBRANCH   1  25
TORSDOF 14
ENDMDL
MODEL 3
REMARK VINA RESULT:     -12.4      5.836     11.628
REMARK SMILES COC(=O)N/N=C/c1ccc(-c2cccc(C(=O)NCCCNC(=O)c3ccc(-c4c5nc(c(-c6c(F)c(F)c(F)c(F)c6F)c6ccc([nH]6)c(-c6c(F)c(F)c(F)c(F)c6F)c6nc(c(-c7c(F)c(F)c(F)c(F)c7F)c7ccc4[nH]7)C=C6)C=C5)cc3)c2)o1
REMARK SMILES IDX 20 1 19 2 17 3 18 4 16 6 12 7 13 8 89 9 14 10 15 11 11 12
REMARK SMILES IDX 8 13 9 14 90 15 10 16 7 17 6 18 5 19 3 20 4 21 2 23 1 24
REMARK SMILES IDX 21 25 22 26 23 27 24 28 25 30 26 31 27 32 88 33 28 34 87 35
REMARK SMILES IDX 29 36 30 37 31 38 81 39 32 40 86 41 80 42 82 43 33 44 85 45
REMARK SMILES IDX 79 46 78 47 34 49 66 50 46 51 65 52 47 53 50 54 64 55 83 56
REMARK SMILES IDX 48 57 49 58 63 60 84 61 51 62 35 63 36 64 44 65 37 66 38 67
REMARK SMILES IDX 42 68 45 69 39 70 40 71 43 72 41 73 67 74 68 75 76 76 69 77
REMARK SMILES IDX 70 78 74 79 77 80 71 81 72 82 75 83 73 84 52 85 53 86 61 87
REMARK SMILES IDX 54 88 55 89 59 90 62 91 56 92 57 93 60 94 58 95
REMARK H PARENT 19 5 5 22 23 29 82 48 50 59
REMARK Flexibility Score: inf
ROOT
ATOM      1  C   UNL A   1      31.332  30.863  26.426  1.00  0.00     0.118 C 
ENDROOT
BRANCH   1   2
ATOM      2  N   UNL A   1      32.289  30.336  25.464  1.00  0.00    -0.352 N 
ATOM      3  C   UNL A   1      32.339  29.257  24.613  1.00  0.00     0.251 C 
ATOM      4  O   UNL A   1      33.356  29.149  23.925  1.00  0.00    -0.269 OA
ATOM      5  H   UNL A   1      33.103  30.889  25.409  1.00  0.00     0.163 HD
BRANCH   3   6
ATOM      6  C   UNL A   1      31.298  28.193  24.515  1.00  0.00     0.040 A 
ATOM      7  C   UNL A   1      30.528  25.900  24.827  1.00  0.00     0.018 A 
ATOM      8  C   UNL A   1      29.442  26.143  23.988  1.00  0.00     0.012 A 
ATOM      9  C   UNL A   1      31.369  26.967  25.167  1.00  0.00     0.025 A 
ATOM     10  C   UNL A   1      29.242  27.419  23.461  1.00  0.00     0.002 A 
ATOM     11  C   UNL A   1      30.187  28.426  23.691  1.00  0.00     0.014 A 
BRANCH   7  12
ATOM     12  C   UNL A   1      30.903  24.567  25.278  1.00  0.00     0.134 A 
ATOM     13  C   UNL A   1      31.813  22.590  24.934  1.00  0.00     0.147 A 
ATOM     14  C   UNL A   1      31.673  22.727  26.300  1.00  0.00     0.053 A 
ATOM     15  O   UNL A   1      31.337  23.709  24.307  1.00  0.00    -0.455 OA
ATOM     16  C   UNL A   1      31.086  23.995  26.522  1.00  0.00     0.051 A 
BRANCH  13  17
ATOM     17  C   UNL A   1      32.334  21.523  24.127  1.00  0.00     0.180 C 
ATOM     18  N   UNL A   1      32.027  20.297  24.416  1.00  0.00    -0.175 NA
BRANCH  18  19
ATOM     19  N   UNL A   1      32.509  19.286  23.632  1.00  0.00    -0.212 N 
ATOM     20  C   UNL A   1      32.579  17.930  23.874  1.00  0.00     0.427 C 
ATOM     21  O   UNL A   1      33.042  17.162  23.040  1.00  0.00    -0.223 OA
ATOM     22  H   UNL A   1      32.863  19.571  22.758  1.00  0.00     0.197 HD
BRANCH  20  23
ATOM     23  O   UNL A   1      32.061  17.542  25.072  1.00  0.00    -0.452 OA
ATOM     24  C   UNL A   1      32.698  16.387  25.621  1.00  0.00     0.284 C 
ENDBRANCH  20  23
ENDBRANCH  18  19
ENDBRANCH  13  17
ENDBRANCH   7  12
ENDBRANCH   3   6
ENDBRANCH   1   2
BRANCH   1  25
ATOM     25  C   UNL A   1      31.348  32.379  26.539  1.00  0.00     0.042 C 
BRANCH  25  26
ATOM     26  C   UNL A   1      32.586  32.916  27.238  1.00  0.00     0.118 C 
BRANCH  26  27
ATOM     27  N   UNL A   1      32.443  34.320  27.620  1.00  0.00    -0.352 N 
ATOM     28  C   UNL A   1      33.015  35.040  28.640  1.00  0.00     0.251 C 
ATOM     29  H   UNL A   1      31.831  34.838  27.049  1.00  0.00     0.163 HD
ATOM     30  O   UNL A   1      32.557  36.139  28.938  1.00  0.00    -0.269 OA
BRANCH  28  31
ATOM     31  C   UNL A   1      34.172  34.500  29.381  1.00  0.00     0.039 A 
ATOM     32  C   UNL A   1      33.968  33.888  30.621  1.00  0.00     0.014 A 
ATOM     33  C   UNL A   1      35.464  34.628  28.871  1.00  0.00     0.014 A 
ATOM     34  C   UNL A   1      35.053  33.343  31.310  1.00  0.00     0.010 A 
ATOM     35  C   UNL A   1      36.522  33.987  29.498  1.00  0.00     0.010 A 
ATOM     36  C   UNL A   1      36.332  33.351  30.732  1.00  0.00    -0.014 A 
BRANCH  36  37
ATOM     37  C   UNL A   1      37.494  32.716  31.400  1.00  0.00     0.031 A 
ATOM     38  C   UNL A   1      38.190  31.554  30.750  1.00  0.00     0.074 A 
ATOM     39  C   UNL A   1      37.858  33.125  32.630  1.00  0.00     0.049 A 
ATOM     40  N   UNL A   1      39.155  30.800  31.213  1.00  0.00    -0.248 NA
ATOM     41  C   UNL A   1      37.710  31.159  29.416  1.00  0.00     0.031 C 
ATOM     42  C   UNL A   1      37.218  34.202  33.386  1.00  0.00     0.029 A 
ATOM     43  N   UNL A   1      38.845  32.670  33.467  1.00  0.00    -0.354 N 
ATOM     44  C   UNL A   1      39.378  29.834  30.240  1.00  0.00     0.074 A 
ATOM     45  C   UNL A   1      38.404  30.055  29.194  1.00  0.00     0.031 C 
ATOM     46  C   UNL A   1      37.842  34.341  34.565  1.00  0.00     0.029 A 
ATOM     47  C   UNL A   1      38.893  33.333  34.668  1.00  0.00     0.049 A 
ATOM     48  H   UNL A   1      39.459  31.939  33.229  1.00  0.00     0.167 HD
ATOM     49  C   UNL A   1      40.326  28.868  30.210  1.00  0.00     0.037 A 
ATOM     50  C   UNL A   1      39.687  33.141  35.739  1.00  0.00     0.037 A 
ATOM     51  C   UNL A   1      41.301  28.670  31.250  1.00  0.00     0.049 A 
ATOM     52  C   UNL A   1      40.733  32.062  35.687  1.00  0.00     0.074 A 
ATOM     53  C   UNL A   1      42.352  27.771  31.289  1.00  0.00     0.029 A 
ATOM     54  N   UNL A   1      41.337  29.379  32.444  1.00  0.00    -0.354 N 
ATOM     55  N   UNL A   1      40.992  31.206  34.728  1.00  0.00    -0.248 NA
ATOM     56  C   UNL A   1      41.601  31.926  36.863  1.00  0.00     0.031 C 
ATOM     57  C   UNL A   1      42.981  27.890  32.533  1.00  0.00     0.029 A 
ATOM     58  C   UNL A   1      42.370  28.913  33.241  1.00  0.00     0.049 A 
ATOM     59  H   UNL A   1      40.719  30.107  32.687  1.00  0.00     0.167 HD
ATOM     60  C   UNL A   1      42.067  30.448  35.170  1.00  0.00     0.074 A 
ATOM     61  C   UNL A   1      42.421  30.956  36.481  1.00  0.00     0.031 C 
ATOM     62  C   UNL A   1      42.706  29.427  34.547  1.00  0.00     0.037 A 
BRANCH  49  63
ATOM     63  C   UNL A   1      40.336  27.946  29.022  1.00  0.00     0.064 A 
ATOM     64  C   UNL A   1      39.608  26.745  29.006  1.00  0.00     0.173 A 
ATOM     65  C   UNL A   1      41.088  28.267  27.881  1.00  0.00     0.173 A 
ATOM     66  F   UNL A   1      38.879  26.383  30.073  1.00  0.00    -0.203 F 
ATOM     67  C   UNL A   1      39.675  25.878  27.919  1.00  0.00     0.198 A 
ATOM     68  C   UNL A   1      41.120  27.416  26.779  1.00  0.00     0.198 A 
ATOM     69  F   UNL A   1      41.798  29.404  27.835  1.00  0.00    -0.203 F 
ATOM     70  F   UNL A   1      39.033  24.702  27.961  1.00  0.00    -0.200 F 
ATOM     71  C   UNL A   1      40.426  26.215  26.804  1.00  0.00     0.200 A 
ATOM     72  F   UNL A   1      41.834  27.753  25.695  1.00  0.00    -0.200 F 
ATOM     73  F   UNL A   1      40.492  25.379  25.759  1.00  0.00    -0.200 F 
ENDBRANCH  49  63
BRANCH  50  74
ATOM     74  C   UNL A   1      39.530  34.014  36.930  1.00  0.00     0.064 A 
ATOM     75  C   UNL A   1      38.758  33.606  38.026  1.00  0.00     0.173 A 
ATOM     76  C   UNL A   1      40.180  35.254  37.016  1.00  0.00     0.173 A 
ATOM     77  F   UNL A   1      38.104  32.436  37.985  1.00  0.00    -0.203 F 
ATOM     78  C   UNL A   1      38.632  34.410  39.157  1.00  0.00     0.198 A 
ATOM     79  C   UNL A   1      40.078  36.044  38.160  1.00  0.00     0.198 A 
ATOM     80  F   UNL A   1      40.939  35.687  35.998  1.00  0.00    -0.203 F 
ATOM     81  F   UNL A   1      37.860  34.011  40.178  1.00  0.00    -0.200 F 
ATOM     82  C   UNL A   1      39.300  35.623  39.228  1.00  0.00     0.200 A 
ATOM     83  F   UNL A   1      40.743  37.206  38.231  1.00  0.00    -0.200 F 
ATOM     84  F   UNL A   1      39.193  36.388  40.323  1.00  0.00    -0.200 F 
ENDBRANCH  50  74
BRANCH  62  85
ATOM     85  C   UNL A   1      43.875  28.807  35.258  1.00  0.00     0.064 A 
ATOM     86  C   UNL A   1      45.183  29.283  35.086  1.00  0.00     0.173 A 
ATOM     87  C   UNL A   1      43.674  27.754  36.165  1.00  0.00     0.173 A 
ATOM     88  F   UNL A   1      45.432  30.278  34.221  1.00  0.00    -0.203 F 
ATOM     89  C   UNL A   1      46.250  28.710  35.774  1.00  0.00     0.198 A 
ATOM     90  C   UNL A   1      44.737  27.209  36.879  1.00  0.00     0.198 A 
ATOM     91  F   UNL A   1      42.442  27.267  36.375  1.00  0.00    -0.203 F 
ATOM     92  F   UNL A   1      47.497  29.147  35.555  1.00  0.00    -0.200 F 
ATOM     93  C   UNL A   1      46.025  27.681  36.677  1.00  0.00     0.200 A 
ATOM     94  F   UNL A   1      44.515  26.227  37.763  1.00  0.00    -0.200 F 
ATOM     95  F   UNL A   1      47.051  27.140  37.347  1.00  0.00    -0.200 F 
ENDBRANCH  62  85
ENDBRANCH  36  37
ENDBRANCH  28  31
ENDBRANCH  26  27
ENDBRANCH  25  26
ENDBRANCH   1  25
TORSDOF 14
ENDMDL
