MODEL 1
REMARK VINA RESULT:     -13.6      0.000      0.000
REMARK SMILES CC(C)c1cc2c(cc1Cl)C=C(C(=O)NCCCNC(=O)c1ccc(-c3c4nc(c(-c5c(F)c(F)c(F)c(F)c5F)c5ccc([nH]5)c(-c5c(F)c(F)c(F)c(F)c5F)c5nc(c(-c6c(F)c(F)c(F)c(F)c6F)c6ccc3[nH]6)C=C5)C=C4)cc1)[C@@H](C(F)(F)F)O2
REMARK SMILES IDX 17 1 16 2 15 3 13 4 14 5 12 7 4 8 5 9 9 10 6 11 8 12 10 13
REMARK SMILES IDX 7 14 90 15 11 16 85 17 2 18 1 19 3 20 86 21 87 22 88 23
REMARK SMILES IDX 89 24 18 25 19 26 20 27 21 29 22 30 23 31 84 32 24 33 83 34
REMARK SMILES IDX 25 35 26 36 27 37 77 38 28 39 82 40 76 41 78 42 29 43 81 44
REMARK SMILES IDX 75 45 74 46 30 48 62 49 42 50 61 51 43 52 46 53 60 54 79 55
REMARK SMILES IDX 44 56 45 57 59 59 80 60 47 61 31 62 32 63 40 64 33 65 34 66
REMARK SMILES IDX 38 67 41 68 35 69 36 70 39 71 37 72 63 73 64 74 72 75 65 76
REMARK SMILES IDX 66 77 70 78 73 79 67 80 68 81 71 82 69 83 48 84 49 85 57 86
REMARK SMILES IDX 50 87 51 88 55 89 58 90 52 91 53 92 56 93 54 94
REMARK H PARENT 15 6 19 28 78 47 46 58
REMARK Flexibility Score: inf
ROOT
ATOM      1  C   UNL A   1      31.466  32.141  26.561  1.00  0.00     0.042 C 
ENDROOT
BRANCH   1   2
ATOM      2  C   UNL A   1      31.661  30.659  26.286  1.00  0.00     0.118 C 
BRANCH   2   3
ATOM      3  N   UNL A   1      31.258  30.297  24.936  1.00  0.00    -0.352 N 
ATOM      4  C   UNL A   1      31.166  29.166  24.199  1.00  0.00     0.251 C 
ATOM      5  O   UNL A   1      30.756  29.324  23.046  1.00  0.00    -0.270 OA
ATOM      6  H   UNL A   1      30.977  31.088  24.421  1.00  0.00     0.163 HD
BRANCH   4   7
ATOM      7  C   UNL A   1      31.523  27.800  24.677  1.00  0.00     0.067 C 
ATOM      8  C   UNL A   1      33.969  23.621  26.131  1.00  0.00    -0.023 A 
ATOM      9  C   UNL A   1      32.664  24.121  26.295  1.00  0.00     0.052 A 
ATOM     10  C   UNL A   1      34.912  24.449  25.491  1.00  0.00     0.045 A 
ATOM     11  C   UNL A   1      32.311  25.375  25.809  1.00  0.00     0.128 A 
ATOM     12  C   UNL A   1      34.553  25.722  25.020  1.00  0.00     0.032 A 
ATOM     13  Cl  UNL A   1      36.556  23.969  25.258  1.00  0.00    -0.084 Cl
ATOM     14  C   UNL A   1      33.246  26.187  25.171  1.00  0.00     0.019 A 
ATOM     15  O   UNL A   1      31.023  25.771  26.024  1.00  0.00    -0.475 OA
ATOM     16  C   UNL A   1      32.839  27.511  24.718  1.00  0.00     0.025 C 
ATOM     17  C   UNL A   1      30.519  26.760  25.085  1.00  0.00     0.314 C 
BRANCH   8  18
ATOM     18  C   UNL A   1      34.300  22.236  26.670  1.00  0.00     0.014 C 
ATOM     19  C   UNL A   1      33.414  21.901  27.874  1.00  0.00     0.012 C 
ATOM     20  C   UNL A   1      34.173  21.157  25.587  1.00  0.00     0.012 C 
ENDBRANCH   8  18
BRANCH  17  21
ATOM     21  C   UNL A   1      29.878  26.043  23.879  1.00  0.00     0.429 C 
ATOM     22  F   UNL A   1      30.589  26.294  22.751  1.00  0.00    -0.167 F 
ATOM     23  F   UNL A   1      29.858  24.696  24.028  1.00  0.00    -0.167 F 
ATOM     24  F   UNL A   1      28.603  26.429  23.651  1.00  0.00    -0.167 F 
ENDBRANCH  17  21
ENDBRANCH   4   7
ENDBRANCH   2   3
ENDBRANCH   1   2
BRANCH   1  25
ATOM     25  C   UNL A   1      32.668  32.763  27.259  1.00  0.00     0.118 C 
BRANCH  25  26
ATOM     26  N   UNL A   1      32.432  34.158  27.631  1.00  0.00    -0.352 N 
ATOM     27  C   UNL A   1      33.004  34.929  28.612  1.00  0.00     0.251 C 
ATOM     28  H   UNL A   1      31.750  34.618  27.089  1.00  0.00     0.163 HD
ATOM     29  O   UNL A   1      32.516  36.020  28.894  1.00  0.00    -0.269 OA
BRANCH  27  30
ATOM     30  C   UNL A   1      34.192  34.442  29.340  1.00  0.00     0.039 A 
ATOM     31  C   UNL A   1      35.468  34.638  28.817  1.00  0.00     0.014 A 
ATOM     32  C   UNL A   1      34.030  33.778  30.561  1.00  0.00     0.014 A 
ATOM     33  C   UNL A   1      36.552  33.999  29.397  1.00  0.00     0.010 A 
ATOM     34  C   UNL A   1      35.143  33.237  31.209  1.00  0.00     0.010 A 
ATOM     35  C   UNL A   1      36.407  33.296  30.604  1.00  0.00    -0.014 A 
BRANCH  35  36
ATOM     36  C   UNL A   1      37.603  32.646  31.197  1.00  0.00     0.031 A 
ATOM     37  C   UNL A   1      38.052  32.979  32.593  1.00  0.00     0.074 A 
ATOM     38  C   UNL A   1      38.226  31.678  30.495  1.00  0.00     0.049 A 
ATOM     39  N   UNL A   1      39.034  32.459  33.287  1.00  0.00    -0.248 NA
ATOM     40  C   UNL A   1      37.313  34.033  33.304  1.00  0.00     0.031 C 
ATOM     41  C   UNL A   1      37.870  31.267  29.135  1.00  0.00     0.029 A 
ATOM     42  N   UNL A   1      39.249  30.832  30.840  1.00  0.00    -0.354 N 
ATOM     43  C   UNL A   1      39.041  33.134  34.501  1.00  0.00     0.074 A 
ATOM     44  C   UNL A   1      37.987  34.122  34.442  1.00  0.00     0.031 C 
ATOM     45  C   UNL A   1      38.597  30.194  28.795  1.00  0.00     0.029 A 
ATOM     46  C   UNL A   1      39.526  29.891  29.878  1.00  0.00     0.049 A 
ATOM     47  H   UNL A   1      39.737  30.893  31.692  1.00  0.00     0.167 HD
ATOM     48  C   UNL A   1      39.848  32.935  35.570  1.00  0.00     0.037 A 
ATOM     49  C   UNL A   1      40.433  28.896  29.863  1.00  0.00     0.037 A 
ATOM     50  C   UNL A   1      40.873  31.926  35.633  1.00  0.00     0.049 A 
ATOM     51  C   UNL A   1      41.334  28.720  31.051  1.00  0.00     0.074 A 
ATOM     52  C   UNL A   1      41.729  31.632  36.680  1.00  0.00     0.029 A 
ATOM     53  N   UNL A   1      41.174  31.041  34.608  1.00  0.00    -0.354 N 
ATOM     54  N   UNL A   1      41.333  29.368  32.190  1.00  0.00    -0.248 NA
ATOM     55  C   UNL A   1      42.375  27.690  30.946  1.00  0.00     0.031 C 
ATOM     56  C   UNL A   1      42.576  30.597  36.275  1.00  0.00     0.029 A 
ATOM     57  C   UNL A   1      42.219  30.214  34.991  1.00  0.00     0.049 A 
ATOM     58  H   UNL A   1      40.715  31.005  33.738  1.00  0.00     0.167 HD
ATOM     59  C   UNL A   1      42.367  28.827  32.937  1.00  0.00     0.074 A 
ATOM     60  C   UNL A   1      42.957  27.777  32.134  1.00  0.00     0.031 C 
ATOM     61  C   UNL A   1      42.795  29.177  34.174  1.00  0.00     0.037 A 
BRANCH  48  62
ATOM     62  C   UNL A   1      39.665  33.825  36.764  1.00  0.00     0.064 A 
ATOM     63  C   UNL A   1      40.241  35.102  36.825  1.00  0.00     0.173 A 
ATOM     64  C   UNL A   1      38.846  33.423  37.831  1.00  0.00     0.173 A 
ATOM     65  F   UNL A   1      41.042  35.529  35.837  1.00  0.00    -0.203 F 
ATOM     66  C   UNL A   1      40.015  35.939  37.915  1.00  0.00     0.198 A 
ATOM     67  C   UNL A   1      38.602  34.272  38.907  1.00  0.00     0.198 A 
ATOM     68  F   UNL A   1      38.268  32.213  37.820  1.00  0.00    -0.203 F 
ATOM     69  F   UNL A   1      40.601  37.143  37.966  1.00  0.00    -0.200 F 
ATOM     70  C   UNL A   1      39.188  35.528  38.950  1.00  0.00     0.200 A 
ATOM     71  F   UNL A   1      37.792  33.877  39.900  1.00  0.00    -0.200 F 
ATOM     72  F   UNL A   1      38.959  36.341  39.991  1.00  0.00    -0.200 F 
ENDBRANCH  48  62
BRANCH  49  73
ATOM     73  C   UNL A   1      40.521  27.999  28.684  1.00  0.00     0.064 A 
ATOM     74  C   UNL A   1      39.809  26.793  28.642  1.00  0.00     0.173 A 
ATOM     75  C   UNL A   1      41.281  28.349  27.557  1.00  0.00     0.173 A 
ATOM     76  F   UNL A   1      39.083  26.406  29.701  1.00  0.00    -0.203 F 
ATOM     77  C   UNL A   1      39.856  25.970  27.519  1.00  0.00     0.198 A 
ATOM     78  C   UNL A   1      41.302  27.540  26.424  1.00  0.00     0.198 A 
ATOM     79  F   UNL A   1      41.976  29.495  27.545  1.00  0.00    -0.203 F 
ATOM     80  F   UNL A   1      39.187  24.808  27.513  1.00  0.00    -0.200 F 
ATOM     81  C   UNL A   1      40.593  26.349  26.406  1.00  0.00     0.200 A 
ATOM     82  F   UNL A   1      42.000  27.921  25.345  1.00  0.00    -0.200 F 
ATOM     83  F   UNL A   1      40.620  25.567  25.319  1.00  0.00    -0.200 F 
ENDBRANCH  49  73
BRANCH  61  84
ATOM     84  C   UNL A   1      43.959  28.421  34.739  1.00  0.00     0.064 A 
ATOM     85  C   UNL A   1      45.270  28.899  34.604  1.00  0.00     0.173 A 
ATOM     86  C   UNL A   1      43.755  27.250  35.483  1.00  0.00     0.173 A 
ATOM     87  F   UNL A   1      45.514  30.007  33.887  1.00  0.00    -0.203 F 
ATOM     88  C   UNL A   1      46.338  28.225  35.188  1.00  0.00     0.198 A 
ATOM     89  C   UNL A   1      44.822  26.593  36.087  1.00  0.00     0.198 A 
ATOM     90  F   UNL A   1      42.518  26.759  35.645  1.00  0.00    -0.203 F 
ATOM     91  F   UNL A   1      47.587  28.682  35.023  1.00  0.00    -0.200 F 
ATOM     92  C   UNL A   1      46.113  27.079  35.937  1.00  0.00     0.200 A 
ATOM     93  F   UNL A   1      44.602  25.493  36.822  1.00  0.00    -0.200 F 
ATOM     94  F   UNL A   1      47.141  26.442  36.512  1.00  0.00    -0.200 F 
ENDBRANCH  61  84
ENDBRANCH  35  36
ENDBRANCH  27  30
ENDBRANCH  25  26
ENDBRANCH   1  25
TORSDOF 12
ENDMDL
MODEL 2
REMARK VINA RESULT:     -13.5      0.131      1.199
REMARK SMILES CC(C)c1cc2c(cc1Cl)C=C(C(=O)NCCCNC(=O)c1ccc(-c3c4nc(c(-c5c(F)c(F)c(F)c(F)c5F)c5ccc([nH]5)c(-c5c(F)c(F)c(F)c(F)c5F)c5nc(c(-c6c(F)c(F)c(F)c(F)c6F)c6ccc3[nH]6)C=C5)C=C4)cc1)[C@@H](C(F)(F)F)O2
REMARK SMILES IDX 17 1 16 2 15 3 13 4 14 5 12 7 4 8 5 9 9 10 6 11 8 12 10 13
REMARK SMILES IDX 7 14 90 15 11 16 85 17 2 18 1 19 3 20 86 21 87 22 88 23
REMARK SMILES IDX 89 24 18 25 19 26 20 27 21 29 22 30 23 31 84 32 24 33 83 34
REMARK SMILES IDX 25 35 26 36 27 37 77 38 28 39 82 40 76 41 78 42 29 43 81 44
REMARK SMILES IDX 75 45 74 46 30 48 62 49 42 50 61 51 43 52 46 53 60 54 79 55
REMARK SMILES IDX 44 56 45 57 59 59 80 60 47 61 31 62 32 63 40 64 33 65 34 66
REMARK SMILES IDX 38 67 41 68 35 69 36 70 39 71 37 72 63 73 64 74 72 75 65 76
REMARK SMILES IDX 66 77 70 78 73 79 67 80 68 81 71 82 69 83 48 84 49 85 57 86
REMARK SMILES IDX 50 87 51 88 55 89 58 90 52 91 53 92 56 93 54 94
REMARK H PARENT 15 6 19 28 78 47 46 58
REMARK Flexibility Score: inf
ROOT
ATOM      1  C   UNL A   1      31.463  32.171  26.606  1.00  0.00     0.042 C 
ENDROOT
BRANCH   1   2
ATOM      2  C   UNL A   1      31.681  30.695  26.310  1.00  0.00     0.118 C 
BRANCH   2   3
ATOM      3  N   UNL A   1      31.194  30.326  24.990  1.00  0.00    -0.352 N 
ATOM      4  C   UNL A   1      31.050  29.190  24.269  1.00  0.00     0.251 C 
ATOM      5  O   UNL A   1      30.571  29.342  23.142  1.00  0.00    -0.270 OA
ATOM      6  H   UNL A   1      30.887  31.115  24.486  1.00  0.00     0.163 HD
BRANCH   4   7
ATOM      7  C   UNL A   1      31.426  27.825  24.736  1.00  0.00     0.067 C 
ATOM      8  C   UNL A   1      33.930  23.687  26.207  1.00  0.00    -0.023 A 
ATOM      9  C   UNL A   1      32.607  24.148  26.329  1.00  0.00     0.052 A 
ATOM     10  C   UNL A   1      34.873  24.552  25.619  1.00  0.00     0.045 A 
ATOM     11  C   UNL A   1      32.238  25.402  25.853  1.00  0.00     0.128 A 
ATOM     12  C   UNL A   1      34.497  25.824  25.157  1.00  0.00     0.032 A 
ATOM     13  Cl  UNL A   1      36.538  24.122  25.440  1.00  0.00    -0.084 Cl
ATOM     14  C   UNL A   1      33.173  26.250  25.267  1.00  0.00     0.019 A 
ATOM     15  O   UNL A   1      30.932  25.758  26.025  1.00  0.00    -0.475 OA
ATOM     16  C   UNL A   1      32.747  27.572  24.822  1.00  0.00     0.025 C 
ATOM     17  C   UNL A   1      30.437  26.750  25.086  1.00  0.00     0.314 C 
BRANCH   8  18
ATOM     18  C   UNL A   1      34.279  22.301  26.733  1.00  0.00     0.014 C 
ATOM     19  C   UNL A   1      33.404  21.947  27.940  1.00  0.00     0.012 C 
ATOM     20  C   UNL A   1      34.157  21.229  25.642  1.00  0.00     0.012 C 
ENDBRANCH   8  18
BRANCH  17  21
ATOM     21  C   UNL A   1      29.862  26.040  23.843  1.00  0.00     0.429 C 
ATOM     22  F   UNL A   1      28.551  26.354  23.686  1.00  0.00    -0.167 F 
ATOM     23  F   UNL A   1      30.485  26.413  22.699  1.00  0.00    -0.167 F 
ATOM     24  F   UNL A   1      29.952  24.694  23.914  1.00  0.00    -0.167 F 
ENDBRANCH  17  21
ENDBRANCH   4   7
ENDBRANCH   2   3
ENDBRANCH   1   2
BRANCH   1  25
ATOM     25  C   UNL A   1      32.681  32.817  27.250  1.00  0.00     0.118 C 
BRANCH  25  26
ATOM     26  N   UNL A   1      32.435  34.209  27.627  1.00  0.00    -0.352 N 
ATOM     27  C   UNL A   1      32.995  34.978  28.617  1.00  0.00     0.251 C 
ATOM     28  H   UNL A   1      31.756  34.669  27.081  1.00  0.00     0.163 HD
ATOM     29  O   UNL A   1      32.499  36.065  28.900  1.00  0.00    -0.269 OA
BRANCH  27  30
ATOM     30  C   UNL A   1      34.178  34.492  29.354  1.00  0.00     0.039 A 
ATOM     31  C   UNL A   1      35.455  34.659  28.823  1.00  0.00     0.014 A 
ATOM     32  C   UNL A   1      34.010  33.860  30.590  1.00  0.00     0.014 A 
ATOM     33  C   UNL A   1      36.532  34.019  29.416  1.00  0.00     0.010 A 
ATOM     34  C   UNL A   1      35.117  33.319  31.249  1.00  0.00     0.010 A 
ATOM     35  C   UNL A   1      36.381  33.348  30.640  1.00  0.00    -0.014 A 
BRANCH  35  36
ATOM     36  C   UNL A   1      37.570  32.696  31.245  1.00  0.00     0.031 A 
ATOM     37  C   UNL A   1      38.007  33.032  32.644  1.00  0.00     0.074 A 
ATOM     38  C   UNL A   1      38.196  31.723  30.552  1.00  0.00     0.049 A 
ATOM     39  N   UNL A   1      38.981  32.511  33.348  1.00  0.00    -0.248 NA
ATOM     40  C   UNL A   1      37.265  34.090  33.345  1.00  0.00     0.031 C 
ATOM     41  C   UNL A   1      37.851  31.309  29.190  1.00  0.00     0.029 A 
ATOM     42  N   UNL A   1      39.213  30.876  30.908  1.00  0.00    -0.354 N 
ATOM     43  C   UNL A   1      38.980  33.191  34.560  1.00  0.00     0.074 A 
ATOM     44  C   UNL A   1      37.929  34.181  34.489  1.00  0.00     0.031 C 
ATOM     45  C   UNL A   1      38.577  30.233  28.860  1.00  0.00     0.029 A 
ATOM     46  C   UNL A   1      39.496  29.930  29.952  1.00  0.00     0.049 A 
ATOM     47  H   UNL A   1      39.694  30.938  31.765  1.00  0.00     0.167 HD
ATOM     48  C   UNL A   1      39.777  32.992  35.637  1.00  0.00     0.037 A 
ATOM     49  C   UNL A   1      40.399  28.933  29.949  1.00  0.00     0.037 A 
ATOM     50  C   UNL A   1      40.798  31.981  35.712  1.00  0.00     0.049 A 
ATOM     51  C   UNL A   1      41.290  28.758  31.145  1.00  0.00     0.074 A 
ATOM     52  C   UNL A   1      41.644  31.687  36.768  1.00  0.00     0.029 A 
ATOM     53  N   UNL A   1      41.106  31.091  34.693  1.00  0.00    -0.354 N 
ATOM     54  N   UNL A   1      41.280  29.410  32.282  1.00  0.00    -0.248 NA
ATOM     55  C   UNL A   1      42.328  27.724  31.053  1.00  0.00     0.031 C 
ATOM     56  C   UNL A   1      42.491  30.648  36.373  1.00  0.00     0.029 A 
ATOM     57  C   UNL A   1      42.144  30.263  35.088  1.00  0.00     0.049 A 
ATOM     58  H   UNL A   1      40.654  31.054  33.819  1.00  0.00     0.167 HD
ATOM     59  C   UNL A   1      42.307  28.868  33.040  1.00  0.00     0.074 A 
ATOM     60  C   UNL A   1      42.901  27.813  32.245  1.00  0.00     0.031 C 
ATOM     61  C   UNL A   1      42.725  29.221  34.279  1.00  0.00     0.037 A 
BRANCH  48  62
ATOM     62  C   UNL A   1      39.586  33.887  36.827  1.00  0.00     0.064 A 
ATOM     63  C   UNL A   1      38.794  33.500  37.918  1.00  0.00     0.173 A 
ATOM     64  C   UNL A   1      40.261  35.115  36.908  1.00  0.00     0.173 A 
ATOM     65  F   UNL A   1      38.118  32.342  37.885  1.00  0.00    -0.203 F 
ATOM     66  C   UNL A   1      38.673  34.317  39.040  1.00  0.00     0.198 A 
ATOM     67  C   UNL A   1      40.158  35.916  38.042  1.00  0.00     0.198 A 
ATOM     68  F   UNL A   1      41.035  35.528  35.895  1.00  0.00    -0.203 F 
ATOM     69  F   UNL A   1      37.885  33.941  40.057  1.00  0.00    -0.200 F 
ATOM     70  C   UNL A   1      39.362  35.519  39.106  1.00  0.00     0.200 A 
ATOM     71  F   UNL A   1      40.835  37.071  38.108  1.00  0.00    -0.200 F 
ATOM     72  F   UNL A   1      39.257  36.295  40.193  1.00  0.00    -0.200 F 
ENDBRANCH  48  62
BRANCH  49  73
ATOM     73  C   UNL A   1      40.495  28.032  28.774  1.00  0.00     0.064 A 
ATOM     74  C   UNL A   1      39.773  26.832  28.725  1.00  0.00     0.173 A 
ATOM     75  C   UNL A   1      41.273  28.371  27.655  1.00  0.00     0.173 A 
ATOM     76  F   UNL A   1      39.030  26.455  29.776  1.00  0.00    -0.203 F 
ATOM     77  C   UNL A   1      39.827  26.005  27.605  1.00  0.00     0.198 A 
ATOM     78  C   UNL A   1      41.302  27.559  26.525  1.00  0.00     0.198 A 
ATOM     79  F   UNL A   1      41.979  29.511  27.650  1.00  0.00    -0.203 F 
ATOM     80  F   UNL A   1      39.148  24.850  27.594  1.00  0.00    -0.200 F 
ATOM     81  C   UNL A   1      40.583  26.375  26.502  1.00  0.00     0.200 A 
ATOM     82  F   UNL A   1      42.018  27.931  25.454  1.00  0.00    -0.200 F 
ATOM     83  F   UNL A   1      40.617  25.589  25.416  1.00  0.00    -0.200 F 
ENDBRANCH  49  73
BRANCH  61  84
ATOM     84  C   UNL A   1      43.881  28.463  34.857  1.00  0.00     0.064 A 
ATOM     85  C   UNL A   1      45.195  28.937  34.732  1.00  0.00     0.173 A 
ATOM     86  C   UNL A   1      43.667  27.296  35.603  1.00  0.00     0.173 A 
ATOM     87  F   UNL A   1      45.449  30.042  34.014  1.00  0.00    -0.203 F 
ATOM     88  C   UNL A   1      46.256  28.261  35.327  1.00  0.00     0.198 A 
ATOM     89  C   UNL A   1      44.727  26.637  36.218  1.00  0.00     0.198 A 
ATOM     90  F   UNL A   1      42.427  26.808  35.756  1.00  0.00    -0.203 F 
ATOM     91  F   UNL A   1      47.507  28.714  35.172  1.00  0.00    -0.200 F 
ATOM     92  C   UNL A   1      46.021  27.119  36.078  1.00  0.00     0.200 A 
ATOM     93  F   UNL A   1      44.497  25.541  36.955  1.00  0.00    -0.200 F 
ATOM     94  F   UNL A   1      47.042  26.480  36.665  1.00  0.00    -0.200 F 
ENDBRANCH  61  84
ENDBRANCH  35  36
ENDBRANCH  27  30
ENDBRANCH  25  26
ENDBRANCH   1  25
TORSDOF 12
ENDMDL
MODEL 3
REMARK VINA RESULT:     -13.4      1.518      1.820
REMARK SMILES CC(C)c1cc2c(cc1Cl)C=C(C(=O)NCCCNC(=O)c1ccc(-c3c4nc(c(-c5c(F)c(F)c(F)c(F)c5F)c5ccc([nH]5)c(-c5c(F)c(F)c(F)c(F)c5F)c5nc(c(-c6c(F)c(F)c(F)c(F)c6F)c6ccc3[nH]6)C=C5)C=C4)cc1)[C@@H](C(F)(F)F)O2
REMARK SMILES IDX 17 1 16 2 15 3 13 4 14 5 12 7 4 8 5 9 9 10 6 11 8 12 10 13
REMARK SMILES IDX 7 14 90 15 11 16 85 17 2 18 1 19 3 20 86 21 87 22 88 23
REMARK SMILES IDX 89 24 18 25 19 26 20 27 21 29 22 30 23 31 84 32 24 33 83 34
REMARK SMILES IDX 25 35 26 36 27 37 77 38 28 39 82 40 76 41 78 42 29 43 81 44
REMARK SMILES IDX 75 45 74 46 30 48 62 49 42 50 61 51 43 52 46 53 60 54 79 55
REMARK SMILES IDX 44 56 45 57 59 59 80 60 47 61 31 62 32 63 40 64 33 65 34 66
REMARK SMILES IDX 38 67 41 68 35 69 36 70 39 71 37 72 63 73 64 74 72 75 65 76
REMARK SMILES IDX 66 77 70 78 73 79 67 80 68 81 71 82 69 83 48 84 49 85 57 86
REMARK SMILES IDX 50 87 51 88 55 89 58 90 52 91 53 92 56 93 54 94
REMARK H PARENT 15 6 19 28 78 47 46 58
REMARK Flexibility Score: inf
ROOT
ATOM      1  C   UNL A   1      31.375  31.693  26.680  1.00  0.00     0.042 C 
ENDROOT
BRANCH   1   2
ATOM      2  C   UNL A   1      31.671  30.560  25.710  1.00  0.00     0.118 C 
BRANCH   2   3
ATOM      3  N   UNL A   1      30.709  30.509  24.621  1.00  0.00    -0.352 N 
ATOM      4  C   UNL A   1      30.300  29.605  23.701  1.00  0.00     0.251 C 
ATOM      5  O   UNL A   1      29.417  29.999  22.934  1.00  0.00    -0.270 OA
ATOM      6  H   UNL A   1      30.224  31.362  24.529  1.00  0.00     0.163 HD
BRANCH   4   7
ATOM      7  C   UNL A   1      30.837  28.221  23.562  1.00  0.00     0.067 C 
ATOM      8  C   UNL A   1      31.731  23.264  24.000  1.00  0.00    -0.023 A 
ATOM      9  C   UNL A   1      32.035  24.252  23.046  1.00  0.00     0.052 A 
ATOM     10  C   UNL A   1      30.918  23.635  25.090  1.00  0.00     0.045 A 
ATOM     11  C   UNL A   1      31.577  25.557  23.194  1.00  0.00     0.128 A 
ATOM     12  C   UNL A   1      30.444  24.950  25.223  1.00  0.00     0.032 A 
ATOM     13  Cl  UNL A   1      30.442  22.510  26.313  1.00  0.00    -0.084 Cl
ATOM     14  C   UNL A   1      30.779  25.919  24.276  1.00  0.00     0.019 A 
ATOM     15  O   UNL A   1      31.921  26.439  22.210  1.00  0.00    -0.475 OA
ATOM     16  C   UNL A   1      30.287  27.289  24.365  1.00  0.00     0.025 C 
ATOM     17  C   UNL A   1      31.937  27.834  22.615  1.00  0.00     0.314 C 
BRANCH   8  18
ATOM     18  C   UNL A   1      32.268  21.854  23.798  1.00  0.00     0.014 C 
ATOM     19  C   UNL A   1      32.012  21.381  22.363  1.00  0.00     0.012 C 
ATOM     20  C   UNL A   1      33.760  21.757  24.143  1.00  0.00     0.012 C 
ENDBRANCH   8  18
BRANCH  17  21
ATOM     21  C   UNL A   1      33.339  28.200  23.145  1.00  0.00     0.429 C 
ATOM     22  F   UNL A   1      33.578  29.524  22.968  1.00  0.00    -0.167 F 
ATOM     23  F   UNL A   1      33.468  27.961  24.473  1.00  0.00    -0.167 F 
ATOM     24  F   UNL A   1      34.331  27.522  22.528  1.00  0.00    -0.167 F 
ENDBRANCH  17  21
ENDBRANCH   4   7
ENDBRANCH   2   3
ENDBRANCH   1   2
BRANCH   1  25
ATOM     25  C   UNL A   1      32.641  32.378  27.174  1.00  0.00     0.118 C 
BRANCH  25  26
ATOM     26  N   UNL A   1      32.420  33.788  27.494  1.00  0.00    -0.352 N 
ATOM     27  C   UNL A   1      33.004  34.590  28.443  1.00  0.00     0.251 C 
ATOM     28  H   UNL A   1      31.741  34.234  26.937  1.00  0.00     0.163 HD
ATOM     29  O   UNL A   1      32.527  35.695  28.685  1.00  0.00    -0.269 OA
BRANCH  27  30
ATOM     30  C   UNL A   1      34.189  34.119  29.185  1.00  0.00     0.039 A 
ATOM     31  C   UNL A   1      35.466  34.525  28.804  1.00  0.00     0.014 A 
ATOM     32  C   UNL A   1      34.025  33.258  30.276  1.00  0.00     0.014 A 
ATOM     33  C   UNL A   1      36.576  33.918  29.368  1.00  0.00     0.010 A 
ATOM     34  C   UNL A   1      35.148  32.739  30.925  1.00  0.00     0.010 A 
ATOM     35  C   UNL A   1      36.434  33.023  30.441  1.00  0.00    -0.014 A 
BRANCH  35  36
ATOM     36  C   UNL A   1      37.655  32.414  31.026  1.00  0.00     0.031 A 
ATOM     37  C   UNL A   1      38.098  32.758  32.421  1.00  0.00     0.074 A 
ATOM     38  C   UNL A   1      38.310  31.471  30.318  1.00  0.00     0.049 A 
ATOM     39  N   UNL A   1      39.101  32.271  33.109  1.00  0.00    -0.248 NA
ATOM     40  C   UNL A   1      37.325  33.782  33.140  1.00  0.00     0.031 C 
ATOM     41  C   UNL A   1      37.963  31.053  28.958  1.00  0.00     0.029 A 
ATOM     42  N   UNL A   1      39.364  30.662  30.655  1.00  0.00    -0.354 N 
ATOM     43  C   UNL A   1      39.090  32.942  34.326  1.00  0.00     0.074 A 
ATOM     44  C   UNL A   1      38.000  33.891  34.275  1.00  0.00     0.031 C 
ATOM     45  C   UNL A   1      38.726  30.008  28.611  1.00  0.00     0.029 A 
ATOM     46  C   UNL A   1      39.670  29.735  29.688  1.00  0.00     0.049 A 
ATOM     47  H   UNL A   1      39.853  30.737  31.505  1.00  0.00     0.167 HD
ATOM     48  C   UNL A   1      39.908  32.768  35.390  1.00  0.00     0.037 A 
ATOM     49  C   UNL A   1      40.612  28.773  29.667  1.00  0.00     0.037 A 
ATOM     50  C   UNL A   1      40.969  31.797  35.445  1.00  0.00     0.049 A 
ATOM     51  C   UNL A   1      41.525  28.626  30.849  1.00  0.00     0.074 A 
ATOM     52  C   UNL A   1      41.840  31.530  36.488  1.00  0.00     0.029 A 
ATOM     53  N   UNL A   1      41.298  30.927  34.416  1.00  0.00    -0.354 N 
ATOM     54  N   UNL A   1      41.505  29.269  31.991  1.00  0.00    -0.248 NA
ATOM     55  C   UNL A   1      42.602  27.634  30.736  1.00  0.00     0.031 C 
ATOM     56  C   UNL A   1      42.722  30.528  36.074  1.00  0.00     0.029 A 
ATOM     57  C   UNL A   1      42.373  30.137  34.791  1.00  0.00     0.049 A 
ATOM     58  H   UNL A   1      40.836  30.878  33.547  1.00  0.00     0.167 HD
ATOM     59  C   UNL A   1      42.562  28.763  32.732  1.00  0.00     0.074 A 
ATOM     60  C   UNL A   1      43.186  27.738  31.921  1.00  0.00     0.031 C 
ATOM     61  C   UNL A   1      42.982  29.124  33.967  1.00  0.00     0.037 A 
BRANCH  48  62
ATOM     62  C   UNL A   1      39.699  33.647  36.589  1.00  0.00     0.064 A 
ATOM     63  C   UNL A   1      40.271  34.925  36.673  1.00  0.00     0.173 A 
ATOM     64  C   UNL A   1      38.859  33.233  37.635  1.00  0.00     0.173 A 
ATOM     65  F   UNL A   1      41.091  35.363  35.706  1.00  0.00    -0.203 F 
ATOM     66  C   UNL A   1      40.020  35.752  37.766  1.00  0.00     0.198 A 
ATOM     67  C   UNL A   1      38.591  34.072  38.713  1.00  0.00     0.198 A 
ATOM     68  F   UNL A   1      38.284  32.023  37.601  1.00  0.00    -0.203 F 
ATOM     69  F   UNL A   1      40.602  36.956  37.839  1.00  0.00    -0.200 F 
ATOM     70  C   UNL A   1      39.173  35.329  38.780  1.00  0.00     0.200 A 
ATOM     71  F   UNL A   1      37.762  33.666  39.686  1.00  0.00    -0.200 F 
ATOM     72  F   UNL A   1      38.921  36.131  39.823  1.00  0.00    -0.200 F 
ENDBRANCH  48  62
BRANCH  49  73
ATOM     73  C   UNL A   1      40.727  27.884  28.484  1.00  0.00     0.064 A 
ATOM     74  C   UNL A   1      40.047  26.660  28.434  1.00  0.00     0.173 A 
ATOM     75  C   UNL A   1      41.481  28.258  27.360  1.00  0.00     0.173 A 
ATOM     76  F   UNL A   1      39.328  26.250  29.489  1.00  0.00    -0.203 F 
ATOM     77  C   UNL A   1      40.118  25.844  27.307  1.00  0.00     0.198 A 
ATOM     78  C   UNL A   1      41.527  27.455  26.224  1.00  0.00     0.198 A 
ATOM     79  F   UNL A   1      42.147  29.422  27.356  1.00  0.00    -0.203 F 
ATOM     80  F   UNL A   1      39.480  24.665  27.294  1.00  0.00    -0.200 F 
ATOM     81  C   UNL A   1      40.849  26.247  26.199  1.00  0.00     0.200 A 
ATOM     82  F   UNL A   1      42.218  27.859  25.149  1.00  0.00    -0.200 F 
ATOM     83  F   UNL A   1      40.900  25.470  25.108  1.00  0.00    -0.200 F 
ENDBRANCH  49  73
BRANCH  61  84
ATOM     84  C   UNL A   1      44.176  28.408  34.524  1.00  0.00     0.064 A 
ATOM     85  C   UNL A   1      45.469  28.929  34.377  1.00  0.00     0.173 A 
ATOM     86  C   UNL A   1      44.016  27.234  35.274  1.00  0.00     0.173 A 
ATOM     87  F   UNL A   1      45.670  30.042  33.655  1.00  0.00    -0.203 F 
ATOM     88  C   UNL A   1      46.563  28.292  34.954  1.00  0.00     0.198 A 
ATOM     89  C   UNL A   1      45.110  26.614  35.870  1.00  0.00     0.198 A 
ATOM     90  F   UNL A   1      42.797  26.702  35.448  1.00  0.00    -0.203 F 
ATOM     91  F   UNL A   1      47.795  28.789  34.776  1.00  0.00    -0.200 F 
ATOM     92  C   UNL A   1      46.383  27.142  35.707  1.00  0.00     0.200 A 
ATOM     93  F   UNL A   1      44.933  25.510  36.610  1.00  0.00    -0.200 F 
ATOM     94  F   UNL A   1      47.436  26.541  36.276  1.00  0.00    -0.200 F 
ENDBRANCH  61  84
ENDBRANCH  35  36
ENDBRANCH  27  30
ENDBRANCH  25  26
ENDBRANCH   1  25
TORSDOF 12
ENDMDL
