MODEL 1
REMARK VINA RESULT:     -13.6      0.000      0.000
REMARK SMILES Cc1ccc2[nH]cc([C@@H](C(=O)NCCCNC(=O)c3ccc(-c4c5nc(c(-c6c(F)c(F)c(F)c(F)c6F)c6ccc([nH]6)c(-c6c(F)c(F)c(F)c(F)c6F)c6nc(c(-c7c(F)c(F)c(F)c(F)c7F)c7ccc4[nH]7)C=C6)C=C5)cc3)[NH+]3CCN(c4cccc(Cl)c4)CC3)c2c1
REMARK SMILES IDX 14 1 13 2 12 3 10 4 11 5 9 7 8 8 1 9 2 10 3 11 96 12 4 13
REMARK SMILES IDX 95 14 5 15 6 16 7 17 82 19 83 20 94 21 84 23 93 24 85 25
REMARK SMILES IDX 86 26 87 27 92 28 88 29 90 30 89 31 91 32 15 33 16 34 17 35
REMARK SMILES IDX 18 37 19 38 20 39 81 40 21 41 80 42 22 43 23 44 24 45 74 46
REMARK SMILES IDX 25 47 79 48 73 49 75 50 26 51 78 52 72 53 71 54 27 56 59 57
REMARK SMILES IDX 39 58 58 59 40 60 43 61 57 62 76 63 41 64 42 65 56 67 77 68
REMARK SMILES IDX 44 69 28 70 29 71 37 72 30 73 31 74 35 75 38 76 32 77 33 78
REMARK SMILES IDX 36 79 34 80 60 81 61 82 69 83 62 84 63 85 67 86 70 87 64 88
REMARK SMILES IDX 65 89 68 90 66 91 45 92 46 93 54 94 47 95 48 96 52 97 55 98
REMARK SMILES IDX 49 99 50 100 53 101 51 102
REMARK H PARENT 12 6 6 18 82 22 16 36 75 55 43 66
REMARK Flexibility Score: inf
ROOT
ATOM      1  C   UNL A   1      32.817  28.034  25.665  1.00  0.00     0.042 C 
ENDROOT
BRANCH   1   2
ATOM      2  C   UNL A   1      33.652  26.757  25.701  1.00  0.00     0.118 C 
BRANCH   2   3
ATOM      3  N   UNL A   1      33.840  26.178  24.384  1.00  0.00    -0.351 N 
ATOM      4  C   UNL A   1      33.754  24.871  23.975  1.00  0.00     0.283 C 
ATOM      5  O   UNL A   1      34.028  24.672  22.787  1.00  0.00    -0.268 OA
ATOM      6  H   UNL A   1      34.064  26.823  23.674  1.00  0.00     0.163 HD
BRANCH   4   7
ATOM      7  C   UNL A   1      33.296  23.764  24.982  1.00  0.00     0.307 C 
BRANCH   7   8
ATOM      8  C   UNL A   1      34.180  22.544  24.935  1.00  0.00     0.044 A 
ATOM      9  C   UNL A   1      38.870  24.172  26.241  1.00  0.00     0.044 C 
ATOM     10  C   UNL A   1      37.862  23.112  25.905  1.00  0.00    -0.050 A 
ATOM     11  C   UNL A   1      38.250  21.779  25.751  1.00  0.00     0.005 A 
ATOM     12  C   UNL A   1      36.519  23.472  25.701  1.00  0.00     0.014 A 
ATOM     13  C   UNL A   1      37.336  20.793  25.364  1.00  0.00     0.027 A 
ATOM     14  C   UNL A   1      35.580  22.503  25.282  1.00  0.00     0.009 A 
ATOM     15  C   UNL A   1      36.019  21.191  25.110  1.00  0.00     0.046 A 
ATOM     16  N   UNL A   1      34.948  20.461  24.656  1.00  0.00    -0.361 N 
ATOM     17  C   UNL A   1      33.866  21.278  24.471  1.00  0.00     0.094 A 
ATOM     18  H   UNL A   1      34.957  19.491  24.489  1.00  0.00     0.166 HD
ENDBRANCH   7   8
BRANCH   7  19
ATOM     19  N   UNL A   1      31.846  23.462  24.896  1.00  0.00    -0.318 N 
ATOM     20  C   UNL A   1      30.929  24.066  25.874  1.00  0.00     0.284 C 
ATOM     21  C   UNL A   1      31.271  23.543  23.541  1.00  0.00     0.284 C 
ATOM     22  H   UNL A   1      31.900  22.485  25.179  1.00  0.00     0.349 HD
ATOM     23  C   UNL A   1      30.285  25.423  25.517  1.00  0.00     0.178 C 
ATOM     24  C   UNL A   1      30.705  24.917  23.107  1.00  0.00     0.178 C 
ATOM     25  N   UNL A   1      29.808  25.474  24.131  1.00  0.00    -0.360 N 
BRANCH  25  26
ATOM     26  C   UNL A   1      29.125  26.630  23.747  1.00  0.00     0.038 A 
ATOM     27  C   UNL A   1      27.742  26.786  23.928  1.00  0.00     0.026 A 
ATOM     28  C   UNL A   1      29.838  27.680  23.158  1.00  0.00     0.046 A 
ATOM     29  C   UNL A   1      27.081  27.941  23.501  1.00  0.00     0.004 A 
ATOM     30  C   UNL A   1      29.178  28.831  22.728  1.00  0.00     0.043 A 
ATOM     31  C   UNL A   1      27.801  28.964  22.892  1.00  0.00     0.020 A 
ATOM     32  Cl  UNL A   1      30.071  30.095  21.974  1.00  0.00    -0.084 Cl
ENDBRANCH  25  26
ENDBRANCH   7  19
ENDBRANCH   4   7
ENDBRANCH   2   3
ENDBRANCH   1   2
BRANCH   1  33
ATOM     33  C   UNL A   1      33.575  29.273  25.207  1.00  0.00     0.118 C 
BRANCH  33  34
ATOM     34  N   UNL A   1      33.029  30.497  25.769  1.00  0.00    -0.352 N 
ATOM     35  C   UNL A   1      33.391  31.197  26.891  1.00  0.00     0.251 C 
ATOM     36  H   UNL A   1      32.280  30.886  25.262  1.00  0.00     0.163 HD
ATOM     37  O   UNL A   1      32.660  32.095  27.297  1.00  0.00    -0.269 OA
BRANCH  35  38
ATOM     38  C   UNL A   1      34.639  30.883  27.626  1.00  0.00     0.039 A 
ATOM     39  C   UNL A   1      34.725  29.654  28.286  1.00  0.00     0.014 A 
ATOM     40  C   UNL A   1      35.688  31.801  27.730  1.00  0.00     0.014 A 
ATOM     41  C   UNL A   1      35.870  29.332  29.016  1.00  0.00     0.010 A 
ATOM     42  C   UNL A   1      36.862  31.449  28.397  1.00  0.00     0.010 A 
ATOM     43  C   UNL A   1      36.959  30.217  29.060  1.00  0.00    -0.014 A 
BRANCH  43  44
ATOM     44  C   UNL A   1      38.193  29.857  29.806  1.00  0.00     0.031 A 
ATOM     45  C   UNL A   1      38.443  30.402  31.184  1.00  0.00     0.074 A 
ATOM     46  C   UNL A   1      39.105  29.056  29.222  1.00  0.00     0.049 A 
ATOM     47  N   UNL A   1      39.448  30.173  31.994  1.00  0.00    -0.248 NA
ATOM     48  C   UNL A   1      37.450  31.348  31.715  1.00  0.00     0.031 C 
ATOM     49  C   UNL A   1      39.009  28.520  27.864  1.00  0.00     0.029 A 
ATOM     50  N   UNL A   1      40.291  28.554  29.697  1.00  0.00    -0.354 N 
ATOM     51  C   UNL A   1      39.214  30.953  33.118  1.00  0.00     0.074 A 
ATOM     52  C   UNL A   1      38.002  31.702  32.868  1.00  0.00     0.031 C 
ATOM     53  C   UNL A   1      40.074  27.738  27.627  1.00  0.00     0.029 A 
ATOM     54  C   UNL A   1      40.937  27.735  28.804  1.00  0.00     0.049 A 
ATOM     55  H   UNL A   1      40.644  28.761  30.593  1.00  0.00     0.167 HD
ATOM     56  C   UNL A   1      39.932  31.022  34.265  1.00  0.00     0.037 A 
ATOM     57  C   UNL A   1      42.089  27.051  28.925  1.00  0.00     0.037 A 
ATOM     58  C   UNL A   1      41.122  30.252  34.524  1.00  0.00     0.049 A 
ATOM     59  C   UNL A   1      42.843  27.105  30.225  1.00  0.00     0.074 A 
ATOM     60  C   UNL A   1      41.880  30.197  35.680  1.00  0.00     0.029 A 
ATOM     61  N   UNL A   1      41.726  29.405  33.609  1.00  0.00    -0.354 N 
ATOM     62  N   UNL A   1      42.565  27.778  31.314  1.00  0.00    -0.248 NA
ATOM     63  C   UNL A   1      44.061  26.289  30.317  1.00  0.00     0.031 C 
ATOM     64  C   UNL A   1      42.968  29.346  35.450  1.00  0.00     0.029 A 
ATOM     65  C   UNL A   1      42.859  28.835  34.168  1.00  0.00     0.049 A 
ATOM     66  H   UNL A   1      41.398  29.233  32.695  1.00  0.00     0.167 HD
ATOM     67  C   UNL A   1      43.555  27.449  32.230  1.00  0.00     0.074 A 
ATOM     68  C   UNL A   1      44.433  26.504  31.572  1.00  0.00     0.031 C 
ATOM     69  C   UNL A   1      43.720  27.891  33.501  1.00  0.00     0.037 A 
BRANCH  56  70
ATOM     70  C   UNL A   1      39.446  31.960  35.332  1.00  0.00     0.064 A 
ATOM     71  C   UNL A   1      38.582  31.533  36.353  1.00  0.00     0.173 A 
ATOM     72  C   UNL A   1      39.873  33.297  35.353  1.00  0.00     0.173 A 
ATOM     73  F   UNL A   1      38.136  30.268  36.372  1.00  0.00    -0.203 F 
ATOM     74  C   UNL A   1      38.138  32.415  37.333  1.00  0.00     0.198 A 
ATOM     75  C   UNL A   1      39.450  34.170  36.354  1.00  0.00     0.198 A 
ATOM     76  F   UNL A   1      40.704  33.757  34.406  1.00  0.00    -0.203 F 
ATOM     77  F   UNL A   1      37.273  31.997  38.267  1.00  0.00    -0.200 F 
ATOM     78  C   UNL A   1      38.577  33.731  37.337  1.00  0.00     0.200 A 
ATOM     79  F   UNL A   1      39.886  35.437  36.363  1.00  0.00    -0.200 F 
ATOM     80  F   UNL A   1      38.152  34.578  38.285  1.00  0.00    -0.200 F 
ENDBRANCH  56  70
BRANCH  57  81
ATOM     81  C   UNL A   1      42.565  26.210  27.797  1.00  0.00     0.064 A 
ATOM     82  C   UNL A   1      42.108  24.895  27.637  1.00  0.00     0.173 A 
ATOM     83  C   UNL A   1      43.464  26.711  26.845  1.00  0.00     0.173 A 
ATOM     84  F   UNL A   1      41.260  24.367  28.531  1.00  0.00    -0.203 F 
ATOM     85  C   UNL A   1      42.544  24.107  26.574  1.00  0.00     0.198 A 
ATOM     86  C   UNL A   1      43.880  25.930  25.769  1.00  0.00     0.198 A 
ATOM     87  F   UNL A   1      43.922  27.967  26.950  1.00  0.00    -0.203 F 
ATOM     88  F   UNL A   1      42.119  22.841  26.463  1.00  0.00    -0.200 F 
ATOM     89  C   UNL A   1      43.424  24.628  25.638  1.00  0.00     0.200 A 
ATOM     90  F   UNL A   1      44.718  26.443  24.857  1.00  0.00    -0.200 F 
ATOM     91  F   UNL A   1      43.836  23.873  24.609  1.00  0.00    -0.200 F 
ENDBRANCH  57  81
BRANCH  69  92
ATOM     92  C   UNL A   1      44.878  27.331  34.275  1.00  0.00     0.064 A 
ATOM     93  C   UNL A   1      46.127  27.968  34.294  1.00  0.00     0.173 A 
ATOM     94  C   UNL A   1      44.726  26.158  35.030  1.00  0.00     0.173 A 
ATOM     95  F   UNL A   1      46.328  29.084  33.577  1.00  0.00    -0.203 F 
ATOM     96  C   UNL A   1      47.191  27.435  35.018  1.00  0.00     0.198 A 
ATOM     97  C   UNL A   1      45.783  25.644  35.774  1.00  0.00     0.198 A 
ATOM     98  F   UNL A   1      43.548  25.515  35.049  1.00  0.00    -0.203 F 
ATOM     99  F   UNL A   1      48.390  28.032  34.982  1.00  0.00    -0.200 F 
ATOM    100  C   UNL A   1      47.016  26.277  35.762  1.00  0.00     0.200 A 
ATOM    101  F   UNL A   1      45.609  24.531  36.501  1.00  0.00    -0.200 F 
ATOM    102  F   UNL A   1      48.040  25.766  36.460  1.00  0.00    -0.200 F 
ENDBRANCH  69  92
ENDBRANCH  43  44
ENDBRANCH  35  38
ENDBRANCH  33  34
ENDBRANCH   1  33
TORSDOF 13
ENDMDL
MODEL 2
REMARK VINA RESULT:     -13.5      0.234      1.550
REMARK SMILES Cc1ccc2[nH]cc([C@@H](C(=O)NCCCNC(=O)c3ccc(-c4c5nc(c(-c6c(F)c(F)c(F)c(F)c6F)c6ccc([nH]6)c(-c6c(F)c(F)c(F)c(F)c6F)c6nc(c(-c7c(F)c(F)c(F)c(F)c7F)c7ccc4[nH]7)C=C6)C=C5)cc3)[NH+]3CCN(c4cccc(Cl)c4)CC3)c2c1
REMARK SMILES IDX 14 1 13 2 12 3 10 4 11 5 9 7 8 8 1 9 2 10 3 11 96 12 4 13
REMARK SMILES IDX 95 14 5 15 6 16 7 17 82 19 83 20 94 21 84 23 93 24 85 25
REMARK SMILES IDX 86 26 87 27 92 28 88 29 90 30 89 31 91 32 15 33 16 34 17 35
REMARK SMILES IDX 18 37 19 38 20 39 81 40 21 41 80 42 22 43 23 44 24 45 74 46
REMARK SMILES IDX 25 47 79 48 73 49 75 50 26 51 78 52 72 53 71 54 27 56 59 57
REMARK SMILES IDX 39 58 58 59 40 60 43 61 57 62 76 63 41 64 42 65 56 67 77 68
REMARK SMILES IDX 44 69 28 70 29 71 37 72 30 73 31 74 35 75 38 76 32 77 33 78
REMARK SMILES IDX 36 79 34 80 60 81 61 82 69 83 62 84 63 85 67 86 70 87 64 88
REMARK SMILES IDX 65 89 68 90 66 91 45 92 46 93 54 94 47 95 48 96 52 97 55 98
REMARK SMILES IDX 49 99 50 100 53 101 51 102
REMARK H PARENT 12 6 6 18 82 22 16 36 75 55 43 66
REMARK Flexibility Score: inf
ROOT
ATOM      1  C   UNL A   1      32.603  28.140  25.782  1.00  0.00     0.042 C 
ENDROOT
BRANCH   1   2
ATOM      2  C   UNL A   1      33.385  26.831  25.850  1.00  0.00     0.118 C 
BRANCH   2   3
ATOM      3  N   UNL A   1      33.677  26.289  24.537  1.00  0.00    -0.351 N 
ATOM      4  C   UNL A   1      33.668  24.988  24.098  1.00  0.00     0.283 C 
ATOM      5  O   UNL A   1      34.024  24.825  22.926  1.00  0.00    -0.268 OA
ATOM      6  H   UNL A   1      33.920  26.956  23.855  1.00  0.00     0.163 HD
BRANCH   4   7
ATOM      7  C   UNL A   1      33.192  23.843  25.052  1.00  0.00     0.307 C 
BRANCH   7   8
ATOM      8  C   UNL A   1      34.074  22.624  24.971  1.00  0.00     0.044 A 
ATOM      9  C   UNL A   1      38.772  24.219  26.291  1.00  0.00     0.044 C 
ATOM     10  C   UNL A   1      37.762  23.167  25.935  1.00  0.00    -0.050 A 
ATOM     11  C   UNL A   1      38.149  21.838  25.748  1.00  0.00     0.005 A 
ATOM     12  C   UNL A   1      36.418  23.533  25.747  1.00  0.00     0.014 A 
ATOM     13  C   UNL A   1      37.232  20.862  25.342  1.00  0.00     0.027 A 
ATOM     14  C   UNL A   1      35.476  22.574  25.310  1.00  0.00     0.009 A 
ATOM     15  C   UNL A   1      35.914  21.267  25.104  1.00  0.00     0.046 A 
ATOM     16  N   UNL A   1      34.840  20.548  24.639  1.00  0.00    -0.361 N 
ATOM     17  C   UNL A   1      33.758  21.369  24.479  1.00  0.00     0.094 A 
ATOM     18  H   UNL A   1      34.847  19.582  24.450  1.00  0.00     0.166 HD
ENDBRANCH   7   8
BRANCH   7  19
ATOM     19  N   UNL A   1      31.743  23.548  24.928  1.00  0.00    -0.318 N 
ATOM     20  C   UNL A   1      30.806  24.147  25.890  1.00  0.00     0.284 C 
ATOM     21  C   UNL A   1      31.200  23.643  23.561  1.00  0.00     0.284 C 
ATOM     22  H   UNL A   1      31.786  22.567  25.204  1.00  0.00     0.349 HD
ATOM     23  C   UNL A   1      30.175  25.509  25.531  1.00  0.00     0.178 C 
ATOM     24  C   UNL A   1      30.650  25.023  23.127  1.00  0.00     0.178 C 
ATOM     25  N   UNL A   1      29.731  25.575  24.133  1.00  0.00    -0.360 N 
BRANCH  25  26
ATOM     26  C   UNL A   1      29.061  26.737  23.744  1.00  0.00     0.038 A 
ATOM     27  C   UNL A   1      27.683  26.914  23.934  1.00  0.00     0.026 A 
ATOM     28  C   UNL A   1      29.785  27.770  23.140  1.00  0.00     0.046 A 
ATOM     29  C   UNL A   1      27.035  28.074  23.501  1.00  0.00     0.004 A 
ATOM     30  C   UNL A   1      29.138  28.927  22.704  1.00  0.00     0.043 A 
ATOM     31  C   UNL A   1      27.765  29.082  22.877  1.00  0.00     0.020 A 
ATOM     32  Cl  UNL A   1      30.044  30.171  21.932  1.00  0.00    -0.084 Cl
ENDBRANCH  25  26
ENDBRANCH   7  19
ENDBRANCH   4   7
ENDBRANCH   2   3
ENDBRANCH   1   2
BRANCH   1  33
ATOM     33  C   UNL A   1      33.409  29.332  25.280  1.00  0.00     0.118 C 
BRANCH  33  34
ATOM     34  N   UNL A   1      32.904  30.596  25.789  1.00  0.00    -0.352 N 
ATOM     35  C   UNL A   1      33.286  31.327  26.884  1.00  0.00     0.251 C 
ATOM     36  H   UNL A   1      32.172  30.990  25.263  1.00  0.00     0.163 HD
ATOM     37  O   UNL A   1      32.586  32.266  27.250  1.00  0.00    -0.269 OA
BRANCH  35  38
ATOM     38  C   UNL A   1      34.518  30.999  27.638  1.00  0.00     0.039 A 
ATOM     39  C   UNL A   1      34.687  29.687  28.089  1.00  0.00     0.014 A 
ATOM     40  C   UNL A   1      35.469  31.972  27.964  1.00  0.00     0.014 A 
ATOM     41  C   UNL A   1      35.819  29.343  28.831  1.00  0.00     0.010 A 
ATOM     42  C   UNL A   1      36.635  31.612  28.640  1.00  0.00     0.010 A 
ATOM     43  C   UNL A   1      36.814  30.298  29.094  1.00  0.00    -0.014 A 
BRANCH  43  44
ATOM     44  C   UNL A   1      38.037  29.922  29.850  1.00  0.00     0.031 A 
ATOM     45  C   UNL A   1      38.257  30.420  31.251  1.00  0.00     0.074 A 
ATOM     46  C   UNL A   1      38.967  29.148  29.257  1.00  0.00     0.049 A 
ATOM     47  N   UNL A   1      39.248  30.170  32.072  1.00  0.00    -0.248 NA
ATOM     48  C   UNL A   1      37.246  31.339  31.795  1.00  0.00     0.031 C 
ATOM     49  C   UNL A   1      38.901  28.658  27.880  1.00  0.00     0.029 A 
ATOM     50  N   UNL A   1      40.147  28.639  29.737  1.00  0.00    -0.354 N 
ATOM     51  C   UNL A   1      38.987  30.910  33.217  1.00  0.00     0.074 A 
ATOM     52  C   UNL A   1      37.773  31.658  32.970  1.00  0.00     0.031 C 
ATOM     53  C   UNL A   1      39.977  27.893  27.636  1.00  0.00     0.029 A 
ATOM     54  C   UNL A   1      40.817  27.857  28.828  1.00  0.00     0.049 A 
ATOM     55  H   UNL A   1      40.482  28.817  30.646  1.00  0.00     0.167 HD
ATOM     56  C   UNL A   1      39.682  30.944  34.380  1.00  0.00     0.037 A 
ATOM     57  C   UNL A   1      41.972  27.177  28.948  1.00  0.00     0.037 A 
ATOM     58  C   UNL A   1      40.873  30.175  34.635  1.00  0.00     0.049 A 
ATOM     59  C   UNL A   1      42.701  27.192  30.263  1.00  0.00     0.074 A 
ATOM     60  C   UNL A   1      41.610  30.085  35.803  1.00  0.00     0.029 A 
ATOM     61  N   UNL A   1      41.502  29.365  33.702  1.00  0.00    -0.354 N 
ATOM     62  N   UNL A   1      42.398  27.825  31.370  1.00  0.00    -0.248 NA
ATOM     63  C   UNL A   1      43.924  26.383  30.351  1.00  0.00     0.031 C 
ATOM     64  C   UNL A   1      42.709  29.252  35.564  1.00  0.00     0.029 A 
ATOM     65  C   UNL A   1      42.629  28.784  34.263  1.00  0.00     0.049 A 
ATOM     66  H   UNL A   1      41.193  29.222  32.778  1.00  0.00     0.167 HD
ATOM     67  C   UNL A   1      43.373  27.472  32.292  1.00  0.00     0.074 A 
ATOM     68  C   UNL A   1      44.271  26.557  31.619  1.00  0.00     0.031 C 
ATOM     69  C   UNL A   1      43.510  27.871  33.581  1.00  0.00     0.037 A 
BRANCH  56  70
ATOM     70  C   UNL A   1      39.168  31.841  35.469  1.00  0.00     0.064 A 
ATOM     71  C   UNL A   1      38.330  31.360  36.487  1.00  0.00     0.173 A 
ATOM     72  C   UNL A   1      39.542  33.193  35.514  1.00  0.00     0.173 A 
ATOM     73  F   UNL A   1      37.934  30.078  36.484  1.00  0.00    -0.203 F 
ATOM     74  C   UNL A   1      37.859  32.204  37.489  1.00  0.00     0.198 A 
ATOM     75  C   UNL A   1      39.094  34.029  36.535  1.00  0.00     0.198 A 
ATOM     76  F   UNL A   1      40.346  33.704  34.570  1.00  0.00    -0.203 F 
ATOM     77  F   UNL A   1      37.019  31.734  38.420  1.00  0.00    -0.200 F 
ATOM     78  C   UNL A   1      38.246  33.536  37.515  1.00  0.00     0.200 A 
ATOM     79  F   UNL A   1      39.478  35.312  36.566  1.00  0.00    -0.200 F 
ATOM     80  F   UNL A   1      37.796  34.347  38.484  1.00  0.00    -0.200 F 
ENDBRANCH  56  70
BRANCH  57  81
ATOM     81  C   UNL A   1      42.477  26.380  27.801  1.00  0.00     0.064 A 
ATOM     82  C   UNL A   1      43.399  26.924  26.897  1.00  0.00     0.173 A 
ATOM     83  C   UNL A   1      42.065  25.055  27.598  1.00  0.00     0.173 A 
ATOM     84  F   UNL A   1      43.809  28.193  27.040  1.00  0.00    -0.203 F 
ATOM     85  C   UNL A   1      43.882  26.177  25.825  1.00  0.00     0.198 A 
ATOM     86  C   UNL A   1      42.568  24.301  26.541  1.00  0.00     0.198 A 
ATOM     87  F   UNL A   1      41.191  24.487  28.442  1.00  0.00    -0.203 F 
ATOM     88  F   UNL A   1      44.737  26.731  24.956  1.00  0.00    -0.200 F 
ATOM     89  C   UNL A   1      43.471  24.863  25.652  1.00  0.00     0.200 A 
ATOM     90  F   UNL A   1      42.181  23.027  26.387  1.00  0.00    -0.200 F 
ATOM     91  F   UNL A   1      43.944  24.141  24.627  1.00  0.00    -0.200 F 
ENDBRANCH  57  81
BRANCH  69  92
ATOM     92  C   UNL A   1      44.658  27.293  34.357  1.00  0.00     0.064 A 
ATOM     93  C   UNL A   1      44.537  26.085  35.059  1.00  0.00     0.173 A 
ATOM     94  C   UNL A   1      45.901  27.943  34.373  1.00  0.00     0.173 A 
ATOM     95  F   UNL A   1      43.365  25.434  35.086  1.00  0.00    -0.203 F 
ATOM     96  C   UNL A   1      45.612  25.563  35.773  1.00  0.00     0.198 A 
ATOM     97  C   UNL A   1      46.981  27.404  35.065  1.00  0.00     0.198 A 
ATOM     98  F   UNL A   1      46.069  29.098  33.712  1.00  0.00    -0.203 F 
ATOM     99  F   UNL A   1      45.461  24.434  36.478  1.00  0.00    -0.200 F 
ATOM    100  C   UNL A   1      46.835  26.220  35.771  1.00  0.00     0.200 A 
ATOM    101  F   UNL A   1      48.165  28.034  35.053  1.00  0.00    -0.200 F 
ATOM    102  F   UNL A   1      47.869  25.715  36.458  1.00  0.00    -0.200 F 
ENDBRANCH  69  92
ENDBRANCH  43  44
ENDBRANCH  35  38
ENDBRANCH  33  34
ENDBRANCH   1  33
TORSDOF 13
ENDMDL
MODEL 3
REMARK VINA RESULT:     -13.2      1.672      4.636
REMARK SMILES Cc1ccc2[nH]cc([C@@H](C(=O)NCCCNC(=O)c3ccc(-c4c5nc(c(-c6c(F)c(F)c(F)c(F)c6F)c6ccc([nH]6)c(-c6c(F)c(F)c(F)c(F)c6F)c6nc(c(-c7c(F)c(F)c(F)c(F)c7F)c7ccc4[nH]7)C=C6)C=C5)cc3)[NH+]3CCN(c4cccc(Cl)c4)CC3)c2c1
REMARK SMILES IDX 14 1 13 2 12 3 10 4 11 5 9 7 8 8 1 9 2 10 3 11 96 12 4 13
REMARK SMILES IDX 95 14 5 15 6 16 7 17 82 19 83 20 94 21 84 23 93 24 85 25
REMARK SMILES IDX 86 26 87 27 92 28 88 29 90 30 89 31 91 32 15 33 16 34 17 35
REMARK SMILES IDX 18 37 19 38 20 39 81 40 21 41 80 42 22 43 23 44 24 45 74 46
REMARK SMILES IDX 25 47 79 48 73 49 75 50 26 51 78 52 72 53 71 54 27 56 59 57
REMARK SMILES IDX 39 58 58 59 40 60 43 61 57 62 76 63 41 64 42 65 56 67 77 68
REMARK SMILES IDX 44 69 28 70 29 71 37 72 30 73 31 74 35 75 38 76 32 77 33 78
REMARK SMILES IDX 36 79 34 80 60 81 61 82 69 83 62 84 63 85 67 86 70 87 64 88
REMARK SMILES IDX 65 89 68 90 66 91 45 92 46 93 54 94 47 95 48 96 52 97 55 98
REMARK SMILES IDX 49 99 50 100 53 101 51 102
REMARK H PARENT 12 6 6 18 82 22 16 36 75 55 43 66
REMARK Flexibility Score: inf
ROOT
ATOM      1  C   UNL A   1      31.819  29.327  27.144  1.00  0.00     0.042 C 
ENDROOT
BRANCH   1   2
ATOM      2  C   UNL A   1      32.083  27.841  27.367  1.00  0.00     0.118 C 
BRANCH   2   3
ATOM      3  N   UNL A   1      30.973  27.008  26.944  1.00  0.00    -0.351 N 
ATOM      4  C   UNL A   1      30.752  26.374  25.747  1.00  0.00     0.283 C 
ATOM      5  O   UNL A   1      29.675  25.776  25.659  1.00  0.00    -0.268 OA
ATOM      6  H   UNL A   1      30.270  26.878  27.620  1.00  0.00     0.163 HD
BRANCH   4   7
ATOM      7  C   UNL A   1      31.847  26.409  24.629  1.00  0.00     0.307 C 
BRANCH   7   8
ATOM      8  C   UNL A   1      31.670  27.576  23.691  1.00  0.00     0.044 A 
ATOM      9  C   UNL A   1      26.602  28.292  23.303  1.00  0.00     0.044 C 
ATOM     10  C   UNL A   1      28.033  28.664  23.048  1.00  0.00    -0.050 A 
ATOM     11  C   UNL A   1      28.357  29.726  22.201  1.00  0.00     0.005 A 
ATOM     12  C   UNL A   1      29.061  27.906  23.637  1.00  0.00     0.014 A 
ATOM     13  C   UNL A   1      29.687  30.035  21.895  1.00  0.00     0.027 A 
ATOM     14  C   UNL A   1      30.412  28.179  23.324  1.00  0.00     0.009 A 
ATOM     15  C   UNL A   1      30.686  29.227  22.447  1.00  0.00     0.046 A 
ATOM     16  N   UNL A   1      32.047  29.257  22.264  1.00  0.00    -0.361 N 
ATOM     17  C   UNL A   1      32.636  28.223  22.939  1.00  0.00     0.094 A 
ATOM     18  H   UNL A   1      32.529  29.926  21.727  1.00  0.00     0.166 HD
ENDBRANCH   7   8
BRANCH   7  19
ATOM     19  N   UNL A   1      32.021  25.105  23.943  1.00  0.00    -0.318 N 
ATOM     20  C   UNL A   1      33.069  24.968  22.921  1.00  0.00     0.284 C 
ATOM     21  C   UNL A   1      32.016  23.927  24.830  1.00  0.00     0.284 C 
ATOM     22  H   UNL A   1      31.154  25.124  23.406  1.00  0.00     0.349 HD
ATOM     23  C   UNL A   1      34.464  24.488  23.378  1.00  0.00     0.178 C 
ATOM     24  C   UNL A   1      33.385  23.475  25.391  1.00  0.00     0.178 C 
ATOM     25  N   UNL A   1      34.393  23.369  24.325  1.00  0.00    -0.360 N 
BRANCH  25  26
ATOM     26  C   UNL A   1      35.609  22.806  24.720  1.00  0.00     0.038 A 
ATOM     27  C   UNL A   1      35.894  21.441  24.569  1.00  0.00     0.026 A 
ATOM     28  C   UNL A   1      36.587  23.628  25.289  1.00  0.00     0.046 A 
ATOM     29  C   UNL A   1      37.107  20.902  25.006  1.00  0.00     0.004 A 
ATOM     30  C   UNL A   1      37.797  23.089  25.730  1.00  0.00     0.043 A 
ATOM     31  C   UNL A   1      38.059  21.728  25.596  1.00  0.00     0.020 A 
ATOM     32  Cl  UNL A   1      38.972  24.114  26.459  1.00  0.00    -0.084 Cl
ENDBRANCH  25  26
ENDBRANCH   7  19
ENDBRANCH   4   7
ENDBRANCH   2   3
ENDBRANCH   1   2
BRANCH   1  33
ATOM     33  C   UNL A   1      32.904  30.050  26.356  1.00  0.00     0.118 C 
BRANCH  33  34
ATOM     34  N   UNL A   1      32.862  31.490  26.549  1.00  0.00    -0.352 N 
ATOM     35  C   UNL A   1      33.595  32.295  27.382  1.00  0.00     0.251 C 
ATOM     36  H   UNL A   1      32.202  31.963  25.993  1.00  0.00     0.163 HD
ATOM     37  O   UNL A   1      33.254  33.464  27.537  1.00  0.00    -0.269 OA
BRANCH  35  38
ATOM     38  C   UNL A   1      34.782  31.780  28.104  1.00  0.00     0.039 A 
ATOM     39  C   UNL A   1      35.866  32.642  28.296  1.00  0.00     0.014 A 
ATOM     40  C   UNL A   1      34.870  30.451  28.532  1.00  0.00     0.014 A 
ATOM     41  C   UNL A   1      37.015  32.187  28.943  1.00  0.00     0.010 A 
ATOM     42  C   UNL A   1      35.987  30.018  29.246  1.00  0.00     0.010 A 
ATOM     43  C   UNL A   1      37.078  30.876  29.444  1.00  0.00    -0.014 A 
BRANCH  43  44
ATOM     44  C   UNL A   1      38.287  30.404  30.168  1.00  0.00     0.031 A 
ATOM     45  C   UNL A   1      38.541  30.819  31.590  1.00  0.00     0.074 A 
ATOM     46  C   UNL A   1      39.174  29.618  29.527  1.00  0.00     0.049 A 
ATOM     47  N   UNL A   1      39.525  30.481  32.387  1.00  0.00    -0.248 NA
ATOM     48  C   UNL A   1      37.580  31.757  32.190  1.00  0.00     0.031 C 
ATOM     49  C   UNL A   1      39.074  29.203  28.127  1.00  0.00     0.029 A 
ATOM     50  N   UNL A   1      40.332  29.028  29.969  1.00  0.00    -0.354 N 
ATOM     51  C   UNL A   1      39.308  31.172  33.571  1.00  0.00     0.074 A 
ATOM     52  C   UNL A   1      38.130  31.989  33.374  1.00  0.00     0.031 C 
ATOM     53  C   UNL A   1      40.110  28.400  27.834  1.00  0.00     0.029 A 
ATOM     54  C   UNL A   1      40.956  28.263  29.015  1.00  0.00     0.049 A 
ATOM     55  H   UNL A   1      40.681  29.144  30.882  1.00  0.00     0.167 HD
ATOM     56  C   UNL A   1      40.013  31.114  34.727  1.00  0.00     0.037 A 
ATOM     57  C   UNL A   1      42.078  27.523  29.089  1.00  0.00     0.037 A 
ATOM     58  C   UNL A   1      41.167  30.277  34.931  1.00  0.00     0.049 A 
ATOM     59  C   UNL A   1      42.816  27.436  30.396  1.00  0.00     0.074 A 
ATOM     60  C   UNL A   1      41.908  30.092  36.085  1.00  0.00     0.029 A 
ATOM     61  N   UNL A   1      41.749  29.485  33.952  1.00  0.00    -0.354 N 
ATOM     62  N   UNL A   1      42.552  28.026  31.536  1.00  0.00    -0.248 NA
ATOM     63  C   UNL A   1      43.999  26.565  30.430  1.00  0.00     0.031 C 
ATOM     64  C   UNL A   1      42.963  29.220  35.794  1.00  0.00     0.029 A 
ATOM     65  C   UNL A   1      42.851  28.824  34.471  1.00  0.00     0.049 A 
ATOM     66  H   UNL A   1      41.427  29.405  33.024  1.00  0.00     0.167 HD
ATOM     67  C   UNL A   1      43.516  27.579  32.429  1.00  0.00     0.074 A 
ATOM     68  C   UNL A   1      44.363  26.658  31.702  1.00  0.00     0.031 C 
ATOM     69  C   UNL A   1      43.682  27.905  33.735  1.00  0.00     0.037 A 
BRANCH  56  70
ATOM     70  C   UNL A   1      39.551  31.978  35.865  1.00  0.00     0.064 A 
ATOM     71  C   UNL A   1      38.536  31.563  36.741  1.00  0.00     0.173 A 
ATOM     72  C   UNL A   1      40.153  33.223  36.103  1.00  0.00     0.173 A 
ATOM     73  F   UNL A   1      37.922  30.386  36.551  1.00  0.00    -0.203 F 
ATOM     74  C   UNL A   1      38.117  32.377  37.790  1.00  0.00     0.198 A 
ATOM     75  C   UNL A   1      39.752  34.022  37.172  1.00  0.00     0.198 A 
ATOM     76  F   UNL A   1      41.133  33.666  35.301  1.00  0.00    -0.203 F 
ATOM     77  F   UNL A   1      37.110  31.982  38.581  1.00  0.00    -0.200 F 
ATOM     78  C   UNL A   1      38.729  33.602  38.009  1.00  0.00     0.200 A 
ATOM     79  F   UNL A   1      40.353  35.199  37.389  1.00  0.00    -0.200 F 
ATOM     80  F   UNL A   1      38.327  34.382  39.022  1.00  0.00    -0.200 F 
ENDBRANCH  56  70
BRANCH  57  81
ATOM     81  C   UNL A   1      42.534  26.762  27.898  1.00  0.00     0.064 A 
ATOM     82  C   UNL A   1      42.122  25.439  27.689  1.00  0.00     0.173 A 
ATOM     83  C   UNL A   1      43.369  27.348  26.936  1.00  0.00     0.173 A 
ATOM     84  F   UNL A   1      41.338  24.831  28.590  1.00  0.00    -0.203 F 
ATOM     85  C   UNL A   1      42.540  24.725  26.567  1.00  0.00     0.198 A 
ATOM     86  C   UNL A   1      43.765  26.642  25.803  1.00  0.00     0.198 A 
ATOM     87  F   UNL A   1      43.781  28.615  27.087  1.00  0.00    -0.203 F 
ATOM     88  F   UNL A   1      42.160  23.450  26.408  1.00  0.00    -0.200 F 
ATOM     89  C   UNL A   1      43.355  25.330  25.622  1.00  0.00     0.200 A 
ATOM     90  F   UNL A   1      44.539  27.235  24.883  1.00  0.00    -0.200 F 
ATOM     91  F   UNL A   1      43.748  24.646  24.538  1.00  0.00    -0.200 F 
ENDBRANCH  57  81
BRANCH  69  92
ATOM     92  C   UNL A   1      44.806  27.234  34.470  1.00  0.00     0.064 A 
ATOM     93  C   UNL A   1      46.082  27.810  34.545  1.00  0.00     0.173 A 
ATOM     94  C   UNL A   1      44.594  26.014  35.130  1.00  0.00     0.173 A 
ATOM     95  F   UNL A   1      46.339  28.968  33.919  1.00  0.00    -0.203 F 
ATOM     96  C   UNL A   1      47.114  27.174  35.232  1.00  0.00     0.198 A 
ATOM     97  C   UNL A   1      45.619  25.396  35.837  1.00  0.00     0.198 A 
ATOM     98  F   UNL A   1      43.388  25.427  35.092  1.00  0.00    -0.203 F 
ATOM     99  F   UNL A   1      48.339  27.717  35.250  1.00  0.00    -0.200 F 
ATOM    100  C   UNL A   1      46.880  25.971  35.882  1.00  0.00     0.200 A 
ATOM    101  F   UNL A   1      45.388  24.239  36.475  1.00  0.00    -0.200 F 
ATOM    102  F   UNL A   1      47.873  25.361  36.544  1.00  0.00    -0.200 F 
ENDBRANCH  69  92
ENDBRANCH  43  44
ENDBRANCH  35  38
ENDBRANCH  33  34
ENDBRANCH   1  33
TORSDOF 13
ENDMDL
