MODEL 1
REMARK VINA RESULT:     -11.7      0.000      0.000
REMARK SMILES CC(C)c1cc(C2CC[NH+](Cc3c[nH]nc3C(=O)NCCCNC(=O)c3ccc(-c4c5nc(c(-c6c(F)c(F)c(F)c(F)c6F)c6ccc([nH]6)c(-c6c(F)c(F)c(F)c(F)c6F)c6nc(c(-c7c(F)c(F)c(F)c(F)c7F)c7ccc4[nH]7)C=C6)C=C5)cc3)CC2)n[nH]1
REMARK SMILES IDX 20 1 19 2 17 3 18 4 16 6 12 7 13 8 14 9 15 10 11 12 10 13
REMARK SMILES IDX 7 14 8 15 90 16 9 17 89 18 6 20 4 21 5 22 92 23 91 24 2 26
REMARK SMILES IDX 1 27 3 28 21 29 22 30 23 31 24 32 25 34 26 35 27 36 88 37
REMARK SMILES IDX 28 38 87 39 29 40 30 41 31 42 81 43 32 44 86 45 80 46 82 47
REMARK SMILES IDX 33 48 85 49 79 50 78 51 34 53 66 54 46 55 65 56 47 57 50 58
REMARK SMILES IDX 64 59 83 60 48 61 49 62 63 64 84 65 51 66 35 67 36 68 44 69
REMARK SMILES IDX 37 70 38 71 42 72 45 73 39 74 40 75 43 76 41 77 67 78 68 79
REMARK SMILES IDX 76 80 69 81 70 82 74 83 77 84 71 85 72 86 75 87 73 88 52 89
REMARK SMILES IDX 53 90 61 91 54 92 55 93 59 94 62 95 56 96 57 97 60 98 58 99
REMARK H PARENT 19 5 14 11 10 19 92 25 23 33 82 52 50 63
REMARK Flexibility Score: inf
ROOT
ATOM      1  C   UNL A   1      42.089  20.432  27.768  1.00  0.00     0.118 C 
ENDROOT
BRANCH   1   2
ATOM      2  N   UNL A   1      42.039  19.188  27.047  1.00  0.00    -0.351 N 
ATOM      3  C   UNL A   1      42.848  18.558  26.141  1.00  0.00     0.272 C 
ATOM      4  O   UNL A   1      42.352  17.494  25.743  1.00  0.00    -0.267 OA
ATOM      5  H   UNL A   1      41.230  18.667  27.254  1.00  0.00     0.163 HD
BRANCH   3   6
ATOM      6  C   UNL A   1      44.199  18.992  25.676  1.00  0.00     0.158 A 
ATOM      7  C   UNL A   1      44.864  20.226  25.281  1.00  0.00     0.057 A 
ATOM      8  C   UNL A   1      46.154  19.832  24.953  1.00  0.00     0.115 A 
ATOM      9  N   UNL A   1      46.205  18.491  25.085  1.00  0.00    -0.284 N 
ATOM     10  N   UNL A   1      45.075  17.967  25.529  1.00  0.00    -0.170 NA
ATOM     11  H   UNL A   1      47.004  17.955  24.872  1.00  0.00     0.189 HD
BRANCH   7  12
ATOM     12  C   UNL A   1      44.443  21.658  25.192  1.00  0.00     0.303 C 
BRANCH  12  13
ATOM     13  N   UNL A   1      45.496  22.644  25.466  1.00  0.00    -0.331 N 
ATOM     14  C   UNL A   1      47.022  25.098  25.946  1.00  0.00     0.051 C 
ATOM     15  C   UNL A   1      47.051  24.363  24.599  1.00  0.00     0.071 C 
ATOM     16  C   UNL A   1      46.607  24.144  27.068  1.00  0.00     0.071 C 
ATOM     17  C   UNL A   1      45.799  23.522  24.335  1.00  0.00     0.263 C 
ATOM     18  C   UNL A   1      45.342  23.367  26.725  1.00  0.00     0.263 C 
ATOM     19  H   UNL A   1      46.329  22.071  25.596  1.00  0.00     0.348 HD
BRANCH  14  20
ATOM     20  C   UNL A   1      46.195  26.358  25.929  1.00  0.00     0.066 A 
ATOM     21  C   UNL A   1      45.037  28.189  26.436  1.00  0.00     0.038 A 
ATOM     22  C   UNL A   1      45.668  27.107  27.007  1.00  0.00     0.049 A 
ATOM     23  N   UNL A   1      45.198  28.027  25.088  1.00  0.00    -0.282 N 
ATOM     24  N   UNL A   1      45.895  26.931  24.756  1.00  0.00    -0.180 NA
ATOM     25  H   UNL A   1      44.836  28.656  24.423  1.00  0.00     0.190 HD
BRANCH  21  26
ATOM     26  C   UNL A   1      44.298  29.326  27.067  1.00  0.00     0.031 C 
ATOM     27  C   UNL A   1      45.010  30.663  26.868  1.00  0.00     0.014 C 
ATOM     28  C   UNL A   1      42.862  29.382  26.548  1.00  0.00     0.014 C 
ENDBRANCH  21  26
ENDBRANCH  14  20
ENDBRANCH  12  13
ENDBRANCH   7  12
ENDBRANCH   3   6
ENDBRANCH   1   2
BRANCH   1  29
ATOM     29  C   UNL A   1      40.814  21.228  27.503  1.00  0.00     0.042 C 
BRANCH  29  30
ATOM     30  C   UNL A   1      40.848  22.024  26.213  1.00  0.00     0.118 C 
BRANCH  30  31
ATOM     31  N   UNL A   1      39.517  22.345  25.733  1.00  0.00    -0.352 N 
ATOM     32  C   UNL A   1      38.700  23.405  26.031  1.00  0.00     0.251 C 
ATOM     33  H   UNL A   1      39.140  21.698  25.094  1.00  0.00     0.163 HD
ATOM     34  O   UNL A   1      37.538  23.391  25.642  1.00  0.00    -0.269 OA
BRANCH  32  35
ATOM     35  C   UNL A   1      39.199  24.553  26.823  1.00  0.00     0.039 A 
ATOM     36  C   UNL A   1      38.875  24.613  28.182  1.00  0.00     0.014 A 
ATOM     37  C   UNL A   1      39.933  25.589  26.243  1.00  0.00     0.014 A 
ATOM     38  C   UNL A   1      39.299  25.697  28.952  1.00  0.00     0.010 A 
ATOM     39  C   UNL A   1      40.461  26.602  27.035  1.00  0.00     0.010 A 
ATOM     40  C   UNL A   1      40.109  26.695  28.387  1.00  0.00    -0.014 A 
BRANCH  40  41
ATOM     41  C   UNL A   1      40.517  27.888  29.169  1.00  0.00     0.031 A 
ATOM     42  C   UNL A   1      41.923  27.981  29.706  1.00  0.00     0.074 A 
ATOM     43  C   UNL A   1      39.627  28.865  29.419  1.00  0.00     0.049 A 
ATOM     44  N   UNL A   1      42.471  28.916  30.441  1.00  0.00    -0.248 NA
ATOM     45  C   UNL A   1      42.824  26.854  29.411  1.00  0.00     0.031 C 
ATOM     46  C   UNL A   1      38.225  28.862  28.999  1.00  0.00     0.029 A 
ATOM     47  N   UNL A   1      39.770  30.053  30.091  1.00  0.00    -0.354 N 
ATOM     48  C   UNL A   1      43.762  28.476  30.707  1.00  0.00     0.074 A 
ATOM     49  C   UNL A   1      43.892  27.161  30.128  1.00  0.00     0.031 C 
ATOM     50  C   UNL A   1      37.647  30.010  29.388  1.00  0.00     0.029 A 
ATOM     51  C   UNL A   1      38.625  30.811  30.119  1.00  0.00     0.049 A 
ATOM     52  H   UNL A   1      40.614  30.336  30.512  1.00  0.00     0.167 HD
ATOM     53  C   UNL A   1      44.764  29.128  31.345  1.00  0.00     0.037 A 
ATOM     54  C   UNL A   1      38.396  32.017  30.671  1.00  0.00     0.037 A 
ATOM     55  C   UNL A   1      44.637  30.453  31.890  1.00  0.00     0.049 A 
ATOM     56  C   UNL A   1      39.528  32.726  31.364  1.00  0.00     0.074 A 
ATOM     57  C   UNL A   1      45.599  31.228  32.511  1.00  0.00     0.029 A 
ATOM     58  N   UNL A   1      43.469  31.201  31.872  1.00  0.00    -0.354 N 
ATOM     59  N   UNL A   1      40.764  32.330  31.552  1.00  0.00    -0.248 NA
ATOM     60  C   UNL A   1      39.237  34.060  31.906  1.00  0.00     0.031 C 
ATOM     61  C   UNL A   1      44.999  32.424  32.916  1.00  0.00     0.029 A 
ATOM     62  C   UNL A   1      43.682  32.424  32.485  1.00  0.00     0.049 A 
ATOM     63  H   UNL A   1      42.614  30.906  31.481  1.00  0.00     0.167 HD
ATOM     64  C   UNL A   1      41.408  33.380  32.196  1.00  0.00     0.074 A 
ATOM     65  C   UNL A   1      40.427  34.433  32.353  1.00  0.00     0.031 C 
ATOM     66  C   UNL A   1      42.695  33.466  32.616  1.00  0.00     0.037 A 
BRANCH  53  67
ATOM     67  C   UNL A   1      46.082  28.415  31.479  1.00  0.00     0.064 A 
ATOM     68  C   UNL A   1      46.392  27.643  32.611  1.00  0.00     0.173 A 
ATOM     69  C   UNL A   1      47.041  28.492  30.459  1.00  0.00     0.173 A 
ATOM     70  F   UNL A   1      45.518  27.546  33.624  1.00  0.00    -0.203 F 
ATOM     71  C   UNL A   1      47.625  27.008  32.731  1.00  0.00     0.198 A 
ATOM     72  C   UNL A   1      48.258  27.824  30.566  1.00  0.00     0.198 A 
ATOM     73  F   UNL A   1      46.798  29.213  29.354  1.00  0.00    -0.203 F 
ATOM     74  F   UNL A   1      47.922  26.330  33.849  1.00  0.00    -0.200 F 
ATOM     75  C   UNL A   1      48.554  27.091  31.705  1.00  0.00     0.200 A 
ATOM     76  F   UNL A   1      49.149  27.894  29.567  1.00  0.00    -0.200 F 
ATOM     77  F   UNL A   1      49.738  26.474  31.820  1.00  0.00    -0.200 F 
ENDBRANCH  53  67
BRANCH  54  78
ATOM     78  C   UNL A   1      37.053  32.646  30.555  1.00  0.00     0.064 A 
ATOM     79  C   UNL A   1      36.713  33.424  29.439  1.00  0.00     0.173 A 
ATOM     80  C   UNL A   1      36.086  32.492  31.560  1.00  0.00     0.173 A 
ATOM     81  F   UNL A   1      37.609  33.615  28.459  1.00  0.00    -0.203 F 
ATOM     82  C   UNL A   1      35.470  34.047  29.346  1.00  0.00     0.198 A 
ATOM     83  C   UNL A   1      34.831  33.089  31.450  1.00  0.00     0.198 A 
ATOM     84  F   UNL A   1      36.356  31.751  32.645  1.00  0.00    -0.203 F 
ATOM     85  F   UNL A   1      35.194  34.830  28.294  1.00  0.00    -0.200 F 
ATOM     86  C   UNL A   1      34.529  33.874  30.349  1.00  0.00     0.200 A 
ATOM     87  F   UNL A   1      33.918  32.906  32.413  1.00  0.00    -0.200 F 
ATOM     88  F   UNL A   1      33.334  34.473  30.258  1.00  0.00    -0.200 F 
ENDBRANCH  54  78
BRANCH  66  89
ATOM     89  C   UNL A   1      43.133  34.767  33.226  1.00  0.00     0.064 A 
ATOM     90  C   UNL A   1      43.134  34.977  34.612  1.00  0.00     0.173 A 
ATOM     91  C   UNL A   1      43.589  35.810  32.404  1.00  0.00     0.173 A 
ATOM     92  F   UNL A   1      42.698  34.016  35.441  1.00  0.00    -0.203 F 
ATOM     93  C   UNL A   1      43.534  36.197  35.151  1.00  0.00     0.198 A 
ATOM     94  C   UNL A   1      44.025  37.014  32.948  1.00  0.00     0.198 A 
ATOM     95  F   UNL A   1      43.621  35.658  31.071  1.00  0.00    -0.203 F 
ATOM     96  F   UNL A   1      43.464  36.397  36.474  1.00  0.00    -0.200 F 
ATOM     97  C   UNL A   1      43.986  37.211  34.320  1.00  0.00     0.200 A 
ATOM     98  F   UNL A   1      44.480  37.985  32.144  1.00  0.00    -0.200 F 
ATOM     99  F   UNL A   1      44.375  38.383  34.840  1.00  0.00    -0.200 F 
ENDBRANCH  66  89
ENDBRANCH  40  41
ENDBRANCH  32  35
ENDBRANCH  30  31
ENDBRANCH  29  30
ENDBRANCH   1  29
TORSDOF 14
ENDMDL
MODEL 2
REMARK VINA RESULT:     -11.4      3.829     11.853
REMARK SMILES CC(C)c1cc(C2CC[NH+](Cc3c[nH]nc3C(=O)NCCCNC(=O)c3ccc(-c4c5nc(c(-c6c(F)c(F)c(F)c(F)c6F)c6ccc([nH]6)c(-c6c(F)c(F)c(F)c(F)c6F)c6nc(c(-c7c(F)c(F)c(F)c(F)c7F)c7ccc4[nH]7)C=C6)C=C5)cc3)CC2)n[nH]1
REMARK SMILES IDX 20 1 19 2 17 3 18 4 16 6 12 7 13 8 14 9 15 10 11 12 10 13
REMARK SMILES IDX 7 14 8 15 90 16 9 17 89 18 6 20 4 21 5 22 92 23 91 24 2 26
REMARK SMILES IDX 1 27 3 28 21 29 22 30 23 31 24 32 25 34 26 35 27 36 88 37
REMARK SMILES IDX 28 38 87 39 29 40 30 41 31 42 81 43 32 44 86 45 80 46 82 47
REMARK SMILES IDX 33 48 85 49 79 50 78 51 34 53 66 54 46 55 65 56 47 57 50 58
REMARK SMILES IDX 64 59 83 60 48 61 49 62 63 64 84 65 51 66 35 67 36 68 44 69
REMARK SMILES IDX 37 70 38 71 42 72 45 73 39 74 40 75 43 76 41 77 67 78 68 79
REMARK SMILES IDX 76 80 69 81 70 82 74 83 77 84 71 85 72 86 75 87 73 88 52 89
REMARK SMILES IDX 53 90 61 91 54 92 55 93 59 94 62 95 56 96 57 97 60 98 58 99
REMARK H PARENT 19 5 14 11 10 19 92 25 23 33 82 52 50 63
REMARK Flexibility Score: inf
ROOT
ATOM      1  C   UNL A   1      34.886  34.110  29.380  1.00  0.00     0.118 C 
ENDROOT
BRANCH   1   2
ATOM      2  N   UNL A   1      33.779  34.969  29.053  1.00  0.00    -0.351 N 
ATOM      3  C   UNL A   1      33.099  35.965  29.699  1.00  0.00     0.272 C 
ATOM      4  O   UNL A   1      32.154  36.393  29.019  1.00  0.00    -0.267 OA
ATOM      5  H   UNL A   1      33.427  34.798  28.149  1.00  0.00     0.163 HD
BRANCH   3   6
ATOM      6  C   UNL A   1      33.417  36.565  31.029  1.00  0.00     0.158 A 
ATOM      7  C   UNL A   1      33.831  36.113  32.350  1.00  0.00     0.057 A 
ATOM      8  C   UNL A   1      33.917  37.277  33.101  1.00  0.00     0.115 A 
ATOM      9  N   UNL A   1      33.528  38.293  32.303  1.00  0.00    -0.284 N 
ATOM     10  N   UNL A   1      33.245  37.910  31.069  1.00  0.00    -0.170 NA
ATOM     11  H   UNL A   1      33.460  39.227  32.609  1.00  0.00     0.189 HD
BRANCH   7  12
ATOM     12  C   UNL A   1      34.143  34.779  32.948  1.00  0.00     0.303 C 
BRANCH  12  13
ATOM     13  N   UNL A   1      35.444  34.678  33.622  1.00  0.00    -0.331 N 
ATOM     14  C   UNL A   1      37.992  33.759  34.739  1.00  0.00     0.051 C 
ATOM     15  C   UNL A   1      36.741  33.961  35.604  1.00  0.00     0.071 C 
ATOM     16  C   UNL A   1      37.897  34.591  33.458  1.00  0.00     0.071 C 
ATOM     17  C   UNL A   1      35.430  33.841  34.822  1.00  0.00     0.263 C 
ATOM     18  C   UNL A   1      36.569  34.391  32.737  1.00  0.00     0.263 C 
ATOM     19  H   UNL A   1      35.613  35.627  33.955  1.00  0.00     0.348 HD
BRANCH  14  20
ATOM     20  C   UNL A   1      38.306  32.312  34.461  1.00  0.00     0.066 A 
ATOM     21  C   UNL A   1      39.132  30.385  33.714  1.00  0.00     0.038 A 
ATOM     22  C   UNL A   1      39.187  31.746  33.510  1.00  0.00     0.049 A 
ATOM     23  N   UNL A   1      38.236  30.212  34.732  1.00  0.00    -0.282 N 
ATOM     24  N   UNL A   1      37.724  31.359  35.201  1.00  0.00    -0.180 NA
ATOM     25  H   UNL A   1      37.989  29.328  35.087  1.00  0.00     0.190 HD
BRANCH  21  26
ATOM     26  C   UNL A   1      39.842  29.269  33.016  1.00  0.00     0.031 C 
ATOM     27  C   UNL A   1      40.986  28.697  33.851  1.00  0.00     0.014 C 
ATOM     28  C   UNL A   1      38.852  28.177  32.612  1.00  0.00     0.014 C 
ENDBRANCH  21  26
ENDBRANCH  14  20
ENDBRANCH  12  13
ENDBRANCH   7  12
ENDBRANCH   3   6
ENDBRANCH   1   2
BRANCH   1  29
ATOM     29  C   UNL A   1      34.464  32.652  29.227  1.00  0.00     0.042 C 
BRANCH  29  30
ATOM     30  C   UNL A   1      34.070  32.275  27.813  1.00  0.00     0.118 C 
BRANCH  30  31
ATOM     31  N   UNL A   1      33.499  30.942  27.741  1.00  0.00    -0.352 N 
ATOM     32  C   UNL A   1      34.110  29.715  27.763  1.00  0.00     0.251 C 
ATOM     33  H   UNL A   1      32.518  30.916  27.662  1.00  0.00     0.163 HD
ATOM     34  O   UNL A   1      33.447  28.714  27.516  1.00  0.00    -0.269 OA
BRANCH  32  35
ATOM     35  C   UNL A   1      35.554  29.587  28.067  1.00  0.00     0.039 A 
ATOM     36  C   UNL A   1      36.472  29.798  27.034  1.00  0.00     0.014 A 
ATOM     37  C   UNL A   1      36.013  29.217  29.333  1.00  0.00     0.014 A 
ATOM     38  C   UNL A   1      37.839  29.653  27.276  1.00  0.00     0.010 A 
ATOM     39  C   UNL A   1      37.376  29.196  29.604  1.00  0.00     0.010 A 
ATOM     40  C   UNL A   1      38.303  29.364  28.569  1.00  0.00    -0.014 A 
BRANCH  40  41
ATOM     41  C   UNL A   1      39.746  29.141  28.835  1.00  0.00     0.031 A 
ATOM     42  C   UNL A   1      40.539  30.193  29.569  1.00  0.00     0.074 A 
ATOM     43  C   UNL A   1      40.346  28.019  28.398  1.00  0.00     0.049 A 
ATOM     44  N   UNL A   1      41.813  30.214  29.871  1.00  0.00    -0.248 NA
ATOM     45  C   UNL A   1      39.811  31.404  29.986  1.00  0.00     0.031 C 
ATOM     46  C   UNL A   1      39.697  26.956  27.631  1.00  0.00     0.029 A 
ATOM     47  N   UNL A   1      41.641  27.587  28.536  1.00  0.00    -0.354 N 
ATOM     48  C   UNL A   1      42.033  31.438  30.489  1.00  0.00     0.074 A 
ATOM     49  C   UNL A   1      40.788  32.167  30.448  1.00  0.00     0.031 C 
ATOM     50  C   UNL A   1      40.585  25.976  27.399  1.00  0.00     0.029 A 
ATOM     51  C   UNL A   1      41.874  26.360  27.966  1.00  0.00     0.049 A 
ATOM     52  H   UNL A   1      42.336  28.107  29.000  1.00  0.00     0.167 HD
ATOM     53  C   UNL A   1      43.164  31.900  31.074  1.00  0.00     0.037 A 
ATOM     54  C   UNL A   1      43.004  25.629  27.911  1.00  0.00     0.037 A 
ATOM     55  C   UNL A   1      44.392  31.154  31.140  1.00  0.00     0.049 A 
ATOM     56  C   UNL A   1      44.245  26.158  28.579  1.00  0.00     0.074 A 
ATOM     57  C   UNL A   1      45.584  31.503  31.750  1.00  0.00     0.029 A 
ATOM     58  N   UNL A   1      44.582  29.900  30.577  1.00  0.00    -0.354 N 
ATOM     59  N   UNL A   1      44.425  27.289  29.219  1.00  0.00    -0.248 NA
ATOM     60  C   UNL A   1      45.436  25.300  28.531  1.00  0.00     0.031 C 
ATOM     61  C   UNL A   1      46.509  30.482  31.511  1.00  0.00     0.029 A 
ATOM     62  C   UNL A   1      45.876  29.468  30.812  1.00  0.00     0.049 A 
ATOM     63  H   UNL A   1      43.897  29.394  30.083  1.00  0.00     0.167 HD
ATOM     64  C   UNL A   1      45.734  27.260  29.685  1.00  0.00     0.074 A 
ATOM     65  C   UNL A   1      46.295  25.993  29.264  1.00  0.00     0.031 C 
ATOM     66  C   UNL A   1      46.409  28.194  30.399  1.00  0.00     0.037 A 
BRANCH  53  67
ATOM     67  C   UNL A   1      43.119  33.271  31.689  1.00  0.00     0.064 A 
ATOM     68  C   UNL A   1      43.427  34.425  30.949  1.00  0.00     0.173 A 
ATOM     69  C   UNL A   1      42.748  33.438  33.032  1.00  0.00     0.173 A 
ATOM     70  F   UNL A   1      43.803  34.324  29.665  1.00  0.00    -0.203 F 
ATOM     71  C   UNL A   1      43.402  35.686  31.539  1.00  0.00     0.198 A 
ATOM     72  C   UNL A   1      42.687  34.704  33.609  1.00  0.00     0.198 A 
ATOM     73  F   UNL A   1      42.439  32.373  33.787  1.00  0.00    -0.203 F 
ATOM     74  F   UNL A   1      43.764  36.763  30.829  1.00  0.00    -0.200 F 
ATOM     75  C   UNL A   1      43.024  35.826  32.866  1.00  0.00     0.200 A 
ATOM     76  F   UNL A   1      42.307  34.840  34.886  1.00  0.00    -0.200 F 
ATOM     77  F   UNL A   1      42.995  37.041  33.431  1.00  0.00    -0.200 F 
ENDBRANCH  53  67
BRANCH  54  78
ATOM     78  C   UNL A   1      43.002  24.304  27.236  1.00  0.00     0.064 A 
ATOM     79  C   UNL A   1      42.630  23.141  27.926  1.00  0.00     0.173 A 
ATOM     80  C   UNL A   1      43.379  24.169  25.891  1.00  0.00     0.173 A 
ATOM     81  F   UNL A   1      42.277  23.215  29.219  1.00  0.00    -0.203 F 
ATOM     82  C   UNL A   1      42.666  21.893  27.308  1.00  0.00     0.198 A 
ATOM     83  C   UNL A   1      43.382  22.924  25.265  1.00  0.00     0.198 A 
ATOM     84  F   UNL A   1      43.735  25.250  25.182  1.00  0.00    -0.203 F 
ATOM     85  F   UNL A   1      42.358  20.793  28.009  1.00  0.00    -0.200 F 
ATOM     86  C   UNL A   1      43.036  21.786  25.977  1.00  0.00     0.200 A 
ATOM     87  F   UNL A   1      43.725  22.828  23.973  1.00  0.00    -0.200 F 
ATOM     88  F   UNL A   1      43.069  20.586  25.383  1.00  0.00    -0.200 F 
ENDBRANCH  54  78
BRANCH  66  89
ATOM     89  C   UNL A   1      47.808  27.853  30.828  1.00  0.00     0.064 A 
ATOM     90  C   UNL A   1      48.926  28.175  30.045  1.00  0.00     0.173 A 
ATOM     91  C   UNL A   1      48.031  27.219  32.060  1.00  0.00     0.173 A 
ATOM     92  F   UNL A   1      48.767  28.773  28.854  1.00  0.00    -0.203 F 
ATOM     93  C   UNL A   1      50.211  27.838  30.461  1.00  0.00     0.198 A 
ATOM     94  C   UNL A   1      49.320  26.918  32.490  1.00  0.00     0.198 A 
ATOM     95  F   UNL A   1      46.997  26.900  32.854  1.00  0.00    -0.203 F 
ATOM     96  F   UNL A   1      51.259  28.097  29.666  1.00  0.00    -0.200 F 
ATOM     97  C   UNL A   1      50.408  27.217  31.685  1.00  0.00     0.200 A 
ATOM     98  F   UNL A   1      49.507  26.336  33.682  1.00  0.00    -0.200 F 
ATOM     99  F   UNL A   1      51.645  26.896  32.085  1.00  0.00    -0.200 F 
ENDBRANCH  66  89
ENDBRANCH  40  41
ENDBRANCH  32  35
ENDBRANCH  30  31
ENDBRANCH  29  30
ENDBRANCH   1  29
TORSDOF 14
ENDMDL
MODEL 3
REMARK VINA RESULT:     -11.4      1.300      2.180
REMARK SMILES CC(C)c1cc(C2CC[NH+](Cc3c[nH]nc3C(=O)NCCCNC(=O)c3ccc(-c4c5nc(c(-c6c(F)c(F)c(F)c(F)c6F)c6ccc([nH]6)c(-c6c(F)c(F)c(F)c(F)c6F)c6nc(c(-c7c(F)c(F)c(F)c(F)c7F)c7ccc4[nH]7)C=C6)C=C5)cc3)CC2)n[nH]1
REMARK SMILES IDX 20 1 19 2 17 3 18 4 16 6 12 7 13 8 14 9 15 10 11 12 10 13
REMARK SMILES IDX 7 14 8 15 90 16 9 17 89 18 6 20 4 21 5 22 92 23 91 24 2 26
REMARK SMILES IDX 1 27 3 28 21 29 22 30 23 31 24 32 25 34 26 35 27 36 88 37
REMARK SMILES IDX 28 38 87 39 29 40 30 41 31 42 81 43 32 44 86 45 80 46 82 47
REMARK SMILES IDX 33 48 85 49 79 50 78 51 34 53 66 54 46 55 65 56 47 57 50 58
REMARK SMILES IDX 64 59 83 60 48 61 49 62 63 64 84 65 51 66 35 67 36 68 44 69
REMARK SMILES IDX 37 70 38 71 42 72 45 73 39 74 40 75 43 76 41 77 67 78 68 79
REMARK SMILES IDX 76 80 69 81 70 82 74 83 77 84 71 85 72 86 75 87 73 88 52 89
REMARK SMILES IDX 53 90 61 91 54 92 55 93 59 94 62 95 56 96 57 97 60 98 58 99
REMARK H PARENT 19 5 14 11 10 19 92 25 23 33 82 52 50 63
REMARK Flexibility Score: inf
ROOT
ATOM      1  C   UNL A   1      42.270  20.373  27.724  1.00  0.00     0.118 C 
ENDROOT
BRANCH   1   2
ATOM      2  N   UNL A   1      42.105  19.136  27.010  1.00  0.00    -0.351 N 
ATOM      3  C   UNL A   1      42.867  18.411  26.136  1.00  0.00     0.272 C 
ATOM      4  O   UNL A   1      42.268  17.404  25.727  1.00  0.00    -0.267 OA
ATOM      5  H   UNL A   1      41.236  18.710  27.193  1.00  0.00     0.163 HD
BRANCH   3   6
ATOM      6  C   UNL A   1      44.273  18.686  25.713  1.00  0.00     0.158 A 
ATOM      7  C   UNL A   1      44.998  19.700  24.958  1.00  0.00     0.057 A 
ATOM      8  C   UNL A   1      46.315  19.263  24.973  1.00  0.00     0.115 A 
ATOM      9  N   UNL A   1      46.334  18.079  25.620  1.00  0.00    -0.284 N 
ATOM     10  N   UNL A   1      45.149  17.720  26.086  1.00  0.00    -0.170 NA
ATOM     11  H   UNL A   1      47.147  17.536  25.733  1.00  0.00     0.189 HD
BRANCH   7  12
ATOM     12  C   UNL A   1      44.608  20.968  24.269  1.00  0.00     0.303 C 
BRANCH  12  13
ATOM     13  N   UNL A   1      44.448  22.138  25.143  1.00  0.00    -0.331 N 
ATOM     14  C   UNL A   1      44.635  24.770  26.414  1.00  0.00     0.051 C 
ATOM     15  C   UNL A   1      45.339  23.532  26.983  1.00  0.00     0.071 C 
ATOM     16  C   UNL A   1      43.459  24.358  25.525  1.00  0.00     0.071 C 
ATOM     17  C   UNL A   1      45.638  22.460  25.931  1.00  0.00     0.263 C 
ATOM     18  C   UNL A   1      43.856  23.305  24.497  1.00  0.00     0.263 C 
ATOM     19  H   UNL A   1      43.748  21.834  25.820  1.00  0.00     0.348 HD
BRANCH  14  20
ATOM     20  C   UNL A   1      45.568  25.730  25.721  1.00  0.00     0.066 A 
ATOM     21  C   UNL A   1      47.319  26.798  24.857  1.00  0.00     0.038 A 
ATOM     22  C   UNL A   1      46.981  25.730  25.658  1.00  0.00     0.049 A 
ATOM     23  N   UNL A   1      46.129  27.373  24.507  1.00  0.00    -0.282 N 
ATOM     24  N   UNL A   1      45.057  26.747  25.014  1.00  0.00    -0.180 NA
ATOM     25  H   UNL A   1      46.065  28.173  23.937  1.00  0.00     0.190 HD
BRANCH  21  26
ATOM     26  C   UNL A   1      48.659  27.302  24.426  1.00  0.00     0.031 C 
ATOM     27  C   UNL A   1      49.798  26.403  24.903  1.00  0.00     0.014 C 
ATOM     28  C   UNL A   1      48.698  27.485  22.909  1.00  0.00     0.014 C 
ENDBRANCH  21  26
ENDBRANCH  14  20
ENDBRANCH  12  13
ENDBRANCH   7  12
ENDBRANCH   3   6
ENDBRANCH   1   2
BRANCH   1  29
ATOM     29  C   UNL A   1      41.025  21.237  27.544  1.00  0.00     0.042 C 
BRANCH  29  30
ATOM     30  C   UNL A   1      40.839  21.752  26.130  1.00  0.00     0.118 C 
BRANCH  30  31
ATOM     31  N   UNL A   1      39.441  21.975  25.809  1.00  0.00    -0.352 N 
ATOM     32  C   UNL A   1      38.622  23.033  26.110  1.00  0.00     0.251 C 
ATOM     33  H   UNL A   1      39.014  21.252  25.297  1.00  0.00     0.163 HD
ATOM     34  O   UNL A   1      37.420  22.937  25.888  1.00  0.00    -0.269 OA
BRANCH  32  35
ATOM     35  C   UNL A   1      39.166  24.274  26.707  1.00  0.00     0.039 A 
ATOM     36  C   UNL A   1      38.919  24.525  28.060  1.00  0.00     0.014 A 
ATOM     37  C   UNL A   1      39.870  25.213  25.948  1.00  0.00     0.014 A 
ATOM     38  C   UNL A   1      39.388  25.701  28.647  1.00  0.00     0.010 A 
ATOM     39  C   UNL A   1      40.443  26.320  26.562  1.00  0.00     0.010 A 
ATOM     40  C   UNL A   1      40.167  26.603  27.905  1.00  0.00    -0.014 A 
BRANCH  40  41
ATOM     41  C   UNL A   1      40.621  27.889  28.490  1.00  0.00     0.031 A 
ATOM     42  C   UNL A   1      42.082  28.092  28.799  1.00  0.00     0.074 A 
ATOM     43  C   UNL A   1      39.726  28.854  28.770  1.00  0.00     0.049 A 
ATOM     44  N   UNL A   1      42.682  29.121  29.343  1.00  0.00    -0.248 NA
ATOM     45  C   UNL A   1      42.990  26.973  28.489  1.00  0.00     0.031 C 
ATOM     46  C   UNL A   1      38.280  28.753  28.568  1.00  0.00     0.029 A 
ATOM     47  N   UNL A   1      39.902  30.113  29.287  1.00  0.00    -0.354 N 
ATOM     48  C   UNL A   1      44.019  28.762  29.456  1.00  0.00     0.074 A 
ATOM     49  C   UNL A   1      44.133  27.396  29.002  1.00  0.00     0.031 C 
ATOM     50  C   UNL A   1      37.705  29.914  28.919  1.00  0.00     0.029 A 
ATOM     51  C   UNL A   1      38.735  30.825  29.408  1.00  0.00     0.049 A 
ATOM     52  H   UNL A   1      40.781  30.470  29.546  1.00  0.00     0.167 HD
ATOM     53  C   UNL A   1      45.067  29.516  29.866  1.00  0.00     0.037 A 
ATOM     54  C   UNL A   1      38.524  32.075  29.862  1.00  0.00     0.037 A 
ATOM     55  C   UNL A   1      44.950  30.887  30.285  1.00  0.00     0.049 A 
ATOM     56  C   UNL A   1      39.707  32.898  30.300  1.00  0.00     0.074 A 
ATOM     57  C   UNL A   1      45.950  31.760  30.672  1.00  0.00     0.029 A 
ATOM     58  N   UNL A   1      43.754  31.585  30.366  1.00  0.00    -0.354 N 
ATOM     59  N   UNL A   1      40.976  32.571  30.340  1.00  0.00    -0.248 NA
ATOM     60  C   UNL A   1      39.427  34.271  30.740  1.00  0.00     0.031 C 
ATOM     61  C   UNL A   1      45.353  32.970  31.037  1.00  0.00     0.029 A 
ATOM     62  C   UNL A   1      43.989  32.874  30.811  1.00  0.00     0.049 A 
ATOM     63  H   UNL A   1      42.869  31.217  30.139  1.00  0.00     0.167 HD
ATOM     64  C   UNL A   1      41.650  33.708  30.769  1.00  0.00     0.074 A 
ATOM     65  C   UNL A   1      40.648  34.735  30.963  1.00  0.00     0.031 C 
ATOM     66  C   UNL A   1      42.978  33.887  30.980  1.00  0.00     0.037 A 
BRANCH  53  67
ATOM     67  C   UNL A   1      46.426  28.872  29.874  1.00  0.00     0.064 A 
ATOM     68  C   UNL A   1      46.937  28.238  31.019  1.00  0.00     0.173 A 
ATOM     69  C   UNL A   1      47.222  28.873  28.718  1.00  0.00     0.173 A 
ATOM     70  F   UNL A   1      46.225  28.219  32.156  1.00  0.00    -0.203 F 
ATOM     71  C   UNL A   1      48.207  27.666  31.017  1.00  0.00     0.198 A 
ATOM     72  C   UNL A   1      48.475  28.267  28.710  1.00  0.00     0.198 A 
ATOM     73  F   UNL A   1      46.784  29.460  27.595  1.00  0.00    -0.203 F 
ATOM     74  F   UNL A   1      48.698  27.126  32.141  1.00  0.00    -0.200 F 
ATOM     75  C   UNL A   1      48.972  27.673  29.861  1.00  0.00     0.200 A 
ATOM     76  F   UNL A   1      49.208  28.261  27.588  1.00  0.00    -0.200 F 
ATOM     77  F   UNL A   1      50.191  27.117  29.859  1.00  0.00    -0.200 F 
ENDBRANCH  53  67
BRANCH  54  78
ATOM     78  C   UNL A   1      37.148  32.638  29.885  1.00  0.00     0.064 A 
ATOM     79  C   UNL A   1      36.319  32.474  31.004  1.00  0.00     0.173 A 
ATOM     80  C   UNL A   1      36.628  33.342  28.789  1.00  0.00     0.173 A 
ATOM     81  F   UNL A   1      36.763  31.793  32.072  1.00  0.00    -0.203 F 
ATOM     82  C   UNL A   1      35.015  32.965  31.014  1.00  0.00     0.198 A 
ATOM     83  C   UNL A   1      35.335  33.862  28.813  1.00  0.00     0.198 A 
ATOM     84  F   UNL A   1      37.382  33.535  27.696  1.00  0.00    -0.203 F 
ATOM     85  F   UNL A   1      34.228  32.745  32.076  1.00  0.00    -0.200 F 
ATOM     86  C   UNL A   1      34.527  33.664  29.921  1.00  0.00     0.200 A 
ATOM     87  F   UNL A   1      34.873  34.551  27.762  1.00  0.00    -0.200 F 
ATOM     88  F   UNL A   1      33.273  34.137  29.932  1.00  0.00    -0.200 F 
ENDBRANCH  54  78
BRANCH  66  89
ATOM     89  C   UNL A   1      43.431  35.263  31.381  1.00  0.00     0.064 A 
ATOM     90  C   UNL A   1      43.481  35.669  32.721  1.00  0.00     0.173 A 
ATOM     91  C   UNL A   1      43.849  36.178  30.401  1.00  0.00     0.173 A 
ATOM     92  F   UNL A   1      43.083  34.836  33.696  1.00  0.00    -0.203 F 
ATOM     93  C   UNL A   1      43.895  36.954  33.065  1.00  0.00     0.198 A 
ATOM     94  C   UNL A   1      44.298  37.447  30.751  1.00  0.00     0.198 A 
ATOM     95  F   UNL A   1      43.832  35.836  29.104  1.00  0.00    -0.203 F 
ATOM     96  F   UNL A   1      43.873  37.341  34.347  1.00  0.00    -0.200 F 
ATOM     97  C   UNL A   1      44.309  37.839  32.081  1.00  0.00     0.200 A 
ATOM     98  F   UNL A   1      44.717  38.293  29.799  1.00  0.00    -0.200 F 
ATOM     99  F   UNL A   1      44.710  39.073  32.413  1.00  0.00    -0.200 F 
ENDBRANCH  66  89
ENDBRANCH  40  41
ENDBRANCH  32  35
ENDBRANCH  30  31
ENDBRANCH  29  30
ENDBRANCH   1  29
TORSDOF 14
ENDMDL
