MODEL 1
REMARK VINA RESULT:     -14.8      0.000      0.000
REMARK SMILES Cc1c(CC(=O)N[C@@H](C)C(=O)NCCCNC(=O)c2ccc(-c3c4nc(c(-c5c(F)c(F)c(F)c(F)c5F)c5ccc([nH]5)c(-c5c(F)c(F)c(F)c(F)c5F)c5nc(c(-c6c(F)c(F)c(F)c(F)c6F)c6ccc3[nH]6)C=C5)C=C4)cc2)c(=O)oc2cc3oc4c(c3cc12)CCCC4
REMARK SMILES IDX 13 1 12 2 10 3 11 4 8 6 9 7 7 8 5 9 6 10 4 12 3 13 1 14 2 15
REMARK SMILES IDX 93 16 82 17 85 18 92 19 83 20 84 21 86 22 91 23 87 24 90 25
REMARK SMILES IDX 88 26 89 27 94 28 97 29 95 30 96 31 14 32 15 33 16 34 17 35
REMARK SMILES IDX 18 37 19 38 20 39 81 40 21 41 80 42 22 43 23 44 24 45 74 46
REMARK SMILES IDX 25 47 79 48 73 49 75 50 26 51 78 52 72 53 71 54 27 56 59 57
REMARK SMILES IDX 39 58 58 59 40 60 43 61 57 62 76 63 41 64 42 65 56 67 77 68
REMARK SMILES IDX 44 69 28 70 29 71 37 72 30 73 31 74 35 75 38 76 32 77 33 78
REMARK SMILES IDX 36 79 34 80 60 81 61 82 69 83 62 84 63 85 67 86 70 87 64 88
REMARK SMILES IDX 65 89 68 90 66 91 45 92 46 93 54 94 47 95 48 96 52 97 55 98
REMARK SMILES IDX 49 99 50 100 53 101 51 102
REMARK H PARENT 12 5 7 11 16 36 75 55 43 66
REMARK Flexibility Score: inf
ROOT
ATOM      1  C   UNL A   1      45.859  19.914  35.503  1.00  0.00     0.117 C 
ENDROOT
BRANCH   1   2
ATOM      2  N   UNL A   1      47.224  19.875  36.001  1.00  0.00    -0.354 N 
ATOM      3  C   UNL A   1      47.743  19.868  37.256  1.00  0.00     0.242 C 
ATOM      4  O   UNL A   1      48.964  20.017  37.359  1.00  0.00    -0.273 OA
ATOM      5  H   UNL A   1      47.905  19.848  35.290  1.00  0.00     0.163 HD
BRANCH   3   6
ATOM      6  C   UNL A   1      46.876  19.619  38.494  1.00  0.00     0.168 C 
ATOM      7  C   UNL A   1      46.718  20.897  39.314  1.00  0.00     0.041 C 
BRANCH   6   8
ATOM      8  N   UNL A   1      47.354  18.486  39.280  1.00  0.00    -0.344 N 
ATOM      9  C   UNL A   1      46.668  17.725  40.184  1.00  0.00     0.225 C 
ATOM     10  O   UNL A   1      47.224  16.719  40.631  1.00  0.00    -0.275 OA
ATOM     11  H   UNL A   1      48.297  18.237  39.141  1.00  0.00     0.164 HD
BRANCH   9  12
ATOM     12  C   UNL A   1      45.270  18.132  40.648  1.00  0.00     0.143 C 
BRANCH  12  13
ATOM     13  C   UNL A   1      44.371  16.925  40.782  1.00  0.00     0.051 A 
ATOM     14  C   UNL A   1      45.087  16.411  43.144  1.00  0.00     0.046 C 
ATOM     15  C   UNL A   1      44.204  16.238  41.931  1.00  0.00    -0.029 A 
ATOM     16  C   UNL A   1      43.143  15.222  42.001  1.00  0.00     0.022 A 
ATOM     17  C   UNL A   1      43.615  16.572  39.549  1.00  0.00     0.340 A 
ATOM     18  C   UNL A   1      42.477  14.847  40.832  1.00  0.00     0.142 A 
ATOM     19  C   UNL A   1      42.861  14.545  43.191  1.00  0.00     0.024 A 
ATOM     20  O   UNL A   1      43.797  17.164  38.491  1.00  0.00    -0.246 OA
ATOM     21  O   UNL A   1      42.688  15.549  39.634  1.00  0.00    -0.422 OA
ATOM     22  C   UNL A   1      41.652  13.721  40.737  1.00  0.00     0.095 A 
ATOM     23  C   UNL A   1      42.210  13.310  43.091  1.00  0.00     0.025 A 
ATOM     24  C   UNL A   1      41.680  12.916  41.865  1.00  0.00     0.138 A 
ATOM     25  C   UNL A   1      42.221  12.159  43.912  1.00  0.00     0.001 A 
ATOM     26  O   UNL A   1      41.397  11.581  41.880  1.00  0.00    -0.461 OA
ATOM     27  C   UNL A   1      41.910  11.128  43.051  1.00  0.00     0.108 A 
ATOM     28  C   UNL A   1      43.028  11.883  45.128  1.00  0.00     0.040 C 
ATOM     29  C   UNL A   1      42.650   9.837  43.078  1.00  0.00     0.076 C 
ATOM     30  C   UNL A   1      44.280  11.073  44.719  1.00  0.00     0.005 C 
ATOM     31  C   UNL A   1      44.119  10.213  43.428  1.00  0.00     0.008 C 
ENDBRANCH  12  13
ENDBRANCH   9  12
ENDBRANCH   6   8
ENDBRANCH   3   6
ENDBRANCH   1   2
BRANCH   1  32
ATOM     32  C   UNL A   1      45.579  21.223  34.773  1.00  0.00     0.042 C 
BRANCH  32  33
ATOM     33  C   UNL A   1      45.508  22.427  35.713  1.00  0.00     0.118 C 
BRANCH  33  34
ATOM     34  N   UNL A   1      44.153  22.867  36.005  1.00  0.00    -0.352 N 
ATOM     35  C   UNL A   1      43.365  23.772  35.322  1.00  0.00     0.251 C 
ATOM     36  H   UNL A   1      43.739  22.463  36.801  1.00  0.00     0.163 HD
ATOM     37  O   UNL A   1      42.264  24.083  35.729  1.00  0.00    -0.269 OA
BRANCH  35  38
ATOM     38  C   UNL A   1      43.932  24.416  34.121  1.00  0.00     0.039 A 
ATOM     39  C   UNL A   1      44.464  25.706  34.194  1.00  0.00     0.014 A 
ATOM     40  C   UNL A   1      43.827  23.747  32.900  1.00  0.00     0.014 A 
ATOM     41  C   UNL A   1      44.746  26.394  33.024  1.00  0.00     0.010 A 
ATOM     42  C   UNL A   1      44.155  24.421  31.729  1.00  0.00     0.010 A 
ATOM     43  C   UNL A   1      44.572  25.759  31.791  1.00  0.00    -0.014 A 
BRANCH  43  44
ATOM     44  C   UNL A   1      44.908  26.514  30.582  1.00  0.00     0.031 A 
ATOM     45  C   UNL A   1      44.888  25.703  29.338  1.00  0.00     0.074 A 
ATOM     46  C   UNL A   1      44.769  27.853  30.502  1.00  0.00     0.049 A 
ATOM     47  N   UNL A   1      43.777  25.433  28.718  1.00  0.00    -0.248 NA
ATOM     48  C   UNL A   1      46.040  24.944  28.862  1.00  0.00     0.031 C 
ATOM     49  C   UNL A   1      43.928  28.658  31.395  1.00  0.00     0.029 A 
ATOM     50  N   UNL A   1      45.154  28.730  29.517  1.00  0.00    -0.354 N 
ATOM     51  C   UNL A   1      44.052  24.420  27.826  1.00  0.00     0.074 A 
ATOM     52  C   UNL A   1      45.474  24.169  27.924  1.00  0.00     0.031 C 
ATOM     53  C   UNL A   1      43.699  29.851  30.809  1.00  0.00     0.029 A 
ATOM     54  C   UNL A   1      44.501  29.956  29.593  1.00  0.00     0.049 A 
ATOM     55  H   UNL A   1      45.824  28.513  28.829  1.00  0.00     0.167 HD
ATOM     56  C   UNL A   1      43.087  23.824  27.082  1.00  0.00     0.037 A 
ATOM     57  C   UNL A   1      44.159  30.739  28.535  1.00  0.00     0.037 A 
ATOM     58  C   UNL A   1      41.753  24.301  27.279  1.00  0.00     0.049 A 
ATOM     59  C   UNL A   1      43.270  29.818  27.732  1.00  0.00     0.074 A 
ATOM     60  C   UNL A   1      40.663  23.946  28.045  1.00  0.00     0.029 A 
ATOM     61  N   UNL A   1      41.379  25.463  26.648  1.00  0.00    -0.354 N 
ATOM     62  N   UNL A   1      42.002  29.589  27.946  1.00  0.00    -0.248 NA
ATOM     63  C   UNL A   1      43.917  28.869  26.823  1.00  0.00     0.031 C 
ATOM     64  C   UNL A   1      39.883  25.138  28.176  1.00  0.00     0.029 A 
ATOM     65  C   UNL A   1      40.583  26.154  27.526  1.00  0.00     0.049 A 
ATOM     66  H   UNL A   1      41.635  25.746  25.740  1.00  0.00     0.167 HD
ATOM     67  C   UNL A   1      41.758  28.326  27.403  1.00  0.00     0.074 A 
ATOM     68  C   UNL A   1      42.972  27.946  26.714  1.00  0.00     0.031 C 
ATOM     69  C   UNL A   1      40.648  27.586  27.685  1.00  0.00     0.037 A 
BRANCH  56  70
ATOM     70  C   UNL A   1      43.359  22.847  26.020  1.00  0.00     0.064 A 
ATOM     71  C   UNL A   1      43.232  21.488  26.330  1.00  0.00     0.173 A 
ATOM     72  C   UNL A   1      43.921  23.207  24.793  1.00  0.00     0.173 A 
ATOM     73  F   UNL A   1      42.711  21.117  27.512  1.00  0.00    -0.203 F 
ATOM     74  C   UNL A   1      43.687  20.512  25.455  1.00  0.00     0.198 A 
ATOM     75  C   UNL A   1      44.373  22.226  23.914  1.00  0.00     0.198 A 
ATOM     76  F   UNL A   1      44.070  24.499  24.467  1.00  0.00    -0.203 F 
ATOM     77  F   UNL A   1      43.593  19.220  25.793  1.00  0.00    -0.200 F 
ATOM     78  C   UNL A   1      44.268  20.881  24.251  1.00  0.00     0.200 A 
ATOM     79  F   UNL A   1      44.940  22.578  22.751  1.00  0.00    -0.200 F 
ATOM     80  F   UNL A   1      44.740  19.941  23.422  1.00  0.00    -0.200 F 
ENDBRANCH  56  70
BRANCH  57  81
ATOM     81  C   UNL A   1      45.288  31.514  27.920  1.00  0.00     0.064 A 
ATOM     82  C   UNL A   1      45.119  32.890  27.651  1.00  0.00     0.173 A 
ATOM     83  C   UNL A   1      46.531  30.970  27.562  1.00  0.00     0.173 A 
ATOM     84  F   UNL A   1      43.929  33.477  27.849  1.00  0.00    -0.203 F 
ATOM     85  C   UNL A   1      46.162  33.686  27.174  1.00  0.00     0.198 A 
ATOM     86  C   UNL A   1      47.583  31.770  27.111  1.00  0.00     0.198 A 
ATOM     87  F   UNL A   1      46.760  29.653  27.653  1.00  0.00    -0.203 F 
ATOM     88  F   UNL A   1      45.963  34.995  26.965  1.00  0.00    -0.200 F 
ATOM     89  C   UNL A   1      47.403  33.130  26.932  1.00  0.00     0.200 A 
ATOM     90  F   UNL A   1      48.779  31.217  26.866  1.00  0.00    -0.200 F 
ATOM     91  F   UNL A   1      48.422  33.898  26.521  1.00  0.00    -0.200 F 
ENDBRANCH  57  81
BRANCH  69  92
ATOM     92  C   UNL A   1      39.562  28.297  28.409  1.00  0.00     0.064 A 
ATOM     93  C   UNL A   1      38.687  29.130  27.700  1.00  0.00     0.173 A 
ATOM     94  C   UNL A   1      39.336  28.110  29.780  1.00  0.00     0.173 A 
ATOM     95  F   UNL A   1      38.860  29.328  26.383  1.00  0.00    -0.203 F 
ATOM     96  C   UNL A   1      37.605  29.732  28.334  1.00  0.00     0.198 A 
ATOM     97  C   UNL A   1      38.242  28.698  30.406  1.00  0.00     0.198 A 
ATOM     98  F   UNL A   1      40.149  27.331  30.509  1.00  0.00    -0.203 F 
ATOM     99  F   UNL A   1      36.768  30.510  27.635  1.00  0.00    -0.200 F 
ATOM    100  C   UNL A   1      37.376  29.505  29.683  1.00  0.00     0.200 A 
ATOM    101  F   UNL A   1      38.009  28.465  31.706  1.00  0.00    -0.200 F 
ATOM    102  F   UNL A   1      36.310  30.052  30.284  1.00  0.00    -0.200 F 
ENDBRANCH  69  92
ENDBRANCH  43  44
ENDBRANCH  35  38
ENDBRANCH  33  34
ENDBRANCH  32  33
ENDBRANCH   1  32
TORSDOF 13
ENDMDL
MODEL 2
REMARK VINA RESULT:     -14.4      9.121     13.793
REMARK SMILES Cc1c(CC(=O)N[C@@H](C)C(=O)NCCCNC(=O)c2ccc(-c3c4nc(c(-c5c(F)c(F)c(F)c(F)c5F)c5ccc([nH]5)c(-c5c(F)c(F)c(F)c(F)c5F)c5nc(c(-c6c(F)c(F)c(F)c(F)c6F)c6ccc3[nH]6)C=C5)C=C4)cc2)c(=O)oc2cc3oc4c(c3cc12)CCCC4
REMARK SMILES IDX 13 1 12 2 10 3 11 4 8 6 9 7 7 8 5 9 6 10 4 12 3 13 1 14 2 15
REMARK SMILES IDX 93 16 82 17 85 18 92 19 83 20 84 21 86 22 91 23 87 24 90 25
REMARK SMILES IDX 88 26 89 27 94 28 97 29 95 30 96 31 14 32 15 33 16 34 17 35
REMARK SMILES IDX 18 37 19 38 20 39 81 40 21 41 80 42 22 43 23 44 24 45 74 46
REMARK SMILES IDX 25 47 79 48 73 49 75 50 26 51 78 52 72 53 71 54 27 56 59 57
REMARK SMILES IDX 39 58 58 59 40 60 43 61 57 62 76 63 41 64 42 65 56 67 77 68
REMARK SMILES IDX 44 69 28 70 29 71 37 72 30 73 31 74 35 75 38 76 32 77 33 78
REMARK SMILES IDX 36 79 34 80 60 81 61 82 69 83 62 84 63 85 67 86 70 87 64 88
REMARK SMILES IDX 65 89 68 90 66 91 45 92 46 93 54 94 47 95 48 96 52 97 55 98
REMARK SMILES IDX 49 99 50 100 53 101 51 102
REMARK H PARENT 12 5 7 11 16 36 75 55 43 66
REMARK Flexibility Score: inf
ROOT
ATOM      1  C   UNL A   1      32.380  30.019  25.849  1.00  0.00     0.117 C 
ENDROOT
BRANCH   1   2
ATOM      2  N   UNL A   1      33.294  29.683  24.770  1.00  0.00    -0.354 N 
ATOM      3  C   UNL A   1      33.324  28.661  23.877  1.00  0.00     0.242 C 
ATOM      4  O   UNL A   1      34.342  28.546  23.189  1.00  0.00    -0.273 OA
ATOM      5  H   UNL A   1      34.037  30.321  24.668  1.00  0.00     0.163 HD
BRANCH   3   6
ATOM      6  C   UNL A   1      32.129  27.725  23.672  1.00  0.00     0.168 C 
ATOM      7  C   UNL A   1      30.969  28.460  23.004  1.00  0.00     0.041 C 
BRANCH   6   8
ATOM      8  N   UNL A   1      31.745  27.047  24.907  1.00  0.00    -0.344 N 
ATOM      9  C   UNL A   1      32.425  26.081  25.595  1.00  0.00     0.225 C 
ATOM     10  O   UNL A   1      31.989  25.745  26.698  1.00  0.00    -0.275 OA
ATOM     11  H   UNL A   1      30.883  27.320  25.295  1.00  0.00     0.164 HD
BRANCH   9  12
ATOM     12  C   UNL A   1      33.665  25.418  24.995  1.00  0.00     0.143 C 
BRANCH  12  13
ATOM     13  C   UNL A   1      33.306  24.123  24.306  1.00  0.00     0.051 A 
ATOM     14  C   UNL A   1      33.438  22.740  26.410  1.00  0.00     0.046 C 
ATOM     15  C   UNL A   1      33.089  22.961  24.957  1.00  0.00    -0.029 A 
ATOM     16  C   UNL A   1      32.533  21.823  24.209  1.00  0.00     0.022 A 
ATOM     17  C   UNL A   1      33.144  24.228  22.829  1.00  0.00     0.340 A 
ATOM     18  C   UNL A   1      32.439  21.899  22.818  1.00  0.00     0.142 A 
ATOM     19  C   UNL A   1      32.200  20.626  24.849  1.00  0.00     0.024 A 
ATOM     20  O   UNL A   1      33.384  25.268  22.228  1.00  0.00    -0.246 OA
ATOM     21  O   UNL A   1      32.704  23.107  22.150  1.00  0.00    -0.422 OA
ATOM     22  C   UNL A   1      32.182  20.797  21.997  1.00  0.00     0.095 A 
ATOM     23  C   UNL A   1      32.138  19.471  24.061  1.00  0.00     0.025 A 
ATOM     24  C   UNL A   1      32.186  19.587  22.674  1.00  0.00     0.138 A 
ATOM     25  C   UNL A   1      32.351  18.105  24.357  1.00  0.00     0.001 A 
ATOM     26  O   UNL A   1      32.451  18.374  22.107  1.00  0.00    -0.461 OA
ATOM     27  C   UNL A   1      32.731  17.554  23.151  1.00  0.00     0.108 A 
ATOM     28  C   UNL A   1      32.807  17.481  25.625  1.00  0.00     0.040 C 
ATOM     29  C   UNL A   1      33.869  16.600  23.050  1.00  0.00     0.076 C 
ATOM     30  C   UNL A   1      34.334  17.256  25.547  1.00  0.00     0.005 C 
ATOM     31  C   UNL A   1      34.905  17.086  24.105  1.00  0.00     0.008 C 
ENDBRANCH  12  13
ENDBRANCH   9  12
ENDBRANCH   6   8
ENDBRANCH   3   6
ENDBRANCH   1   2
BRANCH   1  32
ATOM     32  C   UNL A   1      32.911  29.528  27.192  1.00  0.00     0.042 C 
BRANCH  32  33
ATOM     33  C   UNL A   1      34.321  30.034  27.497  1.00  0.00     0.118 C 
BRANCH  33  34
ATOM     34  N   UNL A   1      34.478  31.471  27.334  1.00  0.00    -0.352 N 
ATOM     35  C   UNL A   1      35.498  32.292  27.773  1.00  0.00     0.251 C 
ATOM     36  H   UNL A   1      33.756  31.922  26.840  1.00  0.00     0.163 HD
ATOM     37  O   UNL A   1      35.456  33.494  27.609  1.00  0.00    -0.269 OA
BRANCH  35  38
ATOM     38  C   UNL A   1      36.608  31.675  28.524  1.00  0.00     0.039 A 
ATOM     39  C   UNL A   1      37.477  30.779  27.894  1.00  0.00     0.014 A 
ATOM     40  C   UNL A   1      36.702  31.928  29.894  1.00  0.00     0.014 A 
ATOM     41  C   UNL A   1      38.340  30.013  28.663  1.00  0.00     0.010 A 
ATOM     42  C   UNL A   1      37.601  31.193  30.658  1.00  0.00     0.010 A 
ATOM     43  C   UNL A   1      38.387  30.205  30.047  1.00  0.00    -0.014 A 
BRANCH  43  44
ATOM     44  C   UNL A   1      39.333  29.392  30.816  1.00  0.00     0.031 A 
ATOM     45  C   UNL A   1      39.432  27.984  30.356  1.00  0.00     0.074 A 
ATOM     46  C   UNL A   1      40.349  29.934  31.517  1.00  0.00     0.049 A 
ATOM     47  N   UNL A   1      40.161  27.650  29.332  1.00  0.00    -0.248 NA
ATOM     48  C   UNL A   1      38.547  26.925  30.833  1.00  0.00     0.031 C 
ATOM     49  C   UNL A   1      40.886  31.283  31.301  1.00  0.00     0.029 A 
ATOM     50  N   UNL A   1      41.236  29.352  32.390  1.00  0.00    -0.354 N 
ATOM     51  C   UNL A   1      39.787  26.374  28.972  1.00  0.00     0.074 A 
ATOM     52  C   UNL A   1      38.808  25.949  29.949  1.00  0.00     0.031 C 
ATOM     53  C   UNL A   1      42.110  31.353  31.861  1.00  0.00     0.029 A 
ATOM     54  C   UNL A   1      42.372  30.126  32.608  1.00  0.00     0.049 A 
ATOM     55  H   UNL A   1      41.083  28.480  32.818  1.00  0.00     0.167 HD
ATOM     56  C   UNL A   1      40.282  25.754  27.872  1.00  0.00     0.037 A 
ATOM     57  C   UNL A   1      43.622  29.647  32.848  1.00  0.00     0.037 A 
ATOM     58  C   UNL A   1      41.216  26.505  27.091  1.00  0.00     0.049 A 
ATOM     59  C   UNL A   1      43.888  28.817  31.615  1.00  0.00     0.074 A 
ATOM     60  C   UNL A   1      41.169  27.320  25.981  1.00  0.00     0.029 A 
ATOM     61  N   UNL A   1      42.521  26.563  27.519  1.00  0.00    -0.354 N 
ATOM     62  N   UNL A   1      44.303  29.262  30.459  1.00  0.00    -0.248 NA
ATOM     63  C   UNL A   1      43.367  27.448  31.590  1.00  0.00     0.031 C 
ATOM     64  C   UNL A   1      42.322  28.161  26.075  1.00  0.00     0.029 A 
ATOM     65  C   UNL A   1      42.964  27.838  27.269  1.00  0.00     0.049 A 
ATOM     66  H   UNL A   1      43.038  25.832  27.927  1.00  0.00     0.167 HD
ATOM     67  C   UNL A   1      43.860  28.326  29.522  1.00  0.00     0.074 A 
ATOM     68  C   UNL A   1      43.306  27.228  30.284  1.00  0.00     0.031 C 
ATOM     69  C   UNL A   1      43.812  28.567  28.181  1.00  0.00     0.037 A 
BRANCH  56  70
ATOM     70  C   UNL A   1      40.021  24.348  27.538  1.00  0.00     0.064 A 
ATOM     71  C   UNL A   1      40.977  23.397  27.914  1.00  0.00     0.173 A 
ATOM     72  C   UNL A   1      38.975  23.955  26.702  1.00  0.00     0.173 A 
ATOM     73  F   UNL A   1      42.004  23.755  28.703  1.00  0.00    -0.203 F 
ATOM     74  C   UNL A   1      40.912  22.095  27.438  1.00  0.00     0.198 A 
ATOM     75  C   UNL A   1      38.907  22.647  26.229  1.00  0.00     0.198 A 
ATOM     76  F   UNL A   1      38.048  24.842  26.311  1.00  0.00    -0.203 F 
ATOM     77  F   UNL A   1      41.862  21.214  27.778  1.00  0.00    -0.200 F 
ATOM     78  C   UNL A   1      39.882  21.722  26.587  1.00  0.00     0.200 A 
ATOM     79  F   UNL A   1      37.918  22.283  25.402  1.00  0.00    -0.200 F 
ATOM     80  F   UNL A   1      39.838  20.475  26.099  1.00  0.00    -0.200 F 
ENDBRANCH  56  70
BRANCH  57  81
ATOM     81  C   UNL A   1      43.854  29.130  34.238  1.00  0.00     0.064 A 
ATOM     82  C   UNL A   1      45.073  29.417  34.891  1.00  0.00     0.173 A 
ATOM     83  C   UNL A   1      42.943  28.347  34.963  1.00  0.00     0.173 A 
ATOM     84  F   UNL A   1      46.055  30.060  34.240  1.00  0.00    -0.203 F 
ATOM     85  C   UNL A   1      45.308  29.051  36.218  1.00  0.00     0.198 A 
ATOM     86  C   UNL A   1      43.166  28.003  36.299  1.00  0.00     0.198 A 
ATOM     87  F   UNL A   1      41.810  27.906  34.399  1.00  0.00    -0.203 F 
ATOM     88  F   UNL A   1      46.468  29.374  36.805  1.00  0.00    -0.200 F 
ATOM     89  C   UNL A   1      44.341  28.369  36.931  1.00  0.00     0.200 A 
ATOM     90  F   UNL A   1      42.225  27.330  36.976  1.00  0.00    -0.200 F 
ATOM     91  F   UNL A   1      44.541  28.057  38.219  1.00  0.00    -0.200 F 
ENDBRANCH  57  81
BRANCH  69  92
ATOM     92  C   UNL A   1      44.502  29.799  27.719  1.00  0.00     0.064 A 
ATOM     93  C   UNL A   1      45.807  29.715  27.217  1.00  0.00     0.173 A 
ATOM     94  C   UNL A   1      43.863  31.047  27.702  1.00  0.00     0.173 A 
ATOM     95  F   UNL A   1      46.452  28.537  27.203  1.00  0.00    -0.203 F 
ATOM     96  C   UNL A   1      46.441  30.835  26.690  1.00  0.00     0.198 A 
ATOM     97  C   UNL A   1      44.494  32.161  27.157  1.00  0.00     0.198 A 
ATOM     98  F   UNL A   1      42.617  31.186  28.180  1.00  0.00    -0.203 F 
ATOM     99  F   UNL A   1      47.683  30.731  26.197  1.00  0.00    -0.200 F 
ATOM    100  C   UNL A   1      45.780  32.053  26.648  1.00  0.00     0.200 A 
ATOM    101  F   UNL A   1      43.848  33.335  27.100  1.00  0.00    -0.200 F 
ATOM    102  F   UNL A   1      46.376  33.123  26.103  1.00  0.00    -0.200 F 
ENDBRANCH  69  92
ENDBRANCH  43  44
ENDBRANCH  35  38
ENDBRANCH  33  34
ENDBRANCH  32  33
ENDBRANCH   1  32
TORSDOF 13
ENDMDL
MODEL 3
REMARK VINA RESULT:     -13.9      8.926     20.674
REMARK SMILES Cc1c(CC(=O)N[C@@H](C)C(=O)NCCCNC(=O)c2ccc(-c3c4nc(c(-c5c(F)c(F)c(F)c(F)c5F)c5ccc([nH]5)c(-c5c(F)c(F)c(F)c(F)c5F)c5nc(c(-c6c(F)c(F)c(F)c(F)c6F)c6ccc3[nH]6)C=C5)C=C4)cc2)c(=O)oc2cc3oc4c(c3cc12)CCCC4
REMARK SMILES IDX 13 1 12 2 10 3 11 4 8 6 9 7 7 8 5 9 6 10 4 12 3 13 1 14 2 15
REMARK SMILES IDX 93 16 82 17 85 18 92 19 83 20 84 21 86 22 91 23 87 24 90 25
REMARK SMILES IDX 88 26 89 27 94 28 97 29 95 30 96 31 14 32 15 33 16 34 17 35
REMARK SMILES IDX 18 37 19 38 20 39 81 40 21 41 80 42 22 43 23 44 24 45 74 46
REMARK SMILES IDX 25 47 79 48 73 49 75 50 26 51 78 52 72 53 71 54 27 56 59 57
REMARK SMILES IDX 39 58 58 59 40 60 43 61 57 62 76 63 41 64 42 65 56 67 77 68
REMARK SMILES IDX 44 69 28 70 29 71 37 72 30 73 31 74 35 75 38 76 32 77 33 78
REMARK SMILES IDX 36 79 34 80 60 81 61 82 69 83 62 84 63 85 67 86 70 87 64 88
REMARK SMILES IDX 65 89 68 90 66 91 45 92 46 93 54 94 47 95 48 96 52 97 55 98
REMARK SMILES IDX 49 99 50 100 53 101 51 102
REMARK H PARENT 12 5 7 11 16 36 75 55 43 66
REMARK Flexibility Score: inf
ROOT
ATOM      1  C   UNL A   1      43.850  38.158  26.890  1.00  0.00     0.117 C 
ENDROOT
BRANCH   1   2
ATOM      2  N   UNL A   1      43.696  39.225  27.865  1.00  0.00    -0.354 N 
ATOM      3  C   UNL A   1      43.435  40.552  27.740  1.00  0.00     0.242 C 
ATOM      4  O   UNL A   1      43.546  41.244  28.755  1.00  0.00    -0.273 OA
ATOM      5  H   UNL A   1      43.804  38.929  28.798  1.00  0.00     0.163 HD
BRANCH   3   6
ATOM      6  C   UNL A   1      42.956  41.165  26.420  1.00  0.00     0.168 C 
ATOM      7  C   UNL A   1      41.613  40.573  25.999  1.00  0.00     0.041 C 
BRANCH   6   8
ATOM      8  N   UNL A   1      43.974  41.084  25.376  1.00  0.00    -0.344 N 
ATOM      9  C   UNL A   1      44.351  42.040  24.477  1.00  0.00     0.225 C 
ATOM     10  O   UNL A   1      45.337  41.812  23.773  1.00  0.00    -0.275 OA
ATOM     11  H   UNL A   1      44.452  40.225  25.311  1.00  0.00     0.164 HD
BRANCH   9  12
ATOM     12  C   UNL A   1      43.552  43.335  24.329  1.00  0.00     0.143 C 
BRANCH  12  13
ATOM     13  C   UNL A   1      43.045  43.500  22.916  1.00  0.00     0.051 A 
ATOM     14  C   UNL A   1      45.058  44.805  22.139  1.00  0.00     0.046 C 
ATOM     15  C   UNL A   1      43.770  44.047  21.918  1.00  0.00    -0.029 A 
ATOM     16  C   UNL A   1      43.261  43.956  20.541  1.00  0.00     0.022 A 
ATOM     17  C   UNL A   1      41.682  42.950  22.675  1.00  0.00     0.340 A 
ATOM     18  C   UNL A   1      41.960  43.498  20.321  1.00  0.00     0.142 A 
ATOM     19  C   UNL A   1      44.012  44.421  19.457  1.00  0.00     0.024 A 
ATOM     20  O   UNL A   1      41.002  42.494  23.587  1.00  0.00    -0.246 OA
ATOM     21  O   UNL A   1      41.204  42.964  21.378  1.00  0.00    -0.422 OA
ATOM     22  C   UNL A   1      41.291  43.621  19.099  1.00  0.00     0.095 A 
ATOM     23  C   UNL A   1      43.317  44.741  18.284  1.00  0.00     0.025 A 
ATOM     24  C   UNL A   1      41.976  44.384  18.165  1.00  0.00     0.138 A 
ATOM     25  C   UNL A   1      43.581  45.661  17.244  1.00  0.00     0.001 A 
ATOM     26  O   UNL A   1      41.397  45.060  17.131  1.00  0.00    -0.461 OA
ATOM     27  C   UNL A   1      42.336  45.952  16.728  1.00  0.00     0.108 A 
ATOM     28  C   UNL A   1      44.675  46.660  17.131  1.00  0.00     0.040 C 
ATOM     29  C   UNL A   1      41.931  47.347  16.401  1.00  0.00     0.076 C 
ATOM     30  C   UNL A   1      44.150  48.028  17.622  1.00  0.00     0.005 C 
ATOM     31  C   UNL A   1      42.610  48.235  17.484  1.00  0.00     0.008 C 
ENDBRANCH  12  13
ENDBRANCH   9  12
ENDBRANCH   6   8
ENDBRANCH   3   6
ENDBRANCH   1   2
BRANCH   1  32
ATOM     32  C   UNL A   1      42.719  37.141  27.006  1.00  0.00     0.042 C 
BRANCH  32  33
ATOM     33  C   UNL A   1      43.191  35.700  26.812  1.00  0.00     0.118 C 
BRANCH  33  34
ATOM     34  N   UNL A   1      44.111  35.527  25.698  1.00  0.00    -0.352 N 
ATOM     35  C   UNL A   1      45.010  34.507  25.461  1.00  0.00     0.251 C 
ATOM     36  H   UNL A   1      44.089  36.238  25.017  1.00  0.00     0.163 HD
ATOM     37  O   UNL A   1      45.760  34.535  24.506  1.00  0.00    -0.269 OA
BRANCH  35  38
ATOM     38  C   UNL A   1      45.093  33.414  26.449  1.00  0.00     0.039 A 
ATOM     39  C   UNL A   1      44.215  32.329  26.380  1.00  0.00     0.014 A 
ATOM     40  C   UNL A   1      45.997  33.544  27.505  1.00  0.00     0.014 A 
ATOM     41  C   UNL A   1      44.127  31.454  27.452  1.00  0.00     0.010 A 
ATOM     42  C   UNL A   1      45.941  32.639  28.559  1.00  0.00     0.010 A 
ATOM     43  C   UNL A   1      44.975  31.621  28.550  1.00  0.00    -0.014 A 
BRANCH  43  44
ATOM     44  C   UNL A   1      44.866  30.658  29.648  1.00  0.00     0.031 A 
ATOM     45  C   UNL A   1      43.505  30.559  30.233  1.00  0.00     0.074 A 
ATOM     46  C   UNL A   1      45.728  29.632  29.799  1.00  0.00     0.049 A 
ATOM     47  N   UNL A   1      42.572  29.847  29.673  1.00  0.00    -0.248 NA
ATOM     48  C   UNL A   1      43.033  31.430  31.306  1.00  0.00     0.031 C 
ATOM     49  C   UNL A   1      46.593  29.106  28.736  1.00  0.00     0.029 A 
ATOM     50  N   UNL A   1      45.862  28.726  30.824  1.00  0.00    -0.354 N 
ATOM     51  C   UNL A   1      41.380  30.221  30.253  1.00  0.00     0.074 A 
ATOM     52  C   UNL A   1      41.714  31.180  31.283  1.00  0.00     0.031 C 
ATOM     53  C   UNL A   1      47.006  27.872  29.090  1.00  0.00     0.029 A 
ATOM     54  C   UNL A   1      46.578  27.591  30.457  1.00  0.00     0.049 A 
ATOM     55  H   UNL A   1      45.491  28.867  31.724  1.00  0.00     0.167 HD
ATOM     56  C   UNL A   1      40.184  29.742  29.829  1.00  0.00     0.037 A 
ATOM     57  C   UNL A   1      46.367  26.334  30.933  1.00  0.00     0.037 A 
ATOM     58  C   UNL A   1      40.223  28.826  28.731  1.00  0.00     0.049 A 
ATOM     59  C   UNL A   1      44.927  26.086  30.551  1.00  0.00     0.074 A 
ATOM     60  C   UNL A   1      40.101  28.897  27.361  1.00  0.00     0.029 A 
ATOM     61  N   UNL A   1      40.540  27.514  28.992  1.00  0.00    -0.354 N 
ATOM     62  N   UNL A   1      44.494  25.694  29.383  1.00  0.00    -0.248 NA
ATOM     63  C   UNL A   1      43.888  26.600  31.447  1.00  0.00     0.031 C 
ATOM     64  C   UNL A   1      40.786  27.747  26.855  1.00  0.00     0.029 A 
ATOM     65  C   UNL A   1      41.327  27.082  27.954  1.00  0.00     0.049 A 
ATOM     66  H   UNL A   1      40.256  26.986  29.773  1.00  0.00     0.167 HD
ATOM     67  C   UNL A   1      43.175  26.149  29.306  1.00  0.00     0.074 A 
ATOM     68  C   UNL A   1      42.860  26.683  30.613  1.00  0.00     0.031 C 
ATOM     69  C   UNL A   1      42.470  26.222  28.142  1.00  0.00     0.037 A 
BRANCH  56  70
ATOM     70  C   UNL A   1      38.910  30.001  30.513  1.00  0.00     0.064 A 
ATOM     71  C   UNL A   1      38.172  31.125  30.121  1.00  0.00     0.173 A 
ATOM     72  C   UNL A   1      38.510  29.299  31.651  1.00  0.00     0.173 A 
ATOM     73  F   UNL A   1      38.548  31.829  29.040  1.00  0.00    -0.203 F 
ATOM     74  C   UNL A   1      37.085  31.559  30.866  1.00  0.00     0.198 A 
ATOM     75  C   UNL A   1      37.416  29.732  32.395  1.00  0.00     0.198 A 
ATOM     76  F   UNL A   1      39.200  28.225  32.063  1.00  0.00    -0.203 F 
ATOM     77  F   UNL A   1      36.421  32.661  30.495  1.00  0.00    -0.200 F 
ATOM     78  C   UNL A   1      36.713  30.868  32.010  1.00  0.00     0.200 A 
ATOM     79  F   UNL A   1      37.055  29.071  33.504  1.00  0.00    -0.200 F 
ATOM     80  F   UNL A   1      35.685  31.306  32.749  1.00  0.00    -0.200 F 
ENDBRANCH  56  70
BRANCH  57  81
ATOM     81  C   UNL A   1      46.896  26.075  32.313  1.00  0.00     0.064 A 
ATOM     82  C   UNL A   1      47.978  26.842  32.797  1.00  0.00     0.173 A 
ATOM     83  C   UNL A   1      46.405  25.093  33.187  1.00  0.00     0.173 A 
ATOM     84  F   UNL A   1      48.594  27.726  31.996  1.00  0.00    -0.203 F 
ATOM     85  C   UNL A   1      48.450  26.717  34.105  1.00  0.00     0.198 A 
ATOM     86  C   UNL A   1      46.857  24.985  34.504  1.00  0.00     0.198 A 
ATOM     87  F   UNL A   1      45.467  24.222  32.790  1.00  0.00    -0.203 F 
ATOM     88  F   UNL A   1      49.458  27.491  34.529  1.00  0.00    -0.200 F 
ATOM     89  C   UNL A   1      47.868  25.808  34.968  1.00  0.00     0.200 A 
ATOM     90  F   UNL A   1      46.295  24.090  35.328  1.00  0.00    -0.200 F 
ATOM     91  F   UNL A   1      48.284  25.718  36.239  1.00  0.00    -0.200 F 
ENDBRANCH  57  81
BRANCH  69  92
ATOM     92  C   UNL A   1      43.084  25.547  26.969  1.00  0.00     0.064 A 
ATOM     93  C   UNL A   1      44.143  26.165  26.290  1.00  0.00     0.173 A 
ATOM     94  C   UNL A   1      42.685  24.269  26.554  1.00  0.00     0.173 A 
ATOM     95  F   UNL A   1      44.565  27.384  26.662  1.00  0.00    -0.203 F 
ATOM     96  C   UNL A   1      44.798  25.514  25.250  1.00  0.00     0.198 A 
ATOM     97  C   UNL A   1      43.355  23.614  25.526  1.00  0.00     0.198 A 
ATOM     98  F   UNL A   1      41.670  23.636  27.162  1.00  0.00    -0.203 F 
ATOM     99  F   UNL A   1      45.821  26.113  24.625  1.00  0.00    -0.200 F 
ATOM    100  C   UNL A   1      44.413  24.235  24.878  1.00  0.00     0.200 A 
ATOM    101  F   UNL A   1      42.995  22.370  25.177  1.00  0.00    -0.200 F 
ATOM    102  F   UNL A   1      45.071  23.592  23.903  1.00  0.00    -0.200 F 
ENDBRANCH  69  92
ENDBRANCH  43  44
ENDBRANCH  35  38
ENDBRANCH  33  34
ENDBRANCH  32  33
ENDBRANCH   1  32
TORSDOF 13
ENDMDL
