MODEL 1
REMARK VINA RESULT:     -12.0      0.000      0.000
REMARK SMILES CC[C@](C)(C(=O)NCCCNC(=O)c1ccc(-c2c3nc(c(-c4c(F)c(F)c(F)c(F)c4F)c4ccc([nH]4)c(-c4c(F)c(F)c(F)c(F)c4F)c4nc(c(-c5c(F)c(F)c(F)c(F)c5F)c5ccc2[nH]5)C=C4)C=C3)cc1)n1nnnc1-c1ccc(C)cc1C
REMARK SMILES IDX 9 1 8 2 7 3 5 4 6 5 3 7 4 8 2 9 1 10 77 11 78 12 81 13 79 14
REMARK SMILES IDX 80 15 82 16 83 17 88 18 84 19 87 20 89 21 85 22 86 23 10 24
REMARK SMILES IDX 11 25 12 26 13 28 14 29 15 30 76 31 16 32 75 33 17 34 18 35
REMARK SMILES IDX 19 36 69 37 20 38 74 39 68 40 70 41 21 42 73 43 67 44 66 45
REMARK SMILES IDX 22 47 54 48 34 49 53 50 35 51 38 52 52 53 71 54 36 55 37 56
REMARK SMILES IDX 51 58 72 59 39 60 23 61 24 62 32 63 25 64 26 65 30 66 33 67
REMARK SMILES IDX 27 68 28 69 31 70 29 71 55 72 56 73 64 74 57 75 58 76 62 77
REMARK SMILES IDX 65 78 59 79 60 80 63 81 61 82 40 83 41 84 49 85 42 86 43 87
REMARK SMILES IDX 47 88 50 89 44 90 45 91 48 92 46 93
REMARK H PARENT 7 6 11 27 70 46 38 57
REMARK Flexibility Score: inf
ROOT
ATOM      1  C   UNL A   1      35.616  24.056  24.636  1.00  0.00     0.042 C 
ENDROOT
BRANCH   1   2
ATOM      2  C   UNL A   1      34.234  23.444  24.671  1.00  0.00     0.117 C 
BRANCH   2   3
ATOM      3  N   UNL A   1      33.405  23.965  25.740  1.00  0.00    -0.354 N 
ATOM      4  C   UNL A   1      32.160  24.544  25.732  1.00  0.00     0.247 C 
ATOM      5  O   UNL A   1      31.692  24.694  26.861  1.00  0.00    -0.272 OA
ATOM      6  H   UNL A   1      33.809  23.892  26.635  1.00  0.00     0.163 HD
BRANCH   4   7
ATOM      7  C   UNL A   1      31.445  24.940  24.388  1.00  0.00     0.142 C 
ATOM      8  C   UNL A   1      30.913  23.626  23.776  1.00  0.00     0.048 C 
BRANCH   7   9
ATOM      9  C   UNL A   1      30.369  26.010  24.778  1.00  0.00     0.037 C 
ATOM     10  C   UNL A   1      29.222  26.264  23.799  1.00  0.00     0.007 C 
ENDBRANCH   7   9
BRANCH   7  11
ATOM     11  N   UNL A   1      32.384  25.526  23.382  1.00  0.00    -0.210 N 
ATOM     12  N   UNL A   1      32.464  25.028  22.129  1.00  0.00    -0.044 NA
ATOM     13  C   UNL A   1      33.143  26.696  23.418  1.00  0.00     0.183 A 
ATOM     14  N   UNL A   1      33.321  25.788  21.473  1.00  0.00    -0.023 NA
ATOM     15  N   UNL A   1      33.739  26.826  22.248  1.00  0.00    -0.108 NA
BRANCH  13  16
ATOM     16  C   UNL A   1      33.196  27.703  24.471  1.00  0.00     0.024 A 
ATOM     17  C   UNL A   1      34.039  27.447  25.566  1.00  0.00     0.012 A 
ATOM     18  C   UNL A   1      32.434  28.886  24.455  1.00  0.00    -0.040 A 
ATOM     19  C   UNL A   1      34.228  28.402  26.565  1.00  0.00     0.004 A 
ATOM     20  C   UNL A   1      32.659  29.853  25.455  1.00  0.00     0.007 A 
ATOM     21  C   UNL A   1      31.398  29.202  23.410  1.00  0.00     0.045 C 
ATOM     22  C   UNL A   1      33.583  29.636  26.486  1.00  0.00    -0.051 A 
ATOM     23  C   UNL A   1      33.836  30.691  27.521  1.00  0.00     0.044 C 
ENDBRANCH  13  16
ENDBRANCH   7  11
ENDBRANCH   4   7
ENDBRANCH   2   3
ENDBRANCH   1   2
BRANCH   1  24
ATOM     24  C   UNL A   1      36.340  23.947  25.961  1.00  0.00     0.118 C 
BRANCH  24  25
ATOM     25  N   UNL A   1      37.314  22.862  25.978  1.00  0.00    -0.352 N 
ATOM     26  C   UNL A   1      38.659  22.883  26.263  1.00  0.00     0.251 C 
ATOM     27  H   UNL A   1      36.952  21.975  25.749  1.00  0.00     0.163 HD
ATOM     28  O   UNL A   1      39.354  21.907  26.022  1.00  0.00    -0.269 OA
BRANCH  26  29
ATOM     29  C   UNL A   1      39.264  24.105  26.835  1.00  0.00     0.039 A 
ATOM     30  C   UNL A   1      39.943  24.988  25.994  1.00  0.00     0.014 A 
ATOM     31  C   UNL A   1      39.141  24.387  28.196  1.00  0.00     0.014 A 
ATOM     32  C   UNL A   1      40.425  26.194  26.509  1.00  0.00     0.010 A 
ATOM     33  C   UNL A   1      39.500  25.638  28.675  1.00  0.00     0.010 A 
ATOM     34  C   UNL A   1      40.163  26.549  27.843  1.00  0.00    -0.014 A 
BRANCH  34  35
ATOM     35  C   UNL A   1      40.597  27.852  28.402  1.00  0.00     0.031 A 
ATOM     36  C   UNL A   1      42.043  28.067  28.759  1.00  0.00     0.074 A 
ATOM     37  C   UNL A   1      39.684  28.810  28.654  1.00  0.00     0.049 A 
ATOM     38  N   UNL A   1      42.611  29.100  29.331  1.00  0.00    -0.248 NA
ATOM     39  C   UNL A   1      42.971  26.961  28.470  1.00  0.00     0.031 C 
ATOM     40  C   UNL A   1      38.245  28.695  28.408  1.00  0.00     0.029 A 
ATOM     41  N   UNL A   1      39.830  30.067  29.184  1.00  0.00    -0.354 N 
ATOM     42  C   UNL A   1      43.948  28.756  29.483  1.00  0.00     0.074 A 
ATOM     43  C   UNL A   1      44.096  27.398  29.013  1.00  0.00     0.031 C 
ATOM     44  C   UNL A   1      37.646  29.845  28.753  1.00  0.00     0.029 A 
ATOM     45  C   UNL A   1      38.649  30.761  29.287  1.00  0.00     0.049 A 
ATOM     46  H   UNL A   1      40.698  30.437  29.463  1.00  0.00     0.167 HD
ATOM     47  C   UNL A   1      44.970  29.518  29.940  1.00  0.00     0.037 A 
ATOM     48  C   UNL A   1      38.405  31.996  29.766  1.00  0.00     0.037 A 
ATOM     49  C   UNL A   1      44.820  30.880  30.379  1.00  0.00     0.049 A 
ATOM     50  C   UNL A   1      39.556  32.821  30.274  1.00  0.00     0.074 A 
ATOM     51  C   UNL A   1      45.798  31.761  30.804  1.00  0.00     0.029 A 
ATOM     52  N   UNL A   1      43.611  31.558  30.449  1.00  0.00    -0.354 N 
ATOM     53  N   UNL A   1      40.829  32.514  30.341  1.00  0.00    -0.248 NA
ATOM     54  C   UNL A   1      39.239  34.169  30.766  1.00  0.00     0.031 C 
ATOM     55  C   UNL A   1      45.174  32.954  31.182  1.00  0.00     0.029 A 
ATOM     56  C   UNL A   1      43.816  32.838  30.933  1.00  0.00     0.049 A 
ATOM     57  H   UNL A   1      42.738  31.183  30.192  1.00  0.00     0.167 HD
ATOM     58  C   UNL A   1      41.467  33.638  30.851  1.00  0.00     0.074 A 
ATOM     59  C   UNL A   1      40.442  34.638  31.059  1.00  0.00     0.031 C 
ATOM     60  C   UNL A   1      42.782  33.824  31.124  1.00  0.00     0.037 A 
BRANCH  47  61
ATOM     61  C   UNL A   1      46.336  28.897  29.980  1.00  0.00     0.064 A 
ATOM     62  C   UNL A   1      47.209  28.964  28.882  1.00  0.00     0.173 A 
ATOM     63  C   UNL A   1      46.792  28.250  31.138  1.00  0.00     0.173 A 
ATOM     64  F   UNL A   1      46.819  29.558  27.745  1.00  0.00    -0.203 F 
ATOM     65  C   UNL A   1      48.471  28.378  28.931  1.00  0.00     0.198 A 
ATOM     66  C   UNL A   1      48.068  27.696  31.196  1.00  0.00     0.198 A 
ATOM     67  F   UNL A   1      46.001  28.159  32.219  1.00  0.00    -0.203 F 
ATOM     68  F   UNL A   1      49.263  28.404  27.850  1.00  0.00    -0.200 F 
ATOM     69  C   UNL A   1      48.902  27.752  30.090  1.00  0.00     0.200 A 
ATOM     70  F   UNL A   1      48.489  27.103  32.322  1.00  0.00    -0.200 F 
ATOM     71  F   UNL A   1      50.120  27.195  30.139  1.00  0.00    -0.200 F 
ENDBRANCH  47  61
BRANCH  48  72
ATOM     72  C   UNL A   1      37.020  32.537  29.764  1.00  0.00     0.064 A 
ATOM     73  C   UNL A   1      36.537  33.278  28.675  1.00  0.00     0.173 A 
ATOM     74  C   UNL A   1      36.154  32.336  30.849  1.00  0.00     0.173 A 
ATOM     75  F   UNL A   1      37.332  33.513  27.621  1.00  0.00    -0.203 F 
ATOM     76  C   UNL A   1      35.253  33.818  28.683  1.00  0.00     0.198 A 
ATOM     77  C   UNL A   1      34.858  32.849  30.842  1.00  0.00     0.198 A 
ATOM     78  F   UNL A   1      36.562  31.627  31.912  1.00  0.00    -0.203 F 
ATOM     79  F   UNL A   1      34.836  34.565  27.652  1.00  0.00    -0.200 F 
ATOM     80  C   UNL A   1      34.413  33.599  29.764  1.00  0.00     0.200 A 
ATOM     81  F   UNL A   1      34.043  32.618  31.880  1.00  0.00    -0.200 F 
ATOM     82  F   UNL A   1      33.176  34.115  29.770  1.00  0.00    -0.200 F 
ENDBRANCH  48  72
BRANCH  60  83
ATOM     83  C   UNL A   1      43.194  35.174  31.637  1.00  0.00     0.064 A 
ATOM     84  C   UNL A   1      43.655  36.182  30.777  1.00  0.00     0.173 A 
ATOM     85  C   UNL A   1      43.087  35.475  33.004  1.00  0.00     0.173 A 
ATOM     86  F   UNL A   1      43.789  35.941  29.464  1.00  0.00    -0.203 F 
ATOM     87  C   UNL A   1      44.023  37.430  31.273  1.00  0.00     0.198 A 
ATOM     88  C   UNL A   1      43.422  36.734  33.490  1.00  0.00     0.198 A 
ATOM     89  F   UNL A   1      42.643  34.549  33.867  1.00  0.00    -0.203 F 
ATOM     90  F   UNL A   1      44.512  38.360  30.441  1.00  0.00    -0.200 F 
ATOM     91  C   UNL A   1      43.898  37.709  32.626  1.00  0.00     0.200 A 
ATOM     92  F   UNL A   1      43.284  37.006  34.794  1.00  0.00    -0.200 F 
ATOM     93  F   UNL A   1      44.245  38.914  33.098  1.00  0.00    -0.200 F 
ENDBRANCH  60  83
ENDBRANCH  34  35
ENDBRANCH  26  29
ENDBRANCH  24  25
ENDBRANCH   1  24
TORSDOF 13
ENDMDL
MODEL 2
REMARK VINA RESULT:     -12.0      4.161      7.872
REMARK SMILES CC[C@](C)(C(=O)NCCCNC(=O)c1ccc(-c2c3nc(c(-c4c(F)c(F)c(F)c(F)c4F)c4ccc([nH]4)c(-c4c(F)c(F)c(F)c(F)c4F)c4nc(c(-c5c(F)c(F)c(F)c(F)c5F)c5ccc2[nH]5)C=C4)C=C3)cc1)n1nnnc1-c1ccc(C)cc1C
REMARK SMILES IDX 9 1 8 2 7 3 5 4 6 5 3 7 4 8 2 9 1 10 77 11 78 12 81 13 79 14
REMARK SMILES IDX 80 15 82 16 83 17 88 18 84 19 87 20 89 21 85 22 86 23 10 24
REMARK SMILES IDX 11 25 12 26 13 28 14 29 15 30 76 31 16 32 75 33 17 34 18 35
REMARK SMILES IDX 19 36 69 37 20 38 74 39 68 40 70 41 21 42 73 43 67 44 66 45
REMARK SMILES IDX 22 47 54 48 34 49 53 50 35 51 38 52 52 53 71 54 36 55 37 56
REMARK SMILES IDX 51 58 72 59 39 60 23 61 24 62 32 63 25 64 26 65 30 66 33 67
REMARK SMILES IDX 27 68 28 69 31 70 29 71 55 72 56 73 64 74 57 75 58 76 62 77
REMARK SMILES IDX 65 78 59 79 60 80 63 81 61 82 40 83 41 84 49 85 42 86 43 87
REMARK SMILES IDX 47 88 50 89 44 90 45 91 48 92 46 93
REMARK H PARENT 7 6 11 27 70 46 38 57
REMARK Flexibility Score: inf
ROOT
ATOM      1  C   UNL A   1      31.485  32.000  26.572  1.00  0.00     0.042 C 
ENDROOT
BRANCH   1   2
ATOM      2  C   UNL A   1      31.783  30.581  26.145  1.00  0.00     0.117 C 
BRANCH   2   3
ATOM      3  N   UNL A   1      31.418  30.310  24.769  1.00  0.00    -0.354 N 
ATOM      4  C   UNL A   1      31.545  29.183  23.995  1.00  0.00     0.247 C 
ATOM      5  O   UNL A   1      30.949  29.267  22.920  1.00  0.00    -0.272 OA
ATOM      6  H   UNL A   1      31.005  31.073  24.303  1.00  0.00     0.163 HD
BRANCH   4   7
ATOM      7  C   UNL A   1      32.366  27.935  24.487  1.00  0.00     0.142 C 
ATOM      8  C   UNL A   1      33.620  28.491  25.195  1.00  0.00     0.048 C 
BRANCH   7   9
ATOM      9  C   UNL A   1      31.380  27.100  25.374  1.00  0.00     0.037 C 
ATOM     10  C   UNL A   1      31.661  27.017  26.875  1.00  0.00     0.007 C 
ENDBRANCH   7   9
BRANCH   7  11
ATOM     11  N   UNL A   1      32.859  27.084  23.360  1.00  0.00    -0.210 N 
ATOM     12  N   UNL A   1      33.263  27.634  22.194  1.00  0.00    -0.044 NA
ATOM     13  C   UNL A   1      33.179  25.727  23.317  1.00  0.00     0.183 A 
ATOM     14  N   UNL A   1      33.695  26.643  21.437  1.00  0.00    -0.023 NA
ATOM     15  N   UNL A   1      33.661  25.464  22.116  1.00  0.00    -0.108 NA
BRANCH  13  16
ATOM     16  C   UNL A   1      33.143  24.757  24.405  1.00  0.00     0.024 A 
ATOM     17  C   UNL A   1      34.256  24.709  25.262  1.00  0.00     0.012 A 
ATOM     18  C   UNL A   1      32.078  23.862  24.615  1.00  0.00    -0.040 A 
ATOM     19  C   UNL A   1      34.260  23.885  26.388  1.00  0.00     0.004 A 
ATOM     20  C   UNL A   1      32.083  23.058  25.772  1.00  0.00     0.007 A 
ATOM     21  C   UNL A   1      30.902  23.725  23.685  1.00  0.00     0.045 C 
ATOM     22  C   UNL A   1      33.148  23.095  26.682  1.00  0.00    -0.051 A 
ATOM     23  C   UNL A   1      33.120  22.260  27.927  1.00  0.00     0.044 C 
ENDBRANCH  13  16
ENDBRANCH   7  11
ENDBRANCH   4   7
ENDBRANCH   2   3
ENDBRANCH   1   2
BRANCH   1  24
ATOM     24  C   UNL A   1      32.646  32.652  27.293  1.00  0.00     0.118 C 
BRANCH  24  25
ATOM     25  N   UNL A   1      32.403  34.059  27.585  1.00  0.00    -0.352 N 
ATOM     26  C   UNL A   1      32.953  34.871  28.549  1.00  0.00     0.251 C 
ATOM     27  H   UNL A   1      31.740  34.497  27.003  1.00  0.00     0.163 HD
ATOM     28  O   UNL A   1      32.471  35.972  28.775  1.00  0.00    -0.269 OA
BRANCH  26  29
ATOM     29  C   UNL A   1      34.113  34.393  29.331  1.00  0.00     0.039 A 
ATOM     30  C   UNL A   1      33.895  33.718  30.533  1.00  0.00     0.014 A 
ATOM     31  C   UNL A   1      35.413  34.592  28.865  1.00  0.00     0.014 A 
ATOM     32  C   UNL A   1      34.981  33.173  31.221  1.00  0.00     0.010 A 
ATOM     33  C   UNL A   1      36.472  33.938  29.476  1.00  0.00     0.010 A 
ATOM     34  C   UNL A   1      36.272  33.237  30.672  1.00  0.00    -0.014 A 
BRANCH  34  35
ATOM     35  C   UNL A   1      37.436  32.605  31.341  1.00  0.00     0.031 A 
ATOM     36  C   UNL A   1      38.157  31.468  30.668  1.00  0.00     0.074 A 
ATOM     37  C   UNL A   1      37.796  33.004  32.576  1.00  0.00     0.049 A 
ATOM     38  N   UNL A   1      39.142  30.730  31.117  1.00  0.00    -0.248 NA
ATOM     39  C   UNL A   1      37.684  31.082  29.328  1.00  0.00     0.031 C 
ATOM     40  C   UNL A   1      37.135  34.054  33.355  1.00  0.00     0.029 A 
ATOM     41  N   UNL A   1      38.802  32.565  33.400  1.00  0.00    -0.354 N 
ATOM     42  C   UNL A   1      39.388  29.791  30.124  1.00  0.00     0.074 A 
ATOM     43  C   UNL A   1      38.408  30.001  29.085  1.00  0.00     0.031 C 
ATOM     44  C   UNL A   1      37.773  34.200  34.526  1.00  0.00     0.029 A 
ATOM     45  C   UNL A   1      38.858  33.227  34.602  1.00  0.00     0.049 A 
ATOM     46  H   UNL A   1      39.425  31.844  33.152  1.00  0.00     0.167 HD
ATOM     47  C   UNL A   1      40.368  28.858  30.068  1.00  0.00     0.037 A 
ATOM     48  C   UNL A   1      39.688  33.061  35.649  1.00  0.00     0.037 A 
ATOM     49  C   UNL A   1      41.360  28.675  31.093  1.00  0.00     0.049 A 
ATOM     50  C   UNL A   1      40.766  32.013  35.564  1.00  0.00     0.074 A 
ATOM     51  C   UNL A   1      42.432  27.800  31.110  1.00  0.00     0.029 A 
ATOM     52  N   UNL A   1      41.398  29.380  32.288  1.00  0.00    -0.354 N 
ATOM     53  N   UNL A   1      41.039  31.182  34.588  1.00  0.00    -0.248 NA
ATOM     54  C   UNL A   1      41.658  31.887  36.725  1.00  0.00     0.031 C 
ATOM     55  C   UNL A   1      43.088  27.939  32.337  1.00  0.00     0.029 A 
ATOM     56  C   UNL A   1      42.462  28.943  33.059  1.00  0.00     0.049 A 
ATOM     57  H   UNL A   1      40.764  30.086  32.549  1.00  0.00     0.167 HD
ATOM     58  C   UNL A   1      42.149  30.458  35.001  1.00  0.00     0.074 A 
ATOM     59  C   UNL A   1      42.509  30.960  36.310  1.00  0.00     0.031 C 
ATOM     60  C   UNL A   1      42.810  29.464  34.357  1.00  0.00     0.037 A 
BRANCH  47  61
ATOM     61  C   UNL A   1      40.418  27.975  28.855  1.00  0.00     0.064 A 
ATOM     62  C   UNL A   1      41.162  28.326  27.716  1.00  0.00     0.173 A 
ATOM     63  C   UNL A   1      39.738  26.748  28.837  1.00  0.00     0.173 A 
ATOM     64  F   UNL A   1      41.820  29.495  27.674  1.00  0.00    -0.203 F 
ATOM     65  C   UNL A   1      41.194  27.500  26.596  1.00  0.00     0.198 A 
ATOM     66  C   UNL A   1      39.801  25.908  27.729  1.00  0.00     0.198 A 
ATOM     67  F   UNL A   1      39.014  26.360  29.899  1.00  0.00    -0.203 F 
ATOM     68  F   UNL A   1      41.863  27.885  25.500  1.00  0.00    -0.200 F 
ATOM     69  C   UNL A   1      40.521  26.288  26.606  1.00  0.00     0.200 A 
ATOM     70  F   UNL A   1      39.161  24.731  27.745  1.00  0.00    -0.200 F 
ATOM     71  F   UNL A   1      40.559  25.490  25.531  1.00  0.00    -0.200 F 
ENDBRANCH  47  61
BRANCH  48  72
ATOM     72  C   UNL A   1      39.552  33.920  36.854  1.00  0.00     0.064 A 
ATOM     73  C   UNL A   1      38.790  33.503  37.955  1.00  0.00     0.173 A 
ATOM     74  C   UNL A   1      40.170  35.177  36.930  1.00  0.00     0.173 A 
ATOM     75  F   UNL A   1      38.165  32.316  37.924  1.00  0.00    -0.203 F 
ATOM     76  C   UNL A   1      38.629  34.319  39.073  1.00  0.00     0.198 A 
ATOM     77  C   UNL A   1      40.036  35.979  38.062  1.00  0.00     0.198 A 
ATOM     78  F   UNL A   1      40.919  35.621  35.910  1.00  0.00    -0.203 F 
ATOM     79  F   UNL A   1      37.853  33.917  40.088  1.00  0.00    -0.200 F 
ATOM     80  C   UNL A   1      39.257  35.554  39.127  1.00  0.00     0.200 A 
ATOM     81  F   UNL A   1      40.660  37.164  38.119  1.00  0.00    -0.200 F 
ATOM     82  F   UNL A   1      39.106  36.338  40.204  1.00  0.00    -0.200 F 
ENDBRANCH  48  72
BRANCH  60  83
ATOM     83  C   UNL A   1      44.016  28.885  35.039  1.00  0.00     0.064 A 
ATOM     84  C   UNL A   1      45.299  29.424  34.856  1.00  0.00     0.173 A 
ATOM     85  C   UNL A   1      43.879  27.801  35.919  1.00  0.00     0.173 A 
ATOM     86  F   UNL A   1      45.485  30.452  34.015  1.00  0.00    -0.203 F 
ATOM     87  C   UNL A   1      46.402  28.878  35.506  1.00  0.00     0.198 A 
ATOM     88  C   UNL A   1      44.979  27.280  36.593  1.00  0.00     0.198 A 
ATOM     89  F   UNL A   1      42.673  27.254  36.137  1.00  0.00    -0.203 F 
ATOM     90  F   UNL A   1      47.626  29.374  35.274  1.00  0.00    -0.200 F 
ATOM     91  C   UNL A   1      46.241  27.813  36.380  1.00  0.00     0.200 A 
ATOM     92  F   UNL A   1      44.818  26.264  37.451  1.00  0.00    -0.200 F 
ATOM     93  F   UNL A   1      47.304  27.295  37.010  1.00  0.00    -0.200 F 
ENDBRANCH  60  83
ENDBRANCH  34  35
ENDBRANCH  26  29
ENDBRANCH  24  25
ENDBRANCH   1  24
TORSDOF 13
ENDMDL
MODEL 3
REMARK VINA RESULT:     -12.0      4.160      7.984
REMARK SMILES CC[C@](C)(C(=O)NCCCNC(=O)c1ccc(-c2c3nc(c(-c4c(F)c(F)c(F)c(F)c4F)c4ccc([nH]4)c(-c4c(F)c(F)c(F)c(F)c4F)c4nc(c(-c5c(F)c(F)c(F)c(F)c5F)c5ccc2[nH]5)C=C4)C=C3)cc1)n1nnnc1-c1ccc(C)cc1C
REMARK SMILES IDX 9 1 8 2 7 3 5 4 6 5 3 7 4 8 2 9 1 10 77 11 78 12 81 13 79 14
REMARK SMILES IDX 80 15 82 16 83 17 88 18 84 19 87 20 89 21 85 22 86 23 10 24
REMARK SMILES IDX 11 25 12 26 13 28 14 29 15 30 76 31 16 32 75 33 17 34 18 35
REMARK SMILES IDX 19 36 69 37 20 38 74 39 68 40 70 41 21 42 73 43 67 44 66 45
REMARK SMILES IDX 22 47 54 48 34 49 53 50 35 51 38 52 52 53 71 54 36 55 37 56
REMARK SMILES IDX 51 58 72 59 39 60 23 61 24 62 32 63 25 64 26 65 30 66 33 67
REMARK SMILES IDX 27 68 28 69 31 70 29 71 55 72 56 73 64 74 57 75 58 76 62 77
REMARK SMILES IDX 65 78 59 79 60 80 63 81 61 82 40 83 41 84 49 85 42 86 43 87
REMARK SMILES IDX 47 88 50 89 44 90 45 91 48 92 46 93
REMARK H PARENT 7 6 11 27 70 46 38 57
REMARK Flexibility Score: inf
ROOT
ATOM      1  C   UNL A   1      31.493  31.955  26.680  1.00  0.00     0.042 C 
ENDROOT
BRANCH   1   2
ATOM      2  C   UNL A   1      31.791  30.543  26.228  1.00  0.00     0.117 C 
BRANCH   2   3
ATOM      3  N   UNL A   1      31.451  30.303  24.840  1.00  0.00    -0.354 N 
ATOM      4  C   UNL A   1      31.579  29.189  24.047  1.00  0.00     0.247 C 
ATOM      5  O   UNL A   1      31.005  29.301  22.963  1.00  0.00    -0.272 OA
ATOM      6  H   UNL A   1      31.056  31.079  24.382  1.00  0.00     0.163 HD
BRANCH   4   7
ATOM      7  C   UNL A   1      32.375  27.922  24.531  1.00  0.00     0.142 C 
ATOM      8  C   UNL A   1      33.625  28.449  25.269  1.00  0.00     0.048 C 
BRANCH   7   9
ATOM      9  C   UNL A   1      31.365  27.086  25.388  1.00  0.00     0.037 C 
ATOM     10  C   UNL A   1      31.639  26.943  26.885  1.00  0.00     0.007 C 
ENDBRANCH   7   9
BRANCH   7  11
ATOM     11  N   UNL A   1      32.875  27.083  23.398  1.00  0.00    -0.210 N 
ATOM     12  N   UNL A   1      33.271  27.645  22.235  1.00  0.00    -0.044 NA
ATOM     13  C   UNL A   1      33.210  25.730  23.345  1.00  0.00     0.183 A 
ATOM     14  N   UNL A   1      33.712  26.663  21.471  1.00  0.00    -0.023 NA
ATOM     15  N   UNL A   1      33.692  25.480  22.143  1.00  0.00    -0.108 NA
BRANCH  13  16
ATOM     16  C   UNL A   1      33.187  24.753  24.428  1.00  0.00     0.024 A 
ATOM     17  C   UNL A   1      34.300  24.713  25.284  1.00  0.00     0.012 A 
ATOM     18  C   UNL A   1      32.133  23.843  24.633  1.00  0.00    -0.040 A 
ATOM     19  C   UNL A   1      34.316  23.882  26.405  1.00  0.00     0.004 A 
ATOM     20  C   UNL A   1      32.149  23.032  25.785  1.00  0.00     0.007 A 
ATOM     21  C   UNL A   1      30.958  23.698  23.702  1.00  0.00     0.045 C 
ATOM     22  C   UNL A   1      33.213  23.077  26.694  1.00  0.00    -0.051 A 
ATOM     23  C   UNL A   1      33.197  22.234  27.934  1.00  0.00     0.044 C 
ENDBRANCH  13  16
ENDBRANCH   7  11
ENDBRANCH   4   7
ENDBRANCH   2   3
ENDBRANCH   1   2
BRANCH   1  24
ATOM     24  C   UNL A   1      32.704  32.653  27.261  1.00  0.00     0.118 C 
BRANCH  24  25
ATOM     25  N   UNL A   1      32.446  34.054  27.569  1.00  0.00    -0.352 N 
ATOM     26  C   UNL A   1      32.983  34.861  28.545  1.00  0.00     0.251 C 
ATOM     27  H   UNL A   1      31.782  34.493  26.987  1.00  0.00     0.163 HD
ATOM     28  O   UNL A   1      32.489  35.954  28.780  1.00  0.00    -0.269 OA
BRANCH  26  29
ATOM     29  C   UNL A   1      34.143  34.384  29.328  1.00  0.00     0.039 A 
ATOM     30  C   UNL A   1      33.925  33.729  30.541  1.00  0.00     0.014 A 
ATOM     31  C   UNL A   1      35.442  34.565  28.853  1.00  0.00     0.014 A 
ATOM     32  C   UNL A   1      35.009  33.184  31.232  1.00  0.00     0.010 A 
ATOM     33  C   UNL A   1      36.498  33.910  29.469  1.00  0.00     0.010 A 
ATOM     34  C   UNL A   1      36.298  33.229  30.676  1.00  0.00    -0.014 A 
BRANCH  34  35
ATOM     35  C   UNL A   1      37.460  32.597  31.348  1.00  0.00     0.031 A 
ATOM     36  C   UNL A   1      38.187  31.464  30.674  1.00  0.00     0.074 A 
ATOM     37  C   UNL A   1      37.812  32.991  32.587  1.00  0.00     0.049 A 
ATOM     38  N   UNL A   1      39.171  30.727  31.125  1.00  0.00    -0.248 NA
ATOM     39  C   UNL A   1      37.722  31.083  29.331  1.00  0.00     0.031 C 
ATOM     40  C   UNL A   1      37.145  34.037  33.366  1.00  0.00     0.029 A 
ATOM     41  N   UNL A   1      38.815  32.551  33.414  1.00  0.00    -0.354 N 
ATOM     42  C   UNL A   1      39.425  29.792  30.130  1.00  0.00     0.074 A 
ATOM     43  C   UNL A   1      38.449  30.004  29.087  1.00  0.00     0.031 C 
ATOM     44  C   UNL A   1      37.777  34.180  34.541  1.00  0.00     0.029 A 
ATOM     45  C   UNL A   1      38.863  33.209  34.619  1.00  0.00     0.049 A 
ATOM     46  H   UNL A   1      39.441  31.833  33.167  1.00  0.00     0.167 HD
ATOM     47  C   UNL A   1      40.407  28.862  30.076  1.00  0.00     0.037 A 
ATOM     48  C   UNL A   1      39.688  33.040  35.669  1.00  0.00     0.037 A 
ATOM     49  C   UNL A   1      41.394  28.677  31.106  1.00  0.00     0.049 A 
ATOM     50  C   UNL A   1      40.769  31.996  35.586  1.00  0.00     0.074 A 
ATOM     51  C   UNL A   1      42.468  27.805  31.124  1.00  0.00     0.029 A 
ATOM     52  N   UNL A   1      41.424  29.377  32.304  1.00  0.00    -0.354 N 
ATOM     53  N   UNL A   1      41.048  31.169  34.608  1.00  0.00    -0.248 NA
ATOM     54  C   UNL A   1      41.655  31.867  36.751  1.00  0.00     0.031 C 
ATOM     55  C   UNL A   1      43.117  27.940  32.356  1.00  0.00     0.029 A 
ATOM     56  C   UNL A   1      42.485  28.939  33.078  1.00  0.00     0.049 A 
ATOM     57  H   UNL A   1      40.787  30.080  32.563  1.00  0.00     0.167 HD
ATOM     58  C   UNL A   1      42.158  30.446  35.025  1.00  0.00     0.074 A 
ATOM     59  C   UNL A   1      42.510  30.944  36.337  1.00  0.00     0.031 C 
ATOM     60  C   UNL A   1      42.825  29.456  34.380  1.00  0.00     0.037 A 
BRANCH  47  61
ATOM     61  C   UNL A   1      40.466  27.983  28.859  1.00  0.00     0.064 A 
ATOM     62  C   UNL A   1      39.764  26.769  28.792  1.00  0.00     0.173 A 
ATOM     63  C   UNL A   1      41.210  28.370  27.735  1.00  0.00     0.173 A 
ATOM     64  F   UNL A   1      39.048  26.344  29.844  1.00  0.00    -0.203 F 
ATOM     65  C   UNL A   1      39.832  25.962  27.660  1.00  0.00     0.198 A 
ATOM     66  C   UNL A   1      41.247  27.577  26.591  1.00  0.00     0.198 A 
ATOM     67  F   UNL A   1      41.898  29.522  27.742  1.00  0.00    -0.203 F 
ATOM     68  F   UNL A   1      39.200  24.779  27.643  1.00  0.00    -0.200 F 
ATOM     69  C   UNL A   1      40.567  26.370  26.558  1.00  0.00     0.200 A 
ATOM     70  F   UNL A   1      41.946  27.980  25.521  1.00  0.00    -0.200 F 
ATOM     71  F   UNL A   1      40.625  25.596  25.466  1.00  0.00    -0.200 F 
ENDBRANCH  47  61
BRANCH  48  72
ATOM     72  C   UNL A   1      39.544  33.895  36.878  1.00  0.00     0.064 A 
ATOM     73  C   UNL A   1      38.791  33.464  37.980  1.00  0.00     0.173 A 
ATOM     74  C   UNL A   1      40.144  35.160  36.955  1.00  0.00     0.173 A 
ATOM     75  F   UNL A   1      38.183  32.269  37.948  1.00  0.00    -0.203 F 
ATOM     76  C   UNL A   1      38.623  34.275  39.100  1.00  0.00     0.198 A 
ATOM     77  C   UNL A   1      40.002  35.957  38.089  1.00  0.00     0.198 A 
ATOM     78  F   UNL A   1      40.883  35.617  35.933  1.00  0.00    -0.203 F 
ATOM     79  F   UNL A   1      37.856  33.859  40.117  1.00  0.00    -0.200 F 
ATOM     80  C   UNL A   1      39.233  35.518  39.156  1.00  0.00     0.200 A 
ATOM     81  F   UNL A   1      40.610  37.151  38.147  1.00  0.00    -0.200 F 
ATOM     82  F   UNL A   1      39.074  36.298  40.235  1.00  0.00    -0.200 F 
ENDBRANCH  48  72
BRANCH  60  83
ATOM     83  C   UNL A   1      44.029  28.877  35.066  1.00  0.00     0.064 A 
ATOM     84  C   UNL A   1      43.933  27.760  35.909  1.00  0.00     0.173 A 
ATOM     85  C   UNL A   1      45.301  29.425  34.845  1.00  0.00     0.173 A 
ATOM     86  F   UNL A   1      42.737  27.207  36.164  1.00  0.00    -0.203 F 
ATOM     87  C   UNL A   1      45.063  27.233  36.528  1.00  0.00     0.198 A 
ATOM     88  C   UNL A   1      46.433  28.874  35.438  1.00  0.00     0.198 A 
ATOM     89  F   UNL A   1      45.449  30.489  34.041  1.00  0.00    -0.203 F 
ATOM     90  F   UNL A   1      44.940  26.199  37.372  1.00  0.00    -0.200 F 
ATOM     91  C   UNL A   1      46.312  27.784  36.286  1.00  0.00     0.200 A 
ATOM     92  F   UNL A   1      47.641  29.397  35.188  1.00  0.00    -0.200 F 
ATOM     93  F   UNL A   1      47.400  27.269  36.877  1.00  0.00    -0.200 F 
ENDBRANCH  60  83
ENDBRANCH  34  35
ENDBRANCH  26  29
ENDBRANCH  24  25
ENDBRANCH   1  24
TORSDOF 13
ENDMDL
