MODEL 1
REMARK VINA RESULT:     -12.5      0.000      0.000
REMARK SMILES C[NH2+][C@]1(C(=O)NCCCNC(=O)c2ccc(-c3c4nc(c(-c5c(F)c(F)c(F)c(F)c5F)c5ccc([nH]5)c(-c5c(F)c(F)c(F)c(F)c5F)c5nc(c(-c6c(F)c(F)c(F)c(F)c6F)c6ccc3[nH]6)C=C5)C=C4)cc2)CC[C@@H](Sc2cc(F)ccc2F)C1
REMARK SMILES IDX 8 1 7 2 6 3 4 4 5 5 3 7 76 8 88 9 77 10 78 11 2 12 1 13
REMARK SMILES IDX 79 16 80 17 81 18 86 19 82 20 85 21 87 22 83 23 84 24 9 25
REMARK SMILES IDX 10 26 11 27 12 29 13 30 14 31 75 32 15 33 74 34 16 35 17 36
REMARK SMILES IDX 18 37 68 38 19 39 73 40 67 41 69 42 20 43 72 44 66 45 65 46
REMARK SMILES IDX 21 48 53 49 33 50 52 51 34 52 37 53 51 54 70 55 35 56 36 57
REMARK SMILES IDX 50 59 71 60 38 61 22 62 23 63 31 64 24 65 25 66 29 67 32 68
REMARK SMILES IDX 26 69 27 70 30 71 28 72 54 73 55 74 63 75 56 76 57 77 61 78
REMARK SMILES IDX 64 79 58 80 59 81 62 82 60 83 39 84 40 85 48 86 41 87 42 88
REMARK SMILES IDX 46 89 49 90 43 91 44 92 47 93 45 94
REMARK H PARENT 6 6 2 14 2 15 10 28 69 47 37 58
REMARK Flexibility Score: inf
ROOT
ATOM      1  C   UNL A   1      31.425  32.198  26.583  1.00  0.00     0.042 C 
ENDROOT
BRANCH   1   2
ATOM      2  C   UNL A   1      31.541  30.702  26.371  1.00  0.00     0.118 C 
BRANCH   2   3
ATOM      3  N   UNL A   1      31.358  30.302  24.998  1.00  0.00    -0.351 N 
ATOM      4  C   UNL A   1      31.818  29.194  24.353  1.00  0.00     0.281 C 
ATOM      5  O   UNL A   1      31.224  28.906  23.308  1.00  0.00    -0.268 OA
ATOM      6  H   UNL A   1      30.823  30.917  24.448  1.00  0.00     0.163 HD
BRANCH   4   7
ATOM      7  C   UNL A   1      32.965  28.296  24.934  1.00  0.00     0.176 C 
ATOM      8  C   UNL A   1      32.568  27.299  26.043  1.00  0.00     0.080 C 
ATOM      9  C   UNL A   1      33.499  27.388  23.794  1.00  0.00     0.094 C 
ATOM     10  C   UNL A   1      33.456  26.066  25.876  1.00  0.00     0.022 C 
ATOM     11  C   UNL A   1      34.023  26.117  24.461  1.00  0.00     0.059 C 
BRANCH   7  12
ATOM     12  N   UNL A   1      34.099  29.146  25.417  1.00  0.00    -0.336 N 
ATOM     13  C   UNL A   1      34.396  29.008  26.847  1.00  0.00     0.331 C 
ATOM     14  H   UNL A   1      34.935  28.889  24.892  1.00  0.00     0.346 HD
ATOM     15  H   UNL A   1      33.817  30.114  25.271  1.00  0.00     0.346 HD
ENDBRANCH   7  12
BRANCH  11  16
ATOM     16  S   UNL A   1      33.885  24.558  23.475  1.00  0.00    -0.119 SA
BRANCH  16  17
ATOM     17  C   UNL A   1      34.897  23.343  24.312  1.00  0.00     0.046 A 
ATOM     18  C   UNL A   1      36.178  23.692  24.757  1.00  0.00     0.057 A 
ATOM     19  C   UNL A   1      34.515  21.995  24.404  1.00  0.00     0.136 A 
ATOM     20  C   UNL A   1      37.013  22.726  25.323  1.00  0.00     0.124 A 
ATOM     21  C   UNL A   1      35.349  21.033  24.983  1.00  0.00     0.043 A 
ATOM     22  F   UNL A   1      33.307  21.600  23.977  1.00  0.00    -0.206 F 
ATOM     23  F   UNL A   1      38.234  23.076  25.747  1.00  0.00    -0.207 F 
ATOM     24  C   UNL A   1      36.606  21.402  25.453  1.00  0.00     0.042 A 
ENDBRANCH  16  17
ENDBRANCH  11  16
ENDBRANCH   4   7
ENDBRANCH   2   3
ENDBRANCH   1   2
BRANCH   1  25
ATOM     25  C   UNL A   1      32.611  32.780  27.327  1.00  0.00     0.118 C 
BRANCH  25  26
ATOM     26  N   UNL A   1      32.439  34.198  27.626  1.00  0.00    -0.352 N 
ATOM     27  C   UNL A   1      33.002  34.971  28.608  1.00  0.00     0.251 C 
ATOM     28  H   UNL A   1      31.818  34.675  27.029  1.00  0.00     0.163 HD
ATOM     29  O   UNL A   1      32.531  36.080  28.853  1.00  0.00    -0.269 OA
BRANCH  27  30
ATOM     30  C   UNL A   1      34.154  34.466  29.382  1.00  0.00     0.039 A 
ATOM     31  C   UNL A   1      33.934  33.878  30.629  1.00  0.00     0.014 A 
ATOM     32  C   UNL A   1      35.452  34.571  28.878  1.00  0.00     0.014 A 
ATOM     33  C   UNL A   1      35.007  33.326  31.330  1.00  0.00     0.010 A 
ATOM     34  C   UNL A   1      36.495  33.915  29.515  1.00  0.00     0.010 A 
ATOM     35  C   UNL A   1      36.288  33.299  30.757  1.00  0.00    -0.014 A 
BRANCH  35  36
ATOM     36  C   UNL A   1      37.435  32.650  31.439  1.00  0.00     0.031 A 
ATOM     37  C   UNL A   1      38.137  31.491  30.784  1.00  0.00     0.074 A 
ATOM     38  C   UNL A   1      37.788  33.048  32.675  1.00  0.00     0.049 A 
ATOM     39  N   UNL A   1      39.095  30.732  31.251  1.00  0.00    -0.248 NA
ATOM     40  C   UNL A   1      37.674  31.110  29.439  1.00  0.00     0.031 C 
ATOM     41  C   UNL A   1      37.145  34.122  33.435  1.00  0.00     0.029 A 
ATOM     42  N   UNL A   1      38.768  32.589  33.517  1.00  0.00    -0.354 N 
ATOM     43  C   UNL A   1      39.332  29.779  30.268  1.00  0.00     0.074 A 
ATOM     44  C   UNL A   1      38.374  30.010  29.211  1.00  0.00     0.031 C 
ATOM     45  C   UNL A   1      37.768  34.259  34.616  1.00  0.00     0.029 A 
ATOM     46  C   UNL A   1      38.821  33.254  34.717  1.00  0.00     0.049 A 
ATOM     47  H   UNL A   1      39.376  31.850  33.283  1.00  0.00     0.167 HD
ATOM     48  C   UNL A   1      40.283  28.815  30.238  1.00  0.00     0.037 A 
ATOM     49  C   UNL A   1      39.623  33.068  35.781  1.00  0.00     0.037 A 
ATOM     50  C   UNL A   1      41.251  28.610  31.284  1.00  0.00     0.049 A 
ATOM     51  C   UNL A   1      40.666  31.984  35.727  1.00  0.00     0.074 A 
ATOM     52  C   UNL A   1      42.299  27.708  31.323  1.00  0.00     0.029 A 
ATOM     53  N   UNL A   1      41.285  29.317  32.477  1.00  0.00    -0.354 N 
ATOM     54  N   UNL A   1      40.934  31.139  34.761  1.00  0.00    -0.248 NA
ATOM     55  C   UNL A   1      41.525  31.833  36.909  1.00  0.00     0.031 C 
ATOM     56  C   UNL A   1      42.930  27.828  32.565  1.00  0.00     0.029 A 
ATOM     57  C   UNL A   1      42.318  28.851  33.273  1.00  0.00     0.049 A 
ATOM     58  H   UNL A   1      40.666  30.043  32.722  1.00  0.00     0.167 HD
ATOM     59  C   UNL A   1      42.009  30.379  35.203  1.00  0.00     0.074 A 
ATOM     60  C   UNL A   1      42.354  30.876  36.521  1.00  0.00     0.031 C 
ATOM     61  C   UNL A   1      42.653  29.364  34.577  1.00  0.00     0.037 A 
BRANCH  48  62
ATOM     62  C   UNL A   1      40.320  27.911  29.038  1.00  0.00     0.064 A 
ATOM     63  C   UNL A   1      41.063  28.235  27.892  1.00  0.00     0.173 A 
ATOM     64  C   UNL A   1      39.625  26.693  29.044  1.00  0.00     0.173 A 
ATOM     65  F   UNL A   1      41.737  29.393  27.827  1.00  0.00    -0.203 F 
ATOM     66  C   UNL A   1      41.078  27.391  26.784  1.00  0.00     0.198 A 
ATOM     67  C   UNL A   1      39.672  25.835  27.949  1.00  0.00     0.198 A 
ATOM     68  F   UNL A   1      38.903  26.330  30.114  1.00  0.00    -0.203 F 
ATOM     69  F   UNL A   1      41.744  27.751  25.678  1.00  0.00    -0.200 F 
ATOM     70  C   UNL A   1      40.389  26.188  26.816  1.00  0.00     0.200 A 
ATOM     71  F   UNL A   1      39.018  24.665  27.988  1.00  0.00    -0.200 F 
ATOM     72  F   UNL A   1      40.410  25.374  25.752  1.00  0.00    -0.200 F 
ENDBRANCH  48  62
BRANCH  49  73
ATOM     73  C   UNL A   1      39.492  33.943  36.977  1.00  0.00     0.064 A 
ATOM     74  C   UNL A   1      40.125  35.193  37.026  1.00  0.00     0.173 A 
ATOM     75  C   UNL A   1      38.740  33.550  38.093  1.00  0.00     0.173 A 
ATOM     76  F   UNL A   1      40.870  35.606  35.990  1.00  0.00    -0.203 F 
ATOM     77  C   UNL A   1      40.031  36.005  38.154  1.00  0.00     0.198 A 
ATOM     78  C   UNL A   1      38.621  34.377  39.209  1.00  0.00     0.198 A 
ATOM     79  F   UNL A   1      38.108  32.367  38.096  1.00  0.00    -0.203 F 
ATOM     80  F   UNL A   1      40.689  37.171  38.193  1.00  0.00    -0.200 F 
ATOM     81  C   UNL A   1      39.275  35.599  39.243  1.00  0.00     0.200 A 
ATOM     82  F   UNL A   1      37.875  33.988  40.252  1.00  0.00    -0.200 F 
ATOM     83  F   UNL A   1      39.183  36.381  40.327  1.00  0.00    -0.200 F 
ENDBRANCH  49  73
BRANCH  61  84
ATOM     84  C   UNL A   1      43.825  28.749  35.288  1.00  0.00     0.064 A 
ATOM     85  C   UNL A   1      45.136  29.206  35.086  1.00  0.00     0.173 A 
ATOM     86  C   UNL A   1      43.625  27.716  36.217  1.00  0.00     0.173 A 
ATOM     87  F   UNL A   1      45.382  30.183  34.199  1.00  0.00    -0.203 F 
ATOM     88  C   UNL A   1      46.207  28.630  35.765  1.00  0.00     0.198 A 
ATOM     89  C   UNL A   1      44.694  27.168  36.920  1.00  0.00     0.198 A 
ATOM     90  F   UNL A   1      42.391  27.248  36.453  1.00  0.00    -0.203 F 
ATOM     91  F   UNL A   1      47.456  29.045  35.516  1.00  0.00    -0.200 F 
ATOM     92  C   UNL A   1      45.984  27.619  36.687  1.00  0.00     0.200 A 
ATOM     93  F   UNL A   1      44.474  26.203  37.824  1.00  0.00    -0.200 F 
ATOM     94  F   UNL A   1      47.015  27.073  37.347  1.00  0.00    -0.200 F 
ENDBRANCH  61  84
ENDBRANCH  35  36
ENDBRANCH  27  30
ENDBRANCH  25  26
ENDBRANCH   1  25
TORSDOF 13
ENDMDL
MODEL 2
REMARK VINA RESULT:     -12.5      0.808      1.854
REMARK SMILES C[NH2+][C@]1(C(=O)NCCCNC(=O)c2ccc(-c3c4nc(c(-c5c(F)c(F)c(F)c(F)c5F)c5ccc([nH]5)c(-c5c(F)c(F)c(F)c(F)c5F)c5nc(c(-c6c(F)c(F)c(F)c(F)c6F)c6ccc3[nH]6)C=C5)C=C4)cc2)CC[C@@H](Sc2cc(F)ccc2F)C1
REMARK SMILES IDX 8 1 7 2 6 3 4 4 5 5 3 7 76 8 88 9 77 10 78 11 2 12 1 13
REMARK SMILES IDX 79 16 80 17 81 18 86 19 82 20 85 21 87 22 83 23 84 24 9 25
REMARK SMILES IDX 10 26 11 27 12 29 13 30 14 31 75 32 15 33 74 34 16 35 17 36
REMARK SMILES IDX 18 37 68 38 19 39 73 40 67 41 69 42 20 43 72 44 66 45 65 46
REMARK SMILES IDX 21 48 53 49 33 50 52 51 34 52 37 53 51 54 70 55 35 56 36 57
REMARK SMILES IDX 50 59 71 60 38 61 22 62 23 63 31 64 24 65 25 66 29 67 32 68
REMARK SMILES IDX 26 69 27 70 30 71 28 72 54 73 55 74 63 75 56 76 57 77 61 78
REMARK SMILES IDX 64 79 58 80 59 81 62 82 60 83 39 84 40 85 48 86 41 87 42 88
REMARK SMILES IDX 46 89 49 90 43 91 44 92 47 93 45 94
REMARK H PARENT 6 6 2 14 2 15 10 28 69 47 37 58
REMARK Flexibility Score: inf
ROOT
ATOM      1  C   UNL A   1      31.418  32.303  26.524  1.00  0.00     0.042 C 
ENDROOT
BRANCH   1   2
ATOM      2  C   UNL A   1      31.476  30.797  26.369  1.00  0.00     0.118 C 
BRANCH   2   3
ATOM      3  N   UNL A   1      32.324  30.364  25.286  1.00  0.00    -0.351 N 
ATOM      4  C   UNL A   1      32.789  29.117  24.999  1.00  0.00     0.281 C 
ATOM      5  O   UNL A   1      33.177  28.953  23.836  1.00  0.00    -0.268 OA
ATOM      6  H   UNL A   1      32.606  31.072  24.664  1.00  0.00     0.163 HD
BRANCH   4   7
ATOM      7  C   UNL A   1      32.759  27.946  26.041  1.00  0.00     0.176 C 
ATOM      8  C   UNL A   1      31.372  27.367  26.391  1.00  0.00     0.080 C 
ATOM      9  C   UNL A   1      33.521  26.736  25.437  1.00  0.00     0.094 C 
ATOM     10  C   UNL A   1      31.564  25.877  26.667  1.00  0.00     0.022 C 
ATOM     11  C   UNL A   1      32.904  25.482  26.053  1.00  0.00     0.059 C 
BRANCH   7  12
ATOM     12  N   UNL A   1      33.458  28.350  27.301  1.00  0.00    -0.336 N 
ATOM     13  C   UNL A   1      34.779  28.954  27.097  1.00  0.00     0.331 C 
ATOM     14  H   UNL A   1      32.870  29.029  27.788  1.00  0.00     0.346 HD
ATOM     15  H   UNL A   1      33.608  27.496  27.836  1.00  0.00     0.346 HD
ENDBRANCH   7  12
BRANCH  11  16
ATOM     16  S   UNL A   1      32.894  23.967  24.992  1.00  0.00    -0.119 SA
BRANCH  16  17
ATOM     17  C   UNL A   1      34.597  23.432  24.864  1.00  0.00     0.046 A 
ATOM     18  C   UNL A   1      35.179  23.258  23.602  1.00  0.00     0.057 A 
ATOM     19  C   UNL A   1      35.333  23.025  25.988  1.00  0.00     0.136 A 
ATOM     20  C   UNL A   1      36.474  22.748  23.490  1.00  0.00     0.124 A 
ATOM     21  C   UNL A   1      36.636  22.527  25.871  1.00  0.00     0.043 A 
ATOM     22  F   UNL A   1      34.820  23.152  27.220  1.00  0.00    -0.206 F 
ATOM     23  F   UNL A   1      37.018  22.591  22.276  1.00  0.00    -0.207 F 
ATOM     24  C   UNL A   1      37.213  22.392  24.613  1.00  0.00     0.042 A 
ENDBRANCH  16  17
ENDBRANCH  11  16
ENDBRANCH   4   7
ENDBRANCH   2   3
ENDBRANCH   1   2
BRANCH   1  25
ATOM     25  C   UNL A   1      32.559  32.852  27.359  1.00  0.00     0.118 C 
BRANCH  25  26
ATOM     26  N   UNL A   1      32.395  34.271  27.658  1.00  0.00    -0.352 N 
ATOM     27  C   UNL A   1      32.975  35.044  28.631  1.00  0.00     0.251 C 
ATOM     28  H   UNL A   1      31.769  34.749  27.069  1.00  0.00     0.163 HD
ATOM     29  O   UNL A   1      32.511  36.154  28.881  1.00  0.00    -0.269 OA
BRANCH  27  30
ATOM     30  C   UNL A   1      34.137  34.536  29.390  1.00  0.00     0.039 A 
ATOM     31  C   UNL A   1      33.938  33.995  30.662  1.00  0.00     0.014 A 
ATOM     32  C   UNL A   1      35.421  34.590  28.847  1.00  0.00     0.014 A 
ATOM     33  C   UNL A   1      35.017  33.439  31.351  1.00  0.00     0.010 A 
ATOM     34  C   UNL A   1      36.466  33.930  29.477  1.00  0.00     0.010 A 
ATOM     35  C   UNL A   1      36.280  33.361  30.744  1.00  0.00    -0.014 A 
BRANCH  35  36
ATOM     36  C   UNL A   1      37.429  32.706  31.415  1.00  0.00     0.031 A 
ATOM     37  C   UNL A   1      38.116  31.540  30.757  1.00  0.00     0.074 A 
ATOM     38  C   UNL A   1      37.798  33.105  32.646  1.00  0.00     0.049 A 
ATOM     39  N   UNL A   1      39.074  30.776  31.215  1.00  0.00    -0.248 NA
ATOM     40  C   UNL A   1      37.636  31.159  29.418  1.00  0.00     0.031 C 
ATOM     41  C   UNL A   1      37.171  34.186  33.410  1.00  0.00     0.029 A 
ATOM     42  N   UNL A   1      38.784  32.642  33.480  1.00  0.00    -0.354 N 
ATOM     43  C   UNL A   1      39.294  29.819  30.233  1.00  0.00     0.074 A 
ATOM     44  C   UNL A   1      38.326  30.053  29.186  1.00  0.00     0.031 C 
ATOM     45  C   UNL A   1      37.807  34.322  34.584  1.00  0.00     0.029 A 
ATOM     46  C   UNL A   1      38.854  33.310  34.677  1.00  0.00     0.049 A 
ATOM     47  H   UNL A   1      39.385  31.898  33.242  1.00  0.00     0.167 HD
ATOM     48  C   UNL A   1      40.238  28.848  30.196  1.00  0.00     0.037 A 
ATOM     49  C   UNL A   1      39.667  33.122  35.733  1.00  0.00     0.037 A 
ATOM     50  C   UNL A   1      41.215  28.639  31.232  1.00  0.00     0.049 A 
ATOM     51  C   UNL A   1      40.702  32.031  35.671  1.00  0.00     0.074 A 
ATOM     52  C   UNL A   1      42.258  27.730  31.263  1.00  0.00     0.029 A 
ATOM     53  N   UNL A   1      41.267  29.350  32.423  1.00  0.00    -0.354 N 
ATOM     54  N   UNL A   1      40.953  31.181  34.704  1.00  0.00    -0.248 NA
ATOM     55  C   UNL A   1      41.572  31.878  36.844  1.00  0.00     0.031 C 
ATOM     56  C   UNL A   1      42.903  27.849  32.498  1.00  0.00     0.029 A 
ATOM     57  C   UNL A   1      42.306  28.879  33.209  1.00  0.00     0.049 A 
ATOM     58  H   UNL A   1      40.656  30.081  32.672  1.00  0.00     0.167 HD
ATOM     59  C   UNL A   1      42.028  30.415  35.138  1.00  0.00     0.074 A 
ATOM     60  C   UNL A   1      42.390  30.913  36.450  1.00  0.00     0.031 C 
ATOM     61  C   UNL A   1      42.658  29.394  34.508  1.00  0.00     0.037 A 
BRANCH  48  62
ATOM     62  C   UNL A   1      40.256  27.941  28.998  1.00  0.00     0.064 A 
ATOM     63  C   UNL A   1      40.989  28.256  27.843  1.00  0.00     0.173 A 
ATOM     64  C   UNL A   1      39.553  26.727  29.016  1.00  0.00     0.173 A 
ATOM     65  F   UNL A   1      41.669  29.409  27.767  1.00  0.00    -0.203 F 
ATOM     66  C   UNL A   1      40.985  27.409  26.738  1.00  0.00     0.198 A 
ATOM     67  C   UNL A   1      39.583  25.865  27.923  1.00  0.00     0.198 A 
ATOM     68  F   UNL A   1      38.841  26.372  30.095  1.00  0.00    -0.203 F 
ATOM     69  F   UNL A   1      41.641  27.761  25.624  1.00  0.00    -0.200 F 
ATOM     70  C   UNL A   1      40.289  26.210  26.781  1.00  0.00     0.200 A 
ATOM     71  F   UNL A   1      38.921  24.699  27.972  1.00  0.00    -0.200 F 
ATOM     72  F   UNL A   1      40.293  25.393  25.719  1.00  0.00    -0.200 F 
ENDBRANCH  48  62
BRANCH  49  73
ATOM     73  C   UNL A   1      39.554  34.002  36.927  1.00  0.00     0.064 A 
ATOM     74  C   UNL A   1      38.800  33.610  38.041  1.00  0.00     0.173 A 
ATOM     75  C   UNL A   1      40.190  35.251  36.978  1.00  0.00     0.173 A 
ATOM     76  F   UNL A   1      38.159  32.431  38.033  1.00  0.00    -0.203 F 
ATOM     77  C   UNL A   1      38.665  34.441  39.150  1.00  0.00     0.198 A 
ATOM     78  C   UNL A   1      40.080  36.069  38.101  1.00  0.00     0.198 A 
ATOM     79  F   UNL A   1      40.930  35.673  35.942  1.00  0.00    -0.203 F 
ATOM     80  F   UNL A   1      37.895  34.062  40.179  1.00  0.00    -0.200 F 
ATOM     81  C   UNL A   1      39.310  35.668  39.183  1.00  0.00     0.200 A 
ATOM     82  F   UNL A   1      40.719  37.246  38.135  1.00  0.00    -0.200 F 
ATOM     83  F   UNL A   1      39.182  36.467  40.250  1.00  0.00    -0.200 F 
ENDBRANCH  49  73
BRANCH  61  84
ATOM     84  C   UNL A   1      43.834  28.773  35.207  1.00  0.00     0.064 A 
ATOM     85  C   UNL A   1      43.689  27.671  36.063  1.00  0.00     0.173 A 
ATOM     86  C   UNL A   1      45.129  29.264  34.983  1.00  0.00     0.173 A 
ATOM     87  F   UNL A   1      42.470  27.172  36.321  1.00  0.00    -0.203 F 
ATOM     88  C   UNL A   1      44.794  27.103  36.691  1.00  0.00     0.198 A 
ATOM     89  C   UNL A   1      46.235  28.671  35.584  1.00  0.00     0.198 A 
ATOM     90  F   UNL A   1      45.324  30.311  34.168  1.00  0.00    -0.203 F 
ATOM     91  F   UNL A   1      44.626  26.085  37.546  1.00  0.00    -0.200 F 
ATOM     92  C   UNL A   1      46.066  27.597  36.444  1.00  0.00     0.200 A 
ATOM     93  F   UNL A   1      47.465  29.139  35.330  1.00  0.00    -0.200 F 
ATOM     94  F   UNL A   1      47.129  27.042  37.042  1.00  0.00    -0.200 F 
ENDBRANCH  61  84
ENDBRANCH  35  36
ENDBRANCH  27  30
ENDBRANCH  25  26
ENDBRANCH   1  25
TORSDOF 13
ENDMDL
MODEL 3
REMARK VINA RESULT:     -12.2      6.025     11.464
REMARK SMILES C[NH2+][C@]1(C(=O)NCCCNC(=O)c2ccc(-c3c4nc(c(-c5c(F)c(F)c(F)c(F)c5F)c5ccc([nH]5)c(-c5c(F)c(F)c(F)c(F)c5F)c5nc(c(-c6c(F)c(F)c(F)c(F)c6F)c6ccc3[nH]6)C=C5)C=C4)cc2)CC[C@@H](Sc2cc(F)ccc2F)C1
REMARK SMILES IDX 8 1 7 2 6 3 4 4 5 5 3 7 76 8 88 9 77 10 78 11 2 12 1 13
REMARK SMILES IDX 79 16 80 17 81 18 86 19 82 20 85 21 87 22 83 23 84 24 9 25
REMARK SMILES IDX 10 26 11 27 12 29 13 30 14 31 75 32 15 33 74 34 16 35 17 36
REMARK SMILES IDX 18 37 68 38 19 39 73 40 67 41 69 42 20 43 72 44 66 45 65 46
REMARK SMILES IDX 21 48 53 49 33 50 52 51 34 52 37 53 51 54 70 55 35 56 36 57
REMARK SMILES IDX 50 59 71 60 38 61 22 62 23 63 31 64 24 65 25 66 29 67 32 68
REMARK SMILES IDX 26 69 27 70 30 71 28 72 54 73 55 74 63 75 56 76 57 77 61 78
REMARK SMILES IDX 64 79 58 80 59 81 62 82 60 83 39 84 40 85 48 86 41 87 42 88
REMARK SMILES IDX 46 89 49 90 43 91 44 92 47 93 45 94
REMARK H PARENT 6 6 2 14 2 15 10 28 69 47 37 58
REMARK Flexibility Score: inf
ROOT
ATOM      1  C   UNL A   1      38.152  19.503  25.058  1.00  0.00     0.042 C 
ENDROOT
BRANCH   1   2
ATOM      2  C   UNL A   1      37.157  20.590  24.704  1.00  0.00     0.118 C 
BRANCH   2   3
ATOM      3  N   UNL A   1      36.182  20.833  25.739  1.00  0.00    -0.351 N 
ATOM      4  C   UNL A   1      35.234  21.807  25.819  1.00  0.00     0.281 C 
ATOM      5  O   UNL A   1      34.305  21.576  26.602  1.00  0.00    -0.268 OA
ATOM      6  H   UNL A   1      36.205  20.204  26.495  1.00  0.00     0.163 HD
BRANCH   4   7
ATOM      7  C   UNL A   1      35.268  23.093  24.922  1.00  0.00     0.176 C 
ATOM      8  C   UNL A   1      34.716  22.951  23.488  1.00  0.00     0.080 C 
ATOM      9  C   UNL A   1      34.346  24.162  25.568  1.00  0.00     0.094 C 
ATOM     10  C   UNL A   1      34.074  24.287  23.120  1.00  0.00     0.022 C 
ATOM     11  C   UNL A   1      33.829  25.036  24.427  1.00  0.00     0.059 C 
BRANCH   7  12
ATOM     12  N   UNL A   1      36.654  23.652  24.865  1.00  0.00    -0.336 N 
ATOM     13  C   UNL A   1      37.206  24.047  26.166  1.00  0.00     0.331 C 
ATOM     14  H   UNL A   1      37.268  22.943  24.462  1.00  0.00     0.346 HD
ATOM     15  H   UNL A   1      36.602  24.500  24.302  1.00  0.00     0.346 HD
ENDBRANCH   7  12
BRANCH  11  16
ATOM     16  S   UNL A   1      32.138  25.753  24.645  1.00  0.00    -0.119 SA
BRANCH  16  17
ATOM     17  C   UNL A   1      32.370  27.389  25.333  1.00  0.00     0.046 A 
ATOM     18  C   UNL A   1      33.301  27.585  26.360  1.00  0.00     0.057 A 
ATOM     19  C   UNL A   1      31.537  28.464  24.987  1.00  0.00     0.136 A 
ATOM     20  C   UNL A   1      33.421  28.836  26.970  1.00  0.00     0.124 A 
ATOM     21  C   UNL A   1      31.669  29.719  25.592  1.00  0.00     0.043 A 
ATOM     22  F   UNL A   1      30.616  28.329  24.023  1.00  0.00    -0.206 F 
ATOM     23  F   UNL A   1      34.318  29.009  27.949  1.00  0.00    -0.207 F 
ATOM     24  C   UNL A   1      32.622  29.909  26.588  1.00  0.00     0.042 A 
ENDBRANCH  16  17
ENDBRANCH  11  16
ENDBRANCH   4   7
ENDBRANCH   2   3
ENDBRANCH   1   2
BRANCH   1  25
ATOM     25  C   UNL A   1      39.411  20.047  25.704  1.00  0.00     0.118 C 
BRANCH  25  26
ATOM     26  N   UNL A   1      40.424  19.016  25.903  1.00  0.00    -0.352 N 
ATOM     27  C   UNL A   1      41.781  19.126  26.069  1.00  0.00     0.251 C 
ATOM     28  H   UNL A   1      40.079  18.094  25.921  1.00  0.00     0.163 HD
ATOM     29  O   UNL A   1      42.488  18.127  25.962  1.00  0.00    -0.269 OA
BRANCH  27  30
ATOM     30  C   UNL A   1      42.390  20.441  26.352  1.00  0.00     0.039 A 
ATOM     31  C   UNL A   1      42.879  21.209  25.293  1.00  0.00     0.014 A 
ATOM     32  C   UNL A   1      42.479  20.919  27.661  1.00  0.00     0.014 A 
ATOM     33  C   UNL A   1      43.382  22.487  25.543  1.00  0.00     0.010 A 
ATOM     34  C   UNL A   1      42.863  22.231  27.893  1.00  0.00     0.010 A 
ATOM     35  C   UNL A   1      43.335  23.025  26.839  1.00  0.00    -0.014 A 
BRANCH  35  36
ATOM     36  C   UNL A   1      43.787  24.409  27.126  1.00  0.00     0.031 A 
ATOM     37  C   UNL A   1      42.807  25.424  27.647  1.00  0.00     0.074 A 
ATOM     38  C   UNL A   1      45.052  24.769  26.841  1.00  0.00     0.049 A 
ATOM     39  N   UNL A   1      42.978  26.702  27.873  1.00  0.00    -0.248 NA
ATOM     40  C   UNL A   1      41.439  24.949  27.914  1.00  0.00     0.031 C 
ATOM     41  C   UNL A   1      46.078  23.888  26.279  1.00  0.00     0.029 A 
ATOM     42  N   UNL A   1      45.691  25.976  26.974  1.00  0.00    -0.354 N 
ATOM     43  C   UNL A   1      41.742  27.180  28.287  1.00  0.00     0.074 A 
ATOM     44  C   UNL A   1      40.812  26.075  28.216  1.00  0.00     0.031 C 
ATOM     45  C   UNL A   1      47.223  24.575  26.146  1.00  0.00     0.029 A 
ATOM     46  C   UNL A   1      47.002  25.955  26.567  1.00  0.00     0.049 A 
ATOM     47  H   UNL A   1      45.249  26.783  27.327  1.00  0.00     0.167 HD
ATOM     48  C   UNL A   1      41.417  28.422  28.717  1.00  0.00     0.037 A 
ATOM     49  C   UNL A   1      47.918  26.939  26.530  1.00  0.00     0.037 A 
ATOM     50  C   UNL A   1      42.355  29.510  28.810  1.00  0.00     0.049 A 
ATOM     51  C   UNL A   1      47.530  28.314  27.004  1.00  0.00     0.074 A 
ATOM     52  C   UNL A   1      42.147  30.789  29.295  1.00  0.00     0.029 A 
ATOM     53  N   UNL A   1      43.681  29.444  28.406  1.00  0.00    -0.354 N 
ATOM     54  N   UNL A   1      46.378  28.737  27.467  1.00  0.00    -0.248 NA
ATOM     55  C   UNL A   1      48.572  29.348  26.956  1.00  0.00     0.031 C 
ATOM     56  C   UNL A   1      43.330  31.515  29.129  1.00  0.00     0.029 A 
ATOM     57  C   UNL A   1      44.296  30.671  28.603  1.00  0.00     0.049 A 
ATOM     58  H   UNL A   1      44.120  28.645  28.034  1.00  0.00     0.167 HD
ATOM     59  C   UNL A   1      46.565  30.073  27.796  1.00  0.00     0.074 A 
ATOM     60  C   UNL A   1      47.947  30.386  27.493  1.00  0.00     0.031 C 
ATOM     61  C   UNL A   1      45.675  30.960  28.304  1.00  0.00     0.037 A 
BRANCH  48  62
ATOM     62  C   UNL A   1      39.989  28.670  29.114  1.00  0.00     0.064 A 
ATOM     63  C   UNL A   1      39.531  28.423  30.418  1.00  0.00     0.173 A 
ATOM     64  C   UNL A   1      39.072  29.187  28.187  1.00  0.00     0.173 A 
ATOM     65  F   UNL A   1      40.362  27.916  31.342  1.00  0.00    -0.203 F 
ATOM     66  C   UNL A   1      38.202  28.647  30.767  1.00  0.00     0.198 A 
ATOM     67  C   UNL A   1      37.753  29.446  28.550  1.00  0.00     0.198 A 
ATOM     68  F   UNL A   1      39.455  29.448  26.929  1.00  0.00    -0.203 F 
ATOM     69  F   UNL A   1      37.774  28.344  32.000  1.00  0.00    -0.200 F 
ATOM     70  C   UNL A   1      37.316  29.166  29.836  1.00  0.00     0.200 A 
ATOM     71  F   UNL A   1      36.901  29.962  27.652  1.00  0.00    -0.200 F 
ATOM     72  F   UNL A   1      36.039  29.388  30.175  1.00  0.00    -0.200 F 
ENDBRANCH  48  62
BRANCH  49  73
ATOM     73  C   UNL A   1      49.298  26.656  26.053  1.00  0.00     0.064 A 
ATOM     74  C   UNL A   1      49.670  26.920  24.728  1.00  0.00     0.173 A 
ATOM     75  C   UNL A   1      50.271  26.113  26.906  1.00  0.00     0.173 A 
ATOM     76  F   UNL A   1      48.770  27.423  23.869  1.00  0.00    -0.203 F 
ATOM     77  C   UNL A   1      50.952  26.629  24.266  1.00  0.00     0.198 A 
ATOM     78  C   UNL A   1      51.562  25.852  26.451  1.00  0.00     0.198 A 
ATOM     79  F   UNL A   1      49.970  25.848  28.186  1.00  0.00    -0.203 F 
ATOM     80  F   UNL A   1      51.262  26.843  22.980  1.00  0.00    -0.200 F 
ATOM     81  C   UNL A   1      51.899  26.101  25.129  1.00  0.00     0.200 A 
ATOM     82  F   UNL A   1      52.479  25.358  27.294  1.00  0.00    -0.200 F 
ATOM     83  F   UNL A   1      53.132  25.823  24.686  1.00  0.00    -0.200 F 
ENDBRANCH  49  73
BRANCH  61  84
ATOM     84  C   UNL A   1      46.177  32.344  28.606  1.00  0.00     0.064 A 
ATOM     85  C   UNL A   1      46.749  32.670  29.845  1.00  0.00     0.173 A 
ATOM     86  C   UNL A   1      46.122  33.345  27.624  1.00  0.00     0.173 A 
ATOM     87  F   UNL A   1      46.814  31.752  30.822  1.00  0.00    -0.203 F 
ATOM     88  C   UNL A   1      47.220  33.955  30.099  1.00  0.00     0.198 A 
ATOM     89  C   UNL A   1      46.626  34.619  27.870  1.00  0.00     0.198 A 
ATOM     90  F   UNL A   1      45.591  33.084  26.420  1.00  0.00    -0.203 F 
ATOM     91  F   UNL A   1      47.714  34.259  31.307  1.00  0.00    -0.200 F 
ATOM     92  C   UNL A   1      47.166  34.925  29.109  1.00  0.00     0.200 A 
ATOM     93  F   UNL A   1      46.589  35.549  26.906  1.00  0.00    -0.200 F 
ATOM     94  F   UNL A   1      47.630  36.159  29.353  1.00  0.00    -0.200 F 
ENDBRANCH  61  84
ENDBRANCH  35  36
ENDBRANCH  27  30
ENDBRANCH  25  26
ENDBRANCH   1  25
TORSDOF 13
ENDMDL
