MODEL 1
REMARK VINA RESULT:     -11.7      0.000      0.000
REMARK SMILES C[C@H](CC(=O)NCCCNC(=O)c1ccc(-c2c3nc(c(-c4c(F)c(F)c(F)c(F)c4F)c4ccc([nH]4)c(-c4c(F)c(F)c(F)c(F)c4F)c4nc(c(-c5c(F)c(F)c(F)c(F)c5F)c5ccc2[nH]5)C=C4)C=C3)cc1)NC(=O)Cc1cn2ccsc2n1
REMARK SMILES IDX 7 1 6 2 4 3 5 4 3 6 2 7 1 8 76 9 77 10 78 12 79 13 80 14
REMARK SMILES IDX 81 15 87 16 82 17 86 18 83 19 85 20 84 21 8 22 9 23 10 24
REMARK SMILES IDX 11 25 12 27 13 28 14 29 75 30 15 31 74 32 16 33 17 34 18 35
REMARK SMILES IDX 68 36 19 37 73 38 67 39 69 40 20 41 72 42 66 43 65 44 21 46
REMARK SMILES IDX 53 47 33 48 52 49 34 50 37 51 51 52 70 53 35 54 36 55 50 57
REMARK SMILES IDX 71 58 38 59 22 60 23 61 31 62 24 63 25 64 29 65 32 66 26 67
REMARK SMILES IDX 27 68 30 69 28 70 54 71 55 72 63 73 56 74 57 75 61 76 64 77
REMARK SMILES IDX 58 78 59 79 62 80 60 81 39 82 40 83 48 84 41 85 42 86 46 87
REMARK SMILES IDX 49 88 43 89 44 90 47 91 45 92
REMARK H PARENT 6 5 76 11 10 26 69 45 37 56
REMARK Flexibility Score: inf
ROOT
ATOM      1  C   UNL A   1      31.277  30.481  25.823  1.00  0.00     0.117 C 
ENDROOT
BRANCH   1   2
ATOM      2  N   UNL A   1      32.455  30.090  25.068  1.00  0.00    -0.356 N 
ATOM      3  C   UNL A   1      33.230  28.973  25.112  1.00  0.00     0.222 C 
ATOM      4  O   UNL A   1      34.030  28.796  24.191  1.00  0.00    -0.275 OA
ATOM      5  H   UNL A   1      32.746  30.755  24.402  1.00  0.00     0.163 HD
BRANCH   3   6
ATOM      6  C   UNL A   1      33.167  28.005  26.274  1.00  0.00     0.124 C 
BRANCH   6   7
ATOM      7  C   UNL A   1      32.613  26.657  25.800  1.00  0.00     0.088 C 
ATOM      8  C   UNL A   1      33.591  25.514  26.025  1.00  0.00     0.031 C 
BRANCH   7   9
ATOM      9  N   UNL A   1      31.377  26.283  26.486  1.00  0.00    -0.353 N 
ATOM     10  C   UNL A   1      30.412  25.442  25.983  1.00  0.00     0.226 C 
ATOM     11  H   UNL A   1      31.223  26.666  27.380  1.00  0.00     0.163 HD
ATOM     12  O   UNL A   1      29.614  24.922  26.763  1.00  0.00    -0.275 OA
BRANCH  10  13
ATOM     13  C   UNL A   1      30.334  25.224  24.476  1.00  0.00     0.157 C 
BRANCH  13  14
ATOM     14  C   UNL A   1      29.667  26.392  23.831  1.00  0.00     0.070 A 
ATOM     15  C   UNL A   1      28.306  26.679  23.781  1.00  0.00     0.118 A 
ATOM     16  N   UNL A   1      30.416  27.427  23.281  1.00  0.00    -0.223 NA
ATOM     17  N   UNL A   1      28.243  27.938  23.281  1.00  0.00    -0.297 N 
ATOM     18  C   UNL A   1      29.512  28.317  22.969  1.00  0.00     0.193 A 
ATOM     19  C   UNL A   1      27.262  28.876  23.069  1.00  0.00     0.104 A 
ATOM     20  S   UNL A   1      29.532  29.932  22.330  1.00  0.00    -0.105 S 
ATOM     21  C   UNL A   1      27.773  30.012  22.567  1.00  0.00     0.087 A 
ENDBRANCH  13  14
ENDBRANCH  10  13
ENDBRANCH   7   9
ENDBRANCH   6   7
ENDBRANCH   3   6
ENDBRANCH   1   2
BRANCH   1  22
ATOM     22  C   UNL A   1      31.270  31.922  26.341  1.00  0.00     0.042 C 
BRANCH  22  23
ATOM     23  C   UNL A   1      32.560  32.396  27.010  1.00  0.00     0.118 C 
BRANCH  23  24
ATOM     24  N   UNL A   1      32.483  33.810  27.330  1.00  0.00    -0.352 N 
ATOM     25  C   UNL A   1      33.051  34.475  28.387  1.00  0.00     0.251 C 
ATOM     26  H   UNL A   1      31.955  34.362  26.709  1.00  0.00     0.163 HD
ATOM     27  O   UNL A   1      32.587  35.561  28.742  1.00  0.00    -0.269 OA
BRANCH  25  28
ATOM     28  C   UNL A   1      34.221  33.914  29.102  1.00  0.00     0.039 A 
ATOM     29  C   UNL A   1      35.504  34.345  28.750  1.00  0.00     0.014 A 
ATOM     30  C   UNL A   1      34.067  32.894  30.047  1.00  0.00     0.014 A 
ATOM     31  C   UNL A   1      36.627  33.776  29.359  1.00  0.00     0.010 A 
ATOM     32  C   UNL A   1      35.185  32.363  30.692  1.00  0.00     0.010 A 
ATOM     33  C   UNL A   1      36.477  32.786  30.344  1.00  0.00    -0.014 A 
BRANCH  33  34
ATOM     34  C   UNL A   1      37.658  32.169  31.004  1.00  0.00     0.031 A 
ATOM     35  C   UNL A   1      38.444  31.093  30.307  1.00  0.00     0.074 A 
ATOM     36  C   UNL A   1      37.995  32.540  32.254  1.00  0.00     0.049 A 
ATOM     37  N   UNL A   1      39.463  30.394  30.742  1.00  0.00    -0.248 NA
ATOM     38  C   UNL A   1      38.014  30.742  28.945  1.00  0.00     0.031 C 
ATOM     39  C   UNL A   1      37.303  33.553  33.047  1.00  0.00     0.029 A 
ATOM     40  N   UNL A   1      38.999  32.097  33.078  1.00  0.00    -0.354 N 
ATOM     41  C   UNL A   1      39.785  29.514  29.717  1.00  0.00     0.074 A 
ATOM     42  C   UNL A   1      38.825  29.735  28.656  1.00  0.00     0.031 C 
ATOM     43  C   UNL A   1      37.912  33.670  34.236  1.00  0.00     0.029 A 
ATOM     44  C   UNL A   1      39.015  32.714  34.304  1.00  0.00     0.049 A 
ATOM     45  H   UNL A   1      39.647  31.404  32.816  1.00  0.00     0.167 HD
ATOM     46  C   UNL A   1      40.800  28.616  29.658  1.00  0.00     0.037 A 
ATOM     47  C   UNL A   1      39.820  32.524  35.368  1.00  0.00     0.037 A 
ATOM     48  C   UNL A   1      41.764  28.409  30.707  1.00  0.00     0.049 A 
ATOM     49  C   UNL A   1      40.911  31.492  35.295  1.00  0.00     0.074 A 
ATOM     50  C   UNL A   1      42.871  27.576  30.713  1.00  0.00     0.029 A 
ATOM     51  N   UNL A   1      41.729  29.034  31.946  1.00  0.00    -0.354 N 
ATOM     52  N   UNL A   1      41.247  30.713  34.298  1.00  0.00    -0.248 NA
ATOM     53  C   UNL A   1      41.731  31.313  36.502  1.00  0.00     0.031 C 
ATOM     54  C   UNL A   1      43.475  27.659  31.973  1.00  0.00     0.029 A 
ATOM     55  C   UNL A   1      42.774  28.579  32.737  1.00  0.00     0.049 A 
ATOM     56  H   UNL A   1      41.062  29.702  32.221  1.00  0.00     0.167 HD
ATOM     57  C   UNL A   1      42.326  29.963  34.745  1.00  0.00     0.074 A 
ATOM     58  C   UNL A   1      42.598  30.393  36.102  1.00  0.00     0.031 C 
ATOM     59  C   UNL A   1      43.028  29.006  34.090  1.00  0.00     0.037 A 
BRANCH  46  60
ATOM     60  C   UNL A   1      40.911  27.782  28.413  1.00  0.00     0.064 A 
ATOM     61  C   UNL A   1      40.240  26.556  28.285  1.00  0.00     0.173 A 
ATOM     62  C   UNL A   1      41.687  28.219  27.329  1.00  0.00     0.173 A 
ATOM     63  F   UNL A   1      39.490  26.088  29.294  1.00  0.00    -0.203 F 
ATOM     64  C   UNL A   1      40.375  25.780  27.137  1.00  0.00     0.198 A 
ATOM     65  C   UNL A   1      41.795  27.454  26.169  1.00  0.00     0.198 A 
ATOM     66  F   UNL A   1      42.342  29.388  27.392  1.00  0.00    -0.203 F 
ATOM     67  F   UNL A   1      39.772  24.585  27.062  1.00  0.00    -0.200 F 
ATOM     68  C   UNL A   1      41.149  26.231  26.078  1.00  0.00     0.200 A 
ATOM     69  F   UNL A   1      42.532  27.898  25.142  1.00  0.00    -0.200 F 
ATOM     70  F   UNL A   1      41.279  25.482  24.975  1.00  0.00    -0.200 F 
ENDBRANCH  46  60
BRANCH  47  71
ATOM     71  C   UNL A   1      39.634  33.356  36.584  1.00  0.00     0.064 A 
ATOM     72  C   UNL A   1      40.342  34.554  36.744  1.00  0.00     0.173 A 
ATOM     73  C   UNL A   1      38.731  32.990  37.592  1.00  0.00     0.173 A 
ATOM     74  F   UNL A   1      41.233  34.934  35.816  1.00  0.00    -0.203 F 
ATOM     75  C   UNL A   1      40.157  35.355  37.869  1.00  0.00     0.198 A 
ATOM     76  C   UNL A   1      38.528  33.803  38.705  1.00  0.00     0.198 A 
ATOM     77  F   UNL A   1      38.027  31.854  37.483  1.00  0.00    -0.203 F 
ATOM     78  F   UNL A   1      40.866  36.483  38.009  1.00  0.00    -0.200 F 
ATOM     79  C   UNL A   1      39.243  34.983  38.844  1.00  0.00     0.200 A 
ATOM     80  F   UNL A   1      37.634  33.448  39.639  1.00  0.00    -0.200 F 
ATOM     81  F   UNL A   1      39.053  35.761  39.918  1.00  0.00    -0.200 F 
ENDBRANCH  47  71
BRANCH  59  82
ATOM     82  C   UNL A   1      44.166  28.362  34.827  1.00  0.00     0.064 A 
ATOM     83  C   UNL A   1      43.998  27.158  35.526  1.00  0.00     0.173 A 
ATOM     84  C   UNL A   1      45.447  28.933  34.799  1.00  0.00     0.173 A 
ATOM     85  F   UNL A   1      42.787  26.582  35.597  1.00  0.00    -0.203 F 
ATOM     86  C   UNL A   1      45.066  26.559  36.187  1.00  0.00     0.198 A 
ATOM     87  C   UNL A   1      46.520  28.316  35.438  1.00  0.00     0.198 A 
ATOM     88  F   UNL A   1      45.662  30.082  34.142  1.00  0.00    -0.203 F 
ATOM     89  F   UNL A   1      44.874  25.430  36.884  1.00  0.00    -0.200 F 
ATOM     90  C   UNL A   1      46.327  27.134  36.136  1.00  0.00     0.200 A 
ATOM     91  F   UNL A   1      47.740  28.868  35.379  1.00  0.00    -0.200 F 
ATOM     92  F   UNL A   1      47.357  26.551  36.766  1.00  0.00    -0.200 F 
ENDBRANCH  59  82
ENDBRANCH  33  34
ENDBRANCH  25  28
ENDBRANCH  23  24
ENDBRANCH  22  23
ENDBRANCH   1  22
TORSDOF 14
ENDMDL
MODEL 2
REMARK VINA RESULT:     -11.6      0.303      1.639
REMARK SMILES C[C@H](CC(=O)NCCCNC(=O)c1ccc(-c2c3nc(c(-c4c(F)c(F)c(F)c(F)c4F)c4ccc([nH]4)c(-c4c(F)c(F)c(F)c(F)c4F)c4nc(c(-c5c(F)c(F)c(F)c(F)c5F)c5ccc2[nH]5)C=C4)C=C3)cc1)NC(=O)Cc1cn2ccsc2n1
REMARK SMILES IDX 7 1 6 2 4 3 5 4 3 6 2 7 1 8 76 9 77 10 78 12 79 13 80 14
REMARK SMILES IDX 81 15 87 16 82 17 86 18 83 19 85 20 84 21 8 22 9 23 10 24
REMARK SMILES IDX 11 25 12 27 13 28 14 29 75 30 15 31 74 32 16 33 17 34 18 35
REMARK SMILES IDX 68 36 19 37 73 38 67 39 69 40 20 41 72 42 66 43 65 44 21 46
REMARK SMILES IDX 53 47 33 48 52 49 34 50 37 51 51 52 70 53 35 54 36 55 50 57
REMARK SMILES IDX 71 58 38 59 22 60 23 61 31 62 24 63 25 64 29 65 32 66 26 67
REMARK SMILES IDX 27 68 30 69 28 70 54 71 55 72 63 73 56 74 57 75 61 76 64 77
REMARK SMILES IDX 58 78 59 79 62 80 60 81 39 82 40 83 48 84 41 85 42 86 46 87
REMARK SMILES IDX 49 88 43 89 44 90 47 91 45 92
REMARK H PARENT 6 5 76 11 10 26 69 45 37 56
REMARK Flexibility Score: inf
ROOT
ATOM      1  C   UNL A   1      31.377  30.298  25.746  1.00  0.00     0.117 C 
ENDROOT
BRANCH   1   2
ATOM      2  N   UNL A   1      32.260  30.044  24.620  1.00  0.00    -0.356 N 
ATOM      3  C   UNL A   1      33.155  29.050  24.377  1.00  0.00     0.222 C 
ATOM      4  O   UNL A   1      33.598  28.947  23.232  1.00  0.00    -0.275 OA
ATOM      5  H   UNL A   1      32.198  30.714  23.901  1.00  0.00     0.163 HD
BRANCH   3   6
ATOM      6  C   UNL A   1      33.646  28.133  25.478  1.00  0.00     0.124 C 
BRANCH   6   7
ATOM      7  C   UNL A   1      33.058  26.730  25.289  1.00  0.00     0.088 C 
ATOM      8  C   UNL A   1      34.027  25.633  25.700  1.00  0.00     0.031 C 
BRANCH   7   9
ATOM      9  N   UNL A   1      31.841  26.519  26.070  1.00  0.00    -0.353 N 
ATOM     10  C   UNL A   1      30.744  25.800  25.654  1.00  0.00     0.226 C 
ATOM     11  H   UNL A   1      31.803  26.925  26.966  1.00  0.00     0.163 HD
ATOM     12  O   UNL A   1      29.948  25.390  26.500  1.00  0.00    -0.275 OA
BRANCH  10  13
ATOM     13  C   UNL A   1      30.527  25.581  24.161  1.00  0.00     0.157 C 
BRANCH  13  14
ATOM     14  C   UNL A   1      29.769  26.731  23.587  1.00  0.00     0.070 A 
ATOM     15  C   UNL A   1      28.417  27.025  23.740  1.00  0.00     0.118 A 
ATOM     16  N   UNL A   1      30.424  27.742  22.892  1.00  0.00    -0.223 NA
ATOM     17  N   UNL A   1      28.278  28.267  23.213  1.00  0.00    -0.297 N 
ATOM     18  C   UNL A   1      29.483  28.626  22.694  1.00  0.00     0.193 A 
ATOM     19  C   UNL A   1      27.277  29.203  23.123  1.00  0.00     0.104 A 
ATOM     20  S   UNL A   1      29.406  30.219  22.005  1.00  0.00    -0.105 S 
ATOM     21  C   UNL A   1      27.705  30.318  22.509  1.00  0.00     0.087 A 
ENDBRANCH  13  14
ENDBRANCH  10  13
ENDBRANCH   7   9
ENDBRANCH   6   7
ENDBRANCH   3   6
ENDBRANCH   1   2
BRANCH   1  22
ATOM     22  C   UNL A   1      31.307  31.753  26.217  1.00  0.00     0.042 C 
BRANCH  22  23
ATOM     23  C   UNL A   1      32.392  32.188  27.203  1.00  0.00     0.118 C 
BRANCH  23  24
ATOM     24  N   UNL A   1      32.359  33.626  27.401  1.00  0.00    -0.352 N 
ATOM     25  C   UNL A   1      32.981  34.364  28.376  1.00  0.00     0.251 C 
ATOM     26  H   UNL A   1      31.820  34.137  26.754  1.00  0.00     0.163 HD
ATOM     27  O   UNL A   1      32.556  35.489  28.652  1.00  0.00    -0.269 OA
BRANCH  25  28
ATOM     28  C   UNL A   1      34.165  33.836  29.094  1.00  0.00     0.039 A 
ATOM     29  C   UNL A   1      35.440  34.254  28.702  1.00  0.00     0.014 A 
ATOM     30  C   UNL A   1      34.029  32.859  30.086  1.00  0.00     0.014 A 
ATOM     31  C   UNL A   1      36.575  33.714  29.316  1.00  0.00     0.010 A 
ATOM     32  C   UNL A   1      35.159  32.357  30.734  1.00  0.00     0.010 A 
ATOM     33  C   UNL A   1      36.444  32.767  30.345  1.00  0.00    -0.014 A 
BRANCH  33  34
ATOM     34  C   UNL A   1      37.638  32.182  31.011  1.00  0.00     0.031 A 
ATOM     35  C   UNL A   1      38.446  31.115  30.324  1.00  0.00     0.074 A 
ATOM     36  C   UNL A   1      37.967  32.571  32.257  1.00  0.00     0.049 A 
ATOM     37  N   UNL A   1      39.480  30.442  30.766  1.00  0.00    -0.248 NA
ATOM     38  C   UNL A   1      38.024  30.743  28.966  1.00  0.00     0.031 C 
ATOM     39  C   UNL A   1      37.253  33.577  33.041  1.00  0.00     0.029 A 
ATOM     40  N   UNL A   1      38.980  32.157  33.085  1.00  0.00    -0.354 N 
ATOM     41  C   UNL A   1      39.820  29.559  29.749  1.00  0.00     0.074 A 
ATOM     42  C   UNL A   1      38.856  29.750  28.686  1.00  0.00     0.031 C 
ATOM     43  C   UNL A   1      37.860  33.718  34.229  1.00  0.00     0.029 A 
ATOM     44  C   UNL A   1      38.983  32.786  34.306  1.00  0.00     0.049 A 
ATOM     45  H   UNL A   1      39.643  31.476  32.830  1.00  0.00     0.167 HD
ATOM     46  C   UNL A   1      40.854  28.682  29.698  1.00  0.00     0.037 A 
ATOM     47  C   UNL A   1      39.791  32.623  35.371  1.00  0.00     0.037 A 
ATOM     48  C   UNL A   1      41.821  28.505  30.749  1.00  0.00     0.049 A 
ATOM     49  C   UNL A   1      40.904  31.613  35.308  1.00  0.00     0.074 A 
ATOM     50  C   UNL A   1      42.946  27.696  30.763  1.00  0.00     0.029 A 
ATOM     51  N   UNL A   1      41.774  29.141  31.982  1.00  0.00    -0.354 N 
ATOM     52  N   UNL A   1      41.256  30.832  34.318  1.00  0.00    -0.248 NA
ATOM     53  C   UNL A   1      41.728  31.462  36.516  1.00  0.00     0.031 C 
ATOM     54  C   UNL A   1      43.547  27.804  32.022  1.00  0.00     0.029 A 
ATOM     55  C   UNL A   1      42.827  28.715  32.777  1.00  0.00     0.049 A 
ATOM     56  H   UNL A   1      41.093  29.798  32.251  1.00  0.00     0.167 HD
ATOM     57  C   UNL A   1      42.351  30.109  34.772  1.00  0.00     0.074 A 
ATOM     58  C   UNL A   1      42.614  30.557  36.125  1.00  0.00     0.031 C 
ATOM     59  C   UNL A   1      43.072  29.160  34.126  1.00  0.00     0.037 A 
BRANCH  46  60
ATOM     60  C   UNL A   1      40.982  27.839  28.461  1.00  0.00     0.064 A 
ATOM     61  C   UNL A   1      41.785  28.232  27.380  1.00  0.00     0.173 A 
ATOM     62  C   UNL A   1      40.303  26.615  28.360  1.00  0.00     0.173 A 
ATOM     63  F   UNL A   1      42.450  29.397  27.421  1.00  0.00    -0.203 F 
ATOM     64  C   UNL A   1      41.871  27.454  26.228  1.00  0.00     0.198 A 
ATOM     65  C   UNL A   1      40.415  25.824  27.219  1.00  0.00     0.198 A 
ATOM     66  F   UNL A   1      39.529  26.184  29.368  1.00  0.00    -0.203 F 
ATOM     67  F   UNL A   1      42.597  27.880  25.185  1.00  0.00    -0.200 F 
ATOM     68  C   UNL A   1      41.189  26.249  26.150  1.00  0.00     0.200 A 
ATOM     69  F   UNL A   1      39.767  24.653  27.151  1.00  0.00    -0.200 F 
ATOM     70  F   UNL A   1      41.271  25.502  25.041  1.00  0.00    -0.200 F 
ENDBRANCH  46  60
BRANCH  47  71
ATOM     71  C   UNL A   1      39.588  33.462  36.579  1.00  0.00     0.064 A 
ATOM     72  C   UNL A   1      38.700  33.060  37.585  1.00  0.00     0.173 A 
ATOM     73  C   UNL A   1      40.293  34.659  36.768  1.00  0.00     0.173 A 
ATOM     74  F   UNL A   1      37.988  31.933  37.439  1.00  0.00    -0.203 F 
ATOM     75  C   UNL A   1      38.522  33.826  38.736  1.00  0.00     0.198 A 
ATOM     76  C   UNL A   1      40.131  35.412  37.929  1.00  0.00     0.198 A 
ATOM     77  F   UNL A   1      41.157  35.084  35.834  1.00  0.00    -0.203 F 
ATOM     78  F   UNL A   1      37.647  33.432  39.671  1.00  0.00    -0.200 F 
ATOM     79  C   UNL A   1      39.244  34.997  38.910  1.00  0.00     0.200 A 
ATOM     80  F   UNL A   1      40.842  36.536  38.101  1.00  0.00    -0.200 F 
ATOM     81  F   UNL A   1      39.084  35.726  40.023  1.00  0.00    -0.200 F 
ENDBRANCH  47  71
BRANCH  59  82
ATOM     82  C   UNL A   1      44.224  28.547  34.869  1.00  0.00     0.064 A 
ATOM     83  C   UNL A   1      44.054  27.411  35.673  1.00  0.00     0.173 A 
ATOM     84  C   UNL A   1      45.517  29.077  34.742  1.00  0.00     0.173 A 
ATOM     85  F   UNL A   1      42.834  26.879  35.840  1.00  0.00    -0.203 F 
ATOM     86  C   UNL A   1      45.134  26.838  36.339  1.00  0.00     0.198 A 
ATOM     87  C   UNL A   1      46.599  28.485  35.388  1.00  0.00     0.198 A 
ATOM     88  F   UNL A   1      45.733  30.161  33.983  1.00  0.00    -0.203 F 
ATOM     89  F   UNL A   1      44.942  25.778  37.135  1.00  0.00    -0.200 F 
ATOM     90  C   UNL A   1      46.406  27.370  36.190  1.00  0.00     0.200 A 
ATOM     91  F   UNL A   1      47.830  28.994  35.235  1.00  0.00    -0.200 F 
ATOM     92  F   UNL A   1      47.446  26.813  36.825  1.00  0.00    -0.200 F 
ENDBRANCH  59  82
ENDBRANCH  33  34
ENDBRANCH  25  28
ENDBRANCH  23  24
ENDBRANCH  22  23
ENDBRANCH   1  22
TORSDOF 14
ENDMDL
MODEL 3
REMARK VINA RESULT:     -11.5      6.125     11.196
REMARK SMILES C[C@H](CC(=O)NCCCNC(=O)c1ccc(-c2c3nc(c(-c4c(F)c(F)c(F)c(F)c4F)c4ccc([nH]4)c(-c4c(F)c(F)c(F)c(F)c4F)c4nc(c(-c5c(F)c(F)c(F)c(F)c5F)c5ccc2[nH]5)C=C4)C=C3)cc1)NC(=O)Cc1cn2ccsc2n1
REMARK SMILES IDX 7 1 6 2 4 3 5 4 3 6 2 7 1 8 76 9 77 10 78 12 79 13 80 14
REMARK SMILES IDX 81 15 87 16 82 17 86 18 83 19 85 20 84 21 8 22 9 23 10 24
REMARK SMILES IDX 11 25 12 27 13 28 14 29 75 30 15 31 74 32 16 33 17 34 18 35
REMARK SMILES IDX 68 36 19 37 73 38 67 39 69 40 20 41 72 42 66 43 65 44 21 46
REMARK SMILES IDX 53 47 33 48 52 49 34 50 37 51 51 52 70 53 35 54 36 55 50 57
REMARK SMILES IDX 71 58 38 59 22 60 23 61 31 62 24 63 25 64 29 65 32 66 26 67
REMARK SMILES IDX 27 68 30 69 28 70 54 71 55 72 63 73 56 74 57 75 61 76 64 77
REMARK SMILES IDX 58 78 59 79 62 80 60 81 39 82 40 83 48 84 41 85 42 86 46 87
REMARK SMILES IDX 49 88 43 89 44 90 47 91 45 92
REMARK H PARENT 6 5 76 11 10 26 69 45 37 56
REMARK Flexibility Score: inf
ROOT
ATOM      1  C   UNL A   1      36.833  20.519  24.671  1.00  0.00     0.117 C 
ENDROOT
BRANCH   1   2
ATOM      2  N   UNL A   1      35.919  20.655  25.793  1.00  0.00    -0.356 N 
ATOM      3  C   UNL A   1      35.214  21.719  26.264  1.00  0.00     0.222 C 
ATOM      4  O   UNL A   1      34.328  21.497  27.090  1.00  0.00    -0.275 OA
ATOM      5  H   UNL A   1      35.785  19.825  26.306  1.00  0.00     0.163 HD
BRANCH   3   6
ATOM      6  C   UNL A   1      35.537  23.138  25.843  1.00  0.00     0.124 C 
BRANCH   6   7
ATOM      7  C   UNL A   1      34.317  23.771  25.165  1.00  0.00     0.088 C 
ATOM      8  C   UNL A   1      34.409  25.288  25.103  1.00  0.00     0.031 C 
BRANCH   7   9
ATOM      9  N   UNL A   1      34.134  23.312  23.790  1.00  0.00    -0.353 N 
ATOM     10  C   UNL A   1      33.010  22.687  23.304  1.00  0.00     0.226 C 
ATOM     11  H   UNL A   1      34.877  23.461  23.162  1.00  0.00     0.163 HD
ATOM     12  O   UNL A   1      32.819  22.670  22.088  1.00  0.00    -0.275 OA
BRANCH  10  13
ATOM     13  C   UNL A   1      32.067  21.995  24.283  1.00  0.00     0.157 C 
BRANCH  13  14
ATOM     14  C   UNL A   1      32.244  20.516  24.194  1.00  0.00     0.070 A 
ATOM     15  C   UNL A   1      32.537  19.757  23.064  1.00  0.00     0.118 A 
ATOM     16  N   UNL A   1      32.242  19.726  25.338  1.00  0.00    -0.223 NA
ATOM     17  N   UNL A   1      32.803  18.518  23.547  1.00  0.00    -0.297 N 
ATOM     18  C   UNL A   1      32.578  18.547  24.888  1.00  0.00     0.193 A 
ATOM     19  C   UNL A   1      33.259  17.328  23.034  1.00  0.00     0.104 A 
ATOM     20  S   UNL A   1      32.909  16.998  25.601  1.00  0.00    -0.105 S 
ATOM     21  C   UNL A   1      33.382  16.398  23.996  1.00  0.00     0.087 A 
ENDBRANCH  13  14
ENDBRANCH  10  13
ENDBRANCH   7   9
ENDBRANCH   6   7
ENDBRANCH   3   6
ENDBRANCH   1   2
BRANCH   1  22
ATOM     22  C   UNL A   1      38.040  19.608  24.907  1.00  0.00     0.042 C 
BRANCH  22  23
ATOM     23  C   UNL A   1      39.104  20.146  25.863  1.00  0.00     0.118 C 
BRANCH  23  24
ATOM     24  N   UNL A   1      40.180  19.185  26.027  1.00  0.00    -0.352 N 
ATOM     25  C   UNL A   1      41.532  19.416  26.043  1.00  0.00     0.251 C 
ATOM     26  H   UNL A   1      39.904  18.246  26.140  1.00  0.00     0.163 HD
ATOM     27  O   UNL A   1      42.311  18.492  25.797  1.00  0.00    -0.269 OA
BRANCH  25  28
ATOM     28  C   UNL A   1      42.073  20.758  26.364  1.00  0.00     0.039 A 
ATOM     29  C   UNL A   1      42.297  21.099  27.702  1.00  0.00     0.014 A 
ATOM     30  C   UNL A   1      42.267  21.715  25.362  1.00  0.00     0.014 A 
ATOM     31  C   UNL A   1      42.736  22.384  28.034  1.00  0.00     0.010 A 
ATOM     32  C   UNL A   1      42.756  22.981  25.690  1.00  0.00     0.010 A 
ATOM     33  C   UNL A   1      42.980  23.335  27.029  1.00  0.00    -0.014 A 
BRANCH  33  34
ATOM     34  C   UNL A   1      43.448  24.706  27.362  1.00  0.00     0.031 A 
ATOM     35  C   UNL A   1      42.493  25.720  27.929  1.00  0.00     0.074 A 
ATOM     36  C   UNL A   1      44.722  25.058  27.106  1.00  0.00     0.049 A 
ATOM     37  N   UNL A   1      42.698  26.981  28.223  1.00  0.00    -0.248 NA
ATOM     38  C   UNL A   1      41.119  25.262  28.179  1.00  0.00     0.031 C 
ATOM     39  C   UNL A   1      45.741  24.178  26.537  1.00  0.00     0.029 A 
ATOM     40  N   UNL A   1      45.373  26.254  27.282  1.00  0.00    -0.354 N 
ATOM     41  C   UNL A   1      41.479  27.466  28.679  1.00  0.00     0.074 A 
ATOM     42  C   UNL A   1      40.529  26.379  28.578  1.00  0.00     0.031 C 
ATOM     43  C   UNL A   1      46.894  24.855  26.428  1.00  0.00     0.029 A 
ATOM     44  C   UNL A   1      46.686  26.228  26.883  1.00  0.00     0.049 A 
ATOM     45  H   UNL A   1      44.940  27.054  27.658  1.00  0.00     0.167 HD
ATOM     46  C   UNL A   1      41.182  28.701  29.154  1.00  0.00     0.037 A 
ATOM     47  C   UNL A   1      47.616  27.202  26.875  1.00  0.00     0.037 A 
ATOM     48  C   UNL A   1      42.132  29.777  29.269  1.00  0.00     0.049 A 
ATOM     49  C   UNL A   1      47.253  28.576  27.366  1.00  0.00     0.074 A 
ATOM     50  C   UNL A   1      41.948  31.041  29.806  1.00  0.00     0.029 A 
ATOM     51  N   UNL A   1      43.447  29.721  28.828  1.00  0.00    -0.354 N 
ATOM     52  N   UNL A   1      46.117  29.006  27.855  1.00  0.00    -0.248 NA
ATOM     53  C   UNL A   1      48.305  29.601  27.299  1.00  0.00     0.031 C 
ATOM     54  C   UNL A   1      43.135  31.764  29.642  1.00  0.00     0.029 A 
ATOM     55  C   UNL A   1      44.074  30.937  29.048  1.00  0.00     0.049 A 
ATOM     56  H   UNL A   1      43.871  28.932  28.421  1.00  0.00     0.167 HD
ATOM     57  C   UNL A   1      46.317  30.343  28.171  1.00  0.00     0.074 A 
ATOM     58  C   UNL A   1      47.692  30.650  27.831  1.00  0.00     0.031 C 
ATOM     59  C   UNL A   1      45.440  31.234  28.695  1.00  0.00     0.037 A 
BRANCH  46  60
ATOM     60  C   UNL A   1      39.763  28.955  29.579  1.00  0.00     0.064 A 
ATOM     61  C   UNL A   1      39.337  28.733  30.897  1.00  0.00     0.173 A 
ATOM     62  C   UNL A   1      38.820  29.437  28.659  1.00  0.00     0.173 A 
ATOM     63  F   UNL A   1      40.196  28.265  31.815  1.00  0.00    -0.203 F 
ATOM     64  C   UNL A   1      38.011  28.944  31.268  1.00  0.00     0.198 A 
ATOM     65  C   UNL A   1      37.502  29.677  29.041  1.00  0.00     0.198 A 
ATOM     66  F   UNL A   1      39.175  29.677  27.387  1.00  0.00    -0.203 F 
ATOM     67  F   UNL A   1      37.615  28.668  32.518  1.00  0.00    -0.200 F 
ATOM     68  C   UNL A   1      37.096  29.420  30.341  1.00  0.00     0.200 A 
ATOM     69  F   UNL A   1      36.622  30.151  28.148  1.00  0.00    -0.200 F 
ATOM     70  F   UNL A   1      35.821  29.621  30.700  1.00  0.00    -0.200 F 
ENDBRANCH  46  60
BRANCH  47  71
ATOM     71  C   UNL A   1      48.992  26.897  26.407  1.00  0.00     0.064 A 
ATOM     72  C   UNL A   1      49.963  26.432  27.302  1.00  0.00     0.173 A 
ATOM     73  C   UNL A   1      49.357  27.036  25.060  1.00  0.00     0.173 A 
ATOM     74  F   UNL A   1      49.668  26.304  28.604  1.00  0.00    -0.203 F 
ATOM     75  C   UNL A   1      51.250  26.117  26.869  1.00  0.00     0.198 A 
ATOM     76  C   UNL A   1      50.636  26.699  24.624  1.00  0.00     0.198 A 
ATOM     77  F   UNL A   1      48.461  27.475  24.164  1.00  0.00    -0.203 F 
ATOM     78  F   UNL A   1      52.168  25.698  27.751  1.00  0.00    -0.200 F 
ATOM     79  C   UNL A   1      51.582  26.243  25.529  1.00  0.00     0.200 A 
ATOM     80  F   UNL A   1      50.950  26.808  23.325  1.00  0.00    -0.200 F 
ATOM     81  F   UNL A   1      52.815  25.926  25.110  1.00  0.00    -0.200 F 
ENDBRANCH  47  71
BRANCH  59  82
ATOM     82  C   UNL A   1      45.943  32.627  28.944  1.00  0.00     0.064 A 
ATOM     83  C   UNL A   1      46.600  32.966  30.136  1.00  0.00     0.173 A 
ATOM     84  C   UNL A   1      45.803  33.621  27.964  1.00  0.00     0.173 A 
ATOM     85  F   UNL A   1      46.741  32.054  31.111  1.00  0.00    -0.203 F 
ATOM     86  C   UNL A   1      47.081  34.254  30.346  1.00  0.00     0.198 A 
ATOM     87  C   UNL A   1      46.311  34.902  28.167  1.00  0.00     0.198 A 
ATOM     88  F   UNL A   1      45.185  33.347  26.806  1.00  0.00    -0.203 F 
ATOM     89  F   UNL A   1      47.669  34.568  31.509  1.00  0.00    -0.200 F 
ATOM     90  C   UNL A   1      46.943  35.219  29.359  1.00  0.00     0.200 A 
ATOM     91  F   UNL A   1      46.186  35.830  27.208  1.00  0.00    -0.200 F 
ATOM     92  F   UNL A   1      47.415  36.457  29.559  1.00  0.00    -0.200 F 
ENDBRANCH  59  82
ENDBRANCH  33  34
ENDBRANCH  25  28
ENDBRANCH  23  24
ENDBRANCH  22  23
ENDBRANCH   1  22
TORSDOF 14
ENDMDL
