MODEL 1
REMARK VINA RESULT:     -13.3      0.000      0.000
REMARK SMILES CC(C)(C)OC(=O)N1C[C@@H](C(=O)NCCCNC(=O)c2ccc(-c3c4nc(c(-c5c(F)c(F)c(F)c(F)c5F)c5ccc([nH]5)c(-c5c(F)c(F)c(F)c(F)c5F)c5nc(c(-c6c(F)c(F)c(F)c(F)c6F)c6ccc3[nH]6)C=C5)C=C4)cc2)[C@H](c2cccc([N+](=O)[O-])c2)C1
REMARK SMILES IDX 14 1 13 2 11 3 12 4 10 6 8 7 9 8 93 9 83 10 6 11 7 12 5 13
REMARK SMILES IDX 2 14 1 15 3 16 4 17 84 18 85 19 92 20 86 21 88 22 87 23
REMARK SMILES IDX 89 24 90 25 91 26 15 27 16 28 17 29 18 30 19 32 20 33 21 34
REMARK SMILES IDX 82 35 22 36 81 37 23 38 24 39 25 40 75 41 26 42 80 43 74 44
REMARK SMILES IDX 76 45 27 46 79 47 73 48 72 49 28 51 60 52 40 53 59 54 41 55
REMARK SMILES IDX 44 56 58 57 77 58 42 59 43 60 57 62 78 63 45 64 29 65 30 66
REMARK SMILES IDX 38 67 31 68 32 69 36 70 39 71 33 72 34 73 37 74 35 75 61 76
REMARK SMILES IDX 62 77 70 78 63 79 64 80 68 81 71 82 65 83 66 84 69 85 67 86
REMARK SMILES IDX 46 87 47 88 55 89 48 90 49 91 53 92 56 93 50 94 51 95 54 96
REMARK SMILES IDX 52 97
REMARK H PARENT 13 5 17 31 76 50 44 61
REMARK Flexibility Score: inf
ROOT
ATOM      1  C   UNL A   1      31.567  30.636  26.505  1.00  0.00     0.117 C 
ENDROOT
BRANCH   1   2
ATOM      2  N   UNL A   1      32.435  30.256  25.406  1.00  0.00    -0.356 N 
ATOM      3  C   UNL A   1      32.569  29.071  24.752  1.00  0.00     0.225 C 
ATOM      4  O   UNL A   1      33.535  28.954  23.998  1.00  0.00    -0.275 OA
ATOM      5  H   UNL A   1      33.024  30.974  25.080  1.00  0.00     0.163 HD
BRANCH   3   6
ATOM      6  C   UNL A   1      31.533  27.973  24.929  1.00  0.00     0.107 C 
ATOM      7  N   UNL A   1      31.340  25.645  24.957  1.00  0.00    -0.307 N 
ATOM      8  C   UNL A   1      32.180  26.702  25.456  1.00  0.00     0.137 C 
ATOM      9  C   UNL A   1      30.765  25.999  23.680  1.00  0.00     0.132 C 
ATOM     10  C   UNL A   1      30.866  27.540  23.579  1.00  0.00     0.053 C 
BRANCH   7  11
ATOM     11  C   UNL A   1      31.058  24.455  25.576  1.00  0.00     0.410 C 
ATOM     12  O   UNL A   1      30.916  24.349  26.786  1.00  0.00    -0.224 OA
BRANCH  11  13
ATOM     13  O   UNL A   1      31.039  23.426  24.693  1.00  0.00    -0.444 OA
BRANCH  13  14
ATOM     14  C   UNL A   1      32.186  22.553  24.505  1.00  0.00     0.106 C 
ATOM     15  C   UNL A   1      32.159  22.196  23.011  1.00  0.00     0.056 C 
ATOM     16  C   UNL A   1      31.985  21.288  25.337  1.00  0.00     0.056 C 
ATOM     17  C   UNL A   1      33.538  23.216  24.805  1.00  0.00     0.056 C 
ENDBRANCH  13  14
ENDBRANCH  11  13
ENDBRANCH   7  11
BRANCH  10  18
ATOM     18  C   UNL A   1      29.588  28.327  23.269  1.00  0.00    -0.035 A 
ATOM     19  C   UNL A   1      28.292  27.836  23.501  1.00  0.00     0.004 A 
ATOM     20  C   UNL A   1      29.695  29.594  22.656  1.00  0.00     0.089 A 
ATOM     21  C   UNL A   1      27.153  28.579  23.159  1.00  0.00     0.007 A 
ATOM     22  C   UNL A   1      28.553  30.341  22.323  1.00  0.00     0.269 A 
ATOM     23  C   UNL A   1      27.276  29.835  22.573  1.00  0.00     0.085 A 
BRANCH  22  24
ATOM     24  N   UNL A   1      28.700  31.664  21.706  1.00  0.00     0.062 N 
ATOM     25  O   UNL A   1      28.349  31.792  20.524  1.00  0.00    -0.258 OA
ATOM     26  O   UNL A   1      29.152  32.582  22.407  1.00  0.00    -0.258 OA
ENDBRANCH  22  24
ENDBRANCH  10  18
ENDBRANCH   3   6
ENDBRANCH   1   2
BRANCH   1  27
ATOM     27  C   UNL A   1      31.459  32.158  26.610  1.00  0.00     0.042 C 
BRANCH  27  28
ATOM     28  C   UNL A   1      32.683  32.822  27.246  1.00  0.00     0.118 C 
BRANCH  28  29
ATOM     29  N   UNL A   1      32.432  34.205  27.624  1.00  0.00    -0.352 N 
ATOM     30  C   UNL A   1      33.014  34.969  28.606  1.00  0.00     0.251 C 
ATOM     31  H   UNL A   1      31.740  34.664  27.093  1.00  0.00     0.163 HD
ATOM     32  O   UNL A   1      32.535  36.061  28.894  1.00  0.00    -0.269 OA
BRANCH  30  33
ATOM     33  C   UNL A   1      34.201  34.475  29.334  1.00  0.00     0.039 A 
ATOM     34  C   UNL A   1      34.024  33.889  30.592  1.00  0.00     0.014 A 
ATOM     35  C   UNL A   1      35.485  34.610  28.799  1.00  0.00     0.014 A 
ATOM     36  C   UNL A   1      35.123  33.370  31.279  1.00  0.00     0.010 A 
ATOM     37  C   UNL A   1      36.574  34.045  29.460  1.00  0.00     0.010 A 
ATOM     38  C   UNL A   1      36.401  33.409  30.700  1.00  0.00    -0.014 A 
BRANCH  38  39
ATOM     39  C   UNL A   1      37.565  32.757  31.351  1.00  0.00     0.031 A 
ATOM     40  C   UNL A   1      38.234  31.577  30.710  1.00  0.00     0.074 A 
ATOM     41  C   UNL A   1      37.952  33.171  32.573  1.00  0.00     0.049 A 
ATOM     42  N   UNL A   1      39.176  30.801  31.184  1.00  0.00    -0.248 NA
ATOM     43  C   UNL A   1      37.768  31.206  29.367  1.00  0.00     0.031 C 
ATOM     44  C   UNL A   1      37.351  34.278  33.318  1.00  0.00     0.029 A 
ATOM     45  N   UNL A   1      38.923  32.690  33.416  1.00  0.00    -0.354 N 
ATOM     46  C   UNL A   1      39.402  29.842  30.208  1.00  0.00     0.074 A 
ATOM     47  C   UNL A   1      38.474  30.110  29.130  1.00  0.00     0.031 C 
ATOM     48  C   UNL A   1      37.962  34.389  34.508  1.00  0.00     0.029 A 
ATOM     49  C   UNL A   1      38.968  33.339  34.626  1.00  0.00     0.049 A 
ATOM     50  H   UNL A   1      39.529  31.952  33.177  1.00  0.00     0.167 HD
ATOM     51  C   UNL A   1      40.313  28.839  30.205  1.00  0.00     0.037 A 
ATOM     52  C   UNL A   1      39.718  33.098  35.718  1.00  0.00     0.037 A 
ATOM     53  C   UNL A   1      41.249  28.589  31.271  1.00  0.00     0.049 A 
ATOM     54  C   UNL A   1      40.711  31.970  35.699  1.00  0.00     0.074 A 
ATOM     55  C   UNL A   1      42.264  27.650  31.326  1.00  0.00     0.029 A 
ATOM     56  N   UNL A   1      41.277  29.279  32.474  1.00  0.00    -0.354 N 
ATOM     57  N   UNL A   1      40.966  31.113  34.741  1.00  0.00    -0.248 NA
ATOM     58  C   UNL A   1      41.518  31.774  36.911  1.00  0.00     0.031 C 
ATOM     59  C   UNL A   1      42.877  27.741  32.580  1.00  0.00     0.029 A 
ATOM     60  C   UNL A   1      42.272  28.764  33.291  1.00  0.00     0.049 A 
ATOM     61  H   UNL A   1      40.680  30.022  32.713  1.00  0.00     0.167 HD
ATOM     62  C   UNL A   1      41.970  30.287  35.226  1.00  0.00     0.074 A 
ATOM     63  C   UNL A   1      42.289  30.754  36.559  1.00  0.00     0.031 C 
ATOM     64  C   UNL A   1      42.572  29.234  34.620  1.00  0.00     0.037 A 
BRANCH  51  65
ATOM     65  C   UNL A   1      40.338  27.929  29.012  1.00  0.00     0.064 A 
ATOM     66  C   UNL A   1      41.087  28.239  27.867  1.00  0.00     0.173 A 
ATOM     67  C   UNL A   1      39.629  26.718  29.026  1.00  0.00     0.173 A 
ATOM     68  F   UNL A   1      41.775  29.389  27.801  1.00  0.00    -0.203 F 
ATOM     69  C   UNL A   1      41.099  27.385  26.766  1.00  0.00     0.198 A 
ATOM     70  C   UNL A   1      39.666  25.854  27.934  1.00  0.00     0.198 A 
ATOM     71  F   UNL A   1      38.902  26.371  30.099  1.00  0.00    -0.203 F 
ATOM     72  F   UNL A   1      41.783  27.726  25.665  1.00  0.00    -0.200 F 
ATOM     73  C   UNL A   1      40.393  26.191  26.803  1.00  0.00     0.200 A 
ATOM     74  F   UNL A   1      38.992  24.696  27.975  1.00  0.00    -0.200 F 
ATOM     75  F   UNL A   1      40.408  25.370  25.745  1.00  0.00    -0.200 F 
ENDBRANCH  51  65
BRANCH  52  76
ATOM     76  C   UNL A   1      39.549  33.948  36.924  1.00  0.00     0.064 A 
ATOM     77  C   UNL A   1      40.164  35.204  37.013  1.00  0.00     0.173 A 
ATOM     78  C   UNL A   1      38.749  33.533  37.999  1.00  0.00     0.173 A 
ATOM     79  F   UNL A   1      40.953  35.633  36.017  1.00  0.00    -0.203 F 
ATOM     80  C   UNL A   1      39.993  36.009  38.136  1.00  0.00     0.198 A 
ATOM     81  C   UNL A   1      38.559  34.350  39.111  1.00  0.00     0.198 A 
ATOM     82  F   UNL A   1      38.134  32.342  37.958  1.00  0.00    -0.203 F 
ATOM     83  F   UNL A   1      40.616  37.192  38.210  1.00  0.00    -0.200 F 
ATOM     84  C   UNL A   1      39.185  35.586  39.181  1.00  0.00     0.200 A 
ATOM     85  F   UNL A   1      37.765  33.943  40.111  1.00  0.00    -0.200 F 
ATOM     86  F   UNL A   1      39.011  36.367  40.256  1.00  0.00    -0.200 F 
ENDBRANCH  52  76
BRANCH  64  87
ATOM     87  C   UNL A   1      43.640  28.518  35.389  1.00  0.00     0.064 A 
ATOM     88  C   UNL A   1      44.992  28.870  35.264  1.00  0.00     0.173 A 
ATOM     89  C   UNL A   1      43.306  27.503  36.299  1.00  0.00     0.173 A 
ATOM     90  F   UNL A   1      45.363  29.821  34.394  1.00  0.00    -0.203 F 
ATOM     91  C   UNL A   1      45.972  28.223  36.012  1.00  0.00     0.198 A 
ATOM     92  C   UNL A   1      44.286  26.876  37.063  1.00  0.00     0.198 A 
ATOM     93  F   UNL A   1      42.026  27.132  36.457  1.00  0.00    -0.203 F 
ATOM     94  F   UNL A   1      47.261  28.552  35.851  1.00  0.00    -0.200 F 
ATOM     95  C   UNL A   1      45.617  27.233  36.916  1.00  0.00     0.200 A 
ATOM     96  F   UNL A   1      43.940  25.926  37.943  1.00  0.00    -0.200 F 
ATOM     97  F   UNL A   1      46.561  26.619  37.643  1.00  0.00    -0.200 F 
ENDBRANCH  64  87
ENDBRANCH  38  39
ENDBRANCH  30  33
ENDBRANCH  28  29
ENDBRANCH  27  28
ENDBRANCH   1  27
TORSDOF 15
ENDMDL
MODEL 2
REMARK VINA RESULT:     -13.2      5.870     11.701
REMARK SMILES CC(C)(C)OC(=O)N1C[C@@H](C(=O)NCCCNC(=O)c2ccc(-c3c4nc(c(-c5c(F)c(F)c(F)c(F)c5F)c5ccc([nH]5)c(-c5c(F)c(F)c(F)c(F)c5F)c5nc(c(-c6c(F)c(F)c(F)c(F)c6F)c6ccc3[nH]6)C=C5)C=C4)cc2)[C@H](c2cccc([N+](=O)[O-])c2)C1
REMARK SMILES IDX 14 1 13 2 11 3 12 4 10 6 8 7 9 8 93 9 83 10 6 11 7 12 5 13
REMARK SMILES IDX 2 14 1 15 3 16 4 17 84 18 85 19 92 20 86 21 88 22 87 23
REMARK SMILES IDX 89 24 90 25 91 26 15 27 16 28 17 29 18 30 19 32 20 33 21 34
REMARK SMILES IDX 82 35 22 36 81 37 23 38 24 39 25 40 75 41 26 42 80 43 74 44
REMARK SMILES IDX 76 45 27 46 79 47 73 48 72 49 28 51 60 52 40 53 59 54 41 55
REMARK SMILES IDX 44 56 58 57 77 58 42 59 43 60 57 62 78 63 45 64 29 65 30 66
REMARK SMILES IDX 38 67 31 68 32 69 36 70 39 71 33 72 34 73 37 74 35 75 61 76
REMARK SMILES IDX 62 77 70 78 63 79 64 80 68 81 71 82 65 83 66 84 69 85 67 86
REMARK SMILES IDX 46 87 47 88 55 89 48 90 49 91 53 92 56 93 50 94 51 95 54 96
REMARK SMILES IDX 52 97
REMARK H PARENT 13 5 17 31 76 50 44 61
REMARK Flexibility Score: inf
ROOT
ATOM      1  C   UNL A   1      36.702  20.893  24.875  1.00  0.00     0.117 C 
ENDROOT
BRANCH   1   2
ATOM      2  N   UNL A   1      36.008  21.080  26.136  1.00  0.00    -0.356 N 
ATOM      3  C   UNL A   1      34.802  21.647  26.408  1.00  0.00     0.225 C 
ATOM      4  O   UNL A   1      34.544  21.874  27.590  1.00  0.00    -0.275 OA
ATOM      5  H   UNL A   1      36.489  20.740  26.924  1.00  0.00     0.163 HD
BRANCH   3   6
ATOM      6  C   UNL A   1      33.817  21.937  25.287  1.00  0.00     0.107 C 
ATOM      7  N   UNL A   1      31.983  23.293  24.786  1.00  0.00    -0.307 N 
ATOM      8  C   UNL A   1      33.288  23.358  25.388  1.00  0.00     0.137 C 
ATOM      9  C   UNL A   1      31.376  22.001  25.003  1.00  0.00     0.132 C 
ATOM     10  C   UNL A   1      32.536  21.038  25.354  1.00  0.00     0.053 C 
BRANCH   7  11
ATOM     11  C   UNL A   1      31.359  24.278  24.064  1.00  0.00     0.410 C 
ATOM     12  O   UNL A   1      30.483  24.050  23.242  1.00  0.00    -0.224 OA
BRANCH  11  13
ATOM     13  O   UNL A   1      31.890  25.498  24.323  1.00  0.00    -0.444 OA
BRANCH  13  14
ATOM     14  C   UNL A   1      32.573  26.272  23.301  1.00  0.00     0.106 C 
ATOM     15  C   UNL A   1      33.652  27.055  24.065  1.00  0.00     0.056 C 
ATOM     16  C   UNL A   1      31.579  27.250  22.675  1.00  0.00     0.056 C 
ATOM     17  C   UNL A   1      33.277  25.423  22.233  1.00  0.00     0.056 C 
ENDBRANCH  13  14
ENDBRANCH  11  13
ENDBRANCH   7  11
BRANCH  10  18
ATOM     18  C   UNL A   1      32.672  19.747  24.539  1.00  0.00    -0.035 A 
ATOM     19  C   UNL A   1      32.434  19.666  23.157  1.00  0.00     0.004 A 
ATOM     20  C   UNL A   1      32.993  18.546  25.207  1.00  0.00     0.089 A 
ATOM     21  C   UNL A   1      32.531  18.451  22.465  1.00  0.00     0.007 A 
ATOM     22  C   UNL A   1      33.099  17.331  24.510  1.00  0.00     0.269 A 
ATOM     23  C   UNL A   1      32.867  17.279  23.135  1.00  0.00     0.085 A 
BRANCH  22  24
ATOM     24  N   UNL A   1      33.455  16.104  25.233  1.00  0.00     0.062 N 
ATOM     25  O   UNL A   1      32.575  15.561  25.915  1.00  0.00    -0.258 OA
ATOM     26  O   UNL A   1      34.610  15.673  25.105  1.00  0.00    -0.258 OA
ENDBRANCH  22  24
ENDBRANCH  10  18
ENDBRANCH   3   6
ENDBRANCH   1   2
BRANCH   1  27
ATOM     27  C   UNL A   1      37.771  19.807  25.000  1.00  0.00     0.042 C 
BRANCH  27  28
ATOM     28  C   UNL A   1      39.028  20.261  25.746  1.00  0.00     0.118 C 
BRANCH  28  29
ATOM     29  N   UNL A   1      40.028  19.207  25.844  1.00  0.00    -0.352 N 
ATOM     30  C   UNL A   1      41.384  19.295  26.037  1.00  0.00     0.251 C 
ATOM     31  H   UNL A   1      39.677  18.290  25.758  1.00  0.00     0.163 HD
ATOM     32  O   UNL A   1      42.087  18.298  25.904  1.00  0.00    -0.269 OA
BRANCH  30  33
ATOM     33  C   UNL A   1      42.009  20.589  26.384  1.00  0.00     0.039 A 
ATOM     34  C   UNL A   1      42.493  21.401  25.354  1.00  0.00     0.014 A 
ATOM     35  C   UNL A   1      42.144  20.992  27.716  1.00  0.00     0.014 A 
ATOM     36  C   UNL A   1      43.042  22.650  25.651  1.00  0.00     0.010 A 
ATOM     37  C   UNL A   1      42.643  22.259  28.009  1.00  0.00     0.010 A 
ATOM     38  C   UNL A   1      43.085  23.105  26.979  1.00  0.00    -0.014 A 
BRANCH  38  39
ATOM     39  C   UNL A   1      43.550  24.475  27.311  1.00  0.00     0.031 A 
ATOM     40  C   UNL A   1      42.586  25.501  27.828  1.00  0.00     0.074 A 
ATOM     41  C   UNL A   1      44.826  24.818  27.049  1.00  0.00     0.049 A 
ATOM     42  N   UNL A   1      42.776  26.778  28.052  1.00  0.00    -0.248 NA
ATOM     43  C   UNL A   1      41.220  25.038  28.110  1.00  0.00     0.031 C 
ATOM     44  C   UNL A   1      45.846  23.921  26.505  1.00  0.00     0.029 A 
ATOM     45  N   UNL A   1      45.474  26.021  27.178  1.00  0.00    -0.354 N 
ATOM     46  C   UNL A   1      41.554  27.272  28.482  1.00  0.00     0.074 A 
ATOM     47  C   UNL A   1      40.618  26.168  28.454  1.00  0.00     0.031 C 
ATOM     48  C   UNL A   1      46.990  24.604  26.341  1.00  0.00     0.029 A 
ATOM     49  C   UNL A   1      46.772  25.994  26.732  1.00  0.00     0.049 A 
ATOM     50  H   UNL A   1      45.050  26.826  27.555  1.00  0.00     0.167 HD
ATOM     51  C   UNL A   1      41.245  28.530  28.880  1.00  0.00     0.037 A 
ATOM     52  C   UNL A   1      47.680  26.983  26.623  1.00  0.00     0.037 A 
ATOM     53  C   UNL A   1      42.185  29.620  28.927  1.00  0.00     0.049 A 
ATOM     54  C   UNL A   1      47.311  28.375  27.056  1.00  0.00     0.074 A 
ATOM     55  C   UNL A   1      41.990  30.909  29.393  1.00  0.00     0.029 A 
ATOM     56  N   UNL A   1      43.498  29.551  28.484  1.00  0.00    -0.354 N 
ATOM     57  N   UNL A   1      46.171  28.815  27.529  1.00  0.00    -0.248 NA
ATOM     58  C   UNL A   1      48.351  29.405  26.937  1.00  0.00     0.031 C 
ATOM     59  C   UNL A   1      43.170  31.632  29.189  1.00  0.00     0.029 A 
ATOM     60  C   UNL A   1      44.114  30.783  28.635  1.00  0.00     0.049 A 
ATOM     61  H   UNL A   1      43.927  28.746  28.115  1.00  0.00     0.167 HD
ATOM     62  C   UNL A   1      46.360  30.167  27.779  1.00  0.00     0.074 A 
ATOM     63  C   UNL A   1      47.729  30.473  27.419  1.00  0.00     0.031 C 
ATOM     64  C   UNL A   1      45.476  31.074  28.263  1.00  0.00     0.037 A 
BRANCH  51  65
ATOM     65  C   UNL A   1      39.828  28.798  29.293  1.00  0.00     0.064 A 
ATOM     66  C   UNL A   1      39.404  28.630  30.619  1.00  0.00     0.173 A 
ATOM     67  C   UNL A   1      38.889  29.257  28.356  1.00  0.00     0.173 A 
ATOM     68  F   UNL A   1      40.260  28.183  31.551  1.00  0.00    -0.203 F 
ATOM     69  C   UNL A   1      38.083  28.881  30.987  1.00  0.00     0.198 A 
ATOM     70  C   UNL A   1      37.577  29.534  28.733  1.00  0.00     0.198 A 
ATOM     71  F   UNL A   1      39.245  29.441  27.076  1.00  0.00    -0.203 F 
ATOM     72  F   UNL A   1      37.690  28.666  32.250  1.00  0.00    -0.200 F 
ATOM     73  C   UNL A   1      37.174  29.338  30.045  1.00  0.00     0.200 A 
ATOM     74  F   UNL A   1      36.702  29.986  27.825  1.00  0.00    -0.200 F 
ATOM     75  F   UNL A   1      35.905  29.581  30.401  1.00  0.00    -0.200 F 
ENDBRANCH  51  65
BRANCH  52  76
ATOM     76  C   UNL A   1      49.027  26.684  26.074  1.00  0.00     0.064 A 
ATOM     77  C   UNL A   1      49.340  26.967  24.739  1.00  0.00     0.173 A 
ATOM     78  C   UNL A   1      50.034  26.133  26.881  1.00  0.00     0.173 A 
ATOM     79  F   UNL A   1      48.403  27.476  23.926  1.00  0.00    -0.203 F 
ATOM     80  C   UNL A   1      50.608  26.702  24.227  1.00  0.00     0.198 A 
ATOM     81  C   UNL A   1      51.309  25.892  26.375  1.00  0.00     0.198 A 
ATOM     82  F   UNL A   1      49.784  25.851  28.168  1.00  0.00    -0.203 F 
ATOM     83  F   UNL A   1      50.874  26.953  22.938  1.00  0.00    -0.200 F 
ATOM     84  C   UNL A   1      51.594  26.172  25.047  1.00  0.00     0.200 A 
ATOM     85  F   UNL A   1      52.262  25.394  27.174  1.00  0.00    -0.200 F 
ATOM     86  F   UNL A   1      52.817  25.928  24.556  1.00  0.00    -0.200 F 
ENDBRANCH  52  76
BRANCH  64  87
ATOM     87  C   UNL A   1      45.961  32.481  28.437  1.00  0.00     0.064 A 
ATOM     88  C   UNL A   1      45.772  33.448  27.438  1.00  0.00     0.173 A 
ATOM     89  C   UNL A   1      46.575  32.882  29.633  1.00  0.00     0.173 A 
ATOM     90  F   UNL A   1      45.206  33.109  26.270  1.00  0.00    -0.203 F 
ATOM     91  C   UNL A   1      46.193  34.761  27.626  1.00  0.00     0.198 A 
ATOM     92  C   UNL A   1      46.973  34.202  29.826  1.00  0.00     0.198 A 
ATOM     93  F   UNL A   1      46.776  31.995  30.619  1.00  0.00    -0.203 F 
ATOM     94  F   UNL A   1      46.034  35.661  26.645  1.00  0.00    -0.200 F 
ATOM     95  C   UNL A   1      46.785  35.139  28.822  1.00  0.00     0.200 A 
ATOM     96  F   UNL A   1      47.536  34.567  30.986  1.00  0.00    -0.200 F 
ATOM     97  F   UNL A   1      47.180  36.406  29.005  1.00  0.00    -0.200 F 
ENDBRANCH  64  87
ENDBRANCH  38  39
ENDBRANCH  30  33
ENDBRANCH  28  29
ENDBRANCH  27  28
ENDBRANCH   1  27
TORSDOF 15
ENDMDL
MODEL 3
REMARK VINA RESULT:     -13.1      1.263      4.304
REMARK SMILES CC(C)(C)OC(=O)N1C[C@@H](C(=O)NCCCNC(=O)c2ccc(-c3c4nc(c(-c5c(F)c(F)c(F)c(F)c5F)c5ccc([nH]5)c(-c5c(F)c(F)c(F)c(F)c5F)c5nc(c(-c6c(F)c(F)c(F)c(F)c6F)c6ccc3[nH]6)C=C5)C=C4)cc2)[C@H](c2cccc([N+](=O)[O-])c2)C1
REMARK SMILES IDX 14 1 13 2 11 3 12 4 10 6 8 7 9 8 93 9 83 10 6 11 7 12 5 13
REMARK SMILES IDX 2 14 1 15 3 16 4 17 84 18 85 19 92 20 86 21 88 22 87 23
REMARK SMILES IDX 89 24 90 25 91 26 15 27 16 28 17 29 18 30 19 32 20 33 21 34
REMARK SMILES IDX 82 35 22 36 81 37 23 38 24 39 25 40 75 41 26 42 80 43 74 44
REMARK SMILES IDX 76 45 27 46 79 47 73 48 72 49 28 51 60 52 40 53 59 54 41 55
REMARK SMILES IDX 44 56 58 57 77 58 42 59 43 60 57 62 78 63 45 64 29 65 30 66
REMARK SMILES IDX 38 67 31 68 32 69 36 70 39 71 33 72 34 73 37 74 35 75 61 76
REMARK SMILES IDX 62 77 70 78 63 79 64 80 68 81 71 82 65 83 66 84 69 85 67 86
REMARK SMILES IDX 46 87 47 88 55 89 48 90 49 91 53 92 56 93 50 94 51 95 54 96
REMARK SMILES IDX 52 97
REMARK H PARENT 13 5 17 31 76 50 44 61
REMARK Flexibility Score: inf
ROOT
ATOM      1  C   UNL A   1      33.945  30.433  26.919  1.00  0.00     0.117 C 
ENDROOT
BRANCH   1   2
ATOM      2  N   UNL A   1      33.131  29.506  27.683  1.00  0.00    -0.356 N 
ATOM      3  C   UNL A   1      32.192  28.609  27.277  1.00  0.00     0.225 C 
ATOM      4  O   UNL A   1      31.491  28.099  28.152  1.00  0.00    -0.275 OA
ATOM      5  H   UNL A   1      33.282  29.531  28.655  1.00  0.00     0.163 HD
BRANCH   3   6
ATOM      6  C   UNL A   1      32.065  28.239  25.809  1.00  0.00     0.107 C 
ATOM      7  N   UNL A   1      30.562  28.372  24.026  1.00  0.00    -0.307 N 
ATOM      8  C   UNL A   1      31.091  29.168  25.102  1.00  0.00     0.137 C 
ATOM      9  C   UNL A   1      30.497  26.977  24.396  1.00  0.00     0.132 C 
ATOM     10  C   UNL A   1      31.467  26.808  25.590  1.00  0.00     0.053 C 
BRANCH   7  11
ATOM     11  C   UNL A   1      30.183  28.812  22.784  1.00  0.00     0.410 C 
ATOM     12  O   UNL A   1      30.417  28.193  21.756  1.00  0.00    -0.224 OA
BRANCH  11  13
ATOM     13  O   UNL A   1      29.602  30.036  22.845  1.00  0.00    -0.444 OA
BRANCH  13  14
ATOM     14  C   UNL A   1      28.170  30.216  22.675  1.00  0.00     0.106 C 
ATOM     15  C   UNL A   1      27.987  30.448  21.167  1.00  0.00     0.056 C 
ATOM     16  C   UNL A   1      27.736  31.465  23.441  1.00  0.00     0.056 C 
ATOM     17  C   UNL A   1      27.330  28.993  23.067  1.00  0.00     0.056 C 
ENDBRANCH  13  14
ENDBRANCH  11  13
ENDBRANCH   7  11
BRANCH  10  18
ATOM     18  C   UNL A   1      32.544  25.722  25.495  1.00  0.00    -0.035 A 
ATOM     19  C   UNL A   1      33.505  25.661  24.471  1.00  0.00     0.004 A 
ATOM     20  C   UNL A   1      32.552  24.678  26.445  1.00  0.00     0.089 A 
ATOM     21  C   UNL A   1      34.444  24.622  24.405  1.00  0.00     0.007 A 
ATOM     22  C   UNL A   1      33.499  23.643  26.383  1.00  0.00     0.269 A 
ATOM     23  C   UNL A   1      34.449  23.610  25.361  1.00  0.00     0.085 A 
BRANCH  22  24
ATOM     24  N   UNL A   1      33.492  22.584  27.399  1.00  0.00     0.062 N 
ATOM     25  O   UNL A   1      34.434  21.780  27.401  1.00  0.00    -0.258 OA
ATOM     26  O   UNL A   1      32.551  22.566  28.207  1.00  0.00    -0.258 OA
ENDBRANCH  22  24
ENDBRANCH  10  18
ENDBRANCH   3   6
ENDBRANCH   1   2
BRANCH   1  27
ATOM     27  C   UNL A   1      33.818  31.852  27.473  1.00  0.00     0.042 C 
BRANCH  27  28
ATOM     28  C   UNL A   1      32.373  32.340  27.597  1.00  0.00     0.118 C 
BRANCH  28  29
ATOM     29  N   UNL A   1      32.281  33.790  27.686  1.00  0.00    -0.352 N 
ATOM     30  C   UNL A   1      33.014  34.674  28.439  1.00  0.00     0.251 C 
ATOM     31  H   UNL A   1      31.587  34.200  27.119  1.00  0.00     0.163 HD
ATOM     32  O   UNL A   1      32.662  35.847  28.519  1.00  0.00    -0.269 OA
BRANCH  30  33
ATOM     33  C   UNL A   1      34.213  34.219  29.173  1.00  0.00     0.039 A 
ATOM     34  C   UNL A   1      34.045  33.552  30.390  1.00  0.00     0.014 A 
ATOM     35  C   UNL A   1      35.498  34.469  28.682  1.00  0.00     0.014 A 
ATOM     36  C   UNL A   1      35.159  33.068  31.079  1.00  0.00     0.010 A 
ATOM     37  C   UNL A   1      36.606  33.940  29.342  1.00  0.00     0.010 A 
ATOM     38  C   UNL A   1      36.446  33.224  30.539  1.00  0.00    -0.014 A 
BRANCH  38  39
ATOM     39  C   UNL A   1      37.634  32.614  31.186  1.00  0.00     0.031 A 
ATOM     40  C   UNL A   1      38.346  31.462  30.541  1.00  0.00     0.074 A 
ATOM     41  C   UNL A   1      38.008  33.039  32.408  1.00  0.00     0.049 A 
ATOM     42  N   UNL A   1      39.317  30.720  31.010  1.00  0.00    -0.248 NA
ATOM     43  C   UNL A   1      37.890  31.077  29.197  1.00  0.00     0.031 C 
ATOM     44  C   UNL A   1      37.369  34.121  33.158  1.00  0.00     0.029 A 
ATOM     45  N   UNL A   1      38.999  32.593  33.248  1.00  0.00    -0.354 N 
ATOM     46  C   UNL A   1      39.576  29.772  30.031  1.00  0.00     0.074 A 
ATOM     47  C   UNL A   1      38.636  30.008  28.956  1.00  0.00     0.031 C 
ATOM     48  C   UNL A   1      37.978  34.252  34.346  1.00  0.00     0.029 A 
ATOM     49  C   UNL A   1      39.023  33.239  34.459  1.00  0.00     0.049 A 
ATOM     50  H   UNL A   1      39.631  31.878  33.005  1.00  0.00     0.167 HD
ATOM     51  C   UNL A   1      40.523  28.803  30.024  1.00  0.00     0.037 A 
ATOM     52  C   UNL A   1      39.784  33.024  35.549  1.00  0.00     0.037 A 
ATOM     53  C   UNL A   1      41.470  28.586  31.087  1.00  0.00     0.049 A 
ATOM     54  C   UNL A   1      40.817  31.934  35.525  1.00  0.00     0.074 A 
ATOM     55  C   UNL A   1      42.520  27.685  31.137  1.00  0.00     0.029 A 
ATOM     56  N   UNL A   1      41.476  29.273  32.292  1.00  0.00    -0.354 N 
ATOM     57  N   UNL A   1      41.102  31.089  34.564  1.00  0.00    -0.248 NA
ATOM     58  C   UNL A   1      41.634  31.765  36.735  1.00  0.00     0.031 C 
ATOM     59  C   UNL A   1      43.132  27.795  32.391  1.00  0.00     0.029 A 
ATOM     60  C   UNL A   1      42.491  28.794  33.105  1.00  0.00     0.049 A 
ATOM     61  H   UNL A   1      40.852  29.994  32.534  1.00  0.00     0.167 HD
ATOM     62  C   UNL A   1      42.137  30.300  35.045  1.00  0.00     0.074 A 
ATOM     63  C   UNL A   1      42.441  30.776  36.378  1.00  0.00     0.031 C 
ATOM     64  C   UNL A   1      42.776  29.272  34.435  1.00  0.00     0.037 A 
BRANCH  51  65
ATOM     65  C   UNL A   1      40.579  27.898  28.829  1.00  0.00     0.064 A 
ATOM     66  C   UNL A   1      39.843  26.706  28.774  1.00  0.00     0.173 A 
ATOM     67  C   UNL A   1      41.355  28.243  27.711  1.00  0.00     0.173 A 
ATOM     68  F   UNL A   1      39.093  26.327  29.821  1.00  0.00    -0.203 F 
ATOM     69  C   UNL A   1      39.906  25.875  27.658  1.00  0.00     0.198 A 
ATOM     70  C   UNL A   1      41.394  27.423  26.586  1.00  0.00     0.198 A 
ATOM     71  F   UNL A   1      42.073  29.376  27.709  1.00  0.00    -0.203 F 
ATOM     72  F   UNL A   1      39.232  24.716  27.650  1.00  0.00    -0.200 F 
ATOM     73  C   UNL A   1      40.677  26.237  26.563  1.00  0.00     0.200 A 
ATOM     74  F   UNL A   1      42.130  27.779  25.524  1.00  0.00    -0.200 F 
ATOM     75  F   UNL A   1      40.735  25.437  25.490  1.00  0.00    -0.200 F 
ENDBRANCH  51  65
BRANCH  52  76
ATOM     76  C   UNL A   1      39.586  33.865  36.757  1.00  0.00     0.064 A 
ATOM     77  C   UNL A   1      38.776  33.429  37.814  1.00  0.00     0.173 A 
ATOM     78  C   UNL A   1      40.221  35.109  36.889  1.00  0.00     0.173 A 
ATOM     79  F   UNL A   1      38.134  32.255  37.723  1.00  0.00    -0.203 F 
ATOM     80  C   UNL A   1      38.602  34.208  38.955  1.00  0.00     0.198 A 
ATOM     81  C   UNL A   1      40.066  35.877  38.040  1.00  0.00     0.198 A 
ATOM     82  F   UNL A   1      41.011  35.567  35.907  1.00  0.00    -0.203 F 
ATOM     83  F   UNL A   1      37.799  33.783  39.938  1.00  0.00    -0.200 F 
ATOM     84  C   UNL A   1      39.253  35.428  39.071  1.00  0.00     0.200 A 
ATOM     85  F   UNL A   1      40.709  37.047  38.155  1.00  0.00    -0.200 F 
ATOM     86  F   UNL A   1      39.094  36.172  40.174  1.00  0.00    -0.200 F 
ENDBRANCH  52  76
BRANCH  64  87
ATOM     87  C   UNL A   1      43.872  28.594  35.200  1.00  0.00     0.064 A 
ATOM     88  C   UNL A   1      43.623  27.452  35.976  1.00  0.00     0.173 A 
ATOM     89  C   UNL A   1      45.194  29.058  35.117  1.00  0.00     0.173 A 
ATOM     90  F   UNL A   1      42.374  26.981  36.101  1.00  0.00    -0.203 F 
ATOM     91  C   UNL A   1      44.657  26.808  36.651  1.00  0.00     0.198 A 
ATOM     92  C   UNL A   1      46.228  28.398  35.774  1.00  0.00     0.198 A 
ATOM     93  F   UNL A   1      45.483  30.145  34.385  1.00  0.00    -0.203 F 
ATOM     94  F   UNL A   1      44.392  25.740  37.415  1.00  0.00    -0.200 F 
ATOM     95  C   UNL A   1      45.958  27.276  36.543  1.00  0.00     0.200 A 
ATOM     96  F   UNL A   1      47.485  28.846  35.660  1.00  0.00    -0.200 F 
ATOM     97  F   UNL A   1      46.953  26.649  37.186  1.00  0.00    -0.200 F 
ENDBRANCH  64  87
ENDBRANCH  38  39
ENDBRANCH  30  33
ENDBRANCH  28  29
ENDBRANCH  27  28
ENDBRANCH   1  27
TORSDOF 15
ENDMDL
