MODEL 1
REMARK VINA RESULT:     -11.7      0.000      0.000
REMARK SMILES O=C(NCCCNC(=O)[C@@H]1CCCCN1c1ccccc1[N+](=O)[O-])c1ccc(-c2c3nc(c(-c4c(F)c(F)c(F)c(F)c4F)c4ccc([nH]4)c(-c4c(F)c(F)c(F)c(F)c4F)c4nc(c(-c5c(F)c(F)c(F)c(F)c5F)c5ccc2[nH]5)C=C4)C=C3)cc1
REMARK SMILES IDX 5 1 4 2 3 3 1 4 2 5 25 7 26 8 87 9 27 10 86 11 28 12 29 13
REMARK SMILES IDX 30 14 80 15 31 16 85 17 79 18 81 19 32 20 84 21 78 22 77 23
REMARK SMILES IDX 33 25 65 26 45 27 64 28 46 29 49 30 63 31 82 32 47 33 48 34
REMARK SMILES IDX 62 36 83 37 50 38 34 39 35 40 43 41 36 42 37 43 41 44 44 45
REMARK SMILES IDX 38 46 39 47 42 48 40 49 66 50 67 51 75 52 68 53 69 54 73 55
REMARK SMILES IDX 76 56 70 57 71 58 74 59 72 60 51 61 52 62 60 63 53 64 54 65
REMARK SMILES IDX 58 66 61 67 55 68 56 69 59 70 57 71 6 72 7 73 8 74 9 76
REMARK SMILES IDX 10 77 11 78 15 79 12 80 14 81 13 82 16 83 17 84 21 85 18 86
REMARK SMILES IDX 20 87 19 88 22 89 23 90 24 91
REMARK H PARENT 3 6 81 24 49 35 7 75
REMARK Flexibility Score: inf
ROOT
ATOM      1  C   UNL A   1      33.055  27.942  24.827  1.00  0.00     0.042 C 
ENDROOT
BRANCH   1   2
ATOM      2  C   UNL A   1      33.678  29.330  24.750  1.00  0.00     0.118 C 
BRANCH   2   3
ATOM      3  N   UNL A   1      32.897  30.340  25.450  1.00  0.00    -0.352 N 
ATOM      4  O   UNL A   1      32.213  31.600  27.187  1.00  0.00    -0.269 OA
ATOM      5  C   UNL A   1      33.083  30.886  26.695  1.00  0.00     0.251 C 
ATOM      6  H   UNL A   1      32.119  30.683  24.955  1.00  0.00     0.163 HD
BRANCH   5   7
ATOM      7  C   UNL A   1      34.317  30.600  27.456  1.00  0.00     0.039 A 
ATOM      8  C   UNL A   1      34.558  29.327  27.975  1.00  0.00     0.014 A 
ATOM      9  C   UNL A   1      35.264  31.615  27.627  1.00  0.00     0.014 A 
ATOM     10  C   UNL A   1      35.664  29.108  28.785  1.00  0.00     0.010 A 
ATOM     11  C   UNL A   1      36.426  31.367  28.362  1.00  0.00     0.010 A 
ATOM     12  C   UNL A   1      36.624  30.117  28.969  1.00  0.00    -0.014 A 
BRANCH  12  13
ATOM     13  C   UNL A   1      37.860  29.808  29.731  1.00  0.00     0.031 A 
ATOM     14  C   UNL A   1      38.084  30.352  31.113  1.00  0.00     0.074 A 
ATOM     15  C   UNL A   1      38.776  29.001  29.162  1.00  0.00     0.049 A 
ATOM     16  N   UNL A   1      39.099  30.158  31.919  1.00  0.00    -0.248 NA
ATOM     17  C   UNL A   1      37.043  31.233  31.663  1.00  0.00     0.031 C 
ATOM     18  C   UNL A   1      38.672  28.430  27.817  1.00  0.00     0.029 A 
ATOM     19  N   UNL A   1      39.962  28.506  29.640  1.00  0.00    -0.354 N 
ATOM     20  C   UNL A   1      38.827  30.898  33.062  1.00  0.00     0.074 A 
ATOM     21  C   UNL A   1      37.565  31.571  32.835  1.00  0.00     0.031 C 
ATOM     22  C   UNL A   1      39.721  27.626  27.597  1.00  0.00     0.029 A 
ATOM     23  C   UNL A   1      40.605  27.678  28.754  1.00  0.00     0.049 A 
ATOM     24  H   UNL A   1      40.316  28.723  30.533  1.00  0.00     0.167 HD
ATOM     25  C   UNL A   1      39.561  30.997  34.197  1.00  0.00     0.037 A 
ATOM     26  C   UNL A   1      41.788  27.044  28.853  1.00  0.00     0.037 A 
ATOM     27  C   UNL A   1      40.812  30.316  34.415  1.00  0.00     0.049 A 
ATOM     28  C   UNL A   1      42.592  27.199  30.111  1.00  0.00     0.074 A 
ATOM     29  C   UNL A   1      41.613  30.324  35.545  1.00  0.00     0.029 A 
ATOM     30  N   UNL A   1      41.449  29.510  33.483  1.00  0.00    -0.354 N 
ATOM     31  N   UNL A   1      42.302  27.867  31.200  1.00  0.00    -0.248 NA
ATOM     32  C   UNL A   1      43.889  26.511  30.153  1.00  0.00     0.031 C 
ATOM     33  C   UNL A   1      42.758  29.567  35.278  1.00  0.00     0.029 A 
ATOM     34  C   UNL A   1      42.646  29.039  34.003  1.00  0.00     0.049 A 
ATOM     35  H   UNL A   1      41.103  29.304  32.585  1.00  0.00     0.167 HD
ATOM     36  C   UNL A   1      43.369  27.670  32.064  1.00  0.00     0.074 A 
ATOM     37  C   UNL A   1      44.302  26.796  31.379  1.00  0.00     0.031 C 
ATOM     38  C   UNL A   1      43.563  28.171  33.308  1.00  0.00     0.037 A 
BRANCH  25  39
ATOM     39  C   UNL A   1      39.042  31.886  35.292  1.00  0.00     0.064 A 
ATOM     40  C   UNL A   1      38.292  31.377  36.362  1.00  0.00     0.173 A 
ATOM     41  C   UNL A   1      39.354  33.255  35.303  1.00  0.00     0.173 A 
ATOM     42  F   UNL A   1      37.959  30.078  36.396  1.00  0.00    -0.203 F 
ATOM     43  C   UNL A   1      37.857  32.208  37.393  1.00  0.00     0.198 A 
ATOM     44  C   UNL A   1      38.942  34.077  36.349  1.00  0.00     0.198 A 
ATOM     45  F   UNL A   1      40.075  33.793  34.308  1.00  0.00    -0.203 F 
ATOM     46  F   UNL A   1      37.109  31.707  38.385  1.00  0.00    -0.200 F 
ATOM     47  C   UNL A   1      38.188  33.554  37.390  1.00  0.00     0.200 A 
ATOM     48  F   UNL A   1      39.275  35.375  36.350  1.00  0.00    -0.200 F 
ATOM     49  F   UNL A   1      37.779  34.350  38.387  1.00  0.00    -0.200 F 
ENDBRANCH  25  39
BRANCH  26  50
ATOM     50  C   UNL A   1      42.281  26.218  27.721  1.00  0.00     0.064 A 
ATOM     51  C   UNL A   1      41.817  24.911  27.524  1.00  0.00     0.173 A 
ATOM     52  C   UNL A   1      43.222  26.722  26.809  1.00  0.00     0.173 A 
ATOM     53  F   UNL A   1      40.930  24.378  28.378  1.00  0.00    -0.203 F 
ATOM     54  C   UNL A   1      42.291  24.131  26.471  1.00  0.00     0.198 A 
ATOM     55  C   UNL A   1      43.669  25.953  25.738  1.00  0.00     0.198 A 
ATOM     56  F   UNL A   1      43.692  27.970  26.951  1.00  0.00    -0.203 F 
ATOM     57  F   UNL A   1      41.867  22.867  26.333  1.00  0.00    -0.200 F 
ATOM     58  C   UNL A   1      43.211  24.656  25.575  1.00  0.00     0.200 A 
ATOM     59  F   UNL A   1      44.543  26.472  24.865  1.00  0.00    -0.200 F 
ATOM     60  F   UNL A   1      43.661  23.907  24.559  1.00  0.00    -0.200 F 
ENDBRANCH  26  50
BRANCH  38  61
ATOM     61  C   UNL A   1      44.821  27.762  34.017  1.00  0.00     0.064 A 
ATOM     62  C   UNL A   1      45.996  28.523  33.928  1.00  0.00     0.173 A 
ATOM     63  C   UNL A   1      44.846  26.603  34.808  1.00  0.00     0.173 A 
ATOM     64  F   UNL A   1      46.028  29.629  33.170  1.00  0.00    -0.203 F 
ATOM     65  C   UNL A   1      47.160  28.122  34.581  1.00  0.00     0.198 A 
ATOM     66  C   UNL A   1      46.001  26.223  35.485  1.00  0.00     0.198 A 
ATOM     67  F   UNL A   1      43.747  25.843  34.930  1.00  0.00    -0.203 F 
ATOM     68  F   UNL A   1      48.285  28.833  34.435  1.00  0.00    -0.200 F 
ATOM     69  C   UNL A   1      47.159  26.976  35.363  1.00  0.00     0.200 A 
ATOM     70  F   UNL A   1      45.995  25.123  36.250  1.00  0.00    -0.200 F 
ATOM     71  F   UNL A   1      48.278  26.593  35.993  1.00  0.00    -0.200 F 
ENDBRANCH  38  61
ENDBRANCH  12  13
ENDBRANCH   5   7
ENDBRANCH   2   3
ENDBRANCH   1   2
BRANCH   1  72
ATOM     72  C   UNL A   1      34.030  26.804  24.535  1.00  0.00     0.117 C 
BRANCH  72  73
ATOM     73  N   UNL A   1      33.494  25.904  23.535  1.00  0.00    -0.354 N 
ATOM     74  C   UNL A   1      33.949  24.683  23.116  1.00  0.00     0.242 C 
ATOM     75  H   UNL A   1      32.677  26.219  23.086  1.00  0.00     0.163 HD
ATOM     76  O   UNL A   1      33.528  24.313  22.019  1.00  0.00    -0.273 OA
BRANCH  74  77
ATOM     77  C   UNL A   1      34.966  23.911  23.993  1.00  0.00     0.171 C 
ATOM     78  C   UNL A   1      35.792  22.953  23.126  1.00  0.00     0.035 C 
ATOM     79  N   UNL A   1      34.446  23.133  25.145  1.00  0.00    -0.354 N 
ATOM     80  C   UNL A   1      36.911  22.314  23.953  1.00  0.00     0.004 C 
ATOM     81  C   UNL A   1      35.463  22.562  26.028  1.00  0.00     0.117 C 
ATOM     82  C   UNL A   1      36.364  21.632  25.209  1.00  0.00     0.022 C 
BRANCH  79  83
ATOM     83  C   UNL A   1      33.116  23.096  25.503  1.00  0.00     0.116 A 
ATOM     84  C   UNL A   1      32.653  24.064  26.413  1.00  0.00     0.033 A 
ATOM     85  C   UNL A   1      32.157  22.182  25.032  1.00  0.00     0.292 A 
ATOM     86  C   UNL A   1      31.335  24.084  26.879  1.00  0.00     0.003 A 
ATOM     87  C   UNL A   1      30.820  22.203  25.477  1.00  0.00     0.088 A 
ATOM     88  C   UNL A   1      30.418  23.150  26.415  1.00  0.00     0.007 A 
BRANCH  85  89
ATOM     89  N   UNL A   1      32.506  21.147  24.065  1.00  0.00     0.064 N 
ATOM     90  O   UNL A   1      33.090  20.144  24.503  1.00  0.00    -0.258 OA
ATOM     91  O   UNL A   1      32.235  21.337  22.870  1.00  0.00    -0.258 OA
ENDBRANCH  85  89
ENDBRANCH  79  83
ENDBRANCH  74  77
ENDBRANCH  72  73
ENDBRANCH   1  72
TORSDOF 12
ENDMDL
MODEL 2
REMARK VINA RESULT:     -11.6      0.369      7.496
REMARK SMILES O=C(NCCCNC(=O)[C@@H]1CCCCN1c1ccccc1[N+](=O)[O-])c1ccc(-c2c3nc(c(-c4c(F)c(F)c(F)c(F)c4F)c4ccc([nH]4)c(-c4c(F)c(F)c(F)c(F)c4F)c4nc(c(-c5c(F)c(F)c(F)c(F)c5F)c5ccc2[nH]5)C=C4)C=C3)cc1
REMARK SMILES IDX 5 1 4 2 3 3 1 4 2 5 25 7 26 8 87 9 27 10 86 11 28 12 29 13
REMARK SMILES IDX 30 14 80 15 31 16 85 17 79 18 81 19 32 20 84 21 78 22 77 23
REMARK SMILES IDX 33 25 65 26 45 27 64 28 46 29 49 30 63 31 82 32 47 33 48 34
REMARK SMILES IDX 62 36 83 37 50 38 34 39 35 40 43 41 36 42 37 43 41 44 44 45
REMARK SMILES IDX 38 46 39 47 42 48 40 49 66 50 67 51 75 52 68 53 69 54 73 55
REMARK SMILES IDX 76 56 70 57 71 58 74 59 72 60 51 61 52 62 60 63 53 64 54 65
REMARK SMILES IDX 58 66 61 67 55 68 56 69 59 70 57 71 6 72 7 73 8 74 9 76
REMARK SMILES IDX 10 77 11 78 15 79 12 80 14 81 13 82 16 83 17 84 21 85 18 86
REMARK SMILES IDX 20 87 19 88 22 89 23 90 24 91
REMARK H PARENT 3 6 81 24 49 35 7 75
REMARK Flexibility Score: inf
ROOT
ATOM      1  C   UNL A   1      33.087  27.793  25.185  1.00  0.00     0.042 C 
ENDROOT
BRANCH   1   2
ATOM      2  C   UNL A   1      33.684  29.152  24.841  1.00  0.00     0.118 C 
BRANCH   2   3
ATOM      3  N   UNL A   1      32.969  30.257  25.463  1.00  0.00    -0.352 N 
ATOM      4  O   UNL A   1      32.376  31.689  27.098  1.00  0.00    -0.269 OA
ATOM      5  C   UNL A   1      33.199  30.888  26.660  1.00  0.00     0.251 C 
ATOM      6  H   UNL A   1      32.206  30.604  24.947  1.00  0.00     0.163 HD
BRANCH   5   7
ATOM      7  C   UNL A   1      34.422  30.594  27.434  1.00  0.00     0.039 A 
ATOM      8  C   UNL A   1      34.619  29.337  28.009  1.00  0.00     0.014 A 
ATOM      9  C   UNL A   1      35.404  31.582  27.561  1.00  0.00     0.014 A 
ATOM     10  C   UNL A   1      35.718  29.116  28.829  1.00  0.00     0.010 A 
ATOM     11  C   UNL A   1      36.557  31.326  28.307  1.00  0.00     0.010 A 
ATOM     12  C   UNL A   1      36.712  30.098  28.969  1.00  0.00    -0.014 A 
BRANCH  12  13
ATOM     13  C   UNL A   1      37.937  29.780  29.745  1.00  0.00     0.031 A 
ATOM     14  C   UNL A   1      39.006  28.885  29.187  1.00  0.00     0.074 A 
ATOM     15  C   UNL A   1      38.084  30.336  30.963  1.00  0.00     0.049 A 
ATOM     16  N   UNL A   1      40.146  28.528  29.728  1.00  0.00    -0.248 NA
ATOM     17  C   UNL A   1      38.769  28.309  27.855  1.00  0.00     0.031 C 
ATOM     18  C   UNL A   1      37.101  31.207  31.613  1.00  0.00     0.029 A 
ATOM     19  N   UNL A   1      39.115  30.272  31.864  1.00  0.00    -0.354 N 
ATOM     20  C   UNL A   1      40.753  27.679  28.813  1.00  0.00     0.074 A 
ATOM     21  C   UNL A   1      39.845  27.549  27.693  1.00  0.00     0.031 C 
ATOM     22  C   UNL A   1      37.595  31.633  32.783  1.00  0.00     0.029 A 
ATOM     23  C   UNL A   1      38.897  31.014  32.999  1.00  0.00     0.049 A 
ATOM     24  H   UNL A   1      39.933  29.744  31.712  1.00  0.00     0.167 HD
ATOM     25  C   UNL A   1      41.962  27.073  28.899  1.00  0.00     0.037 A 
ATOM     26  C   UNL A   1      39.652  31.165  34.101  1.00  0.00     0.037 A 
ATOM     27  C   UNL A   1      42.863  27.216  30.016  1.00  0.00     0.049 A 
ATOM     28  C   UNL A   1      40.973  30.456  34.181  1.00  0.00     0.074 A 
ATOM     29  C   UNL A   1      44.126  26.672  30.181  1.00  0.00     0.029 A 
ATOM     30  N   UNL A   1      42.595  27.951  31.162  1.00  0.00    -0.354 N 
ATOM     31  N   UNL A   1      41.555  29.691  33.289  1.00  0.00    -0.248 NA
ATOM     32  C   UNL A   1      41.742  30.630  35.419  1.00  0.00     0.031 C 
ATOM     33  C   UNL A   1      44.599  27.034  31.446  1.00  0.00     0.029 A 
ATOM     34  C   UNL A   1      43.657  27.851  32.048  1.00  0.00     0.049 A 
ATOM     35  H   UNL A   1      41.772  28.467  31.321  1.00  0.00     0.167 HD
ATOM     36  C   UNL A   1      42.764  29.305  33.849  1.00  0.00     0.074 A 
ATOM     37  C   UNL A   1      42.842  29.944  35.148  1.00  0.00     0.031 C 
ATOM     38  C   UNL A   1      43.719  28.492  33.338  1.00  0.00     0.037 A 
BRANCH  25  39
ATOM     39  C   UNL A   1      42.385  26.185  27.764  1.00  0.00     0.064 A 
ATOM     40  C   UNL A   1      43.277  26.624  26.775  1.00  0.00     0.173 A 
ATOM     41  C   UNL A   1      41.940  24.854  27.699  1.00  0.00     0.173 A 
ATOM     42  F   UNL A   1      43.725  27.888  26.783  1.00  0.00    -0.203 F 
ATOM     43  C   UNL A   1      43.692  25.772  25.753  1.00  0.00     0.198 A 
ATOM     44  C   UNL A   1      42.379  23.997  26.694  1.00  0.00     0.198 A 
ATOM     45  F   UNL A   1      41.092  24.379  28.625  1.00  0.00    -0.203 F 
ATOM     46  F   UNL A   1      44.515  26.226  24.798  1.00  0.00    -0.200 F 
ATOM     47  C   UNL A   1      43.250  24.459  25.718  1.00  0.00     0.200 A 
ATOM     48  F   UNL A   1      41.961  22.724  26.670  1.00  0.00    -0.200 F 
ATOM     49  F   UNL A   1      43.660  23.637  24.742  1.00  0.00    -0.200 F 
ENDBRANCH  25  39
BRANCH  26  50
ATOM     50  C   UNL A   1      39.167  32.015  35.219  1.00  0.00     0.064 A 
ATOM     51  C   UNL A   1      38.427  31.467  36.276  1.00  0.00     0.173 A 
ATOM     52  C   UNL A   1      39.438  33.392  35.256  1.00  0.00     0.173 A 
ATOM     53  F   UNL A   1      38.127  30.161  36.277  1.00  0.00    -0.203 F 
ATOM     54  C   UNL A   1      37.959  32.268  37.316  1.00  0.00     0.198 A 
ATOM     55  C   UNL A   1      38.998  34.184  36.313  1.00  0.00     0.198 A 
ATOM     56  F   UNL A   1      40.148  33.963  34.271  1.00  0.00    -0.203 F 
ATOM     57  F   UNL A   1      37.213  31.729  38.289  1.00  0.00    -0.200 F 
ATOM     58  C   UNL A   1      38.252  33.624  37.337  1.00  0.00     0.200 A 
ATOM     59  F   UNL A   1      39.300  35.490  36.338  1.00  0.00    -0.200 F 
ATOM     60  F   UNL A   1      37.807  34.392  38.341  1.00  0.00    -0.200 F 
ENDBRANCH  26  50
BRANCH  38  61
ATOM     61  C   UNL A   1      44.943  28.270  34.177  1.00  0.00     0.064 A 
ATOM     62  C   UNL A   1      45.025  27.212  35.095  1.00  0.00     0.173 A 
ATOM     63  C   UNL A   1      46.055  29.117  34.050  1.00  0.00     0.173 A 
ATOM     64  F   UNL A   1      43.981  26.385  35.266  1.00  0.00    -0.203 F 
ATOM     65  C   UNL A   1      46.162  27.028  35.877  1.00  0.00     0.198 A 
ATOM     66  C   UNL A   1      47.202  28.911  34.810  1.00  0.00     0.198 A 
ATOM     67  F   UNL A   1      46.030  30.141  33.184  1.00  0.00    -0.203 F 
ATOM     68  F   UNL A   1      46.195  26.045  36.786  1.00  0.00    -0.200 F 
ATOM     69  C   UNL A   1      47.252  27.874  35.729  1.00  0.00     0.200 A 
ATOM     70  F   UNL A   1      48.259  29.721  34.656  1.00  0.00    -0.200 F 
ATOM     71  F   UNL A   1      48.348  27.694  36.479  1.00  0.00    -0.200 F 
ENDBRANCH  38  61
ENDBRANCH  12  13
ENDBRANCH   5   7
ENDBRANCH   2   3
ENDBRANCH   1   2
BRANCH   1  72
ATOM     72  C   UNL A   1      34.025  26.617  24.929  1.00  0.00     0.117 C 
BRANCH  72  73
ATOM     73  N   UNL A   1      33.552  25.805  23.826  1.00  0.00    -0.354 N 
ATOM     74  C   UNL A   1      34.057  24.643  23.309  1.00  0.00     0.242 C 
ATOM     75  H   UNL A   1      32.742  26.141  23.379  1.00  0.00     0.163 HD
ATOM     76  O   UNL A   1      33.687  24.371  22.166  1.00  0.00    -0.273 OA
BRANCH  74  77
ATOM     77  C   UNL A   1      35.065  23.816  24.145  1.00  0.00     0.171 C 
ATOM     78  C   UNL A   1      35.904  22.919  23.228  1.00  0.00     0.035 C 
ATOM     79  N   UNL A   1      34.531  22.961  25.236  1.00  0.00    -0.354 N 
ATOM     80  C   UNL A   1      37.013  22.227  24.024  1.00  0.00     0.004 C 
ATOM     81  C   UNL A   1      35.538  22.333  26.092  1.00  0.00     0.117 C 
ATOM     82  C   UNL A   1      36.451  21.462  25.224  1.00  0.00     0.022 C 
BRANCH  79  83
ATOM     83  C   UNL A   1      33.196  22.898  25.573  1.00  0.00     0.116 A 
ATOM     84  C   UNL A   1      32.730  23.769  26.575  1.00  0.00     0.033 A 
ATOM     85  C   UNL A   1      32.237  22.047  24.997  1.00  0.00     0.292 A 
ATOM     86  C   UNL A   1      31.406  23.752  27.025  1.00  0.00     0.003 A 
ATOM     87  C   UNL A   1      30.895  22.033  25.427  1.00  0.00     0.088 A 
ATOM     88  C   UNL A   1      30.488  22.879  26.455  1.00  0.00     0.007 A 
BRANCH  85  89
ATOM     89  N   UNL A   1      32.589  21.117  23.931  1.00  0.00     0.064 N 
ATOM     90  O   UNL A   1      33.158  20.067  24.268  1.00  0.00    -0.258 OA
ATOM     91  O   UNL A   1      32.337  21.435  22.759  1.00  0.00    -0.258 OA
ENDBRANCH  85  89
ENDBRANCH  79  83
ENDBRANCH  74  77
ENDBRANCH  72  73
ENDBRANCH   1  72
TORSDOF 12
ENDMDL
MODEL 3
REMARK VINA RESULT:     -11.6      3.932      8.775
REMARK SMILES O=C(NCCCNC(=O)[C@@H]1CCCCN1c1ccccc1[N+](=O)[O-])c1ccc(-c2c3nc(c(-c4c(F)c(F)c(F)c(F)c4F)c4ccc([nH]4)c(-c4c(F)c(F)c(F)c(F)c4F)c4nc(c(-c5c(F)c(F)c(F)c(F)c5F)c5ccc2[nH]5)C=C4)C=C3)cc1
REMARK SMILES IDX 5 1 4 2 3 3 1 4 2 5 25 7 26 8 87 9 27 10 86 11 28 12 29 13
REMARK SMILES IDX 30 14 80 15 31 16 85 17 79 18 81 19 32 20 84 21 78 22 77 23
REMARK SMILES IDX 33 25 65 26 45 27 64 28 46 29 49 30 63 31 82 32 47 33 48 34
REMARK SMILES IDX 62 36 83 37 50 38 34 39 35 40 43 41 36 42 37 43 41 44 44 45
REMARK SMILES IDX 38 46 39 47 42 48 40 49 66 50 67 51 75 52 68 53 69 54 73 55
REMARK SMILES IDX 76 56 70 57 71 58 74 59 72 60 51 61 52 62 60 63 53 64 54 65
REMARK SMILES IDX 58 66 61 67 55 68 56 69 59 70 57 71 6 72 7 73 8 74 9 76
REMARK SMILES IDX 10 77 11 78 15 79 12 80 14 81 13 82 16 83 17 84 21 85 18 86
REMARK SMILES IDX 20 87 19 88 22 89 23 90 24 91
REMARK H PARENT 3 6 81 24 49 35 7 75
REMARK Flexibility Score: inf
ROOT
ATOM      1  C   UNL A   1      35.231  23.650  25.406  1.00  0.00     0.042 C 
ENDROOT
BRANCH   1   2
ATOM      2  C   UNL A   1      36.694  23.901  25.060  1.00  0.00     0.118 C 
BRANCH   2   3
ATOM      3  N   UNL A   1      37.563  22.798  25.444  1.00  0.00    -0.352 N 
ATOM      4  O   UNL A   1      39.434  21.792  26.196  1.00  0.00    -0.269 OA
ATOM      5  C   UNL A   1      38.758  22.816  26.119  1.00  0.00     0.251 C 
ATOM      6  H   UNL A   1      37.245  21.904  25.181  1.00  0.00     0.163 HD
BRANCH   5   7
ATOM      7  C   UNL A   1      39.245  24.067  26.736  1.00  0.00     0.039 A 
ATOM      8  C   UNL A   1      38.968  24.359  28.073  1.00  0.00     0.014 A 
ATOM      9  C   UNL A   1      40.018  24.948  25.974  1.00  0.00     0.014 A 
ATOM     10  C   UNL A   1      39.333  25.590  28.602  1.00  0.00     0.010 A 
ATOM     11  C   UNL A   1      40.469  26.145  26.537  1.00  0.00     0.010 A 
ATOM     12  C   UNL A   1      40.108  26.488  27.849  1.00  0.00    -0.014 A 
BRANCH  12  13
ATOM     13  C   UNL A   1      40.594  27.736  28.490  1.00  0.00     0.031 A 
ATOM     14  C   UNL A   1      42.043  27.924  28.838  1.00  0.00     0.074 A 
ATOM     15  C   UNL A   1      39.704  28.717  28.733  1.00  0.00     0.049 A 
ATOM     16  N   UNL A   1      42.631  28.963  29.379  1.00  0.00    -0.248 NA
ATOM     17  C   UNL A   1      42.951  26.805  28.550  1.00  0.00     0.031 C 
ATOM     18  C   UNL A   1      38.268  28.637  28.454  1.00  0.00     0.029 A 
ATOM     19  N   UNL A   1      39.870  29.976  29.251  1.00  0.00    -0.354 N 
ATOM     20  C   UNL A   1      43.970  28.619  29.508  1.00  0.00     0.074 A 
ATOM     21  C   UNL A   1      44.106  27.264  29.016  1.00  0.00     0.031 C 
ATOM     22  C   UNL A   1      37.694  29.809  28.757  1.00  0.00     0.029 A 
ATOM     23  C   UNL A   1      38.704  30.699  29.315  1.00  0.00     0.049 A 
ATOM     24  H   UNL A   1      40.741  30.327  29.548  1.00  0.00     0.167 HD
ATOM     25  C   UNL A   1      44.991  29.372  29.986  1.00  0.00     0.037 A 
ATOM     26  C   UNL A   1      38.470  31.936  29.788  1.00  0.00     0.037 A 
ATOM     27  C   UNL A   1      44.847  30.724  30.466  1.00  0.00     0.049 A 
ATOM     28  C   UNL A   1      39.616  32.733  30.339  1.00  0.00     0.074 A 
ATOM     29  C   UNL A   1      45.827  31.582  30.936  1.00  0.00     0.029 A 
ATOM     30  N   UNL A   1      43.645  31.412  30.544  1.00  0.00    -0.354 N 
ATOM     31  N   UNL A   1      40.885  32.412  30.415  1.00  0.00    -0.248 NA
ATOM     32  C   UNL A   1      39.298  34.064  30.871  1.00  0.00     0.031 C 
ATOM     33  C   UNL A   1      45.212  32.768  31.347  1.00  0.00     0.029 A 
ATOM     34  C   UNL A   1      43.856  32.674  31.081  1.00  0.00     0.049 A 
ATOM     35  H   UNL A   1      42.772  31.058  30.261  1.00  0.00     0.167 HD
ATOM     36  C   UNL A   1      41.520  33.504  30.987  1.00  0.00     0.074 A 
ATOM     37  C   UNL A   1      40.499  34.507  31.214  1.00  0.00     0.031 C 
ATOM     38  C   UNL A   1      42.829  33.661  31.301  1.00  0.00     0.037 A 
BRANCH  25  39
ATOM     39  C   UNL A   1      46.359  28.752  30.030  1.00  0.00     0.064 A 
ATOM     40  C   UNL A   1      47.253  28.858  28.954  1.00  0.00     0.173 A 
ATOM     41  C   UNL A   1      46.805  28.096  31.189  1.00  0.00     0.173 A 
ATOM     42  F   UNL A   1      46.874  29.465  27.819  1.00  0.00    -0.203 F 
ATOM     43  C   UNL A   1      48.533  28.315  29.029  1.00  0.00     0.198 A 
ATOM     44  C   UNL A   1      48.096  27.580  31.271  1.00  0.00     0.198 A 
ATOM     45  F   UNL A   1      45.994  27.974  32.251  1.00  0.00    -0.203 F 
ATOM     46  F   UNL A   1      49.356  28.395  27.974  1.00  0.00    -0.200 F 
ATOM     47  C   UNL A   1      48.957  27.684  30.188  1.00  0.00     0.200 A 
ATOM     48  F   UNL A   1      48.507  26.983  32.398  1.00  0.00    -0.200 F 
ATOM     49  F   UNL A   1      50.193  27.173  30.263  1.00  0.00    -0.200 F 
ENDBRANCH  25  39
BRANCH  26  50
ATOM     50  C   UNL A   1      37.089  32.485  29.769  1.00  0.00     0.064 A 
ATOM     51  C   UNL A   1      36.616  33.214  28.671  1.00  0.00     0.173 A 
ATOM     52  C   UNL A   1      36.213  32.286  30.848  1.00  0.00     0.173 A 
ATOM     53  F   UNL A   1      37.420  33.446  27.623  1.00  0.00    -0.203 F 
ATOM     54  C   UNL A   1      35.326  33.742  28.661  1.00  0.00     0.198 A 
ATOM     55  C   UNL A   1      34.914  32.785  30.822  1.00  0.00     0.198 A 
ATOM     56  F   UNL A   1      36.617  31.589  31.921  1.00  0.00    -0.203 F 
ATOM     57  F   UNL A   1      34.914  34.476  27.618  1.00  0.00    -0.200 F 
ATOM     58  C   UNL A   1      34.474  33.520  29.733  1.00  0.00     0.200 A 
ATOM     59  F   UNL A   1      34.089  32.551  31.852  1.00  0.00    -0.200 F 
ATOM     60  F   UNL A   1      33.232  34.022  29.719  1.00  0.00    -0.200 F 
ENDBRANCH  26  50
BRANCH  38  61
ATOM     61  C   UNL A   1      43.232  34.976  31.901  1.00  0.00     0.064 A 
ATOM     62  C   UNL A   1      43.202  35.194  33.286  1.00  0.00     0.173 A 
ATOM     63  C   UNL A   1      43.667  36.027  31.080  1.00  0.00     0.173 A 
ATOM     64  F   UNL A   1      42.775  34.226  34.112  1.00  0.00    -0.203 F 
ATOM     65  C   UNL A   1      43.565  36.425  33.826  1.00  0.00     0.198 A 
ATOM     66  C   UNL A   1      44.061  37.246  31.625  1.00  0.00     0.198 A 
ATOM     67  F   UNL A   1      43.719  35.869  29.748  1.00  0.00    -0.203 F 
ATOM     68  F   UNL A   1      43.474  36.628  35.147  1.00  0.00    -0.200 F 
ATOM     69  C   UNL A   1      44.000  37.447  32.995  1.00  0.00     0.200 A 
ATOM     70  F   UNL A   1      44.493  38.228  30.822  1.00  0.00    -0.200 F 
ATOM     71  F   UNL A   1      44.352  38.631  33.516  1.00  0.00    -0.200 F 
ENDBRANCH  38  61
ENDBRANCH  12  13
ENDBRANCH   5   7
ENDBRANCH   2   3
ENDBRANCH   1   2
BRANCH   1  72
ATOM     72  C   UNL A   1      34.554  24.810  26.129  1.00  0.00     0.117 C 
BRANCH  72  73
ATOM     73  N   UNL A   1      33.114  24.652  26.133  1.00  0.00    -0.354 N 
ATOM     74  C   UNL A   1      32.129  25.564  26.399  1.00  0.00     0.242 C 
ATOM     75  H   UNL A   1      32.794  23.749  25.910  1.00  0.00     0.163 HD
ATOM     76  O   UNL A   1      31.032  25.084  26.691  1.00  0.00    -0.273 OA
BRANCH  74  77
ATOM     77  C   UNL A   1      32.468  27.075  26.373  1.00  0.00     0.171 C 
ATOM     78  C   UNL A   1      31.451  27.860  27.210  1.00  0.00     0.035 C 
ATOM     79  N   UNL A   1      32.569  27.745  25.052  1.00  0.00    -0.354 N 
ATOM     80  C   UNL A   1      31.873  29.327  27.329  1.00  0.00     0.004 C 
ATOM     81  C   UNL A   1      33.049  29.126  25.084  1.00  0.00     0.117 C 
ATOM     82  C   UNL A   1      32.103  29.959  25.954  1.00  0.00     0.022 C 
BRANCH  79  83
ATOM     83  C   UNL A   1      32.423  27.088  23.850  1.00  0.00     0.116 A 
ATOM     84  C   UNL A   1      33.582  26.588  23.229  1.00  0.00     0.033 A 
ATOM     85  C   UNL A   1      31.210  26.851  23.178  1.00  0.00     0.292 A 
ATOM     86  C   UNL A   1      33.549  25.950  21.984  1.00  0.00     0.003 A 
ATOM     87  C   UNL A   1      31.160  26.191  21.934  1.00  0.00     0.088 A 
ATOM     88  C   UNL A   1      32.338  25.756  21.333  1.00  0.00     0.007 A 
BRANCH  85  89
ATOM     89  N   UNL A   1      29.937  27.294  23.732  1.00  0.00     0.064 N 
ATOM     90  O   UNL A   1      29.243  26.435  24.299  1.00  0.00    -0.258 OA
ATOM     91  O   UNL A   1      29.604  28.479  23.581  1.00  0.00    -0.258 OA
ENDBRANCH  85  89
ENDBRANCH  79  83
ENDBRANCH  74  77
ENDBRANCH  72  73
ENDBRANCH   1  72
TORSDOF 12
ENDMDL
