MODEL 1
REMARK VINA RESULT:      -9.5      0.000      0.000
REMARK SMILES C[C@H](C(=O)NCCCNC(=O)c1ccc(-c2c3nc(c(-c4c(F)c(F)c(F)c(F)c4F)c4ccc([nH]4)c(-c4c(F)c(F)c(F)c(F)c4F)c4nc(c(-c5c(F)c(F)c(F)c(F)c5F)c5ccc2[nH]5)C=C4)C=C3)cc1)c1ccc(C[C@@H]2CCC[C@H]2O)cc1
REMARK SMILES IDX 6 1 5 2 3 3 4 4 2 6 1 7 75 8 76 9 87 10 77 11 86 12 78 13
REMARK SMILES IDX 79 14 80 15 81 16 84 17 82 18 83 19 85 20 7 22 8 23 9 24
REMARK SMILES IDX 10 25 11 27 12 28 13 29 74 30 14 31 73 32 15 33 16 34 17 35
REMARK SMILES IDX 67 36 18 37 72 38 66 39 68 40 19 41 71 42 65 43 64 44 20 46
REMARK SMILES IDX 52 47 32 48 51 49 33 50 36 51 50 52 69 53 34 54 35 55 49 57
REMARK SMILES IDX 70 58 37 59 21 60 22 61 30 62 23 63 24 64 28 65 31 66 25 67
REMARK SMILES IDX 26 68 29 69 27 70 53 71 54 72 62 73 55 74 56 75 60 76 63 77
REMARK SMILES IDX 57 78 58 79 61 80 59 81 38 82 39 83 47 84 40 85 41 86 45 87
REMARK SMILES IDX 48 88 42 89 43 90 46 91 44 92
REMARK H PARENT 5 5 85 21 9 26 68 45 36 56
REMARK Flexibility Score: inf
ROOT
ATOM      1  C   UNL A   1      43.455  19.974  25.674  1.00  0.00     0.117 C 
ENDROOT
BRANCH   1   2
ATOM      2  N   UNL A   1      43.146  21.290  25.146  1.00  0.00    -0.356 N 
ATOM      3  C   UNL A   1      43.918  22.414  25.046  1.00  0.00     0.227 C 
ATOM      4  O   UNL A   1      43.366  23.434  24.625  1.00  0.00    -0.274 OA
ATOM      5  H   UNL A   1      42.229  21.390  24.802  1.00  0.00     0.163 HD
BRANCH   3   6
ATOM      6  C   UNL A   1      45.406  22.392  25.444  1.00  0.00     0.105 C 
ATOM      7  C   UNL A   1      46.234  22.991  24.298  1.00  0.00     0.023 C 
BRANCH   6   8
ATOM      8  C   UNL A   1      45.621  23.095  26.778  1.00  0.00    -0.036 A 
ATOM      9  C   UNL A   1      44.707  22.897  27.823  1.00  0.00     0.005 A 
ATOM     10  C   UNL A   1      46.658  24.014  26.981  1.00  0.00     0.005 A 
ATOM     11  C   UNL A   1      44.736  23.697  28.968  1.00  0.00     0.004 A 
ATOM     12  C   UNL A   1      46.723  24.774  28.152  1.00  0.00     0.004 A 
ATOM     13  C   UNL A   1      45.719  24.676  29.122  1.00  0.00    -0.048 A 
BRANCH  13  14
ATOM     14  C   UNL A   1      45.675  25.639  30.281  1.00  0.00     0.041 C 
BRANCH  14  15
ATOM     15  C   UNL A   1      45.466  27.136  29.946  1.00  0.00     0.022 C 
ATOM     16  C   UNL A   1      46.710  28.015  30.153  1.00  0.00     0.007 C 
ATOM     17  C   UNL A   1      44.370  27.842  30.753  1.00  0.00     0.117 C 
ATOM     18  C   UNL A   1      46.467  28.870  31.396  1.00  0.00     0.003 C 
ATOM     19  C   UNL A   1      45.081  28.516  31.920  1.00  0.00     0.032 C 
BRANCH  17  20
ATOM     20  O   UNL A   1      43.749  28.842  29.943  1.00  0.00    -0.393 OA
ATOM     21  H   UNL A   1      44.235  28.928  29.107  1.00  0.00     0.210 HD
ENDBRANCH  17  20
ENDBRANCH  14  15
ENDBRANCH  13  14
ENDBRANCH   6   8
ENDBRANCH   3   6
ENDBRANCH   1   2
BRANCH   1  22
ATOM     22  C   UNL A   1      42.205  19.255  26.174  1.00  0.00     0.042 C 
BRANCH  22  23
ATOM     23  C   UNL A   1      41.274  20.125  27.011  1.00  0.00     0.118 C 
BRANCH  23  24
ATOM     24  N   UNL A   1      39.986  20.336  26.371  1.00  0.00    -0.352 N 
ATOM     25  C   UNL A   1      39.251  21.482  26.203  1.00  0.00     0.251 C 
ATOM     26  H   UNL A   1      39.573  19.523  25.999  1.00  0.00     0.163 HD
ATOM     27  O   UNL A   1      38.090  21.395  25.804  1.00  0.00    -0.269 OA
BRANCH  25  28
ATOM     28  C   UNL A   1      39.814  22.821  26.507  1.00  0.00     0.039 A 
ATOM     29  C   UNL A   1      40.756  22.931  27.536  1.00  0.00     0.014 A 
ATOM     30  C   UNL A   1      39.384  23.972  25.843  1.00  0.00     0.014 A 
ATOM     31  C   UNL A   1      41.300  24.177  27.861  1.00  0.00     0.010 A 
ATOM     32  C   UNL A   1      39.983  25.203  26.115  1.00  0.00     0.010 A 
ATOM     33  C   UNL A   1      40.939  25.323  27.134  1.00  0.00    -0.014 A 
BRANCH  33  34
ATOM     34  C   UNL A   1      41.542  26.647  27.436  1.00  0.00     0.031 A 
ATOM     35  C   UNL A   1      42.925  26.984  26.947  1.00  0.00     0.074 A 
ATOM     36  C   UNL A   1      40.871  27.529  28.202  1.00  0.00     0.049 A 
ATOM     37  N   UNL A   1      43.646  28.054  27.172  1.00  0.00    -0.248 NA
ATOM     38  C   UNL A   1      43.598  25.973  26.117  1.00  0.00     0.031 C 
ATOM     39  C   UNL A   1      39.543  27.309  28.776  1.00  0.00     0.029 A 
ATOM     40  N   UNL A   1      41.218  28.784  28.640  1.00  0.00    -0.354 N 
ATOM     41  C   UNL A   1      44.860  27.835  26.533  1.00  0.00     0.074 A 
ATOM     42  C   UNL A   1      44.795  26.514  25.945  1.00  0.00     0.031 C 
ATOM     43  C   UNL A   1      39.181  28.397  29.475  1.00  0.00     0.029 A 
ATOM     44  C   UNL A   1      40.264  29.376  29.429  1.00  0.00     0.049 A 
ATOM     45  H   UNL A   1      42.072  29.217  28.410  1.00  0.00     0.167 HD
ATOM     46  C   UNL A   1      45.924  28.667  26.430  1.00  0.00     0.037 A 
ATOM     47  C   UNL A   1      40.262  30.570  30.052  1.00  0.00     0.037 A 
ATOM     48  C   UNL A   1      45.974  29.997  26.978  1.00  0.00     0.049 A 
ATOM     49  C   UNL A   1      41.447  31.483  29.904  1.00  0.00     0.074 A 
ATOM     50  C   UNL A   1      46.980  30.941  26.862  1.00  0.00     0.029 A 
ATOM     51  N   UNL A   1      44.974  30.572  27.748  1.00  0.00    -0.354 N 
ATOM     52  N   UNL A   1      42.562  31.289  29.245  1.00  0.00    -0.248 NA
ATOM     53  C   UNL A   1      41.370  32.787  30.580  1.00  0.00     0.031 C 
ATOM     54  C   UNL A   1      46.606  32.072  27.595  1.00  0.00     0.029 A 
ATOM     55  C   UNL A   1      45.347  31.851  28.129  1.00  0.00     0.049 A 
ATOM     56  H   UNL A   1      44.124  30.137  27.987  1.00  0.00     0.167 HD
ATOM     57  C   UNL A   1      43.309  32.448  29.407  1.00  0.00     0.074 A 
ATOM     58  C   UNL A   1      42.513  33.348  30.215  1.00  0.00     0.031 C 
ATOM     59  C   UNL A   1      44.544  32.739  28.930  1.00  0.00     0.037 A 
BRANCH  46  60
ATOM     60  C   UNL A   1      47.130  28.167  25.689  1.00  0.00     0.064 A 
ATOM     61  C   UNL A   1      48.270  27.706  26.365  1.00  0.00     0.173 A 
ATOM     62  C   UNL A   1      47.127  28.100  24.288  1.00  0.00     0.173 A 
ATOM     63  F   UNL A   1      48.328  27.757  27.704  1.00  0.00    -0.203 F 
ATOM     64  C   UNL A   1      49.371  27.221  25.663  1.00  0.00     0.198 A 
ATOM     65  C   UNL A   1      48.218  27.589  23.591  1.00  0.00     0.198 A 
ATOM     66  F   UNL A   1      46.058  28.522  23.593  1.00  0.00    -0.203 F 
ATOM     67  F   UNL A   1      50.466  26.826  26.328  1.00  0.00    -0.200 F 
ATOM     68  C   UNL A   1      49.342  27.156  24.278  1.00  0.00     0.200 A 
ATOM     69  F   UNL A   1      48.183  27.515  22.253  1.00  0.00    -0.200 F 
ATOM     70  F   UNL A   1      50.399  26.680  23.606  1.00  0.00    -0.200 F 
ENDBRANCH  46  60
BRANCH  47  71
ATOM     71  C   UNL A   1      39.082  30.979  30.857  1.00  0.00     0.064 A 
ATOM     72  C   UNL A   1      38.022  31.685  30.274  1.00  0.00     0.173 A 
ATOM     73  C   UNL A   1      38.985  30.663  32.220  1.00  0.00     0.173 A 
ATOM     74  F   UNL A   1      38.079  32.026  28.978  1.00  0.00    -0.203 F 
ATOM     75  C   UNL A   1      36.916  32.074  31.026  1.00  0.00     0.198 A 
ATOM     76  C   UNL A   1      37.868  31.031  32.966  1.00  0.00     0.198 A 
ATOM     77  F   UNL A   1      39.971  29.982  32.824  1.00  0.00    -0.203 F 
ATOM     78  F   UNL A   1      35.933  32.782  30.452  1.00  0.00    -0.200 F 
ATOM     79  C   UNL A   1      36.837  31.741  32.369  1.00  0.00     0.200 A 
ATOM     80  F   UNL A   1      37.788  30.693  34.260  1.00  0.00    -0.200 F 
ATOM     81  F   UNL A   1      35.768  32.108  33.091  1.00  0.00    -0.200 F 
ENDBRANCH  47  71
BRANCH  59  82
ATOM     82  C   UNL A   1      45.104  34.095  29.243  1.00  0.00     0.064 A 
ATOM     83  C   UNL A   1      45.905  34.316  30.373  1.00  0.00     0.173 A 
ATOM     84  C   UNL A   1      44.870  35.176  28.381  1.00  0.00     0.173 A 
ATOM     85  F   UNL A   1      46.144  33.317  31.236  1.00  0.00    -0.203 F 
ATOM     86  C   UNL A   1      46.436  35.575  30.637  1.00  0.00     0.198 A 
ATOM     87  C   UNL A   1      45.425  36.428  28.634  1.00  0.00     0.198 A 
ATOM     88  F   UNL A   1      44.114  35.016  27.284  1.00  0.00    -0.203 F 
ATOM     89  F   UNL A   1      47.164  35.773  31.745  1.00  0.00    -0.200 F 
ATOM     90  C   UNL A   1      46.202  36.628  29.765  1.00  0.00     0.200 A 
ATOM     91  F   UNL A   1      45.208  37.440  27.784  1.00  0.00    -0.200 F 
ATOM     92  F   UNL A   1      46.721  37.837  30.017  1.00  0.00    -0.200 F 
ENDBRANCH  59  82
ENDBRANCH  33  34
ENDBRANCH  25  28
ENDBRANCH  23  24
ENDBRANCH  22  23
ENDBRANCH   1  22
TORSDOF 14
ENDMDL
MODEL 2
REMARK VINA RESULT:      -9.4      5.503     10.232
REMARK SMILES C[C@H](C(=O)NCCCNC(=O)c1ccc(-c2c3nc(c(-c4c(F)c(F)c(F)c(F)c4F)c4ccc([nH]4)c(-c4c(F)c(F)c(F)c(F)c4F)c4nc(c(-c5c(F)c(F)c(F)c(F)c5F)c5ccc2[nH]5)C=C4)C=C3)cc1)c1ccc(C[C@@H]2CCC[C@H]2O)cc1
REMARK SMILES IDX 6 1 5 2 3 3 4 4 2 6 1 7 75 8 76 9 87 10 77 11 86 12 78 13
REMARK SMILES IDX 79 14 80 15 81 16 84 17 82 18 83 19 85 20 7 22 8 23 9 24
REMARK SMILES IDX 10 25 11 27 12 28 13 29 74 30 14 31 73 32 15 33 16 34 17 35
REMARK SMILES IDX 67 36 18 37 72 38 66 39 68 40 19 41 71 42 65 43 64 44 20 46
REMARK SMILES IDX 52 47 32 48 51 49 33 50 36 51 50 52 69 53 34 54 35 55 49 57
REMARK SMILES IDX 70 58 37 59 21 60 22 61 30 62 23 63 24 64 28 65 31 66 25 67
REMARK SMILES IDX 26 68 29 69 27 70 53 71 54 72 62 73 55 74 56 75 60 76 63 77
REMARK SMILES IDX 57 78 58 79 61 80 59 81 38 82 39 83 47 84 40 85 41 86 45 87
REMARK SMILES IDX 48 88 42 89 43 90 46 91 44 92
REMARK H PARENT 5 5 85 21 9 26 68 45 36 56
REMARK Flexibility Score: inf
ROOT
ATOM      1  C   UNL A   1      31.122  30.549  25.750  1.00  0.00     0.117 C 
ENDROOT
BRANCH   1   2
ATOM      2  N   UNL A   1      30.818  30.357  24.344  1.00  0.00    -0.356 N 
ATOM      3  C   UNL A   1      30.489  29.226  23.650  1.00  0.00     0.227 C 
ATOM      4  O   UNL A   1      30.361  29.339  22.428  1.00  0.00    -0.274 OA
ATOM      5  H   UNL A   1      30.853  31.176  23.799  1.00  0.00     0.163 HD
BRANCH   3   6
ATOM      6  C   UNL A   1      30.290  27.881  24.374  1.00  0.00     0.105 C 
ATOM      7  C   UNL A   1      29.336  27.009  23.545  1.00  0.00     0.023 C 
BRANCH   6   8
ATOM      8  C   UNL A   1      31.630  27.213  24.655  1.00  0.00    -0.036 A 
ATOM      9  C   UNL A   1      32.537  27.007  23.605  1.00  0.00     0.005 A 
ATOM     10  C   UNL A   1      31.964  26.707  25.917  1.00  0.00     0.005 A 
ATOM     11  C   UNL A   1      33.662  26.196  23.772  1.00  0.00     0.004 A 
ATOM     12  C   UNL A   1      33.120  25.943  26.100  1.00  0.00     0.004 A 
ATOM     13  C   UNL A   1      33.939  25.618  25.012  1.00  0.00    -0.048 A 
BRANCH  13  14
ATOM     14  C   UNL A   1      35.064  24.627  25.169  1.00  0.00     0.041 C 
BRANCH  14  15
ATOM     15  C   UNL A   1      35.211  23.548  24.069  1.00  0.00     0.022 C 
ATOM     16  C   UNL A   1      34.629  22.175  24.441  1.00  0.00     0.007 C 
ATOM     17  C   UNL A   1      36.650  23.241  23.639  1.00  0.00     0.117 C 
ATOM     18  C   UNL A   1      35.804  21.231  24.694  1.00  0.00     0.003 C 
ATOM     19  C   UNL A   1      37.080  22.030  24.458  1.00  0.00     0.032 C 
BRANCH  17  20
ATOM     20  O   UNL A   1      36.672  22.899  22.252  1.00  0.00    -0.393 OA
ATOM     21  H   UNL A   1      37.028  22.002  22.146  1.00  0.00     0.210 HD
ENDBRANCH  17  20
ENDBRANCH  14  15
ENDBRANCH  13  14
ENDBRANCH   6   8
ENDBRANCH   3   6
ENDBRANCH   1   2
BRANCH   1  22
ATOM     22  C   UNL A   1      31.124  32.027  26.134  1.00  0.00     0.042 C 
BRANCH  22  23
ATOM     23  C   UNL A   1      32.369  32.477  26.889  1.00  0.00     0.118 C 
BRANCH  23  24
ATOM     24  N   UNL A   1      32.278  33.857  27.337  1.00  0.00    -0.352 N 
ATOM     25  C   UNL A   1      32.971  34.523  28.316  1.00  0.00     0.251 C 
ATOM     26  H   UNL A   1      31.610  34.402  26.862  1.00  0.00     0.163 HD
ATOM     27  O   UNL A   1      32.591  35.642  28.662  1.00  0.00    -0.269 OA
BRANCH  25  28
ATOM     28  C   UNL A   1      34.154  33.924  28.979  1.00  0.00     0.039 A 
ATOM     29  C   UNL A   1      35.420  34.446  28.688  1.00  0.00     0.014 A 
ATOM     30  C   UNL A   1      34.047  32.820  29.829  1.00  0.00     0.014 A 
ATOM     31  C   UNL A   1      36.561  33.900  29.283  1.00  0.00     0.010 A 
ATOM     32  C   UNL A   1      35.177  32.324  30.481  1.00  0.00     0.010 A 
ATOM     33  C   UNL A   1      36.448  32.851  30.209  1.00  0.00    -0.014 A 
BRANCH  33  34
ATOM     34  C   UNL A   1      37.646  32.289  30.885  1.00  0.00     0.031 A 
ATOM     35  C   UNL A   1      38.464  31.216  30.217  1.00  0.00     0.074 A 
ATOM     36  C   UNL A   1      37.969  32.700  32.126  1.00  0.00     0.049 A 
ATOM     37  N   UNL A   1      39.496  30.554  30.677  1.00  0.00    -0.248 NA
ATOM     38  C   UNL A   1      38.053  30.818  28.862  1.00  0.00     0.031 C 
ATOM     39  C   UNL A   1      37.234  33.700  32.902  1.00  0.00     0.029 A 
ATOM     40  N   UNL A   1      38.992  32.319  32.960  1.00  0.00    -0.354 N 
ATOM     41  C   UNL A   1      39.839  29.648  29.682  1.00  0.00     0.074 A 
ATOM     42  C   UNL A   1      38.883  29.816  28.609  1.00  0.00     0.031 C 
ATOM     43  C   UNL A   1      37.839  33.866  34.089  1.00  0.00     0.029 A 
ATOM     44  C   UNL A   1      38.981  32.960  34.174  1.00  0.00     0.049 A 
ATOM     45  H   UNL A   1      39.669  31.649  32.710  1.00  0.00     0.167 HD
ATOM     46  C   UNL A   1      40.870  28.769  29.658  1.00  0.00     0.037 A 
ATOM     47  C   UNL A   1      39.795  32.830  35.238  1.00  0.00     0.037 A 
ATOM     48  C   UNL A   1      41.846  28.628  30.706  1.00  0.00     0.049 A 
ATOM     49  C   UNL A   1      40.944  31.862  35.177  1.00  0.00     0.074 A 
ATOM     50  C   UNL A   1      42.968  27.817  30.738  1.00  0.00     0.029 A 
ATOM     51  N   UNL A   1      41.818  29.317  31.909  1.00  0.00    -0.354 N 
ATOM     52  N   UNL A   1      41.295  31.057  34.205  1.00  0.00    -0.248 NA
ATOM     53  C   UNL A   1      41.817  31.791  36.358  1.00  0.00     0.031 C 
ATOM     54  C   UNL A   1      43.595  27.985  31.977  1.00  0.00     0.029 A 
ATOM     55  C   UNL A   1      42.891  28.936  32.698  1.00  0.00     0.049 A 
ATOM     56  H   UNL A   1      41.136  29.981  32.165  1.00  0.00     0.167 HD
ATOM     57  C   UNL A   1      42.436  30.400  34.646  1.00  0.00     0.074 A 
ATOM     58  C   UNL A   1      42.729  30.913  35.967  1.00  0.00     0.031 C 
ATOM     59  C   UNL A   1      43.174  29.457  34.011  1.00  0.00     0.037 A 
BRANCH  46  60
ATOM     60  C   UNL A   1      41.002  27.884  28.452  1.00  0.00     0.064 A 
ATOM     61  C   UNL A   1      40.351  26.644  28.373  1.00  0.00     0.173 A 
ATOM     62  C   UNL A   1      41.748  28.304  27.340  1.00  0.00     0.173 A 
ATOM     63  F   UNL A   1      39.633  26.191  29.412  1.00  0.00    -0.203 F 
ATOM     64  C   UNL A   1      40.463  25.846  27.237  1.00  0.00     0.198 A 
ATOM     65  C   UNL A   1      41.836  27.517  26.195  1.00  0.00     0.198 A 
ATOM     66  F   UNL A   1      42.386  29.485  27.361  1.00  0.00    -0.203 F 
ATOM     67  F   UNL A   1      39.868  24.646  27.202  1.00  0.00    -0.200 F 
ATOM     68  C   UNL A   1      41.199  26.286  26.147  1.00  0.00     0.200 A 
ATOM     69  F   UNL A   1      42.536  27.949  25.138  1.00  0.00    -0.200 F 
ATOM     70  F   UNL A   1      41.297  25.521  25.051  1.00  0.00    -0.200 F 
ENDBRANCH  46  60
BRANCH  47  71
ATOM     71  C   UNL A   1      39.562  33.659  36.450  1.00  0.00     0.064 A 
ATOM     72  C   UNL A   1      38.786  33.178  37.513  1.00  0.00     0.173 A 
ATOM     73  C   UNL A   1      40.118  34.940  36.573  1.00  0.00     0.173 A 
ATOM     74  F   UNL A   1      38.218  31.965  37.431  1.00  0.00    -0.203 F 
ATOM     75  C   UNL A   1      38.562  33.953  38.648  1.00  0.00     0.198 A 
ATOM     76  C   UNL A   1      39.914  35.704  37.720  1.00  0.00     0.198 A 
ATOM     77  F   UNL A   1      40.874  35.444  35.586  1.00  0.00    -0.203 F 
ATOM     78  F   UNL A   1      37.785  33.484  39.634  1.00  0.00    -0.200 F 
ATOM     79  C   UNL A   1      39.131  35.213  38.754  1.00  0.00     0.200 A 
ATOM     80  F   UNL A   1      40.479  36.915  37.824  1.00  0.00    -0.200 F 
ATOM     81  F   UNL A   1      38.922  35.955  39.850  1.00  0.00    -0.200 F 
ENDBRANCH  47  71
BRANCH  59  82
ATOM     82  C   UNL A   1      44.386  28.934  34.723  1.00  0.00     0.064 A 
ATOM     83  C   UNL A   1      44.328  27.784  35.524  1.00  0.00     0.173 A 
ATOM     84  C   UNL A   1      45.629  29.566  34.568  1.00  0.00     0.173 A 
ATOM     85  F   UNL A   1      43.161  27.152  35.715  1.00  0.00    -0.203 F 
ATOM     86  C   UNL A   1      45.468  27.297  36.160  1.00  0.00     0.198 A 
ATOM     87  C   UNL A   1      46.771  29.062  35.184  1.00  0.00     0.198 A 
ATOM     88  F   UNL A   1      45.737  30.666  33.808  1.00  0.00    -0.203 F 
ATOM     89  F   UNL A   1      45.381  26.221  36.954  1.00  0.00    -0.200 F 
ATOM     90  C   UNL A   1      46.688  27.932  35.983  1.00  0.00     0.200 A 
ATOM     91  F   UNL A   1      47.952  29.669  35.003  1.00  0.00    -0.200 F 
ATOM     92  F   UNL A   1      47.785  27.458  36.590  1.00  0.00    -0.200 F 
ENDBRANCH  59  82
ENDBRANCH  33  34
ENDBRANCH  25  28
ENDBRANCH  23  24
ENDBRANCH  22  23
ENDBRANCH   1  22
TORSDOF 14
ENDMDL
MODEL 3
REMARK VINA RESULT:      -9.4      4.136     10.736
REMARK SMILES C[C@H](C(=O)NCCCNC(=O)c1ccc(-c2c3nc(c(-c4c(F)c(F)c(F)c(F)c4F)c4ccc([nH]4)c(-c4c(F)c(F)c(F)c(F)c4F)c4nc(c(-c5c(F)c(F)c(F)c(F)c5F)c5ccc2[nH]5)C=C4)C=C3)cc1)c1ccc(C[C@@H]2CCC[C@H]2O)cc1
REMARK SMILES IDX 6 1 5 2 3 3 4 4 2 6 1 7 75 8 76 9 87 10 77 11 86 12 78 13
REMARK SMILES IDX 79 14 80 15 81 16 84 17 82 18 83 19 85 20 7 22 8 23 9 24
REMARK SMILES IDX 10 25 11 27 12 28 13 29 74 30 14 31 73 32 15 33 16 34 17 35
REMARK SMILES IDX 67 36 18 37 72 38 66 39 68 40 19 41 71 42 65 43 64 44 20 46
REMARK SMILES IDX 52 47 32 48 51 49 33 50 36 51 50 52 69 53 34 54 35 55 49 57
REMARK SMILES IDX 70 58 37 59 21 60 22 61 30 62 23 63 24 64 28 65 31 66 25 67
REMARK SMILES IDX 26 68 29 69 27 70 53 71 54 72 62 73 55 74 56 75 60 76 63 77
REMARK SMILES IDX 57 78 58 79 61 80 59 81 38 82 39 83 47 84 40 85 41 86 45 87
REMARK SMILES IDX 48 88 42 89 43 90 46 91 44 92
REMARK H PARENT 5 5 85 21 9 26 68 45 36 56
REMARK Flexibility Score: inf
ROOT
ATOM      1  C   UNL A   1      33.794  35.123  29.269  1.00  0.00     0.117 C 
ENDROOT
BRANCH   1   2
ATOM      2  N   UNL A   1      32.841  35.054  30.362  1.00  0.00    -0.356 N 
ATOM      3  C   UNL A   1      32.975  35.383  31.682  1.00  0.00     0.227 C 
ATOM      4  O   UNL A   1      32.013  35.142  32.417  1.00  0.00    -0.274 OA
ATOM      5  H   UNL A   1      31.952  34.715  30.111  1.00  0.00     0.163 HD
BRANCH   3   6
ATOM      6  C   UNL A   1      34.271  36.024  32.212  1.00  0.00     0.105 C 
ATOM      7  C   UNL A   1      33.909  37.044  33.302  1.00  0.00     0.023 C 
BRANCH   6   8
ATOM      8  C   UNL A   1      35.251  34.957  32.684  1.00  0.00    -0.036 A 
ATOM      9  C   UNL A   1      35.348  34.659  34.051  1.00  0.00     0.005 A 
ATOM     10  C   UNL A   1      36.136  34.315  31.809  1.00  0.00     0.005 A 
ATOM     11  C   UNL A   1      36.387  33.867  34.544  1.00  0.00     0.004 A 
ATOM     12  C   UNL A   1      37.141  33.475  32.296  1.00  0.00     0.004 A 
ATOM     13  C   UNL A   1      37.322  33.305  33.673  1.00  0.00    -0.048 A 
BRANCH  13  14
ATOM     14  C   UNL A   1      38.528  32.571  34.204  1.00  0.00     0.041 C 
BRANCH  14  15
ATOM     15  C   UNL A   1      38.322  31.101  34.641  1.00  0.00     0.022 C 
ATOM     16  C   UNL A   1      39.291  30.619  35.732  1.00  0.00     0.007 C 
ATOM     17  C   UNL A   1      38.464  30.058  33.527  1.00  0.00     0.117 C 
ATOM     18  C   UNL A   1      40.284  29.662  35.075  1.00  0.00     0.003 C 
ATOM     19  C   UNL A   1      39.902  29.560  33.603  1.00  0.00     0.032 C 
BRANCH  17  20
ATOM     20  O   UNL A   1      37.577  28.966  33.778  1.00  0.00    -0.393 OA
ATOM     21  H   UNL A   1      36.745  29.109  33.298  1.00  0.00     0.210 HD
ENDBRANCH  17  20
ENDBRANCH  14  15
ENDBRANCH  13  14
ENDBRANCH   6   8
ENDBRANCH   3   6
ENDBRANCH   1   2
BRANCH   1  22
ATOM     22  C   UNL A   1      33.641  33.947  28.308  1.00  0.00     0.042 C 
BRANCH  22  23
ATOM     23  C   UNL A   1      34.441  32.709  28.700  1.00  0.00     0.118 C 
BRANCH  23  24
ATOM     24  N   UNL A   1      33.836  31.480  28.212  1.00  0.00    -0.352 N 
ATOM     25  C   UNL A   1      34.406  30.274  27.890  1.00  0.00     0.251 C 
ATOM     26  H   UNL A   1      32.860  31.520  28.092  1.00  0.00     0.163 HD
ATOM     27  O   UNL A   1      33.727  29.429  27.306  1.00  0.00    -0.269 OA
BRANCH  25  28
ATOM     28  C   UNL A   1      35.822  29.970  28.211  1.00  0.00     0.039 A 
ATOM     29  C   UNL A   1      36.130  29.502  29.494  1.00  0.00     0.014 A 
ATOM     30  C   UNL A   1      36.854  30.198  27.298  1.00  0.00     0.014 A 
ATOM     31  C   UNL A   1      37.453  29.215  29.840  1.00  0.00     0.010 A 
ATOM     32  C   UNL A   1      38.165  29.841  27.618  1.00  0.00     0.010 A 
ATOM     33  C   UNL A   1      38.482  29.355  28.894  1.00  0.00    -0.014 A 
BRANCH  33  34
ATOM     34  C   UNL A   1      39.888  29.012  29.232  1.00  0.00     0.031 A 
ATOM     35  C   UNL A   1      40.741  29.977  30.012  1.00  0.00     0.074 A 
ATOM     36  C   UNL A   1      40.421  27.858  28.786  1.00  0.00     0.049 A 
ATOM     37  N   UNL A   1      42.007  29.888  30.337  1.00  0.00    -0.248 NA
ATOM     38  C   UNL A   1      40.093  31.216  30.465  1.00  0.00     0.031 C 
ATOM     39  C   UNL A   1      39.716  26.857  27.983  1.00  0.00     0.029 A 
ATOM     40  N   UNL A   1      41.682  27.335  28.936  1.00  0.00    -0.354 N 
ATOM     41  C   UNL A   1      42.309  31.065  31.008  1.00  0.00     0.074 A 
ATOM     42  C   UNL A   1      41.107  31.871  31.010  1.00  0.00     0.031 C 
ATOM     43  C   UNL A   1      40.549  25.836  27.726  1.00  0.00     0.029 A 
ATOM     44  C   UNL A   1      41.855  26.124  28.313  1.00  0.00     0.049 A 
ATOM     45  H   UNL A   1      42.396  27.788  29.441  1.00  0.00     0.167 HD
ATOM     46  C   UNL A   1      43.478  31.432  31.587  1.00  0.00     0.037 A 
ATOM     47  C   UNL A   1      42.942  25.336  28.220  1.00  0.00     0.037 A 
ATOM     48  C   UNL A   1      44.662  30.615  31.622  1.00  0.00     0.049 A 
ATOM     49  C   UNL A   1      44.221  25.757  28.890  1.00  0.00     0.074 A 
ATOM     50  C   UNL A   1      45.870  30.872  32.249  1.00  0.00     0.029 A 
ATOM     51  N   UNL A   1      44.788  29.380  31.004  1.00  0.00    -0.354 N 
ATOM     52  N   UNL A   1      44.475  26.844  29.575  1.00  0.00    -0.248 NA
ATOM     53  C   UNL A   1      45.363  24.837  28.780  1.00  0.00     0.031 C 
ATOM     54  C   UNL A   1      46.739  29.810  31.976  1.00  0.00     0.029 A 
ATOM     55  C   UNL A   1      46.058  28.871  31.219  1.00  0.00     0.049 A 
ATOM     56  H   UNL A   1      44.078  28.931  30.490  1.00  0.00     0.167 HD
ATOM     57  C   UNL A   1      45.794  26.732  29.995  1.00  0.00     0.074 A 
ATOM     58  C   UNL A   1      46.283  25.462  29.501  1.00  0.00     0.031 C 
ATOM     59  C   UNL A   1      46.532  27.603  30.725  1.00  0.00     0.037 A 
BRANCH  46  60
ATOM     60  C   UNL A   1      43.538  32.784  32.239  1.00  0.00     0.064 A 
ATOM     61  C   UNL A   1      43.976  33.919  31.541  1.00  0.00     0.173 A 
ATOM     62  C   UNL A   1      43.104  32.955  33.562  1.00  0.00     0.173 A 
ATOM     63  F   UNL A   1      44.410  33.809  30.277  1.00  0.00    -0.203 F 
ATOM     64  C   UNL A   1      44.001  35.171  32.152  1.00  0.00     0.198 A 
ATOM     65  C   UNL A   1      43.104  34.212  34.161  1.00  0.00     0.198 A 
ATOM     66  F   UNL A   1      42.669  31.902  34.272  1.00  0.00    -0.203 F 
ATOM     67  F   UNL A   1      44.465  36.233  31.479  1.00  0.00    -0.200 F 
ATOM     68  C   UNL A   1      43.559  35.317  33.458  1.00  0.00     0.200 A 
ATOM     69  F   UNL A   1      42.664  34.354  35.418  1.00  0.00    -0.200 F 
ATOM     70  F   UNL A   1      43.575  36.524  34.040  1.00  0.00    -0.200 F 
ENDBRANCH  46  60
BRANCH  47  71
ATOM     71  C   UNL A   1      42.860  24.051  27.477  1.00  0.00     0.064 A 
ATOM     72  C   UNL A   1      43.145  23.993  26.106  1.00  0.00     0.173 A 
ATOM     73  C   UNL A   1      42.505  22.858  28.122  1.00  0.00     0.173 A 
ATOM     74  F   UNL A   1      43.470  25.112  25.443  1.00  0.00    -0.203 F 
ATOM     75  C   UNL A   1      43.065  22.792  25.406  1.00  0.00     0.198 A 
ATOM     76  C   UNL A   1      42.450  21.653  27.426  1.00  0.00     0.198 A 
ATOM     77  F   UNL A   1      42.229  22.860  29.435  1.00  0.00    -0.203 F 
ATOM     78  F   UNL A   1      43.307  22.770  24.087  1.00  0.00    -0.200 F 
ATOM     79  C   UNL A   1      42.724  21.622  26.067  1.00  0.00     0.200 A 
ATOM     80  F   UNL A   1      42.135  20.522  28.072  1.00  0.00    -0.200 F 
ATOM     81  F   UNL A   1      42.655  20.465  25.393  1.00  0.00    -0.200 F 
ENDBRANCH  47  71
BRANCH  59  82
ATOM     82  C   UNL A   1      47.939  27.206  31.058  1.00  0.00     0.064 A 
ATOM     83  C   UNL A   1      48.234  26.414  32.178  1.00  0.00     0.173 A 
ATOM     84  C   UNL A   1      49.001  27.587  30.224  1.00  0.00     0.173 A 
ATOM     85  F   UNL A   1      47.255  26.038  33.014  1.00  0.00    -0.203 F 
ATOM     86  C   UNL A   1      49.543  26.035  32.460  1.00  0.00     0.198 A 
ATOM     87  C   UNL A   1      50.306  27.183  30.495  1.00  0.00     0.198 A 
ATOM     88  F   UNL A   1      48.771  28.340  29.138  1.00  0.00    -0.203 F 
ATOM     89  F   UNL A   1      49.807  25.313  33.559  1.00  0.00    -0.200 F 
ATOM     90  C   UNL A   1      50.576  26.413  31.616  1.00  0.00     0.200 A 
ATOM     91  F   UNL A   1      51.301  27.539  29.672  1.00  0.00    -0.200 F 
ATOM     92  F   UNL A   1      51.835  26.040  31.886  1.00  0.00    -0.200 F 
ENDBRANCH  59  82
ENDBRANCH  33  34
ENDBRANCH  25  28
ENDBRANCH  23  24
ENDBRANCH  22  23
ENDBRANCH   1  22
TORSDOF 14
ENDMDL
