MODEL 1
REMARK VINA RESULT:     -13.4      0.000      0.000
REMARK SMILES Cc1c(C)c2c(c(C)c1O)CC[C@@](C)(C(=O)NCCCNC(=O)c1ccc(-c3c4nc(c(-c5c(F)c(F)c(F)c(F)c5F)c5ccc([nH]5)c(-c5c(F)c(F)c(F)c(F)c5F)c5nc(c(-c6c(F)c(F)c(F)c(F)c6F)c6ccc3[nH]6)C=C5)C=C4)cc1)O2
REMARK SMILES IDX 19 1 18 2 17 3 15 4 16 5 13 7 1 8 2 9 3 10 9 11 4 12 5 13
REMARK SMILES IDX 7 14 6 15 87 16 8 17 11 18 12 19 14 20 10 21 20 23 21 24
REMARK SMILES IDX 22 25 23 27 24 28 25 29 86 30 26 31 85 32 27 33 28 34 29 35
REMARK SMILES IDX 79 36 30 37 84 38 78 39 80 40 31 41 83 42 77 43 76 44 32 46
REMARK SMILES IDX 64 47 44 48 63 49 45 50 48 51 62 52 81 53 46 54 47 55 61 57
REMARK SMILES IDX 82 58 49 59 33 60 34 61 42 62 35 63 36 64 40 65 43 66 37 67
REMARK SMILES IDX 38 68 41 69 39 70 65 71 66 72 74 73 67 74 68 75 72 76 75 77
REMARK SMILES IDX 69 78 70 79 73 80 71 81 50 82 51 83 59 84 52 85 53 86 57 87
REMARK SMILES IDX 60 88 54 89 55 90 58 91 56 92
REMARK H PARENT 17 6 10 22 21 26 80 45 48 56
REMARK Flexibility Score: inf
ROOT
ATOM      1  C   UNL A   1      33.478  29.009  23.495  1.00  0.00     0.042 C 
ENDROOT
BRANCH   1   2
ATOM      2  C   UNL A   1      32.282  28.199  23.014  1.00  0.00     0.118 C 
BRANCH   2   3
ATOM      3  N   UNL A   1      32.614  27.322  21.901  1.00  0.00    -0.353 N 
ATOM      4  C   UNL A   1      32.854  25.973  21.842  1.00  0.00     0.263 C 
ATOM      5  O   UNL A   1      33.122  25.516  20.727  1.00  0.00    -0.270 OA
ATOM      6  H   UNL A   1      32.678  27.780  21.032  1.00  0.00     0.163 HD
BRANCH   4   7
ATOM      7  C   UNL A   1      32.781  25.088  23.117  1.00  0.00     0.184 C 
ATOM      8  C   UNL A   1      32.378  19.066  24.260  1.00  0.00     0.049 C 
ATOM      9  C   UNL A   1      32.749  20.498  24.559  1.00  0.00    -0.002 A 
ATOM     10  C   UNL A   1      32.640  21.460  23.519  1.00  0.00    -0.002 A 
ATOM     11  C   UNL A   1      33.235  20.908  25.816  1.00  0.00     0.122 A 
ATOM     12  C   UNL A   1      32.097  21.063  22.166  1.00  0.00     0.049 C 
ATOM     13  C   UNL A   1      33.018  22.793  23.766  1.00  0.00     0.127 A 
ATOM     14  C   UNL A   1      33.623  22.235  26.061  1.00  0.00    -0.002 A 
ATOM     15  C   UNL A   1      33.541  23.175  25.014  1.00  0.00     0.001 A 
ATOM     16  O   UNL A   1      32.845  23.694  22.734  1.00  0.00    -0.477 OA
ATOM     17  C   UNL A   1      34.122  22.666  27.420  1.00  0.00     0.049 C 
ATOM     18  C   UNL A   1      33.975  24.594  25.252  1.00  0.00     0.044 C 
ATOM     19  C   UNL A   1      34.029  25.365  23.957  1.00  0.00     0.063 C 
ATOM     20  C   UNL A   1      31.394  25.299  23.757  1.00  0.00     0.067 C 
BRANCH  11  21
ATOM     21  O   UNL A   1      33.369  20.044  26.870  1.00  0.00    -0.507 OA
ATOM     22  H   UNL A   1      32.902  20.201  27.667  1.00  0.00     0.293 HD
ENDBRANCH  11  21
ENDBRANCH   4   7
ENDBRANCH   2   3
ENDBRANCH   1   2
BRANCH   1  23
ATOM     23  C   UNL A   1      33.611  29.045  25.009  1.00  0.00     0.118 C 
BRANCH  23  24
ATOM     24  N   UNL A   1      32.999  30.235  25.587  1.00  0.00    -0.352 N 
ATOM     25  C   UNL A   1      33.303  30.920  26.735  1.00  0.00     0.251 C 
ATOM     26  H   UNL A   1      32.248  30.607  25.070  1.00  0.00     0.163 HD
ATOM     27  O   UNL A   1      32.522  31.769  27.163  1.00  0.00    -0.269 OA
BRANCH  25  28
ATOM     28  C   UNL A   1      34.551  30.632  27.472  1.00  0.00     0.039 A 
ATOM     29  C   UNL A   1      35.494  31.652  27.629  1.00  0.00     0.014 A 
ATOM     30  C   UNL A   1      34.808  29.358  27.984  1.00  0.00     0.014 A 
ATOM     31  C   UNL A   1      36.662  31.408  28.353  1.00  0.00     0.010 A 
ATOM     32  C   UNL A   1      35.923  29.144  28.786  1.00  0.00     0.010 A 
ATOM     33  C   UNL A   1      36.869  30.163  28.968  1.00  0.00    -0.014 A 
BRANCH  33  34
ATOM     34  C   UNL A   1      38.081  29.897  29.782  1.00  0.00     0.031 A 
ATOM     35  C   UNL A   1      39.152  28.983  29.257  1.00  0.00     0.074 A 
ATOM     36  C   UNL A   1      38.191  30.440  31.010  1.00  0.00     0.049 A 
ATOM     37  N   UNL A   1      40.255  28.584  29.838  1.00  0.00    -0.248 NA
ATOM     38  C   UNL A   1      38.949  28.423  27.910  1.00  0.00     0.031 C 
ATOM     39  C   UNL A   1      37.198  31.310  31.641  1.00  0.00     0.029 A 
ATOM     40  N   UNL A   1      39.186  30.337  31.950  1.00  0.00    -0.354 N 
ATOM     41  C   UNL A   1      40.868  27.726  28.934  1.00  0.00     0.074 A 
ATOM     42  C   UNL A   1      39.990  27.612  27.792  1.00  0.00     0.031 C 
ATOM     43  C   UNL A   1      37.646  31.685  32.849  1.00  0.00     0.029 A 
ATOM     44  C   UNL A   1      38.937  31.049  33.097  1.00  0.00     0.049 A 
ATOM     45  H   UNL A   1      40.003  29.803  31.813  1.00  0.00     0.167 HD
ATOM     46  C   UNL A   1      42.069  27.113  29.038  1.00  0.00     0.037 A 
ATOM     47  C   UNL A   1      39.665  31.169  34.225  1.00  0.00     0.037 A 
ATOM     48  C   UNL A   1      42.952  27.254  30.165  1.00  0.00     0.049 A 
ATOM     49  C   UNL A   1      40.988  30.459  34.321  1.00  0.00     0.074 A 
ATOM     50  C   UNL A   1      44.216  26.719  30.338  1.00  0.00     0.029 A 
ATOM     51  N   UNL A   1      42.663  27.981  31.309  1.00  0.00    -0.354 N 
ATOM     52  N   UNL A   1      41.586  29.701  33.434  1.00  0.00    -0.248 NA
ATOM     53  C   UNL A   1      41.740  30.621  35.574  1.00  0.00     0.031 C 
ATOM     54  C   UNL A   1      44.669  27.075  31.610  1.00  0.00     0.029 A 
ATOM     55  C   UNL A   1      43.714  27.884  32.207  1.00  0.00     0.049 A 
ATOM     56  H   UNL A   1      41.835  28.491  31.462  1.00  0.00     0.167 HD
ATOM     57  C   UNL A   1      42.790  29.316  34.009  1.00  0.00     0.074 A 
ATOM     58  C   UNL A   1      42.847  29.939  35.315  1.00  0.00     0.031 C 
ATOM     59  C   UNL A   1      43.759  28.515  33.501  1.00  0.00     0.037 A 
BRANCH  46  60
ATOM     60  C   UNL A   1      42.518  26.246  27.898  1.00  0.00     0.064 A 
ATOM     61  C   UNL A   1      42.053  24.931  27.750  1.00  0.00     0.173 A 
ATOM     62  C   UNL A   1      43.359  26.761  26.899  1.00  0.00     0.173 A 
ATOM     63  F   UNL A   1      41.258  24.386  28.683  1.00  0.00    -0.203 F 
ATOM     64  C   UNL A   1      42.421  24.160  26.651  1.00  0.00     0.198 A 
ATOM     65  C   UNL A   1      43.700  25.999  25.786  1.00  0.00     0.198 A 
ATOM     66  F   UNL A   1      43.829  28.014  26.991  1.00  0.00    -0.203 F 
ATOM     67  F   UNL A   1      41.990  22.895  26.546  1.00  0.00    -0.200 F 
ATOM     68  C   UNL A   1      43.233  24.698  25.664  1.00  0.00     0.200 A 
ATOM     69  F   UNL A   1      44.472  26.525  24.826  1.00  0.00    -0.200 F 
ATOM     70  F   UNL A   1      43.568  23.963  24.594  1.00  0.00    -0.200 F 
ENDBRANCH  46  60
BRANCH  47  71
ATOM     71  C   UNL A   1      39.166  32.018  35.339  1.00  0.00     0.064 A 
ATOM     72  C   UNL A   1      38.400  31.468  36.376  1.00  0.00     0.173 A 
ATOM     73  C   UNL A   1      39.457  33.389  35.403  1.00  0.00     0.173 A 
ATOM     74  F   UNL A   1      38.079  30.165  36.351  1.00  0.00    -0.203 F 
ATOM     75  C   UNL A   1      37.933  32.256  37.425  1.00  0.00     0.198 A 
ATOM     76  C   UNL A   1      39.016  34.171  36.468  1.00  0.00     0.198 A 
ATOM     77  F   UNL A   1      40.191  33.965  34.440  1.00  0.00    -0.203 F 
ATOM     78  F   UNL A   1      37.171  31.712  38.383  1.00  0.00    -0.200 F 
ATOM     79  C   UNL A   1      38.248  33.606  37.476  1.00  0.00     0.200 A 
ATOM     80  F   UNL A   1      39.340  35.470  36.521  1.00  0.00    -0.200 F 
ATOM     81  F   UNL A   1      37.811  34.362  38.492  1.00  0.00    -0.200 F 
ENDBRANCH  47  71
BRANCH  59  82
ATOM     82  C   UNL A   1      44.976  28.271  34.345  1.00  0.00     0.064 A 
ATOM     83  C   UNL A   1      46.075  29.143  34.313  1.00  0.00     0.173 A 
ATOM     84  C   UNL A   1      45.008  27.204  35.256  1.00  0.00     0.173 A 
ATOM     85  F   UNL A   1      46.097  30.170  33.451  1.00  0.00    -0.203 F 
ATOM     86  C   UNL A   1      47.167  28.945  35.154  1.00  0.00     0.198 A 
ATOM     87  C   UNL A   1      46.087  27.030  36.117  1.00  0.00     0.198 A 
ATOM     88  F   UNL A   1      43.978  26.348  35.333  1.00  0.00    -0.203 F 
ATOM     89  F   UNL A   1      48.222  29.769  35.081  1.00  0.00    -0.200 F 
ATOM     90  C   UNL A   1      47.167  27.897  36.063  1.00  0.00     0.200 A 
ATOM     91  F   UNL A   1      46.076  26.029  37.009  1.00  0.00    -0.200 F 
ATOM     92  F   UNL A   1      48.210  27.723  36.885  1.00  0.00    -0.200 F 
ENDBRANCH  59  82
ENDBRANCH  33  34
ENDBRANCH  25  28
ENDBRANCH  23  24
ENDBRANCH   1  23
TORSDOF 11
ENDMDL
MODEL 2
REMARK VINA RESULT:     -13.3      0.214      1.984
REMARK SMILES Cc1c(C)c2c(c(C)c1O)CC[C@@](C)(C(=O)NCCCNC(=O)c1ccc(-c3c4nc(c(-c5c(F)c(F)c(F)c(F)c5F)c5ccc([nH]5)c(-c5c(F)c(F)c(F)c(F)c5F)c5nc(c(-c6c(F)c(F)c(F)c(F)c6F)c6ccc3[nH]6)C=C5)C=C4)cc1)O2
REMARK SMILES IDX 19 1 18 2 17 3 15 4 16 5 13 7 1 8 2 9 3 10 9 11 4 12 5 13
REMARK SMILES IDX 7 14 6 15 87 16 8 17 11 18 12 19 14 20 10 21 20 23 21 24
REMARK SMILES IDX 22 25 23 27 24 28 25 29 86 30 26 31 85 32 27 33 28 34 29 35
REMARK SMILES IDX 79 36 30 37 84 38 78 39 80 40 31 41 83 42 77 43 76 44 32 46
REMARK SMILES IDX 64 47 44 48 63 49 45 50 48 51 62 52 81 53 46 54 47 55 61 57
REMARK SMILES IDX 82 58 49 59 33 60 34 61 42 62 35 63 36 64 40 65 43 66 37 67
REMARK SMILES IDX 38 68 41 69 39 70 65 71 66 72 74 73 67 74 68 75 72 76 75 77
REMARK SMILES IDX 69 78 70 79 73 80 71 81 50 82 51 83 59 84 52 85 53 86 57 87
REMARK SMILES IDX 60 88 54 89 55 90 58 91 56 92
REMARK H PARENT 17 6 10 22 21 26 80 45 48 56
REMARK Flexibility Score: inf
ROOT
ATOM      1  C   UNL A   1      33.410  28.957  23.728  1.00  0.00     0.042 C 
ENDROOT
BRANCH   1   2
ATOM      2  C   UNL A   1      32.248  28.176  23.127  1.00  0.00     0.118 C 
BRANCH   2   3
ATOM      3  N   UNL A   1      32.661  27.330  22.017  1.00  0.00    -0.353 N 
ATOM      4  C   UNL A   1      32.939  25.989  21.947  1.00  0.00     0.263 C 
ATOM      5  O   UNL A   1      33.277  25.561  20.838  1.00  0.00    -0.270 OA
ATOM      6  H   UNL A   1      32.757  27.807  21.161  1.00  0.00     0.163 HD
BRANCH   4   7
ATOM      7  C   UNL A   1      32.824  25.077  23.200  1.00  0.00     0.184 C 
ATOM      8  C   UNL A   1      32.364  19.035  24.202  1.00  0.00     0.049 C 
ATOM      9  C   UNL A   1      32.730  20.458  24.543  1.00  0.00    -0.002 A 
ATOM     10  C   UNL A   1      32.657  21.443  23.521  1.00  0.00    -0.002 A 
ATOM     11  C   UNL A   1      33.179  20.840  25.822  1.00  0.00     0.122 A 
ATOM     12  C   UNL A   1      32.154  21.077  22.144  1.00  0.00     0.049 C 
ATOM     13  C   UNL A   1      33.032  22.769  23.807  1.00  0.00     0.127 A 
ATOM     14  C   UNL A   1      33.565  22.160  26.107  1.00  0.00    -0.002 A 
ATOM     15  C   UNL A   1      33.518  23.122  25.078  1.00  0.00     0.001 A 
ATOM     16  O   UNL A   1      32.894  23.692  22.789  1.00  0.00    -0.477 OA
ATOM     17  C   UNL A   1      34.023  22.560  27.489  1.00  0.00     0.049 C 
ATOM     18  C   UNL A   1      33.950  24.533  25.359  1.00  0.00     0.044 C 
ATOM     19  C   UNL A   1      34.047  25.332  24.083  1.00  0.00     0.063 C 
ATOM     20  C   UNL A   1      31.418  25.282  23.801  1.00  0.00     0.067 C 
BRANCH  11  21
ATOM     21  O   UNL A   1      33.278  19.954  26.861  1.00  0.00    -0.507 OA
ATOM     22  H   UNL A   1      33.556  20.250  27.706  1.00  0.00     0.293 HD
ENDBRANCH  11  21
ENDBRANCH   4   7
ENDBRANCH   2   3
ENDBRANCH   1   2
BRANCH   1  23
ATOM     23  C   UNL A   1      33.368  29.023  25.247  1.00  0.00     0.118 C 
BRANCH  23  24
ATOM     24  N   UNL A   1      32.875  30.307  25.728  1.00  0.00    -0.352 N 
ATOM     25  C   UNL A   1      33.267  31.061  26.803  1.00  0.00     0.251 C 
ATOM     26  H   UNL A   1      32.142  30.695  25.196  1.00  0.00     0.163 HD
ATOM     27  O   UNL A   1      32.572  32.008  27.170  1.00  0.00    -0.269 OA
BRANCH  25  28
ATOM     28  C   UNL A   1      34.508  30.734  27.536  1.00  0.00     0.039 A 
ATOM     29  C   UNL A   1      35.493  31.716  27.671  1.00  0.00     0.014 A 
ATOM     30  C   UNL A   1      34.717  29.458  28.066  1.00  0.00     0.014 A 
ATOM     31  C   UNL A   1      36.655  31.436  28.391  1.00  0.00     0.010 A 
ATOM     32  C   UNL A   1      35.828  29.211  28.863  1.00  0.00     0.010 A 
ATOM     33  C   UNL A   1      36.815  30.192  29.023  1.00  0.00    -0.014 A 
BRANCH  33  34
ATOM     34  C   UNL A   1      38.021  29.890  29.834  1.00  0.00     0.031 A 
ATOM     35  C   UNL A   1      39.071  28.958  29.297  1.00  0.00     0.074 A 
ATOM     36  C   UNL A   1      38.145  30.415  31.067  1.00  0.00     0.049 A 
ATOM     37  N   UNL A   1      40.166  28.527  29.872  1.00  0.00    -0.248 NA
ATOM     38  C   UNL A   1      38.855  28.419  27.944  1.00  0.00     0.031 C 
ATOM     39  C   UNL A   1      37.172  31.300  31.710  1.00  0.00     0.029 A 
ATOM     40  N   UNL A   1      39.138  30.278  32.005  1.00  0.00    -0.354 N 
ATOM     41  C   UNL A   1      40.758  27.667  28.957  1.00  0.00     0.074 A 
ATOM     42  C   UNL A   1      39.877  27.586  27.814  1.00  0.00     0.031 C 
ATOM     43  C   UNL A   1      37.629  31.650  32.922  1.00  0.00     0.029 A 
ATOM     44  C   UNL A   1      38.905  30.982  33.162  1.00  0.00     0.049 A 
ATOM     45  H   UNL A   1      39.942  29.728  31.862  1.00  0.00     0.167 HD
ATOM     46  C   UNL A   1      41.946  27.026  29.053  1.00  0.00     0.037 A 
ATOM     47  C   UNL A   1      39.636  31.072  34.290  1.00  0.00     0.037 A 
ATOM     48  C   UNL A   1      42.832  27.133  30.180  1.00  0.00     0.049 A 
ATOM     49  C   UNL A   1      40.943  30.331  34.377  1.00  0.00     0.074 A 
ATOM     50  C   UNL A   1      44.083  26.568  30.346  1.00  0.00     0.029 A 
ATOM     51  N   UNL A   1      42.560  27.853  31.334  1.00  0.00    -0.354 N 
ATOM     52  N   UNL A   1      41.523  29.571  33.480  1.00  0.00    -0.248 NA
ATOM     53  C   UNL A   1      41.699  30.461  35.631  1.00  0.00     0.031 C 
ATOM     54  C   UNL A   1      44.545  26.898  31.622  1.00  0.00     0.029 A 
ATOM     55  C   UNL A   1      43.610  27.721  32.229  1.00  0.00     0.049 A 
ATOM     56  H   UNL A   1      41.744  28.379  31.493  1.00  0.00     0.167 HD
ATOM     57  C   UNL A   1      42.718  29.152  34.049  1.00  0.00     0.074 A 
ATOM     58  C   UNL A   1      42.790  29.757  35.362  1.00  0.00     0.031 C 
ATOM     59  C   UNL A   1      43.669  28.335  33.531  1.00  0.00     0.037 A 
BRANCH  46  60
ATOM     60  C   UNL A   1      42.374  26.162  27.902  1.00  0.00     0.064 A 
ATOM     61  C   UNL A   1      43.249  26.639  26.914  1.00  0.00     0.173 A 
ATOM     62  C   UNL A   1      41.971  24.820  27.830  1.00  0.00     0.173 A 
ATOM     63  F   UNL A   1      43.654  27.917  26.929  1.00  0.00    -0.203 F 
ATOM     64  C   UNL A   1      43.695  25.807  25.890  1.00  0.00     0.198 A 
ATOM     65  C   UNL A   1      42.443  23.983  26.823  1.00  0.00     0.198 A 
ATOM     66  F   UNL A   1      41.138  24.314  28.751  1.00  0.00    -0.203 F 
ATOM     67  F   UNL A   1      44.505  26.293  24.939  1.00  0.00    -0.200 F 
ATOM     68  C   UNL A   1      43.302  24.478  25.853  1.00  0.00     0.200 A 
ATOM     69  F   UNL A   1      42.075  22.695  26.797  1.00  0.00    -0.200 F 
ATOM     70  F   UNL A   1      43.750  23.672  24.880  1.00  0.00    -0.200 F 
ENDBRANCH  46  60
BRANCH  47  71
ATOM     71  C   UNL A   1      39.157  31.918  35.415  1.00  0.00     0.064 A 
ATOM     72  C   UNL A   1      39.446  33.289  35.458  1.00  0.00     0.173 A 
ATOM     73  C   UNL A   1      38.387  31.382  36.458  1.00  0.00     0.173 A 
ATOM     74  F   UNL A   1      40.194  33.846  34.494  1.00  0.00    -0.203 F 
ATOM     75  C   UNL A   1      38.996  34.088  36.507  1.00  0.00     0.198 A 
ATOM     76  C   UNL A   1      37.912  32.188  37.490  1.00  0.00     0.198 A 
ATOM     77  F   UNL A   1      38.078  30.078  36.463  1.00  0.00    -0.203 F 
ATOM     78  F   UNL A   1      39.319  35.388  36.543  1.00  0.00    -0.200 F 
ATOM     79  C   UNL A   1      38.221  33.539  37.519  1.00  0.00     0.200 A 
ATOM     80  F   UNL A   1      37.148  31.656  38.455  1.00  0.00    -0.200 F 
ATOM     81  F   UNL A   1      37.777  34.311  38.520  1.00  0.00    -0.200 F 
ENDBRANCH  47  71
BRANCH  59  82
ATOM     82  C   UNL A   1      44.881  28.054  34.371  1.00  0.00     0.064 A 
ATOM     83  C   UNL A   1      44.953  26.923  35.197  1.00  0.00     0.173 A 
ATOM     84  C   UNL A   1      46.014  28.877  34.282  1.00  0.00     0.173 A 
ATOM     85  F   UNL A   1      43.892  26.111  35.325  1.00  0.00    -0.203 F 
ATOM     86  C   UNL A   1      46.111  26.635  35.915  1.00  0.00     0.198 A 
ATOM     87  C   UNL A   1      47.180  28.567  34.975  1.00  0.00     0.198 A 
ATOM     88  F   UNL A   1      46.000  29.965  33.498  1.00  0.00    -0.203 F 
ATOM     89  F   UNL A   1      46.144  25.569  36.726  1.00  0.00    -0.200 F 
ATOM     90  C   UNL A   1      47.226  27.450  35.794  1.00  0.00     0.200 A 
ATOM     91  F   UNL A   1      48.264  29.345  34.841  1.00  0.00    -0.200 F 
ATOM     92  F   UNL A   1      48.346  27.158  36.469  1.00  0.00    -0.200 F 
ENDBRANCH  59  82
ENDBRANCH  33  34
ENDBRANCH  25  28
ENDBRANCH  23  24
ENDBRANCH   1  23
TORSDOF 11
ENDMDL
MODEL 3
REMARK VINA RESULT:     -13.3      0.323      7.405
REMARK SMILES Cc1c(C)c2c(c(C)c1O)CC[C@@](C)(C(=O)NCCCNC(=O)c1ccc(-c3c4nc(c(-c5c(F)c(F)c(F)c(F)c5F)c5ccc([nH]5)c(-c5c(F)c(F)c(F)c(F)c5F)c5nc(c(-c6c(F)c(F)c(F)c(F)c6F)c6ccc3[nH]6)C=C5)C=C4)cc1)O2
REMARK SMILES IDX 19 1 18 2 17 3 15 4 16 5 13 7 1 8 2 9 3 10 9 11 4 12 5 13
REMARK SMILES IDX 7 14 6 15 87 16 8 17 11 18 12 19 14 20 10 21 20 23 21 24
REMARK SMILES IDX 22 25 23 27 24 28 25 29 86 30 26 31 85 32 27 33 28 34 29 35
REMARK SMILES IDX 79 36 30 37 84 38 78 39 80 40 31 41 83 42 77 43 76 44 32 46
REMARK SMILES IDX 64 47 44 48 63 49 45 50 48 51 62 52 81 53 46 54 47 55 61 57
REMARK SMILES IDX 82 58 49 59 33 60 34 61 42 62 35 63 36 64 40 65 43 66 37 67
REMARK SMILES IDX 38 68 41 69 39 70 65 71 66 72 74 73 67 74 68 75 72 76 75 77
REMARK SMILES IDX 69 78 70 79 73 80 71 81 50 82 51 83 59 84 52 85 53 86 57 87
REMARK SMILES IDX 60 88 54 89 55 90 58 91 56 92
REMARK H PARENT 17 6 10 22 21 26 80 45 48 56
REMARK Flexibility Score: inf
ROOT
ATOM      1  C   UNL A   1      33.329  28.961  23.725  1.00  0.00     0.042 C 
ENDROOT
BRANCH   1   2
ATOM      2  C   UNL A   1      32.185  28.169  23.107  1.00  0.00     0.118 C 
BRANCH   2   3
ATOM      3  N   UNL A   1      32.622  27.329  22.001  1.00  0.00    -0.353 N 
ATOM      4  C   UNL A   1      32.923  25.993  21.934  1.00  0.00     0.263 C 
ATOM      5  O   UNL A   1      33.278  25.571  20.829  1.00  0.00    -0.270 OA
ATOM      6  H   UNL A   1      32.719  27.807  21.146  1.00  0.00     0.163 HD
BRANCH   4   7
ATOM      7  C   UNL A   1      32.810  25.080  23.186  1.00  0.00     0.184 C 
ATOM      8  C   UNL A   1      32.368  19.035  24.182  1.00  0.00     0.049 C 
ATOM      9  C   UNL A   1      32.730  20.459  24.524  1.00  0.00    -0.002 A 
ATOM     10  C   UNL A   1      32.654  21.444  23.503  1.00  0.00    -0.002 A 
ATOM     11  C   UNL A   1      33.177  20.841  25.804  1.00  0.00     0.122 A 
ATOM     12  C   UNL A   1      32.153  21.078  22.125  1.00  0.00     0.049 C 
ATOM     13  C   UNL A   1      33.025  22.771  23.791  1.00  0.00     0.127 A 
ATOM     14  C   UNL A   1      33.558  22.161  26.090  1.00  0.00    -0.002 A 
ATOM     15  C   UNL A   1      33.509  23.124  25.063  1.00  0.00     0.001 A 
ATOM     16  O   UNL A   1      32.884  23.695  22.774  1.00  0.00    -0.477 OA
ATOM     17  C   UNL A   1      34.015  22.562  27.473  1.00  0.00     0.049 C 
ATOM     18  C   UNL A   1      33.936  24.537  25.346  1.00  0.00     0.044 C 
ATOM     19  C   UNL A   1      34.031  25.337  24.070  1.00  0.00     0.063 C 
ATOM     20  C   UNL A   1      31.403  25.279  23.787  1.00  0.00     0.067 C 
BRANCH  11  21
ATOM     21  O   UNL A   1      33.278  19.954  26.843  1.00  0.00    -0.507 OA
ATOM     22  H   UNL A   1      32.558  19.837  27.431  1.00  0.00     0.293 HD
ENDBRANCH  11  21
ENDBRANCH   4   7
ENDBRANCH   2   3
ENDBRANCH   1   2
BRANCH   1  23
ATOM     23  C   UNL A   1      33.288  28.993  25.244  1.00  0.00     0.118 C 
BRANCH  23  24
ATOM     24  N   UNL A   1      32.838  30.281  25.756  1.00  0.00    -0.352 N 
ATOM     25  C   UNL A   1      33.270  31.005  26.837  1.00  0.00     0.251 C 
ATOM     26  H   UNL A   1      32.107  30.697  25.244  1.00  0.00     0.163 HD
ATOM     27  O   UNL A   1      32.607  31.964  27.232  1.00  0.00    -0.269 OA
BRANCH  25  28
ATOM     28  C   UNL A   1      34.513  30.632  27.542  1.00  0.00     0.039 A 
ATOM     29  C   UNL A   1      35.524  31.586  27.683  1.00  0.00     0.014 A 
ATOM     30  C   UNL A   1      34.700  29.339  28.039  1.00  0.00     0.014 A 
ATOM     31  C   UNL A   1      36.690  31.262  28.378  1.00  0.00     0.010 A 
ATOM     32  C   UNL A   1      35.817  29.047  28.812  1.00  0.00     0.010 A 
ATOM     33  C   UNL A   1      36.830  30.001  28.978  1.00  0.00    -0.014 A 
BRANCH  33  34
ATOM     34  C   UNL A   1      38.041  29.651  29.762  1.00  0.00     0.031 A 
ATOM     35  C   UNL A   1      38.245  30.238  31.130  1.00  0.00     0.074 A 
ATOM     36  C   UNL A   1      38.975  28.845  29.222  1.00  0.00     0.049 A 
ATOM     37  N   UNL A   1      39.259  30.099  31.946  1.00  0.00    -0.248 NA
ATOM     38  C   UNL A   1      37.181  31.117  31.643  1.00  0.00     0.031 C 
ATOM     39  C   UNL A   1      38.906  28.248  27.887  1.00  0.00     0.029 A 
ATOM     40  N   UNL A   1      40.169  28.393  29.725  1.00  0.00    -0.354 N 
ATOM     41  C   UNL A   1      38.958  30.875  33.057  1.00  0.00     0.074 A 
ATOM     42  C   UNL A   1      37.698  31.531  32.791  1.00  0.00     0.031 C 
ATOM     43  C   UNL A   1      39.992  27.485  27.690  1.00  0.00     0.029 A 
ATOM     44  C   UNL A   1      40.856  27.572  28.864  1.00  0.00     0.049 A 
ATOM     45  H   UNL A   1      40.502  28.633  30.621  1.00  0.00     0.167 HD
ATOM     46  C   UNL A   1      39.657  31.004  34.209  1.00  0.00     0.037 A 
ATOM     47  C   UNL A   1      42.051  26.965  29.003  1.00  0.00     0.037 A 
ATOM     48  C   UNL A   1      40.896  30.325  34.480  1.00  0.00     0.049 A 
ATOM     49  C   UNL A   1      42.817  27.143  30.286  1.00  0.00     0.074 A 
ATOM     50  C   UNL A   1      41.651  30.345  35.639  1.00  0.00     0.029 A 
ATOM     51  N   UNL A   1      41.561  29.505  33.581  1.00  0.00    -0.354 N 
ATOM     52  N   UNL A   1      42.491  27.828  31.355  1.00  0.00    -0.248 NA
ATOM     53  C   UNL A   1      44.116  26.461  30.385  1.00  0.00     0.031 C 
ATOM     54  C   UNL A   1      42.801  29.584  35.423  1.00  0.00     0.029 A 
ATOM     55  C   UNL A   1      42.735  29.037  34.151  1.00  0.00     0.049 A 
ATOM     56  H   UNL A   1      41.247  29.287  32.674  1.00  0.00     0.167 HD
ATOM     57  C   UNL A   1      43.529  27.643  32.259  1.00  0.00     0.074 A 
ATOM     58  C   UNL A   1      44.487  26.766  31.621  1.00  0.00     0.031 C 
ATOM     59  C   UNL A   1      43.676  28.159  33.505  1.00  0.00     0.037 A 
BRANCH  46  60
ATOM     60  C   UNL A   1      39.096  31.896  35.277  1.00  0.00     0.064 A 
ATOM     61  C   UNL A   1      38.339  31.381  36.340  1.00  0.00     0.173 A 
ATOM     62  C   UNL A   1      39.386  33.269  35.283  1.00  0.00     0.173 A 
ATOM     63  F   UNL A   1      38.023  30.078  36.375  1.00  0.00    -0.203 F 
ATOM     64  C   UNL A   1      37.884  32.209  37.363  1.00  0.00     0.198 A 
ATOM     65  C   UNL A   1      38.956  34.088  36.323  1.00  0.00     0.198 A 
ATOM     66  F   UNL A   1      40.108  33.812  34.292  1.00  0.00    -0.203 F 
ATOM     67  F   UNL A   1      37.135  31.700  38.351  1.00  0.00    -0.200 F 
ATOM     68  C   UNL A   1      38.203  33.558  37.360  1.00  0.00     0.200 A 
ATOM     69  F   UNL A   1      39.278  35.389  36.327  1.00  0.00    -0.200 F 
ATOM     70  F   UNL A   1      37.784  34.350  38.357  1.00  0.00    -0.200 F 
ENDBRANCH  46  60
BRANCH  47  71
ATOM     71  C   UNL A   1      42.579  26.112  27.905  1.00  0.00     0.064 A 
ATOM     72  C   UNL A   1      43.434  26.642  26.930  1.00  0.00     0.173 A 
ATOM     73  C   UNL A   1      42.256  24.749  27.817  1.00  0.00     0.173 A 
ATOM     74  F   UNL A   1      43.756  27.944  26.959  1.00  0.00    -0.203 F 
ATOM     75  C   UNL A   1      43.935  25.847  25.901  1.00  0.00     0.198 A 
ATOM     76  C   UNL A   1      42.783  23.948  26.806  1.00  0.00     0.198 A 
ATOM     77  F   UNL A   1      41.447  24.190  28.728  1.00  0.00    -0.203 F 
ATOM     78  F   UNL A   1      44.719  26.389  24.960  1.00  0.00    -0.200 F 
ATOM     79  C   UNL A   1      43.616  24.498  25.845  1.00  0.00     0.200 A 
ATOM     80  F   UNL A   1      42.487  22.641  26.768  1.00  0.00    -0.200 F 
ATOM     81  F   UNL A   1      44.110  23.731  24.863  1.00  0.00    -0.200 F 
ENDBRANCH  47  71
BRANCH  59  82
ATOM     82  C   UNL A   1      44.907  27.781  34.276  1.00  0.00     0.064 A 
ATOM     83  C   UNL A   1      46.061  28.577  34.249  1.00  0.00     0.173 A 
ATOM     84  C   UNL A   1      44.902  26.657  35.117  1.00  0.00     0.173 A 
ATOM     85  F   UNL A   1      46.120  29.654  33.452  1.00  0.00    -0.203 F 
ATOM     86  C   UNL A   1      47.170  28.253  35.025  1.00  0.00     0.198 A 
ATOM     87  C   UNL A   1      46.000  26.356  35.917  1.00  0.00     0.198 A 
ATOM     88  F   UNL A   1      43.819  25.869  35.187  1.00  0.00    -0.203 F 
ATOM     89  F   UNL A   1      48.276  29.007  34.956  1.00  0.00    -0.200 F 
ATOM     90  C   UNL A   1      47.135  27.151  35.867  1.00  0.00     0.200 A 
ATOM     91  F   UNL A   1      45.956  25.303  36.745  1.00  0.00    -0.200 F 
ATOM     92  F   UNL A   1      48.196  26.855  36.629  1.00  0.00    -0.200 F 
ENDBRANCH  59  82
ENDBRANCH  33  34
ENDBRANCH  25  28
ENDBRANCH  23  24
ENDBRANCH   1  23
TORSDOF 11
ENDMDL
