MODEL 1
REMARK VINA RESULT:     -12.8      0.000      0.000
REMARK SMILES Cc1cc(N2CCC[C@H](C(=O)NCCCNC(=O)c3ccc(-c4c5nc(c(-c6c(F)c(F)c(F)c(F)c6F)c6ccc([nH]6)c(-c6c(F)c(F)c(F)c(F)c6F)c6nc(c(-c7c(F)c(F)c(F)c(F)c7F)c7ccc4[nH]7)C=C6)C=C5)cc3)C2)nc(C(C)C)n1
REMARK SMILES IDX 14 1 13 2 12 3 10 4 11 5 9 7 5 8 6 9 82 10 7 11 8 12 4 13
REMARK SMILES IDX 1 14 2 15 3 16 88 17 84 18 83 19 85 20 86 21 87 22 15 23
REMARK SMILES IDX 16 24 17 25 18 27 19 28 20 29 81 30 21 31 80 32 22 33 23 34
REMARK SMILES IDX 24 35 74 36 25 37 79 38 73 39 75 40 26 41 78 42 72 43 71 44
REMARK SMILES IDX 27 46 59 47 39 48 58 49 40 50 43 51 57 52 76 53 41 54 42 55
REMARK SMILES IDX 56 57 77 58 44 59 28 60 29 61 37 62 30 63 31 64 35 65 38 66
REMARK SMILES IDX 32 67 33 68 36 69 34 70 60 71 61 72 69 73 62 74 63 75 67 76
REMARK SMILES IDX 70 77 64 78 65 79 68 80 66 81 45 82 46 83 54 84 47 85 48 86
REMARK SMILES IDX 52 87 55 88 49 89 50 90 53 91 51 92
REMARK H PARENT 12 6 16 26 75 45 43 56
REMARK Flexibility Score: inf
ROOT
ATOM      1  C   UNL A   1      31.579  31.983  26.602  1.00  0.00     0.042 C 
ENDROOT
BRANCH   1   2
ATOM      2  C   UNL A   1      31.716  30.472  26.662  1.00  0.00     0.117 C 
BRANCH   2   3
ATOM      3  N   UNL A   1      32.728  29.935  25.785  1.00  0.00    -0.356 N 
ATOM      4  C   UNL A   1      32.613  29.022  24.788  1.00  0.00     0.224 C 
ATOM      5  O   UNL A   1      33.575  28.938  24.014  1.00  0.00    -0.275 OA
ATOM      6  H   UNL A   1      33.636  30.283  25.932  1.00  0.00     0.163 HD
BRANCH   4   7
ATOM      7  C   UNL A   1      31.404  28.102  24.582  1.00  0.00     0.098 C 
ATOM      8  N   UNL A   1      31.974  25.709  24.405  1.00  0.00    -0.356 N 
ATOM      9  C   UNL A   1      31.307  25.487  23.137  1.00  0.00     0.118 C 
ATOM     10  C   UNL A   1      31.502  26.756  25.294  1.00  0.00     0.131 C 
ATOM     11  C   UNL A   1      31.231  26.793  22.338  1.00  0.00     0.022 C 
ATOM     12  C   UNL A   1      30.853  28.031  23.153  1.00  0.00     0.017 C 
BRANCH   8  13
ATOM     13  C   UNL A   1      32.797  24.749  24.954  1.00  0.00     0.132 A 
ATOM     14  C   UNL A   1      33.113  22.488  27.920  1.00  0.00     0.067 C 
ATOM     15  C   UNL A   1      33.390  23.234  26.651  1.00  0.00     0.043 A 
ATOM     16  C   UNL A   1      32.429  24.043  26.077  1.00  0.00     0.070 A 
ATOM     17  N   UNL A   1      34.635  23.118  26.150  1.00  0.00    -0.238 NA
ATOM     18  C   UNL A   1      34.912  23.833  25.048  1.00  0.00     0.133 A 
ATOM     19  N   UNL A   1      34.030  24.637  24.431  1.00  0.00    -0.216 NA
BRANCH  18  20
ATOM     20  C   UNL A   1      36.325  23.821  24.507  1.00  0.00     0.051 C 
ATOM     21  C   UNL A   1      37.321  23.400  25.586  1.00  0.00     0.016 C 
ATOM     22  C   UNL A   1      36.446  22.948  23.262  1.00  0.00     0.016 C 
ENDBRANCH  18  20
ENDBRANCH   8  13
ENDBRANCH   4   7
ENDBRANCH   2   3
ENDBRANCH   1   2
BRANCH   1  23
ATOM     23  C   UNL A   1      32.733  32.707  27.268  1.00  0.00     0.118 C 
BRANCH  23  24
ATOM     24  N   UNL A   1      32.401  34.078  27.642  1.00  0.00    -0.352 N 
ATOM     25  C   UNL A   1      32.969  34.930  28.563  1.00  0.00     0.251 C 
ATOM     26  H   UNL A   1      31.638  34.461  27.151  1.00  0.00     0.163 HD
ATOM     27  O   UNL A   1      32.471  36.022  28.775  1.00  0.00    -0.269 OA
BRANCH  25  28
ATOM     28  C   UNL A   1      34.154  34.493  29.333  1.00  0.00     0.039 A 
ATOM     29  C   UNL A   1      33.961  33.895  30.582  1.00  0.00     0.014 A 
ATOM     30  C   UNL A   1      35.441  34.637  28.817  1.00  0.00     0.014 A 
ATOM     31  C   UNL A   1      35.054  33.363  31.268  1.00  0.00     0.010 A 
ATOM     32  C   UNL A   1      36.506  34.004  29.441  1.00  0.00     0.010 A 
ATOM     33  C   UNL A   1      36.327  33.370  30.678  1.00  0.00    -0.014 A 
BRANCH  33  34
ATOM     34  C   UNL A   1      37.500  32.746  31.339  1.00  0.00     0.031 A 
ATOM     35  C   UNL A   1      38.194  31.588  30.675  1.00  0.00     0.074 A 
ATOM     36  C   UNL A   1      37.869  33.150  32.571  1.00  0.00     0.049 A 
ATOM     37  N   UNL A   1      39.141  30.813  31.138  1.00  0.00    -0.248 NA
ATOM     38  C   UNL A   1      37.727  31.219  29.327  1.00  0.00     0.031 C 
ATOM     39  C   UNL A   1      37.224  34.212  33.346  1.00  0.00     0.029 A 
ATOM     40  N   UNL A   1      38.869  32.700  33.397  1.00  0.00    -0.354 N 
ATOM     41  C   UNL A   1      39.345  29.846  30.162  1.00  0.00     0.074 A 
ATOM     42  C   UNL A   1      38.396  30.099  29.102  1.00  0.00     0.031 C 
ATOM     43  C   UNL A   1      37.854  34.343  34.526  1.00  0.00     0.029 A 
ATOM     44  C   UNL A   1      38.922  33.352  34.605  1.00  0.00     0.049 A 
ATOM     45  H   UNL A   1      39.489  31.977  33.147  1.00  0.00     0.167 HD
ATOM     46  C   UNL A   1      40.263  28.851  30.143  1.00  0.00     0.037 A 
ATOM     47  C   UNL A   1      39.738  33.163  35.659  1.00  0.00     0.037 A 
ATOM     48  C   UNL A   1      41.256  28.659  31.163  1.00  0.00     0.049 A 
ATOM     49  C   UNL A   1      40.797  32.095  35.576  1.00  0.00     0.074 A 
ATOM     50  C   UNL A   1      42.305  27.757  31.184  1.00  0.00     0.029 A 
ATOM     51  N   UNL A   1      41.328  29.390  32.339  1.00  0.00    -0.354 N 
ATOM     52  N   UNL A   1      41.041  31.247  34.608  1.00  0.00    -0.248 NA
ATOM     53  C   UNL A   1      41.701  31.966  36.728  1.00  0.00     0.031 C 
ATOM     54  C   UNL A   1      42.991  27.919  32.392  1.00  0.00     0.029 A 
ATOM     55  C   UNL A   1      42.395  28.949  33.101  1.00  0.00     0.049 A 
ATOM     56  H   UNL A   1      40.712  30.115  32.592  1.00  0.00     0.167 HD
ATOM     57  C   UNL A   1      42.139  30.505  35.018  1.00  0.00     0.074 A 
ATOM     58  C   UNL A   1      42.526  31.014  36.317  1.00  0.00     0.031 C 
ATOM     59  C   UNL A   1      42.771  29.488  34.381  1.00  0.00     0.037 A 
BRANCH  46  60
ATOM     60  C   UNL A   1      40.253  27.907  28.978  1.00  0.00     0.064 A 
ATOM     61  C   UNL A   1      40.986  28.165  27.811  1.00  0.00     0.173 A 
ATOM     62  C   UNL A   1      39.544  26.697  29.053  1.00  0.00     0.173 A 
ATOM     63  F   UNL A   1      41.669  29.313  27.683  1.00  0.00    -0.203 F 
ATOM     64  C   UNL A   1      40.995  27.258  26.755  1.00  0.00     0.198 A 
ATOM     65  C   UNL A   1      39.579  25.780  28.007  1.00  0.00     0.198 A 
ATOM     66  F   UNL A   1      38.828  26.401  30.148  1.00  0.00    -0.203 F 
ATOM     67  F   UNL A   1      41.672  27.545  25.633  1.00  0.00    -0.200 F 
ATOM     68  C   UNL A   1      40.300  26.062  26.857  1.00  0.00     0.200 A 
ATOM     69  F   UNL A   1      38.916  24.619  28.113  1.00  0.00    -0.200 F 
ATOM     70  F   UNL A   1      40.322  25.184  25.846  1.00  0.00    -0.200 F 
ENDBRANCH  46  60
BRANCH  47  71
ATOM     71  C   UNL A   1      39.606  34.009  36.874  1.00  0.00     0.064 A 
ATOM     72  C   UNL A   1      38.838  33.584  37.968  1.00  0.00     0.173 A 
ATOM     73  C   UNL A   1      40.220  35.267  36.961  1.00  0.00     0.173 A 
ATOM     74  F   UNL A   1      38.216  32.396  37.927  1.00  0.00    -0.203 F 
ATOM     75  C   UNL A   1      38.661  34.397  39.086  1.00  0.00     0.198 A 
ATOM     76  C   UNL A   1      40.067  36.067  38.091  1.00  0.00     0.198 A 
ATOM     77  F   UNL A   1      40.973  35.717  35.946  1.00  0.00    -0.203 F 
ATOM     78  F   UNL A   1      37.873  33.991  40.090  1.00  0.00    -0.200 F 
ATOM     79  C   UNL A   1      39.278  35.637  39.147  1.00  0.00     0.200 A 
ATOM     80  F   UNL A   1      40.677  37.259  38.153  1.00  0.00    -0.200 F 
ATOM     81  F   UNL A   1      39.105  36.422  40.220  1.00  0.00    -0.200 F 
ENDBRANCH  47  71
BRANCH  59  82
ATOM     82  C   UNL A   1      43.966  28.891  35.060  1.00  0.00     0.064 A 
ATOM     83  C   UNL A   1      45.258  29.392  34.846  1.00  0.00     0.173 A 
ATOM     84  C   UNL A   1      43.809  27.837  35.972  1.00  0.00     0.173 A 
ATOM     85  F   UNL A   1      45.459  30.389  33.972  1.00  0.00    -0.203 F 
ATOM     86  C   UNL A   1      46.353  28.843  35.505  1.00  0.00     0.198 A 
ATOM     87  C   UNL A   1      44.903  27.310  36.651  1.00  0.00     0.198 A 
ATOM     88  F   UNL A   1      42.591  27.329  36.215  1.00  0.00    -0.203 F 
ATOM     89  F   UNL A   1      47.586  29.307  35.253  1.00  0.00    -0.200 F 
ATOM     90  C   UNL A   1      46.174  27.809  36.412  1.00  0.00     0.200 A 
ATOM     91  F   UNL A   1      44.727  26.321  37.537  1.00  0.00    -0.200 F 
ATOM     92  F   UNL A   1      47.231  27.288  37.052  1.00  0.00    -0.200 F 
ENDBRANCH  59  82
ENDBRANCH  33  34
ENDBRANCH  25  28
ENDBRANCH  23  24
ENDBRANCH   1  23
TORSDOF 12
ENDMDL
MODEL 2
REMARK VINA RESULT:     -12.7      5.652     11.167
REMARK SMILES Cc1cc(N2CCC[C@H](C(=O)NCCCNC(=O)c3ccc(-c4c5nc(c(-c6c(F)c(F)c(F)c(F)c6F)c6ccc([nH]6)c(-c6c(F)c(F)c(F)c(F)c6F)c6nc(c(-c7c(F)c(F)c(F)c(F)c7F)c7ccc4[nH]7)C=C6)C=C5)cc3)C2)nc(C(C)C)n1
REMARK SMILES IDX 14 1 13 2 12 3 10 4 11 5 9 7 5 8 6 9 82 10 7 11 8 12 4 13
REMARK SMILES IDX 1 14 2 15 3 16 88 17 84 18 83 19 85 20 86 21 87 22 15 23
REMARK SMILES IDX 16 24 17 25 18 27 19 28 20 29 81 30 21 31 80 32 22 33 23 34
REMARK SMILES IDX 24 35 74 36 25 37 79 38 73 39 75 40 26 41 78 42 72 43 71 44
REMARK SMILES IDX 27 46 59 47 39 48 58 49 40 50 43 51 57 52 76 53 41 54 42 55
REMARK SMILES IDX 56 57 77 58 44 59 28 60 29 61 37 62 30 63 31 64 35 65 38 66
REMARK SMILES IDX 32 67 33 68 36 69 34 70 60 71 61 72 69 73 62 74 63 75 67 76
REMARK SMILES IDX 70 77 64 78 65 79 68 80 66 81 45 82 46 83 54 84 47 85 48 86
REMARK SMILES IDX 52 87 55 88 49 89 50 90 53 91 51 92
REMARK H PARENT 12 6 16 26 75 45 43 56
REMARK Flexibility Score: inf
ROOT
ATOM      1  C   UNL A   1      37.879  19.932  25.001  1.00  0.00     0.042 C 
ENDROOT
BRANCH   1   2
ATOM      2  C   UNL A   1      37.054  21.150  24.627  1.00  0.00     0.117 C 
BRANCH   2   3
ATOM      3  N   UNL A   1      36.376  21.769  25.739  1.00  0.00    -0.356 N 
ATOM      4  C   UNL A   1      35.053  22.000  25.926  1.00  0.00     0.224 C 
ATOM      5  O   UNL A   1      34.710  22.297  27.078  1.00  0.00    -0.275 OA
ATOM      6  H   UNL A   1      36.962  22.069  26.471  1.00  0.00     0.163 HD
BRANCH   4   7
ATOM      7  C   UNL A   1      33.991  21.936  24.822  1.00  0.00     0.098 C 
ATOM      8  N   UNL A   1      32.682  24.010  24.558  1.00  0.00    -0.356 N 
ATOM      9  C   UNL A   1      31.380  23.387  24.694  1.00  0.00     0.118 C 
ATOM     10  C   UNL A   1      33.801  23.237  24.048  1.00  0.00     0.131 C 
ATOM     11  C   UNL A   1      31.488  22.101  25.521  1.00  0.00     0.022 C 
ATOM     12  C   UNL A   1      32.689  21.214  25.188  1.00  0.00     0.017 C 
BRANCH   8  13
ATOM     13  C   UNL A   1      32.818  25.382  24.551  1.00  0.00     0.132 A 
ATOM     14  C   UNL A   1      34.026  28.212  22.421  1.00  0.00     0.067 C 
ATOM     15  C   UNL A   1      33.500  27.406  23.568  1.00  0.00     0.043 A 
ATOM     16  C   UNL A   1      33.225  26.059  23.425  1.00  0.00     0.070 A 
ATOM     17  N   UNL A   1      33.375  28.051  24.744  1.00  0.00    -0.238 NA
ATOM     18  C   UNL A   1      32.965  27.320  25.793  1.00  0.00     0.133 A 
ATOM     19  N   UNL A   1      32.674  26.010  25.731  1.00  0.00    -0.216 NA
BRANCH  18  20
ATOM     20  C   UNL A   1      32.911  27.971  27.158  1.00  0.00     0.051 C 
ATOM     21  C   UNL A   1      33.722  29.266  27.180  1.00  0.00     0.016 C 
ATOM     22  C   UNL A   1      31.475  28.203  27.617  1.00  0.00     0.016 C 
ENDBRANCH  18  20
ENDBRANCH   8  13
ENDBRANCH   4   7
ENDBRANCH   2   3
ENDBRANCH   1   2
BRANCH   1  23
ATOM     23  C   UNL A   1      39.087  20.275  25.850  1.00  0.00     0.118 C 
BRANCH  23  24
ATOM     24  N   UNL A   1      40.071  19.198  25.897  1.00  0.00    -0.352 N 
ATOM     25  C   UNL A   1      41.430  19.219  26.122  1.00  0.00     0.251 C 
ATOM     26  H   UNL A   1      39.699  18.300  25.743  1.00  0.00     0.163 HD
ATOM     27  O   UNL A   1      42.080  18.192  26.034  1.00  0.00    -0.269 OA
BRANCH  25  28
ATOM     28  C   UNL A   1      42.105  20.502  26.416  1.00  0.00     0.039 A 
ATOM     29  C   UNL A   1      42.535  21.295  25.349  1.00  0.00     0.014 A 
ATOM     30  C   UNL A   1      42.280  20.938  27.728  1.00  0.00     0.014 A 
ATOM     31  C   UNL A   1      43.060  22.564  25.601  1.00  0.00     0.010 A 
ATOM     32  C   UNL A   1      42.689  22.241  27.970  1.00  0.00     0.010 A 
ATOM     33  C   UNL A   1      43.094  23.065  26.911  1.00  0.00    -0.014 A 
BRANCH  33  34
ATOM     34  C   UNL A   1      43.572  24.437  27.213  1.00  0.00     0.031 A 
ATOM     35  C   UNL A   1      42.596  25.465  27.719  1.00  0.00     0.074 A 
ATOM     36  C   UNL A   1      44.845  24.780  26.934  1.00  0.00     0.049 A 
ATOM     37  N   UNL A   1      42.769  26.747  27.911  1.00  0.00    -0.248 NA
ATOM     38  C   UNL A   1      41.227  24.999  28.002  1.00  0.00     0.031 C 
ATOM     39  C   UNL A   1      45.861  23.890  26.368  1.00  0.00     0.029 A 
ATOM     40  N   UNL A   1      45.497  25.980  27.071  1.00  0.00    -0.354 N 
ATOM     41  C   UNL A   1      41.527  27.241  28.289  1.00  0.00     0.074 A 
ATOM     42  C   UNL A   1      40.598  26.135  28.255  1.00  0.00     0.031 C 
ATOM     43  C   UNL A   1      47.012  24.569  26.224  1.00  0.00     0.029 A 
ATOM     44  C   UNL A   1      46.805  25.948  26.650  1.00  0.00     0.049 A 
ATOM     45  H   UNL A   1      45.068  26.788  27.435  1.00  0.00     0.167 HD
ATOM     46  C   UNL A   1      41.199  28.502  28.655  1.00  0.00     0.037 A 
ATOM     47  C   UNL A   1      47.728  26.928  26.607  1.00  0.00     0.037 A 
ATOM     48  C   UNL A   1      42.147  29.575  28.766  1.00  0.00     0.049 A 
ATOM     49  C   UNL A   1      47.351  28.303  27.093  1.00  0.00     0.074 A 
ATOM     50  C   UNL A   1      41.944  30.859  29.241  1.00  0.00     0.029 A 
ATOM     51  N   UNL A   1      43.483  29.485  28.404  1.00  0.00    -0.354 N 
ATOM     52  N   UNL A   1      46.197  28.735  27.536  1.00  0.00    -0.248 NA
ATOM     53  C   UNL A   1      48.409  29.323  27.082  1.00  0.00     0.031 C 
ATOM     54  C   UNL A   1      43.150  31.557  29.133  1.00  0.00     0.029 A 
ATOM     55  C   UNL A   1      44.113  30.696  28.631  1.00  0.00     0.049 A 
ATOM     56  H   UNL A   1      43.918  28.680  28.041  1.00  0.00     0.167 HD
ATOM     57  C   UNL A   1      46.394  30.064  27.883  1.00  0.00     0.074 A 
ATOM     58  C   UNL A   1      47.785  30.364  27.615  1.00  0.00     0.031 C 
ATOM     59  C   UNL A   1      45.504  30.961  28.375  1.00  0.00     0.037 A 
BRANCH  46  60
ATOM     60  C   UNL A   1      39.764  28.788  28.986  1.00  0.00     0.064 A 
ATOM     61  C   UNL A   1      39.253  28.609  30.279  1.00  0.00     0.173 A 
ATOM     62  C   UNL A   1      38.902  29.304  28.005  1.00  0.00     0.173 A 
ATOM     63  F   UNL A   1      40.033  28.106  31.249  1.00  0.00    -0.203 F 
ATOM     64  C   UNL A   1      37.929  28.917  30.576  1.00  0.00     0.198 A 
ATOM     65  C   UNL A   1      37.586  29.637  28.312  1.00  0.00     0.198 A 
ATOM     66  F   UNL A   1      39.341  29.496  26.753  1.00  0.00    -0.203 F 
ATOM     67  F   UNL A   1      37.452  28.701  31.810  1.00  0.00    -0.200 F 
ATOM     68  C   UNL A   1      37.099  29.440  29.595  1.00  0.00     0.200 A 
ATOM     69  F   UNL A   1      36.789  30.154  27.366  1.00  0.00    -0.200 F 
ATOM     70  F   UNL A   1      35.828  29.750  29.886  1.00  0.00    -0.200 F 
ENDBRANCH  46  60
BRANCH  47  71
ATOM     71  C   UNL A   1      49.100  26.648  26.109  1.00  0.00     0.064 A 
ATOM     72  C   UNL A   1      49.463  26.952  24.789  1.00  0.00     0.173 A 
ATOM     73  C   UNL A   1      50.069  26.049  26.928  1.00  0.00     0.173 A 
ATOM     74  F   UNL A   1      48.567  27.509  23.961  1.00  0.00    -0.203 F 
ATOM     75  C   UNL A   1      50.729  26.638  24.297  1.00  0.00     0.198 A 
ATOM     76  C   UNL A   1      51.343  25.761  26.445  1.00  0.00     0.198 A 
ATOM     77  F   UNL A   1      49.776  25.745  28.201  1.00  0.00    -0.203 F 
ATOM     78  F   UNL A   1      51.028  26.885  23.015  1.00  0.00    -0.200 F 
ATOM     79  C   UNL A   1      51.668  26.045  25.127  1.00  0.00     0.200 A 
ATOM     80  F   UNL A   1      52.254  25.202  27.253  1.00  0.00    -0.200 F 
ATOM     81  F   UNL A   1      52.884  25.738  24.653  1.00  0.00    -0.200 F 
ENDBRANCH  47  71
BRANCH  59  82
ATOM     82  C   UNL A   1      46.017  32.333  28.693  1.00  0.00     0.064 A 
ATOM     83  C   UNL A   1      45.974  33.369  27.749  1.00  0.00     0.173 A 
ATOM     84  C   UNL A   1      46.510  32.624  29.973  1.00  0.00     0.173 A 
ATOM     85  F   UNL A   1      45.524  33.134  26.508  1.00  0.00    -0.203 F 
ATOM     86  C   UNL A   1      46.429  34.644  28.070  1.00  0.00     0.198 A 
ATOM     87  C   UNL A   1      46.937  33.908  30.299  1.00  0.00     0.198 A 
ATOM     88  F   UNL A   1      46.564  31.668  30.912  1.00  0.00    -0.203 F 
ATOM     89  F   UNL A   1      46.421  35.610  27.140  1.00  0.00    -0.200 F 
ATOM     90  C   UNL A   1      46.903  34.914  29.346  1.00  0.00     0.200 A 
ATOM     91  F   UNL A   1      47.381  34.172  31.536  1.00  0.00    -0.200 F 
ATOM     92  F   UNL A   1      47.331  36.146  29.655  1.00  0.00    -0.200 F 
ENDBRANCH  59  82
ENDBRANCH  33  34
ENDBRANCH  25  28
ENDBRANCH  23  24
ENDBRANCH   1  23
TORSDOF 12
ENDMDL
MODEL 3
REMARK VINA RESULT:     -12.6      5.652     11.112
REMARK SMILES Cc1cc(N2CCC[C@H](C(=O)NCCCNC(=O)c3ccc(-c4c5nc(c(-c6c(F)c(F)c(F)c(F)c6F)c6ccc([nH]6)c(-c6c(F)c(F)c(F)c(F)c6F)c6nc(c(-c7c(F)c(F)c(F)c(F)c7F)c7ccc4[nH]7)C=C6)C=C5)cc3)C2)nc(C(C)C)n1
REMARK SMILES IDX 14 1 13 2 12 3 10 4 11 5 9 7 5 8 6 9 82 10 7 11 8 12 4 13
REMARK SMILES IDX 1 14 2 15 3 16 88 17 84 18 83 19 85 20 86 21 87 22 15 23
REMARK SMILES IDX 16 24 17 25 18 27 19 28 20 29 81 30 21 31 80 32 22 33 23 34
REMARK SMILES IDX 24 35 74 36 25 37 79 38 73 39 75 40 26 41 78 42 72 43 71 44
REMARK SMILES IDX 27 46 59 47 39 48 58 49 40 50 43 51 57 52 76 53 41 54 42 55
REMARK SMILES IDX 56 57 77 58 44 59 28 60 29 61 37 62 30 63 31 64 35 65 38 66
REMARK SMILES IDX 32 67 33 68 36 69 34 70 60 71 61 72 69 73 62 74 63 75 67 76
REMARK SMILES IDX 70 77 64 78 65 79 68 80 66 81 45 82 46 83 54 84 47 85 48 86
REMARK SMILES IDX 52 87 55 88 49 89 50 90 53 91 51 92
REMARK H PARENT 12 6 16 26 75 45 43 56
REMARK Flexibility Score: inf
ROOT
ATOM      1  C   UNL A   1      37.889  20.044  25.002  1.00  0.00     0.042 C 
ENDROOT
BRANCH   1   2
ATOM      2  C   UNL A   1      37.065  21.271  24.654  1.00  0.00     0.117 C 
BRANCH   2   3
ATOM      3  N   UNL A   1      36.377  21.859  25.777  1.00  0.00    -0.356 N 
ATOM      4  C   UNL A   1      35.050  22.077  25.960  1.00  0.00     0.224 C 
ATOM      5  O   UNL A   1      34.698  22.343  27.117  1.00  0.00    -0.275 OA
ATOM      6  H   UNL A   1      36.955  22.144  26.520  1.00  0.00     0.163 HD
BRANCH   4   7
ATOM      7  C   UNL A   1      33.996  22.035  24.847  1.00  0.00     0.098 C 
ATOM      8  N   UNL A   1      32.733  24.135  24.571  1.00  0.00    -0.356 N 
ATOM      9  C   UNL A   1      31.417  23.539  24.697  1.00  0.00     0.118 C 
ATOM     10  C   UNL A   1      33.840  23.339  24.071  1.00  0.00     0.131 C 
ATOM     11  C   UNL A   1      31.492  22.251  25.525  1.00  0.00     0.022 C 
ATOM     12  C   UNL A   1      32.677  21.339  25.202  1.00  0.00     0.017 C 
BRANCH   8  13
ATOM     13  C   UNL A   1      32.897  25.504  24.565  1.00  0.00     0.132 A 
ATOM     14  C   UNL A   1      34.213  28.304  22.459  1.00  0.00     0.067 C 
ATOM     15  C   UNL A   1      33.644  27.511  23.595  1.00  0.00     0.043 A 
ATOM     16  C   UNL A   1      33.345  26.170  23.448  1.00  0.00     0.070 A 
ATOM     17  N   UNL A   1      33.505  28.161  24.767  1.00  0.00    -0.238 NA
ATOM     18  C   UNL A   1      33.055  27.442  25.807  1.00  0.00     0.133 A 
ATOM     19  N   UNL A   1      32.739  26.137  25.741  1.00  0.00    -0.216 NA
BRANCH  18  20
ATOM     20  C   UNL A   1      32.983  28.097  27.169  1.00  0.00     0.051 C 
ATOM     21  C   UNL A   1      33.633  29.479  27.147  1.00  0.00     0.016 C 
ATOM     22  C   UNL A   1      31.551  28.160  27.690  1.00  0.00     0.016 C 
ENDBRANCH  18  20
ENDBRANCH   8  13
ENDBRANCH   4   7
ENDBRANCH   2   3
ENDBRANCH   1   2
BRANCH   1  23
ATOM     23  C   UNL A   1      39.115  20.371  25.831  1.00  0.00     0.118 C 
BRANCH  23  24
ATOM     24  N   UNL A   1      40.090  19.286  25.855  1.00  0.00    -0.352 N 
ATOM     25  C   UNL A   1      41.450  19.292  26.070  1.00  0.00     0.251 C 
ATOM     26  H   UNL A   1      39.709  18.393  25.689  1.00  0.00     0.163 HD
ATOM     27  O   UNL A   1      42.091  18.261  25.962  1.00  0.00    -0.269 OA
BRANCH  25  28
ATOM     28  C   UNL A   1      42.138  20.565  26.380  1.00  0.00     0.039 A 
ATOM     29  C   UNL A   1      42.574  21.367  25.322  1.00  0.00     0.014 A 
ATOM     30  C   UNL A   1      42.320  20.982  27.697  1.00  0.00     0.014 A 
ATOM     31  C   UNL A   1      43.111  22.628  25.589  1.00  0.00     0.010 A 
ATOM     32  C   UNL A   1      42.742  22.278  27.955  1.00  0.00     0.010 A 
ATOM     33  C   UNL A   1      43.153  23.112  26.905  1.00  0.00    -0.014 A 
BRANCH  33  34
ATOM     34  C   UNL A   1      43.644  24.475  27.224  1.00  0.00     0.031 A 
ATOM     35  C   UNL A   1      42.675  25.512  27.724  1.00  0.00     0.074 A 
ATOM     36  C   UNL A   1      44.925  24.803  26.965  1.00  0.00     0.049 A 
ATOM     37  N   UNL A   1      42.863  26.790  27.928  1.00  0.00    -0.248 NA
ATOM     38  C   UNL A   1      41.297  25.062  27.984  1.00  0.00     0.031 C 
ATOM     39  C   UNL A   1      45.938  23.903  26.408  1.00  0.00     0.029 A 
ATOM     40  N   UNL A   1      45.592  25.993  27.120  1.00  0.00    -0.354 N 
ATOM     41  C   UNL A   1      41.622  27.298  28.291  1.00  0.00     0.074 A 
ATOM     42  C   UNL A   1      40.679  26.205  28.237  1.00  0.00     0.031 C 
ATOM     43  C   UNL A   1      47.099  24.568  26.284  1.00  0.00     0.029 A 
ATOM     44  C   UNL A   1      46.904  25.947  26.718  1.00  0.00     0.049 A 
ATOM     45  H   UNL A   1      45.168  26.804  27.484  1.00  0.00     0.167 HD
ATOM     46  C   UNL A   1      41.306  28.560  28.663  1.00  0.00     0.037 A 
ATOM     47  C   UNL A   1      47.841  26.914  26.695  1.00  0.00     0.037 A 
ATOM     48  C   UNL A   1      42.266  29.620  28.794  1.00  0.00     0.049 A 
ATOM     49  C   UNL A   1      47.476  28.291  27.185  1.00  0.00     0.074 A 
ATOM     50  C   UNL A   1      42.073  30.903  29.275  1.00  0.00     0.029 A 
ATOM     51  N   UNL A   1      43.605  29.515  28.451  1.00  0.00    -0.354 N 
ATOM     52  N   UNL A   1      46.321  28.735  27.615  1.00  0.00    -0.248 NA
ATOM     53  C   UNL A   1      48.547  29.297  27.197  1.00  0.00     0.031 C 
ATOM     54  C   UNL A   1      43.290  31.586  29.189  1.00  0.00     0.029 A 
ATOM     55  C   UNL A   1      44.248  30.716  28.695  1.00  0.00     0.049 A 
ATOM     56  H   UNL A   1      44.034  28.706  28.088  1.00  0.00     0.167 HD
ATOM     57  C   UNL A   1      46.531  30.059  27.975  1.00  0.00     0.074 A 
ATOM     58  C   UNL A   1      47.929  30.342  27.728  1.00  0.00     0.031 C 
ATOM     59  C   UNL A   1      45.646  30.964  28.461  1.00  0.00     0.037 A 
BRANCH  46  60
ATOM     60  C   UNL A   1      39.870  28.863  28.975  1.00  0.00     0.064 A 
ATOM     61  C   UNL A   1      38.979  29.316  27.991  1.00  0.00     0.173 A 
ATOM     62  C   UNL A   1      39.365  28.642  30.266  1.00  0.00     0.173 A 
ATOM     63  F   UNL A   1      39.415  29.556  26.744  1.00  0.00    -0.203 F 
ATOM     64  C   UNL A   1      37.641  29.555  28.291  1.00  0.00     0.198 A 
ATOM     65  C   UNL A   1      38.020  28.855  30.555  1.00  0.00     0.198 A 
ATOM     66  F   UNL A   1      40.175  28.208  31.243  1.00  0.00    -0.203 F 
ATOM     67  F   UNL A   1      36.817  30.025  27.344  1.00  0.00    -0.200 F 
ATOM     68  C   UNL A   1      37.160  29.315  29.570  1.00  0.00     0.200 A 
ATOM     69  F   UNL A   1      37.554  28.611  31.789  1.00  0.00    -0.200 F 
ATOM     70  F   UNL A   1      35.868  29.531  29.853  1.00  0.00    -0.200 F 
ENDBRANCH  46  60
BRANCH  47  71
ATOM     71  C   UNL A   1      49.216  26.620  26.214  1.00  0.00     0.064 A 
ATOM     72  C   UNL A   1      50.178  26.070  27.074  1.00  0.00     0.173 A 
ATOM     73  C   UNL A   1      49.608  26.902  24.897  1.00  0.00     0.173 A 
ATOM     74  F   UNL A   1      49.858  25.798  28.348  1.00  0.00    -0.203 F 
ATOM     75  C   UNL A   1      51.486  25.847  26.647  1.00  0.00     0.198 A 
ATOM     76  C   UNL A   1      50.907  26.652  24.462  1.00  0.00     0.198 A 
ATOM     77  F   UNL A   1      48.724  27.421  24.031  1.00  0.00    -0.203 F 
ATOM     78  F   UNL A   1      52.399  25.377  27.508  1.00  0.00    -0.200 F 
ATOM     79  C   UNL A   1      51.848  26.136  25.340  1.00  0.00     0.200 A 
ATOM     80  F   UNL A   1      51.250  26.918  23.194  1.00  0.00    -0.200 F 
ATOM     81  F   UNL A   1      53.107  25.926  24.930  1.00  0.00    -0.200 F 
ENDBRANCH  47  71
BRANCH  59  82
ATOM     82  C   UNL A   1      46.173  32.326  28.796  1.00  0.00     0.064 A 
ATOM     83  C   UNL A   1      46.687  32.623  30.066  1.00  0.00     0.173 A 
ATOM     84  C   UNL A   1      46.208  33.332  27.818  1.00  0.00     0.173 A 
ATOM     85  F   UNL A   1      46.661  31.698  31.037  1.00  0.00    -0.203 F 
ATOM     86  C   UNL A   1      47.197  33.885  30.352  1.00  0.00     0.198 A 
ATOM     87  C   UNL A   1      46.745  34.584  28.099  1.00  0.00     0.198 A 
ATOM     88  F   UNL A   1      45.735  33.093  26.586  1.00  0.00    -0.203 F 
ATOM     89  F   UNL A   1      47.643  34.162  31.585  1.00  0.00    -0.200 F 
ATOM     90  C   UNL A   1      47.233  34.861  29.367  1.00  0.00     0.200 A 
ATOM     91  F   UNL A   1      46.793  35.521  27.143  1.00  0.00    -0.200 F 
ATOM     92  F   UNL A   1      47.734  36.074  29.643  1.00  0.00    -0.200 F 
ENDBRANCH  59  82
ENDBRANCH  33  34
ENDBRANCH  25  28
ENDBRANCH  23  24
ENDBRANCH   1  23
TORSDOF 12
ENDMDL
