MODEL 1
REMARK VINA RESULT:     -12.0      0.000      0.000
REMARK SMILES Cc1nonc1-c1noc(CCC(=O)NCCCNC(=O)c2ccc(-c3c4nc(c(-c5c(F)c(F)c(F)c(F)c5F)c5ccc([nH]5)c(-c5c(F)c(F)c(F)c(F)c5F)c5nc(c(-c6c(F)c(F)c(F)c(F)c6F)c6ccc3[nH]6)C=C5)C=C4)cc2)n1
REMARK SMILES IDX 16 1 15 2 13 3 14 4 12 6 11 7 10 8 7 9 8 10 85 11 9 12 6 13
REMARK SMILES IDX 1 14 2 15 3 16 4 17 5 18 17 19 18 20 19 21 20 22 21 24 22 25
REMARK SMILES IDX 23 26 84 27 24 28 83 29 25 30 26 31 27 32 77 33 28 34 82 35
REMARK SMILES IDX 76 36 78 37 29 38 81 39 75 40 74 41 30 43 62 44 42 45 61 46
REMARK SMILES IDX 43 47 46 48 60 49 79 50 44 51 45 52 59 54 80 55 47 56 31 57
REMARK SMILES IDX 32 58 40 59 33 60 34 61 38 62 41 63 35 64 36 65 39 66 37 67
REMARK SMILES IDX 63 68 64 69 72 70 65 71 66 72 70 73 73 74 67 75 68 76 71 77
REMARK SMILES IDX 69 78 48 79 49 80 57 81 50 82 51 83 55 84 58 85 52 86 53 87
REMARK SMILES IDX 56 88 54 89
REMARK H PARENT 15 5 19 23 78 42 46 53
REMARK Flexibility Score: inf
ROOT
ATOM      1  C   UNL A   1      31.158  30.509  25.766  1.00  0.00     0.117 C 
ENDROOT
BRANCH   1   2
ATOM      2  N   UNL A   1      32.466  30.088  25.289  1.00  0.00    -0.356 N 
ATOM      3  C   UNL A   1      32.872  28.903  24.761  1.00  0.00     0.220 C 
ATOM      4  O   UNL A   1      34.076  28.739  24.553  1.00  0.00    -0.275 OA
ATOM      5  H   UNL A   1      33.172  30.770  25.359  1.00  0.00     0.163 HD
BRANCH   3   6
ATOM      6  C   UNL A   1      31.884  27.805  24.444  1.00  0.00     0.110 C 
BRANCH   6   7
ATOM      7  C   UNL A   1      31.514  27.808  22.966  1.00  0.00     0.110 C 
BRANCH   7   8
ATOM      8  C   UNL A   1      30.317  28.634  22.679  1.00  0.00     0.227 A 
ATOM      9  C   UNL A   1      28.857  29.985  22.018  1.00  0.00     0.226 A 
ATOM     10  N   UNL A   1      28.152  29.088  22.723  1.00  0.00    -0.055 NA
ATOM     11  N   UNL A   1      30.211  29.741  21.982  1.00  0.00    -0.190 NA
ATOM     12  O   UNL A   1      29.122  28.183  23.161  1.00  0.00    -0.339 OA
BRANCH   9  13
ATOM     13  C   UNL A   1      28.293  31.168  21.373  1.00  0.00     0.178 A 
ATOM     14  C   UNL A   1      28.851  33.066  23.107  1.00  0.00     0.073 C 
ATOM     15  C   UNL A   1      28.322  32.491  21.854  1.00  0.00     0.113 A 
ATOM     16  N   UNL A   1      27.716  33.290  20.968  1.00  0.00    -0.054 NA
ATOM     17  O   UNL A   1      27.300  32.450  19.942  1.00  0.00    -0.244 OA
ATOM     18  N   UNL A   1      27.655  31.130  20.198  1.00  0.00    -0.046 NA
ENDBRANCH   9  13
ENDBRANCH   7   8
ENDBRANCH   6   7
ENDBRANCH   3   6
ENDBRANCH   1   2
BRANCH   1  19
ATOM     19  C   UNL A   1      31.168  31.982  26.167  1.00  0.00     0.042 C 
BRANCH  19  20
ATOM     20  C   UNL A   1      32.435  32.415  26.895  1.00  0.00     0.118 C 
BRANCH  20  21
ATOM     21  N   UNL A   1      32.366  33.795  27.348  1.00  0.00    -0.352 N 
ATOM     22  C   UNL A   1      33.018  34.446  28.364  1.00  0.00     0.251 C 
ATOM     23  H   UNL A   1      31.741  34.359  26.837  1.00  0.00     0.163 HD
ATOM     24  O   UNL A   1      32.624  35.565  28.694  1.00  0.00    -0.269 OA
BRANCH  22  25
ATOM     25  C   UNL A   1      34.176  33.853  29.077  1.00  0.00     0.039 A 
ATOM     26  C   UNL A   1      35.463  34.259  28.701  1.00  0.00     0.014 A 
ATOM     27  C   UNL A   1      34.034  32.836  30.025  1.00  0.00     0.014 A 
ATOM     28  C   UNL A   1      36.590  33.670  29.285  1.00  0.00     0.010 A 
ATOM     29  C   UNL A   1      35.156  32.305  30.667  1.00  0.00     0.010 A 
ATOM     30  C   UNL A   1      36.447  32.696  30.285  1.00  0.00    -0.014 A 
BRANCH  30  31
ATOM     31  C   UNL A   1      37.641  32.048  30.893  1.00  0.00     0.031 A 
ATOM     32  C   UNL A   1      38.068  32.395  32.295  1.00  0.00     0.074 A 
ATOM     33  C   UNL A   1      38.361  31.159  30.183  1.00  0.00     0.049 A 
ATOM     34  N   UNL A   1      39.086  31.946  32.989  1.00  0.00    -0.248 NA
ATOM     35  C   UNL A   1      37.261  33.400  33.003  1.00  0.00     0.031 C 
ATOM     36  C   UNL A   1      38.085  30.758  28.803  1.00  0.00     0.029 A 
ATOM     37  N   UNL A   1      39.467  30.424  30.529  1.00  0.00    -0.354 N 
ATOM     38  C   UNL A   1      39.057  32.634  34.196  1.00  0.00     0.074 A 
ATOM     39  C   UNL A   1      37.946  33.558  34.127  1.00  0.00     0.031 C 
ATOM     40  C   UNL A   1      38.970  29.817  28.436  1.00  0.00     0.029 A 
ATOM     41  C   UNL A   1      39.890  29.569  29.542  1.00  0.00     0.049 A 
ATOM     42  H   UNL A   1      39.916  30.504  31.402  1.00  0.00     0.167 HD
ATOM     43  C   UNL A   1      39.867  32.494  35.273  1.00  0.00     0.037 A 
ATOM     44  C   UNL A   1      40.895  28.674  29.536  1.00  0.00     0.037 A 
ATOM     45  C   UNL A   1      40.939  31.540  35.373  1.00  0.00     0.049 A 
ATOM     46  C   UNL A   1      41.755  28.509  30.757  1.00  0.00     0.074 A 
ATOM     47  C   UNL A   1      41.764  31.275  36.453  1.00  0.00     0.029 A 
ATOM     48  N   UNL A   1      41.329  30.686  34.354  1.00  0.00    -0.354 N 
ATOM     49  N   UNL A   1      41.686  29.129  31.908  1.00  0.00    -0.248 NA
ATOM     50  C   UNL A   1      42.831  27.510  30.675  1.00  0.00     0.031 C 
ATOM     51  C   UNL A   1      42.671  30.277  36.077  1.00  0.00     0.029 A 
ATOM     52  C   UNL A   1      42.390  29.900  34.774  1.00  0.00     0.049 A 
ATOM     53  H   UNL A   1      40.912  30.642  33.463  1.00  0.00     0.167 HD
ATOM     54  C   UNL A   1      42.692  28.587  32.694  1.00  0.00     0.074 A 
ATOM     55  C   UNL A   1      43.351  27.576  31.893  1.00  0.00     0.031 C 
ATOM     56  C   UNL A   1      43.038  28.899  33.967  1.00  0.00     0.037 A 
BRANCH  43  57
ATOM     57  C   UNL A   1      39.616  33.405  36.440  1.00  0.00     0.064 A 
ATOM     58  C   UNL A   1      40.245  34.655  36.545  1.00  0.00     0.173 A 
ATOM     59  C   UNL A   1      38.731  33.025  37.459  1.00  0.00     0.173 A 
ATOM     60  F   UNL A   1      41.110  35.057  35.602  1.00  0.00    -0.203 F 
ATOM     61  C   UNL A   1      40.022  35.477  37.647  1.00  0.00     0.198 A 
ATOM     62  C   UNL A   1      38.492  33.862  38.547  1.00  0.00     0.198 A 
ATOM     63  F   UNL A   1      38.101  31.842  37.403  1.00  0.00    -0.203 F 
ATOM     64  F   UNL A   1      40.674  36.643  37.753  1.00  0.00    -0.200 F 
ATOM     65  C   UNL A   1      39.144  35.082  38.645  1.00  0.00     0.200 A 
ATOM     66  F   UNL A   1      37.637  33.482  39.507  1.00  0.00    -0.200 F 
ATOM     67  F   UNL A   1      38.934  35.872  39.707  1.00  0.00    -0.200 F 
ENDBRANCH  43  57
BRANCH  44  68
ATOM     68  C   UNL A   1      41.102  27.816  28.343  1.00  0.00     0.064 A 
ATOM     69  C   UNL A   1      40.437  26.588  28.228  1.00  0.00     0.173 A 
ATOM     70  C   UNL A   1      41.945  28.208  27.295  1.00  0.00     0.173 A 
ATOM     71  F   UNL A   1      39.638  26.165  29.219  1.00  0.00    -0.203 F 
ATOM     72  C   UNL A   1      40.613  25.778  27.109  1.00  0.00     0.198 A 
ATOM     73  C   UNL A   1      42.105  27.407  26.168  1.00  0.00     0.198 A 
ATOM     74  F   UNL A   1      42.600  29.376  27.361  1.00  0.00    -0.203 F 
ATOM     75  F   UNL A   1      39.987  24.596  27.035  1.00  0.00    -0.200 F 
ATOM     76  C   UNL A   1      41.442  26.191  26.077  1.00  0.00     0.200 A 
ATOM     77  F   UNL A   1      42.901  27.811  25.167  1.00  0.00    -0.200 F 
ATOM     78  F   UNL A   1      41.607  25.415  24.996  1.00  0.00    -0.200 F 
ENDBRANCH  44  68
BRANCH  56  79
ATOM     79  C   UNL A   1      44.168  28.124  34.575  1.00  0.00     0.064 A 
ATOM     80  C   UNL A   1      43.946  26.911  35.241  1.00  0.00     0.173 A 
ATOM     81  C   UNL A   1      45.487  28.591  34.474  1.00  0.00     0.173 A 
ATOM     82  F   UNL A   1      42.700  26.433  35.377  1.00  0.00    -0.203 F 
ATOM     83  C   UNL A   1      45.003  26.203  35.808  1.00  0.00     0.198 A 
ATOM     84  C   UNL A   1      46.543  27.871  35.023  1.00  0.00     0.198 A 
ATOM     85  F   UNL A   1      45.749  29.745  33.843  1.00  0.00    -0.203 F 
ATOM     86  F   UNL A   1      44.764  25.068  36.478  1.00  0.00    -0.200 F 
ATOM     87  C   UNL A   1      46.300  26.682  35.695  1.00  0.00     0.200 A 
ATOM     88  F   UNL A   1      47.797  28.330  34.909  1.00  0.00    -0.200 F 
ATOM     89  F   UNL A   1      47.316  26.001  36.243  1.00  0.00    -0.200 F 
ENDBRANCH  56  79
ENDBRANCH  30  31
ENDBRANCH  22  25
ENDBRANCH  20  21
ENDBRANCH  19  20
ENDBRANCH   1  19
TORSDOF 13
ENDMDL
MODEL 2
REMARK VINA RESULT:     -11.7      1.728      2.793
REMARK SMILES Cc1nonc1-c1noc(CCC(=O)NCCCNC(=O)c2ccc(-c3c4nc(c(-c5c(F)c(F)c(F)c(F)c5F)c5ccc([nH]5)c(-c5c(F)c(F)c(F)c(F)c5F)c5nc(c(-c6c(F)c(F)c(F)c(F)c6F)c6ccc3[nH]6)C=C5)C=C4)cc2)n1
REMARK SMILES IDX 16 1 15 2 13 3 14 4 12 6 11 7 10 8 7 9 8 10 85 11 9 12 6 13
REMARK SMILES IDX 1 14 2 15 3 16 4 17 5 18 17 19 18 20 19 21 20 22 21 24 22 25
REMARK SMILES IDX 23 26 84 27 24 28 83 29 25 30 26 31 27 32 77 33 28 34 82 35
REMARK SMILES IDX 76 36 78 37 29 38 81 39 75 40 74 41 30 43 62 44 42 45 61 46
REMARK SMILES IDX 43 47 46 48 60 49 79 50 44 51 45 52 59 54 80 55 47 56 31 57
REMARK SMILES IDX 32 58 40 59 33 60 34 61 38 62 41 63 35 64 36 65 39 66 37 67
REMARK SMILES IDX 63 68 64 69 72 70 65 71 66 72 70 73 73 74 67 75 68 76 71 77
REMARK SMILES IDX 69 78 48 79 49 80 57 81 50 82 51 83 55 84 58 85 52 86 53 87
REMARK SMILES IDX 56 88 54 89
REMARK H PARENT 15 5 19 23 78 42 46 53
REMARK Flexibility Score: inf
ROOT
ATOM      1  C   UNL A   1      32.375  26.958  25.767  1.00  0.00     0.117 C 
ENDROOT
BRANCH   1   2
ATOM      2  N   UNL A   1      31.292  26.143  26.295  1.00  0.00    -0.356 N 
ATOM      3  C   UNL A   1      30.148  25.709  25.704  1.00  0.00     0.220 C 
ATOM      4  O   UNL A   1      29.310  25.138  26.405  1.00  0.00    -0.275 OA
ATOM      5  H   UNL A   1      31.405  25.861  27.231  1.00  0.00     0.163 HD
BRANCH   3   6
ATOM      6  C   UNL A   1      29.894  25.924  24.231  1.00  0.00     0.110 C 
BRANCH   6   7
ATOM      7  C   UNL A   1      28.617  26.721  24.002  1.00  0.00     0.110 C 
BRANCH   7   8
ATOM      8  C   UNL A   1      28.827  27.897  23.125  1.00  0.00     0.227 A 
ATOM      9  C   UNL A   1      28.796  29.694  22.046  1.00  0.00     0.226 A 
ATOM     10  N   UNL A   1      30.025  29.212  21.808  1.00  0.00    -0.055 NA
ATOM     11  N   UNL A   1      28.018  28.894  22.851  1.00  0.00    -0.190 NA
ATOM     12  O   UNL A   1      30.050  28.016  22.529  1.00  0.00    -0.339 OA
BRANCH   9  13
ATOM     13  C   UNL A   1      28.261  30.930  21.479  1.00  0.00     0.178 A 
ATOM     14  C   UNL A   1      28.779  32.681  23.373  1.00  0.00     0.073 C 
ATOM     15  C   UNL A   1      28.285  32.210  22.063  1.00  0.00     0.113 A 
ATOM     16  N   UNL A   1      27.713  33.082  21.225  1.00  0.00    -0.054 NA
ATOM     17  O   UNL A   1      27.323  32.329  20.123  1.00  0.00    -0.244 OA
ATOM     18  N   UNL A   1      27.660  30.990  20.285  1.00  0.00    -0.046 NA
ENDBRANCH   9  13
ENDBRANCH   7   8
ENDBRANCH   6   7
ENDBRANCH   3   6
ENDBRANCH   1   2
BRANCH   1  19
ATOM     19  C   UNL A   1      32.317  28.379  26.323  1.00  0.00     0.042 C 
BRANCH  19  20
ATOM     20  C   UNL A   1      33.257  29.354  25.625  1.00  0.00     0.118 C 
BRANCH  20  21
ATOM     21  N   UNL A   1      32.997  30.734  26.000  1.00  0.00    -0.352 N 
ATOM     22  C   UNL A   1      33.494  31.501  27.022  1.00  0.00     0.251 C 
ATOM     23  H   UNL A   1      32.350  31.198  25.419  1.00  0.00     0.163 HD
ATOM     24  O   UNL A   1      32.951  32.580  27.266  1.00  0.00    -0.269 OA
BRANCH  22  25
ATOM     25  C   UNL A   1      34.658  31.082  27.841  1.00  0.00     0.039 A 
ATOM     26  C   UNL A   1      35.714  31.988  28.001  1.00  0.00     0.014 A 
ATOM     27  C   UNL A   1      34.784  29.791  28.361  1.00  0.00     0.014 A 
ATOM     28  C   UNL A   1      36.871  31.611  28.694  1.00  0.00     0.010 A 
ATOM     29  C   UNL A   1      35.903  29.441  29.123  1.00  0.00     0.010 A 
ATOM     30  C   UNL A   1      36.970  30.337  29.275  1.00  0.00    -0.014 A 
BRANCH  30  31
ATOM     31  C   UNL A   1      38.206  29.922  29.992  1.00  0.00     0.031 A 
ATOM     32  C   UNL A   1      38.461  30.381  31.404  1.00  0.00     0.074 A 
ATOM     33  C   UNL A   1      39.116  29.145  29.374  1.00  0.00     0.049 A 
ATOM     34  N   UNL A   1      39.484  30.134  32.186  1.00  0.00    -0.248 NA
ATOM     35  C   UNL A   1      37.446  31.256  32.009  1.00  0.00     0.031 C 
ATOM     36  C   UNL A   1      39.017  28.660  27.997  1.00  0.00     0.029 A 
ATOM     37  N   UNL A   1      40.300  28.621  29.828  1.00  0.00    -0.354 N 
ATOM     38  C   UNL A   1      39.249  30.845  33.356  1.00  0.00     0.074 A 
ATOM     39  C   UNL A   1      38.007  31.564  33.169  1.00  0.00     0.031 C 
ATOM     40  C   UNL A   1      40.072  27.872  27.734  1.00  0.00     0.029 A 
ATOM     41  C   UNL A   1      40.934  27.819  28.911  1.00  0.00     0.049 A 
ATOM     42  H   UNL A   1      40.661  28.803  30.726  1.00  0.00     0.167 HD
ATOM     43  C   UNL A   1      39.987  30.880  34.492  1.00  0.00     0.037 A 
ATOM     44  C   UNL A   1      42.072  27.108  29.015  1.00  0.00     0.037 A 
ATOM     45  C   UNL A   1      41.193  30.125  34.709  1.00  0.00     0.049 A 
ATOM     46  C   UNL A   1      42.852  27.131  30.299  1.00  0.00     0.074 A 
ATOM     47  C   UNL A   1      41.966  30.039  35.853  1.00  0.00     0.029 A 
ATOM     48  N   UNL A   1      41.796  29.318  33.758  1.00  0.00    -0.354 N 
ATOM     49  N   UNL A   1      42.593  27.767  31.413  1.00  0.00    -0.248 NA
ATOM     50  C   UNL A   1      44.084  26.328  30.337  1.00  0.00     0.031 C 
ATOM     51  C   UNL A   1      43.053  29.198  35.586  1.00  0.00     0.029 A 
ATOM     52  C   UNL A   1      42.939  28.737  34.284  1.00  0.00     0.049 A 
ATOM     53  H   UNL A   1      41.461  29.175  32.842  1.00  0.00     0.167 HD
ATOM     54  C   UNL A   1      43.613  27.429  32.291  1.00  0.00     0.074 A 
ATOM     55  C   UNL A   1      44.491  26.520  31.583  1.00  0.00     0.031 C 
ATOM     56  C   UNL A   1      43.804  27.836  33.570  1.00  0.00     0.037 A 
BRANCH  43  57
ATOM     57  C   UNL A   1      39.500  31.771  35.597  1.00  0.00     0.064 A 
ATOM     58  C   UNL A   1      38.559  31.329  36.539  1.00  0.00     0.173 A 
ATOM     59  C   UNL A   1      39.987  33.081  35.718  1.00  0.00     0.173 A 
ATOM     60  F   UNL A   1      38.054  30.089  36.456  1.00  0.00    -0.203 F 
ATOM     61  C   UNL A   1      38.097  32.177  37.541  1.00  0.00     0.198 A 
ATOM     62  C   UNL A   1      39.541  33.918  36.738  1.00  0.00     0.198 A 
ATOM     63  F   UNL A   1      40.891  33.551  34.846  1.00  0.00    -0.203 F 
ATOM     64  F   UNL A   1      37.159  31.751  38.398  1.00  0.00    -0.200 F 
ATOM     65  C   UNL A   1      38.591  33.469  37.643  1.00  0.00     0.200 A 
ATOM     66  F   UNL A   1      40.024  35.165  36.840  1.00  0.00    -0.200 F 
ATOM     67  F   UNL A   1      38.143  34.286  38.606  1.00  0.00    -0.200 F 
ENDBRANCH  43  57
BRANCH  44  68
ATOM     68  C   UNL A   1      42.510  26.261  27.878  1.00  0.00     0.064 A 
ATOM     69  C   UNL A   1      43.445  26.743  26.952  1.00  0.00     0.173 A 
ATOM     70  C   UNL A   1      42.023  24.959  27.703  1.00  0.00     0.173 A 
ATOM     71  F   UNL A   1      43.919  27.993  27.070  1.00  0.00    -0.203 F 
ATOM     72  C   UNL A   1      43.873  25.956  25.887  1.00  0.00     0.198 A 
ATOM     73  C   UNL A   1      42.466  24.165  26.649  1.00  0.00     0.198 A 
ATOM     74  F   UNL A   1      41.129  24.455  28.566  1.00  0.00    -0.203 F 
ATOM     75  F   UNL A   1      44.746  26.450  25.000  1.00  0.00    -0.200 F 
ATOM     76  C   UNL A   1      43.388  24.665  25.740  1.00  0.00     0.200 A 
ATOM     77  F   UNL A   1      42.003  22.915  26.513  1.00  0.00    -0.200 F 
ATOM     78  F   UNL A   1      43.805  23.904  24.718  1.00  0.00    -0.200 F 
ENDBRANCH  44  68
BRANCH  56  79
ATOM     79  C   UNL A   1      44.998  27.285  34.288  1.00  0.00     0.064 A 
ATOM     80  C   UNL A   1      44.929  26.082  35.005  1.00  0.00     0.173 A 
ATOM     81  C   UNL A   1      46.229  27.956  34.244  1.00  0.00     0.173 A 
ATOM     82  F   UNL A   1      43.769  25.412  35.089  1.00  0.00    -0.203 F 
ATOM     83  C   UNL A   1      46.043  25.583  35.674  1.00  0.00     0.198 A 
ATOM     84  C   UNL A   1      47.346  27.444  34.897  1.00  0.00     0.198 A 
ATOM     85  F   UNL A   1      46.346  29.109  33.569  1.00  0.00    -0.203 F 
ATOM     86  F   UNL A   1      45.943  24.454  36.389  1.00  0.00    -0.200 F 
ATOM     87  C   UNL A   1      47.251  26.262  35.617  1.00  0.00     0.200 A 
ATOM     88  F   UNL A   1      48.514  28.098  34.836  1.00  0.00    -0.200 F 
ATOM     89  F   UNL A   1      48.322  25.782  36.264  1.00  0.00    -0.200 F 
ENDBRANCH  56  79
ENDBRANCH  30  31
ENDBRANCH  22  25
ENDBRANCH  20  21
ENDBRANCH  19  20
ENDBRANCH   1  19
TORSDOF 13
ENDMDL
MODEL 3
REMARK VINA RESULT:     -11.7      1.566      2.320
REMARK SMILES Cc1nonc1-c1noc(CCC(=O)NCCCNC(=O)c2ccc(-c3c4nc(c(-c5c(F)c(F)c(F)c(F)c5F)c5ccc([nH]5)c(-c5c(F)c(F)c(F)c(F)c5F)c5nc(c(-c6c(F)c(F)c(F)c(F)c6F)c6ccc3[nH]6)C=C5)C=C4)cc2)n1
REMARK SMILES IDX 16 1 15 2 13 3 14 4 12 6 11 7 10 8 7 9 8 10 85 11 9 12 6 13
REMARK SMILES IDX 1 14 2 15 3 16 4 17 5 18 17 19 18 20 19 21 20 22 21 24 22 25
REMARK SMILES IDX 23 26 84 27 24 28 83 29 25 30 26 31 27 32 77 33 28 34 82 35
REMARK SMILES IDX 76 36 78 37 29 38 81 39 75 40 74 41 30 43 62 44 42 45 61 46
REMARK SMILES IDX 43 47 46 48 60 49 79 50 44 51 45 52 59 54 80 55 47 56 31 57
REMARK SMILES IDX 32 58 40 59 33 60 34 61 38 62 41 63 35 64 36 65 39 66 37 67
REMARK SMILES IDX 63 68 64 69 72 70 65 71 66 72 70 73 73 74 67 75 68 76 71 77
REMARK SMILES IDX 69 78 48 79 49 80 57 81 50 82 51 83 55 84 58 85 52 86 53 87
REMARK SMILES IDX 56 88 54 89
REMARK H PARENT 15 5 19 23 78 42 46 53
REMARK Flexibility Score: inf
ROOT
ATOM      1  C   UNL A   1      33.125  28.957  23.626  1.00  0.00     0.117 C 
ENDROOT
BRANCH   1   2
ATOM      2  N   UNL A   1      33.378  27.526  23.685  1.00  0.00    -0.356 N 
ATOM      3  C   UNL A   1      32.636  26.481  23.233  1.00  0.00     0.220 C 
ATOM      4  O   UNL A   1      32.999  25.339  23.522  1.00  0.00    -0.275 OA
ATOM      5  H   UNL A   1      34.222  27.273  24.123  1.00  0.00     0.163 HD
BRANCH   3   6
ATOM      6  C   UNL A   1      31.392  26.701  22.404  1.00  0.00     0.110 C 
BRANCH   6   7
ATOM      7  C   UNL A   1      30.144  26.718  23.278  1.00  0.00     0.110 C 
BRANCH   7   8
ATOM      8  C   UNL A   1      29.258  27.869  22.985  1.00  0.00     0.227 A 
ATOM      9  C   UNL A   1      28.276  29.592  22.306  1.00  0.00     0.226 A 
ATOM     10  N   UNL A   1      27.343  28.977  23.048  1.00  0.00    -0.055 NA
ATOM     11  N   UNL A   1      29.485  28.937  22.256  1.00  0.00    -0.190 NA
ATOM     12  O   UNL A   1      27.994  27.825  23.498  1.00  0.00    -0.339 OA
BRANCH   9  13
ATOM     13  C   UNL A   1      28.093  30.877  21.634  1.00  0.00     0.178 A 
ATOM     14  C   UNL A   1      28.779  32.588  23.512  1.00  0.00     0.073 C 
ATOM     15  C   UNL A   1      28.337  32.155  22.170  1.00  0.00     0.113 A 
ATOM     16  N   UNL A   1      28.067  33.077  21.238  1.00  0.00    -0.054 NA
ATOM     17  O   UNL A   1      27.642  32.359  20.127  1.00  0.00    -0.244 OA
ATOM     18  N   UNL A   1      27.653  30.991  20.376  1.00  0.00    -0.046 NA
ENDBRANCH   9  13
ENDBRANCH   7   8
ENDBRANCH   6   7
ENDBRANCH   3   6
ENDBRANCH   1   2
BRANCH   1  19
ATOM     19  C   UNL A   1      32.133  29.385  24.706  1.00  0.00     0.042 C 
BRANCH  19  20
ATOM     20  C   UNL A   1      32.783  29.714  26.045  1.00  0.00     0.118 C 
BRANCH  20  21
ATOM     21  N   UNL A   1      32.654  31.121  26.388  1.00  0.00    -0.352 N 
ATOM     22  C   UNL A   1      33.357  31.905  27.266  1.00  0.00     0.251 C 
ATOM     23  H   UNL A   1      31.936  31.593  25.905  1.00  0.00     0.163 HD
ATOM     24  O   UNL A   1      32.914  33.020  27.545  1.00  0.00    -0.269 OA
BRANCH  22  25
ATOM     25  C   UNL A   1      34.627  31.460  27.891  1.00  0.00     0.039 A 
ATOM     26  C   UNL A   1      34.703  30.149  28.376  1.00  0.00     0.014 A 
ATOM     27  C   UNL A   1      35.702  32.328  28.107  1.00  0.00     0.014 A 
ATOM     28  C   UNL A   1      35.848  29.707  29.048  1.00  0.00     0.010 A 
ATOM     29  C   UNL A   1      36.877  31.864  28.705  1.00  0.00     0.010 A 
ATOM     30  C   UNL A   1      36.953  30.557  29.207  1.00  0.00    -0.014 A 
BRANCH  30  31
ATOM     31  C   UNL A   1      38.165  30.102  29.940  1.00  0.00     0.031 A 
ATOM     32  C   UNL A   1      38.403  30.531  31.365  1.00  0.00     0.074 A 
ATOM     33  C   UNL A   1      39.070  29.316  29.326  1.00  0.00     0.049 A 
ATOM     34  N   UNL A   1      39.405  30.249  32.162  1.00  0.00    -0.248 NA
ATOM     35  C   UNL A   1      37.395  31.418  31.965  1.00  0.00     0.031 C 
ATOM     36  C   UNL A   1      38.988  28.856  27.940  1.00  0.00     0.029 A 
ATOM     37  N   UNL A   1      40.234  28.758  29.794  1.00  0.00    -0.354 N 
ATOM     38  C   UNL A   1      39.162  30.945  33.339  1.00  0.00     0.074 A 
ATOM     39  C   UNL A   1      37.940  31.694  33.141  1.00  0.00     0.031 C 
ATOM     40  C   UNL A   1      40.031  28.049  27.684  1.00  0.00     0.029 A 
ATOM     41  C   UNL A   1      40.867  27.958  28.877  1.00  0.00     0.049 A 
ATOM     42  H   UNL A   1      40.581  28.917  30.702  1.00  0.00     0.167 HD
ATOM     43  C   UNL A   1      39.878  30.944  34.490  1.00  0.00     0.037 A 
ATOM     44  C   UNL A   1      41.988  27.220  28.990  1.00  0.00     0.037 A 
ATOM     45  C   UNL A   1      41.063  30.160  34.717  1.00  0.00     0.049 A 
ATOM     46  C   UNL A   1      42.743  27.204  30.289  1.00  0.00     0.074 A 
ATOM     47  C   UNL A   1      41.811  30.038  35.874  1.00  0.00     0.029 A 
ATOM     48  N   UNL A   1      41.667  29.355  33.764  1.00  0.00    -0.354 N 
ATOM     49  N   UNL A   1      42.476  27.827  31.409  1.00  0.00    -0.248 NA
ATOM     50  C   UNL A   1      43.956  26.374  30.336  1.00  0.00     0.031 C 
ATOM     51  C   UNL A   1      42.885  29.178  35.614  1.00  0.00     0.029 A 
ATOM     52  C   UNL A   1      42.786  28.741  34.302  1.00  0.00     0.049 A 
ATOM     53  H   UNL A   1      41.347  29.236  32.840  1.00  0.00     0.167 HD
ATOM     54  C   UNL A   1      43.471  27.452  32.300  1.00  0.00     0.074 A 
ATOM     55  C   UNL A   1      44.343  26.536  31.594  1.00  0.00     0.031 C 
ATOM     56  C   UNL A   1      43.646  27.834  33.589  1.00  0.00     0.037 A 
BRANCH  43  57
ATOM     57  C   UNL A   1      39.389  31.828  35.600  1.00  0.00     0.064 A 
ATOM     58  C   UNL A   1      39.820  33.157  35.727  1.00  0.00     0.173 A 
ATOM     59  C   UNL A   1      38.471  31.341  36.543  1.00  0.00     0.173 A 
ATOM     60  F   UNL A   1      40.707  33.664  34.858  1.00  0.00    -0.203 F 
ATOM     61  C   UNL A   1      39.377  33.955  36.778  1.00  0.00     0.198 A 
ATOM     62  C   UNL A   1      38.011  32.151  37.578  1.00  0.00     0.198 A 
ATOM     63  F   UNL A   1      38.024  30.079  36.463  1.00  0.00    -0.203 F 
ATOM     64  F   UNL A   1      39.844  35.205  36.911  1.00  0.00    -0.200 F 
ATOM     65  C   UNL A   1      38.471  33.454  37.700  1.00  0.00     0.200 A 
ATOM     66  F   UNL A   1      37.129  31.668  38.465  1.00  0.00    -0.200 F 
ATOM     67  F   UNL A   1      38.049  34.222  38.714  1.00  0.00    -0.200 F 
ENDBRANCH  43  57
BRANCH  44  68
ATOM     68  C   UNL A   1      42.429  26.383  27.847  1.00  0.00     0.064 A 
ATOM     69  C   UNL A   1      41.859  25.121  27.631  1.00  0.00     0.173 A 
ATOM     70  C   UNL A   1      43.406  26.826  26.946  1.00  0.00     0.173 A 
ATOM     71  F   UNL A   1      40.936  24.649  28.482  1.00  0.00    -0.203 F 
ATOM     72  C   UNL A   1      42.255  24.329  26.557  1.00  0.00     0.198 A 
ATOM     73  C   UNL A   1      43.788  26.041  25.862  1.00  0.00     0.198 A 
ATOM     74  F   UNL A   1      43.978  28.027  27.114  1.00  0.00    -0.203 F 
ATOM     75  F   UNL A   1      41.714  23.115  26.387  1.00  0.00    -0.200 F 
ATOM     76  C   UNL A   1      43.215  24.792  25.669  1.00  0.00     0.200 A 
ATOM     77  F   UNL A   1      44.710  26.495  25.000  1.00  0.00    -0.200 F 
ATOM     78  F   UNL A   1      43.592  24.033  24.631  1.00  0.00    -0.200 F 
ENDBRANCH  44  68
BRANCH  56  79
ATOM     79  C   UNL A   1      44.813  27.244  34.321  1.00  0.00     0.064 A 
ATOM     80  C   UNL A   1      46.055  27.893  34.360  1.00  0.00     0.173 A 
ATOM     81  C   UNL A   1      44.683  26.026  35.004  1.00  0.00     0.173 A 
ATOM     82  F   UNL A   1      46.231  29.052  33.708  1.00  0.00    -0.203 F 
ATOM     83  C   UNL A   1      47.134  27.331  35.037  1.00  0.00     0.198 A 
ATOM     84  C   UNL A   1      45.758  25.477  35.697  1.00  0.00     0.198 A 
ATOM     85  F   UNL A   1      43.514  25.368  34.999  1.00  0.00    -0.203 F 
ATOM     86  F   UNL A   1      48.324  27.947  35.025  1.00  0.00    -0.200 F 
ATOM     87  C   UNL A   1      46.984  26.127  35.708  1.00  0.00     0.200 A 
ATOM     88  F   UNL A   1      45.611  24.316  36.350  1.00  0.00    -0.200 F 
ATOM     89  F   UNL A   1      48.024  25.586  36.356  1.00  0.00    -0.200 F 
ENDBRANCH  56  79
ENDBRANCH  30  31
ENDBRANCH  22  25
ENDBRANCH  20  21
ENDBRANCH  19  20
ENDBRANCH   1  19
TORSDOF 13
ENDMDL
