MODEL 1
REMARK VINA RESULT:     -12.4      0.000      0.000
REMARK SMILES CC(C)C[C@H](CNC(=O)NC[C@H]1CCC(=O)N1)C(=O)NCCCNC(=O)c1ccc(-c2c3nc(c(-c4c(F)c(F)c(F)c(F)c4F)c4ccc([nH]4)c(-c4c(F)c(F)c(F)c(F)c4F)c4nc(c(-c5c(F)c(F)c(F)c(F)c5F)c5ccc2[nH]5)C=C4)C=C3)cc1
REMARK SMILES IDX 21 1 20 2 18 3 19 4 5 6 4 7 2 8 1 9 3 10 6 11 7 12 8 13 9 15
REMARK SMILES IDX 10 16 11 18 12 19 13 20 17 21 14 22 15 23 16 25 22 26 23 27
REMARK SMILES IDX 24 28 25 29 26 31 27 32 28 33 89 34 29 35 88 36 30 37 31 38
REMARK SMILES IDX 32 39 82 40 33 41 87 42 81 43 83 44 34 45 86 46 80 47 79 48
REMARK SMILES IDX 35 50 67 51 47 52 66 53 48 54 51 55 65 56 84 57 49 58 50 59
REMARK SMILES IDX 64 61 85 62 52 63 36 64 37 65 45 66 38 67 39 68 43 69 46 70
REMARK SMILES IDX 40 71 41 72 44 73 42 74 68 75 69 76 77 77 70 78 71 79 75 80
REMARK SMILES IDX 78 81 72 82 73 83 76 84 74 85 53 86 54 87 62 88 55 89 56 90
REMARK SMILES IDX 60 91 63 92 57 93 58 94 61 95 59 96
REMARK H PARENT 20 5 7 14 10 17 17 24 24 30 83 49 51 60
REMARK Flexibility Score: inf
ROOT
ATOM      1  C   UNL A   1      33.799  28.929  25.192  1.00  0.00     0.117 C 
ENDROOT
BRANCH   1   2
ATOM      2  N   UNL A   1      34.056  28.915  23.762  1.00  0.00    -0.356 N 
ATOM      3  C   UNL A   1      33.753  28.002  22.801  1.00  0.00     0.224 C 
ATOM      4  O   UNL A   1      34.203  28.202  21.670  1.00  0.00    -0.275 OA
ATOM      5  H   UNL A   1      34.534  29.710  23.429  1.00  0.00     0.163 HD
BRANCH   3   6
ATOM      6  C   UNL A   1      32.879  26.785  23.082  1.00  0.00     0.098 C 
BRANCH   6   7
ATOM      7  C   UNL A   1      33.701  25.475  23.106  1.00  0.00     0.018 C 
BRANCH   7   8
ATOM      8  C   UNL A   1      34.399  25.165  24.450  1.00  0.00    -0.017 C 
ATOM      9  C   UNL A   1      33.441  25.314  25.631  1.00  0.00     0.007 C 
ATOM     10  C   UNL A   1      34.966  23.742  24.418  1.00  0.00     0.007 C 
ENDBRANCH   7   8
ENDBRANCH   6   7
BRANCH   6  11
ATOM     11  C   UNL A   1      31.671  26.775  22.131  1.00  0.00     0.131 C 
BRANCH  11  12
ATOM     12  N   UNL A   1      30.408  26.502  22.788  1.00  0.00    -0.337 N 
ATOM     13  C   UNL A   1      29.547  27.236  23.493  1.00  0.00     0.314 C 
ATOM     14  H   UNL A   1      30.123  25.564  22.692  1.00  0.00     0.165 HD
ATOM     15  O   UNL A   1      28.709  26.642  24.172  1.00  0.00    -0.249 OA
ATOM     16  N   UNL A   1      29.539  28.571  23.504  1.00  0.00    -0.336 N 
ATOM     17  H   UNL A   1      29.050  28.952  24.269  1.00  0.00     0.165 HD
BRANCH  16  18
ATOM     18  C   UNL A   1      30.101  29.576  22.620  1.00  0.00     0.142 C 
BRANCH  18  19
ATOM     19  C   UNL A   1      29.012  30.300  21.799  1.00  0.00     0.101 C 
ATOM     20  C   UNL A   1      27.650  30.287  22.501  1.00  0.00     0.036 C 
ATOM     21  N   UNL A   1      29.273  31.713  21.691  1.00  0.00    -0.352 N 
ATOM     22  C   UNL A   1      27.698  31.517  23.406  1.00  0.00     0.102 C 
ATOM     23  C   UNL A   1      28.559  32.463  22.607  1.00  0.00     0.220 C 
ATOM     24  H   UNL A   1      29.893  32.104  21.033  1.00  0.00     0.163 HD
ATOM     25  O   UNL A   1      28.657  33.663  22.759  1.00  0.00    -0.275 OA
ENDBRANCH  18  19
ENDBRANCH  16  18
ENDBRANCH  11  12
ENDBRANCH   6  11
ENDBRANCH   3   6
ENDBRANCH   1   2
BRANCH   1  26
ATOM     26  C   UNL A   1      32.527  29.701  25.521  1.00  0.00     0.042 C 
BRANCH  26  27
ATOM     27  C   UNL A   1      32.533  30.291  26.920  1.00  0.00     0.118 C 
BRANCH  27  28
ATOM     28  N   UNL A   1      32.667  31.739  26.894  1.00  0.00    -0.352 N 
ATOM     29  C   UNL A   1      33.545  32.557  27.553  1.00  0.00     0.251 C 
ATOM     30  H   UNL A   1      32.025  32.203  26.311  1.00  0.00     0.163 HD
ATOM     31  O   UNL A   1      33.308  33.759  27.625  1.00  0.00    -0.269 OA
BRANCH  29  32
ATOM     32  C   UNL A   1      34.773  32.008  28.167  1.00  0.00     0.039 A 
ATOM     33  C   UNL A   1      34.768  30.683  28.610  1.00  0.00     0.014 A 
ATOM     34  C   UNL A   1      35.900  32.807  28.375  1.00  0.00     0.014 A 
ATOM     35  C   UNL A   1      35.896  30.164  29.244  1.00  0.00     0.010 A 
ATOM     36  C   UNL A   1      37.062  32.254  28.897  1.00  0.00     0.010 A 
ATOM     37  C   UNL A   1      37.058  30.941  29.381  1.00  0.00    -0.014 A 
BRANCH  37  38
ATOM     38  C   UNL A   1      38.246  30.413  30.094  1.00  0.00     0.031 A 
ATOM     39  C   UNL A   1      38.507  30.817  31.521  1.00  0.00     0.074 A 
ATOM     40  C   UNL A   1      39.092  29.586  29.454  1.00  0.00     0.049 A 
ATOM     41  N   UNL A   1      39.480  30.455  32.319  1.00  0.00    -0.248 NA
ATOM     42  C   UNL A   1      37.571  31.781  32.124  1.00  0.00     0.031 C 
ATOM     43  C   UNL A   1      38.972  29.169  28.056  1.00  0.00     0.029 A 
ATOM     44  N   UNL A   1      40.218  28.942  29.898  1.00  0.00    -0.354 N 
ATOM     45  C   UNL A   1      39.275  31.151  33.504  1.00  0.00     0.074 A 
ATOM     46  C   UNL A   1      38.135  32.014  33.299  1.00  0.00     0.031 C 
ATOM     47  C   UNL A   1      39.958  28.306  27.768  1.00  0.00     0.029 A 
ATOM     48  C   UNL A   1      40.799  28.136  28.949  1.00  0.00     0.049 A 
ATOM     49  H   UNL A   1      40.575  29.046  30.809  1.00  0.00     0.167 HD
ATOM     50  C   UNL A   1      39.955  31.054  34.672  1.00  0.00     0.037 A 
ATOM     51  C   UNL A   1      41.886  27.346  29.029  1.00  0.00     0.037 A 
ATOM     52  C   UNL A   1      41.076  30.175  34.876  1.00  0.00     0.049 A 
ATOM     53  C   UNL A   1      42.620  27.251  30.341  1.00  0.00     0.074 A 
ATOM     54  C   UNL A   1      41.809  29.963  36.030  1.00  0.00     0.029 A 
ATOM     55  N   UNL A   1      41.627  29.362  33.896  1.00  0.00    -0.354 N 
ATOM     56  N   UNL A   1      42.373  27.857  31.477  1.00  0.00    -0.248 NA
ATOM     57  C   UNL A   1      43.773  26.343  30.383  1.00  0.00     0.031 C 
ATOM     58  C   UNL A   1      42.838  29.064  35.732  1.00  0.00     0.029 A 
ATOM     59  C   UNL A   1      42.703  28.660  34.413  1.00  0.00     0.049 A 
ATOM     60  H   UNL A   1      41.301  29.294  32.969  1.00  0.00     0.167 HD
ATOM     61  C   UNL A   1      43.313  27.376  32.379  1.00  0.00     0.074 A 
ATOM     62  C   UNL A   1      44.123  26.415  31.659  1.00  0.00     0.031 C 
ATOM     63  C   UNL A   1      43.490  27.698  33.684  1.00  0.00     0.037 A 
BRANCH  50  64
ATOM     64  C   UNL A   1      39.501  31.918  35.815  1.00  0.00     0.064 A 
ATOM     65  C   UNL A   1      38.475  31.515  36.685  1.00  0.00     0.173 A 
ATOM     66  C   UNL A   1      40.114  33.156  36.059  1.00  0.00     0.173 A 
ATOM     67  F   UNL A   1      37.843  30.348  36.490  1.00  0.00    -0.203 F 
ATOM     68  C   UNL A   1      38.058  32.333  37.732  1.00  0.00     0.198 A 
ATOM     69  C   UNL A   1      39.720  33.955  37.130  1.00  0.00     0.198 A 
ATOM     70  F   UNL A   1      41.102  33.591  35.263  1.00  0.00    -0.203 F 
ATOM     71  F   UNL A   1      37.035  31.953  38.511  1.00  0.00    -0.200 F 
ATOM     72  C   UNL A   1      38.686  33.548  37.960  1.00  0.00     0.200 A 
ATOM     73  F   UNL A   1      40.338  35.122  37.357  1.00  0.00    -0.200 F 
ATOM     74  F   UNL A   1      38.288  34.330  38.972  1.00  0.00    -0.200 F 
ENDBRANCH  50  64
BRANCH  51  75
ATOM     75  C   UNL A   1      42.318  26.552  27.850  1.00  0.00     0.064 A 
ATOM     76  C   UNL A   1      43.305  27.031  26.976  1.00  0.00     0.173 A 
ATOM     77  C   UNL A   1      41.746  25.303  27.564  1.00  0.00     0.173 A 
ATOM     78  F   UNL A   1      43.872  28.226  27.199  1.00  0.00    -0.203 F 
ATOM     79  C   UNL A   1      43.680  26.308  25.846  1.00  0.00     0.198 A 
ATOM     80  C   UNL A   1      42.147  24.565  26.452  1.00  0.00     0.198 A 
ATOM     81  F   UNL A   1      40.807  24.793  28.373  1.00  0.00    -0.203 F 
ATOM     82  F   UNL A   1      44.584  26.816  24.999  1.00  0.00    -0.200 F 
ATOM     83  C   UNL A   1      43.104  25.074  25.588  1.00  0.00     0.200 A 
ATOM     84  F   UNL A   1      41.602  23.364  26.217  1.00  0.00    -0.200 F 
ATOM     85  F   UNL A   1      43.466  24.377  24.502  1.00  0.00    -0.200 F 
ENDBRANCH  51  75
BRANCH  63  86
ATOM     86  C   UNL A   1      44.562  26.957  34.434  1.00  0.00     0.064 A 
ATOM     87  C   UNL A   1      45.872  27.447  34.539  1.00  0.00     0.173 A 
ATOM     88  C   UNL A   1      44.265  25.739  35.066  1.00  0.00     0.173 A 
ATOM     89  F   UNL A   1      46.212  28.600  33.944  1.00  0.00    -0.203 F 
ATOM     90  C   UNL A   1      46.855  26.722  35.208  1.00  0.00     0.198 A 
ATOM     91  C   UNL A   1      45.240  25.039  35.769  1.00  0.00     0.198 A 
ATOM     92  F   UNL A   1      43.024  25.230  35.008  1.00  0.00    -0.203 F 
ATOM     93  F   UNL A   1      48.116  27.175  35.233  1.00  0.00    -0.200 F 
ATOM     94  C   UNL A   1      46.537  25.523  35.827  1.00  0.00     0.200 A 
ATOM     95  F   UNL A   1      44.925  23.889  36.382  1.00  0.00    -0.200 F 
ATOM     96  F   UNL A   1      47.485  24.827  36.470  1.00  0.00    -0.200 F 
ENDBRANCH  63  86
ENDBRANCH  37  38
ENDBRANCH  29  32
ENDBRANCH  27  28
ENDBRANCH  26  27
ENDBRANCH   1  26
TORSDOF 16
ENDMDL
MODEL 2
REMARK VINA RESULT:     -12.4      1.629      2.446
REMARK SMILES CC(C)C[C@H](CNC(=O)NC[C@H]1CCC(=O)N1)C(=O)NCCCNC(=O)c1ccc(-c2c3nc(c(-c4c(F)c(F)c(F)c(F)c4F)c4ccc([nH]4)c(-c4c(F)c(F)c(F)c(F)c4F)c4nc(c(-c5c(F)c(F)c(F)c(F)c5F)c5ccc2[nH]5)C=C4)C=C3)cc1
REMARK SMILES IDX 21 1 20 2 18 3 19 4 5 6 4 7 2 8 1 9 3 10 6 11 7 12 8 13 9 15
REMARK SMILES IDX 10 16 11 18 12 19 13 20 17 21 14 22 15 23 16 25 22 26 23 27
REMARK SMILES IDX 24 28 25 29 26 31 27 32 28 33 89 34 29 35 88 36 30 37 31 38
REMARK SMILES IDX 32 39 82 40 33 41 87 42 81 43 83 44 34 45 86 46 80 47 79 48
REMARK SMILES IDX 35 50 67 51 47 52 66 53 48 54 51 55 65 56 84 57 49 58 50 59
REMARK SMILES IDX 64 61 85 62 52 63 36 64 37 65 45 66 38 67 39 68 43 69 46 70
REMARK SMILES IDX 40 71 41 72 44 73 42 74 68 75 69 76 77 77 70 78 71 79 75 80
REMARK SMILES IDX 78 81 72 82 73 83 76 84 74 85 53 86 54 87 62 88 55 89 56 90
REMARK SMILES IDX 60 91 63 92 57 93 58 94 61 95 59 96
REMARK H PARENT 20 5 7 14 10 17 17 24 24 30 83 49 51 60
REMARK Flexibility Score: inf
ROOT
ATOM      1  C   UNL A   1      31.558  30.728  26.525  1.00  0.00     0.117 C 
ENDROOT
BRANCH   1   2
ATOM      2  N   UNL A   1      32.929  30.298  26.745  1.00  0.00    -0.356 N 
ATOM      3  C   UNL A   1      33.598  29.183  26.346  1.00  0.00     0.224 C 
ATOM      4  O   UNL A   1      34.740  29.023  26.783  1.00  0.00    -0.275 OA
ATOM      5  H   UNL A   1      33.469  30.926  27.277  1.00  0.00     0.163 HD
BRANCH   3   6
ATOM      6  C   UNL A   1      32.988  28.169  25.384  1.00  0.00     0.098 C 
BRANCH   6   7
ATOM      7  C   UNL A   1      33.565  26.750  25.597  1.00  0.00     0.018 C 
BRANCH   7   8
ATOM      8  C   UNL A   1      32.531  25.677  26.005  1.00  0.00    -0.017 C 
ATOM      9  C   UNL A   1      31.124  26.263  26.117  1.00  0.00     0.007 C 
ATOM     10  C   UNL A   1      32.538  24.540  24.978  1.00  0.00     0.007 C 
ENDBRANCH   7   8
ENDBRANCH   6   7
BRANCH   6  11
ATOM     11  C   UNL A   1      33.074  28.695  23.942  1.00  0.00     0.131 C 
BRANCH  11  12
ATOM     12  N   UNL A   1      32.661  27.733  22.940  1.00  0.00    -0.337 N 
ATOM     13  C   UNL A   1      31.492  27.414  22.381  1.00  0.00     0.314 C 
ATOM     14  H   UNL A   1      33.410  27.194  22.596  1.00  0.00     0.165 HD
ATOM     15  O   UNL A   1      31.421  26.346  21.773  1.00  0.00    -0.249 OA
ATOM     16  N   UNL A   1      30.403  28.183  22.439  1.00  0.00    -0.336 N 
ATOM     17  H   UNL A   1      29.571  27.698  22.235  1.00  0.00     0.165 HD
BRANCH  16  18
ATOM     18  C   UNL A   1      30.192  29.587  22.740  1.00  0.00     0.142 C 
BRANCH  18  19
ATOM     19  C   UNL A   1      29.036  30.190  21.913  1.00  0.00     0.101 C 
ATOM     20  C   UNL A   1      27.690  30.094  22.641  1.00  0.00     0.036 C 
ATOM     21  N   UNL A   1      29.178  31.614  21.748  1.00  0.00    -0.352 N 
ATOM     22  C   UNL A   1      27.652  31.357  23.499  1.00  0.00     0.102 C 
ATOM     23  C   UNL A   1      28.420  32.338  22.650  1.00  0.00     0.220 C 
ATOM     24  H   UNL A   1      29.754  32.028  21.065  1.00  0.00     0.163 HD
ATOM     25  O   UNL A   1      28.422  33.547  22.756  1.00  0.00    -0.275 OA
ENDBRANCH  18  19
ENDBRANCH  16  18
ENDBRANCH  11  12
ENDBRANCH   6  11
ENDBRANCH   3   6
ENDBRANCH   1   2
BRANCH   1  26
ATOM     26  C   UNL A   1      31.402  32.226  26.756  1.00  0.00     0.042 C 
BRANCH  26  27
ATOM     27  C   UNL A   1      32.721  32.930  27.016  1.00  0.00     0.118 C 
BRANCH  27  28
ATOM     28  N   UNL A   1      32.524  34.234  27.630  1.00  0.00    -0.352 N 
ATOM     29  C   UNL A   1      33.042  34.754  28.786  1.00  0.00     0.251 C 
ATOM     30  H   UNL A   1      31.924  34.837  27.135  1.00  0.00     0.163 HD
ATOM     31  O   UNL A   1      32.527  35.754  29.278  1.00  0.00    -0.269 OA
BRANCH  29  32
ATOM     32  C   UNL A   1      34.212  34.129  29.438  1.00  0.00     0.039 A 
ATOM     33  C   UNL A   1      35.492  34.511  29.030  1.00  0.00     0.014 A 
ATOM     34  C   UNL A   1      34.058  33.120  30.393  1.00  0.00     0.014 A 
ATOM     35  C   UNL A   1      36.608  33.892  29.591  1.00  0.00     0.010 A 
ATOM     36  C   UNL A   1      35.169  32.591  31.035  1.00  0.00     0.010 A 
ATOM     37  C   UNL A   1      36.457  32.936  30.609  1.00  0.00    -0.014 A 
BRANCH  37  38
ATOM     38  C   UNL A   1      37.635  32.239  31.179  1.00  0.00     0.031 A 
ATOM     39  C   UNL A   1      38.110  32.577  32.567  1.00  0.00     0.074 A 
ATOM     40  C   UNL A   1      38.282  31.318  30.442  1.00  0.00     0.049 A 
ATOM     41  N   UNL A   1      39.108  32.071  33.246  1.00  0.00    -0.248 NA
ATOM     42  C   UNL A   1      37.389  33.647  33.278  1.00  0.00     0.031 C 
ATOM     43  C   UNL A   1      37.948  30.947  29.066  1.00  0.00     0.029 A 
ATOM     44  N   UNL A   1      39.352  30.518  30.751  1.00  0.00    -0.354 N 
ATOM     45  C   UNL A   1      39.136  32.766  34.450  1.00  0.00     0.074 A 
ATOM     46  C   UNL A   1      38.109  33.779  34.380  1.00  0.00     0.031 C 
ATOM     47  C   UNL A   1      38.767  29.964  28.664  1.00  0.00     0.029 A 
ATOM     48  C   UNL A   1      39.706  29.660  29.739  1.00  0.00     0.049 A 
ATOM     49  H   UNL A   1      39.822  30.556  31.615  1.00  0.00     0.167 HD
ATOM     50  C   UNL A   1      39.925  32.555  35.530  1.00  0.00     0.037 A 
ATOM     51  C   UNL A   1      40.677  28.729  29.690  1.00  0.00     0.037 A 
ATOM     52  C   UNL A   1      40.932  31.530  35.601  1.00  0.00     0.049 A 
ATOM     53  C   UNL A   1      41.536  28.511  30.908  1.00  0.00     0.074 A 
ATOM     54  C   UNL A   1      41.756  31.199  36.662  1.00  0.00     0.029 A 
ATOM     55  N   UNL A   1      41.252  30.668  34.561  1.00  0.00    -0.354 N 
ATOM     56  N   UNL A   1      41.505  29.123  32.068  1.00  0.00    -0.248 NA
ATOM     57  C   UNL A   1      42.551  27.455  30.814  1.00  0.00     0.031 C 
ATOM     58  C   UNL A   1      42.612  30.174  36.245  1.00  0.00     0.029 A 
ATOM     59  C   UNL A   1      42.273  29.817  34.949  1.00  0.00     0.049 A 
ATOM     60  H   UNL A   1      40.816  30.663  33.678  1.00  0.00     0.167 HD
ATOM     61  C   UNL A   1      42.467  28.502  32.853  1.00  0.00     0.074 A 
ATOM     62  C   UNL A   1      43.051  27.454  32.041  1.00  0.00     0.031 C 
ATOM     63  C   UNL A   1      42.834  28.772  34.131  1.00  0.00     0.037 A 
BRANCH  50  64
ATOM     64  C   UNL A   1      39.727  33.451  36.722  1.00  0.00     0.064 A 
ATOM     65  C   UNL A   1      38.865  33.103  37.774  1.00  0.00     0.173 A 
ATOM     66  C   UNL A   1      40.424  34.665  36.824  1.00  0.00     0.173 A 
ATOM     67  F   UNL A   1      38.162  31.961  37.722  1.00  0.00    -0.203 F 
ATOM     68  C   UNL A   1      38.683  33.950  38.865  1.00  0.00     0.198 A 
ATOM     69  C   UNL A   1      40.267  35.491  37.934  1.00  0.00     0.198 A 
ATOM     70  F   UNL A   1      41.262  35.048  35.851  1.00  0.00    -0.203 F 
ATOM     71  F   UNL A   1      37.809  33.622  39.827  1.00  0.00    -0.200 F 
ATOM     72  C   UNL A   1      39.391  35.139  38.948  1.00  0.00     0.200 A 
ATOM     73  F   UNL A   1      40.963  36.634  38.020  1.00  0.00    -0.200 F 
ATOM     74  F   UNL A   1      39.220  35.949  40.002  1.00  0.00    -0.200 F 
ENDBRANCH  50  64
BRANCH  51  75
ATOM     75  C   UNL A   1      40.859  27.906  28.467  1.00  0.00     0.064 A 
ATOM     76  C   UNL A   1      41.681  28.342  27.417  1.00  0.00     0.173 A 
ATOM     77  C   UNL A   1      40.209  26.672  28.315  1.00  0.00     0.173 A 
ATOM     78  F   UNL A   1      42.313  29.521  27.508  1.00  0.00    -0.203 F 
ATOM     79  C   UNL A   1      41.818  27.593  26.251  1.00  0.00     0.198 A 
ATOM     80  C   UNL A   1      40.375  25.908  27.162  1.00  0.00     0.198 A 
ATOM     81  F   UNL A   1      39.421  26.204  29.293  1.00  0.00    -0.203 F 
ATOM     82  F   UNL A   1      42.564  28.061  25.241  1.00  0.00    -0.200 F 
ATOM     83  C   UNL A   1      41.169  26.374  26.126  1.00  0.00     0.200 A 
ATOM     84  F   UNL A   1      39.761  24.721  27.054  1.00  0.00    -0.200 F 
ATOM     85  F   UNL A   1      41.303  25.653  25.005  1.00  0.00    -0.200 F 
ENDBRANCH  51  75
BRANCH  63  86
ATOM     86  C   UNL A   1      43.873  27.879  34.749  1.00  0.00     0.064 A 
ATOM     87  C   UNL A   1      43.531  26.714  35.452  1.00  0.00     0.173 A 
ATOM     88  C   UNL A   1      45.235  28.192  34.623  1.00  0.00     0.173 A 
ATOM     89  F   UNL A   1      42.244  26.374  35.612  1.00  0.00    -0.203 F 
ATOM     90  C   UNL A   1      44.512  25.924  36.047  1.00  0.00     0.198 A 
ATOM     91  C   UNL A   1      46.214  27.378  35.183  1.00  0.00     0.198 A 
ATOM     92  F   UNL A   1      45.619  29.288  33.950  1.00  0.00    -0.203 F 
ATOM     93  F   UNL A   1      44.158  24.857  36.775  1.00  0.00    -0.200 F 
ATOM     94  C   UNL A   1      45.852  26.253  35.906  1.00  0.00     0.200 A 
ATOM     95  F   UNL A   1      47.509  27.688  35.029  1.00  0.00    -0.200 F 
ATOM     96  F   UNL A   1      46.794  25.492  36.479  1.00  0.00    -0.200 F 
ENDBRANCH  63  86
ENDBRANCH  37  38
ENDBRANCH  29  32
ENDBRANCH  27  28
ENDBRANCH  26  27
ENDBRANCH   1  26
TORSDOF 16
ENDMDL
MODEL 3
REMARK VINA RESULT:     -12.3      1.904      7.701
REMARK SMILES CC(C)C[C@H](CNC(=O)NC[C@H]1CCC(=O)N1)C(=O)NCCCNC(=O)c1ccc(-c2c3nc(c(-c4c(F)c(F)c(F)c(F)c4F)c4ccc([nH]4)c(-c4c(F)c(F)c(F)c(F)c4F)c4nc(c(-c5c(F)c(F)c(F)c(F)c5F)c5ccc2[nH]5)C=C4)C=C3)cc1
REMARK SMILES IDX 21 1 20 2 18 3 19 4 5 6 4 7 2 8 1 9 3 10 6 11 7 12 8 13 9 15
REMARK SMILES IDX 10 16 11 18 12 19 13 20 17 21 14 22 15 23 16 25 22 26 23 27
REMARK SMILES IDX 24 28 25 29 26 31 27 32 28 33 89 34 29 35 88 36 30 37 31 38
REMARK SMILES IDX 32 39 82 40 33 41 87 42 81 43 83 44 34 45 86 46 80 47 79 48
REMARK SMILES IDX 35 50 67 51 47 52 66 53 48 54 51 55 65 56 84 57 49 58 50 59
REMARK SMILES IDX 64 61 85 62 52 63 36 64 37 65 45 66 38 67 39 68 43 69 46 70
REMARK SMILES IDX 40 71 41 72 44 73 42 74 68 75 69 76 77 77 70 78 71 79 75 80
REMARK SMILES IDX 78 81 72 82 73 83 76 84 74 85 53 86 54 87 62 88 55 89 56 90
REMARK SMILES IDX 60 91 63 92 57 93 58 94 61 95 59 96
REMARK H PARENT 20 5 7 14 10 17 17 24 24 30 83 49 51 60
REMARK Flexibility Score: inf
ROOT
ATOM      1  C   UNL A   1      31.462  30.973  26.073  1.00  0.00     0.117 C 
ENDROOT
BRANCH   1   2
ATOM      2  N   UNL A   1      32.774  30.416  26.354  1.00  0.00    -0.356 N 
ATOM      3  C   UNL A   1      33.354  29.244  25.981  1.00  0.00     0.224 C 
ATOM      4  O   UNL A   1      34.455  28.978  26.470  1.00  0.00    -0.275 OA
ATOM      5  H   UNL A   1      33.346  30.991  26.914  1.00  0.00     0.163 HD
BRANCH   3   6
ATOM      6  C   UNL A   1      32.698  28.292  24.988  1.00  0.00     0.098 C 
BRANCH   6   7
ATOM      7  C   UNL A   1      33.005  26.812  25.314  1.00  0.00     0.018 C 
BRANCH   7   8
ATOM      8  C   UNL A   1      31.967  26.113  26.222  1.00  0.00    -0.017 C 
ATOM      9  C   UNL A   1      30.554  26.219  25.649  1.00  0.00     0.007 C 
ATOM     10  C   UNL A   1      32.347  24.639  26.396  1.00  0.00     0.007 C 
ENDBRANCH   7   8
ENDBRANCH   6   7
BRANCH   6  11
ATOM     11  C   UNL A   1      33.032  28.721  23.549  1.00  0.00     0.131 C 
BRANCH  11  12
ATOM     12  N   UNL A   1      32.499  27.837  22.533  1.00  0.00    -0.337 N 
ATOM     13  C   UNL A   1      31.269  27.517  22.128  1.00  0.00     0.314 C 
ATOM     14  H   UNL A   1      33.202  27.367  22.029  1.00  0.00     0.165 HD
ATOM     15  O   UNL A   1      31.138  26.506  21.437  1.00  0.00    -0.249 OA
ATOM     16  N   UNL A   1      30.179  28.227  22.423  1.00  0.00    -0.336 N 
ATOM     17  H   UNL A   1      29.341  27.725  22.301  1.00  0.00     0.165 HD
BRANCH  16  18
ATOM     18  C   UNL A   1      29.973  29.587  22.887  1.00  0.00     0.142 C 
BRANCH  18  19
ATOM     19  C   UNL A   1      29.003  30.370  21.976  1.00  0.00     0.101 C 
ATOM     20  C   UNL A   1      27.584  30.428  22.551  1.00  0.00     0.036 C 
ATOM     21  N   UNL A   1      29.346  31.768  21.901  1.00  0.00    -0.352 N 
ATOM     22  C   UNL A   1      27.613  31.651  23.465  1.00  0.00     0.102 C 
ATOM     23  C   UNL A   1      28.592  32.552  22.754  1.00  0.00     0.220 C 
ATOM     24  H   UNL A   1      30.043  32.126  21.305  1.00  0.00     0.163 HD
ATOM     25  O   UNL A   1      28.738  33.745  22.923  1.00  0.00    -0.275 OA
ENDBRANCH  18  19
ENDBRANCH  16  18
ENDBRANCH  11  12
ENDBRANCH   6  11
ENDBRANCH   3   6
ENDBRANCH   1   2
BRANCH   1  26
ATOM     26  C   UNL A   1      31.347  32.407  26.574  1.00  0.00     0.042 C 
BRANCH  26  27
ATOM     27  C   UNL A   1      32.606  32.901  27.262  1.00  0.00     0.118 C 
BRANCH  27  28
ATOM     28  N   UNL A   1      32.490  34.293  27.667  1.00  0.00    -0.352 N 
ATOM     29  C   UNL A   1      33.031  34.951  28.739  1.00  0.00     0.251 C 
ATOM     30  H   UNL A   1      31.934  34.850  27.076  1.00  0.00     0.163 HD
ATOM     31  O   UNL A   1      32.578  36.044  29.065  1.00  0.00    -0.269 OA
BRANCH  29  32
ATOM     32  C   UNL A   1      34.153  34.360  29.499  1.00  0.00     0.039 A 
ATOM     33  C   UNL A   1      35.455  34.548  29.028  1.00  0.00     0.014 A 
ATOM     34  C   UNL A   1      33.929  33.565  30.625  1.00  0.00     0.014 A 
ATOM     35  C   UNL A   1      36.523  33.951  29.697  1.00  0.00     0.010 A 
ATOM     36  C   UNL A   1      35.001  33.072  31.358  1.00  0.00     0.010 A 
ATOM     37  C   UNL A   1      36.306  33.219  30.876  1.00  0.00    -0.014 A 
BRANCH  37  38
ATOM     38  C   UNL A   1      37.429  32.543  31.568  1.00  0.00     0.031 A 
ATOM     39  C   UNL A   1      38.155  31.408  30.894  1.00  0.00     0.074 A 
ATOM     40  C   UNL A   1      37.783  32.939  32.804  1.00  0.00     0.049 A 
ATOM     41  N   UNL A   1      39.167  30.700  31.327  1.00  0.00    -0.248 NA
ATOM     42  C   UNL A   1      37.658  30.990  29.572  1.00  0.00     0.031 C 
ATOM     43  C   UNL A   1      37.119  33.989  33.578  1.00  0.00     0.029 A 
ATOM     44  N   UNL A   1      38.795  32.511  33.624  1.00  0.00    -0.354 N 
ATOM     45  C   UNL A   1      39.417  29.756  30.338  1.00  0.00     0.074 A 
ATOM     46  C   UNL A   1      38.406  29.928  29.321  1.00  0.00     0.031 C 
ATOM     47  C   UNL A   1      37.766  34.153  34.743  1.00  0.00     0.029 A 
ATOM     48  C   UNL A   1      38.867  33.197  34.811  1.00  0.00     0.049 A 
ATOM     49  H   UNL A   1      39.411  31.781  33.385  1.00  0.00     0.167 HD
ATOM     50  C   UNL A   1      40.421  28.849  30.268  1.00  0.00     0.037 A 
ATOM     51  C   UNL A   1      39.730  33.071  35.836  1.00  0.00     0.037 A 
ATOM     52  C   UNL A   1      41.437  28.698  31.274  1.00  0.00     0.049 A 
ATOM     53  C   UNL A   1      40.841  32.060  35.729  1.00  0.00     0.074 A 
ATOM     54  C   UNL A   1      42.526  27.844  31.283  1.00  0.00     0.029 A 
ATOM     55  N   UNL A   1      41.487  29.422  32.457  1.00  0.00    -0.354 N 
ATOM     56  N   UNL A   1      41.112  31.222  34.757  1.00  0.00    -0.248 NA
ATOM     57  C   UNL A   1      41.778  31.992  36.858  1.00  0.00     0.031 C 
ATOM     58  C   UNL A   1      43.202  28.013  32.496  1.00  0.00     0.029 A 
ATOM     59  C   UNL A   1      42.578  29.023  33.212  1.00  0.00     0.049 A 
ATOM     60  H   UNL A   1      40.842  30.119  32.721  1.00  0.00     0.167 HD
ATOM     61  C   UNL A   1      42.271  30.558  35.137  1.00  0.00     0.074 A 
ATOM     62  C   UNL A   1      42.659  31.104  36.422  1.00  0.00     0.031 C 
ATOM     63  C   UNL A   1      42.954  29.586  34.483  1.00  0.00     0.037 A 
BRANCH  50  64
ATOM     64  C   UNL A   1      40.466  27.954  29.060  1.00  0.00     0.064 A 
ATOM     65  C   UNL A   1      39.728  26.761  28.995  1.00  0.00     0.173 A 
ATOM     66  C   UNL A   1      41.240  28.304  27.943  1.00  0.00     0.173 A 
ATOM     67  F   UNL A   1      38.983  26.370  30.040  1.00  0.00    -0.203 F 
ATOM     68  C   UNL A   1      39.790  25.938  27.874  1.00  0.00     0.198 A 
ATOM     69  C   UNL A   1      41.270  27.496  26.809  1.00  0.00     0.198 A 
ATOM     70  F   UNL A   1      41.963  29.433  27.947  1.00  0.00    -0.203 F 
ATOM     71  F   UNL A   1      39.124  24.774  27.862  1.00  0.00    -0.200 F 
ATOM     72  C   UNL A   1      40.554  26.309  26.779  1.00  0.00     0.200 A 
ATOM     73  F   UNL A   1      41.998  27.864  25.745  1.00  0.00    -0.200 F 
ATOM     74  F   UNL A   1      40.607  25.519  25.698  1.00  0.00    -0.200 F 
ENDBRANCH  50  64
BRANCH  51  75
ATOM     75  C   UNL A   1      39.606  33.950  37.028  1.00  0.00     0.064 A 
ATOM     76  C   UNL A   1      38.889  33.538  38.161  1.00  0.00     0.173 A 
ATOM     77  C   UNL A   1      40.192  35.225  37.057  1.00  0.00     0.173 A 
ATOM     78  F   UNL A   1      38.299  32.333  38.177  1.00  0.00    -0.203 F 
ATOM     79  C   UNL A   1      38.735  34.377  39.261  1.00  0.00     0.198 A 
ATOM     80  C   UNL A   1      40.065  36.050  38.172  1.00  0.00     0.198 A 
ATOM     81  F   UNL A   1      40.898  35.663  36.005  1.00  0.00    -0.203 F 
ATOM     82  F   UNL A   1      37.997  33.979  40.306  1.00  0.00    -0.200 F 
ATOM     83  C   UNL A   1      39.327  35.631  39.268  1.00  0.00     0.200 A 
ATOM     84  F   UNL A   1      40.656  37.253  38.182  1.00  0.00    -0.200 F 
ATOM     85  F   UNL A   1      39.180  36.438  40.327  1.00  0.00    -0.200 F 
ENDBRANCH  51  75
BRANCH  63  86
ATOM     86  C   UNL A   1      44.226  29.096  35.118  1.00  0.00     0.064 A 
ATOM     87  C   UNL A   1      45.471  29.678  34.837  1.00  0.00     0.173 A 
ATOM     88  C   UNL A   1      44.191  28.031  36.032  1.00  0.00     0.173 A 
ATOM     89  F   UNL A   1      45.562  30.691  33.963  1.00  0.00    -0.203 F 
ATOM     90  C   UNL A   1      46.639  29.180  35.412  1.00  0.00     0.198 A 
ATOM     91  C   UNL A   1      45.354  27.564  36.635  1.00  0.00     0.198 A 
ATOM     92  F   UNL A   1      43.025  27.445  36.346  1.00  0.00    -0.203 F 
ATOM     93  F   UNL A   1      47.824  29.705  35.073  1.00  0.00    -0.200 F 
ATOM     94  C   UNL A   1      46.579  28.129  36.313  1.00  0.00     0.200 A 
ATOM     95  F   UNL A   1      45.291  26.560  37.521  1.00  0.00    -0.200 F 
ATOM     96  F   UNL A   1      47.703  27.652  36.864  1.00  0.00    -0.200 F 
ENDBRANCH  63  86
ENDBRANCH  37  38
ENDBRANCH  29  32
ENDBRANCH  27  28
ENDBRANCH  26  27
ENDBRANCH   1  26
TORSDOF 16
ENDMDL
