MODEL 1
REMARK VINA RESULT:     -14.5      0.000      0.000
REMARK SMILES Cc1ccccc1/[NH+]=C1\S[C@@H](CC(=O)Nc2ccc(C(=O)NCCCNC(=O)c3ccc(-c4c5nc(c(-c6c(F)c(F)c(F)c(F)c6F)c6ccc([nH]6)c(-c6c(F)c(F)c(F)c(F)c6F)c6nc(c(-c7c(F)c(F)c(F)c(F)c7F)c7ccc4[nH]7)C=C6)C=C5)cc3)cc2)C(=O)N1C
REMARK SMILES IDX 23 1 22 2 20 3 21 4 19 6 16 7 17 8 93 9 18 10 92 11 15 12
REMARK SMILES IDX 13 13 14 14 12 16 11 17 8 18 9 19 10 21 96 22 94 23 97 24
REMARK SMILES IDX 95 25 7 26 1 27 2 28 3 29 4 30 6 31 5 32 24 33 25 34 26 35
REMARK SMILES IDX 27 36 28 38 29 39 30 40 91 41 31 42 90 43 32 44 33 45 34 46
REMARK SMILES IDX 84 47 35 48 89 49 83 50 85 51 36 52 88 53 82 54 81 55 37 57
REMARK SMILES IDX 69 58 49 59 68 60 50 61 53 62 67 63 86 64 51 65 52 66 66 68
REMARK SMILES IDX 87 69 54 70 38 71 39 72 47 73 40 74 41 75 45 76 48 77 42 78
REMARK SMILES IDX 43 79 46 80 44 81 70 82 71 83 79 84 72 85 73 86 77 87 80 88
REMARK SMILES IDX 74 89 75 90 78 91 76 92 55 93 56 94 64 95 57 96 58 97 62 98
REMARK SMILES IDX 65 99 59 100 60 101 63 102 61 103
REMARK H PARENT 22 5 15 15 8 20 26 37 85 56 53 67
REMARK Flexibility Score: inf
ROOT
ATOM      1  C   UNL A   1      37.881  20.815  25.357  1.00  0.00     0.118 C 
ENDROOT
BRANCH   1   2
ATOM      2  N   UNL A   1      37.545  21.676  24.224  1.00  0.00    -0.352 N 
ATOM      3  C   UNL A   1      36.472  22.521  24.025  1.00  0.00     0.251 C 
ATOM      4  O   UNL A   1      36.518  23.342  23.111  1.00  0.00    -0.269 OA
ATOM      5  H   UNL A   1      38.190  21.648  23.481  1.00  0.00     0.163 HD
BRANCH   3   6
ATOM      6  C   UNL A   1      35.267  22.480  24.891  1.00  0.00     0.039 A 
ATOM      7  C   UNL A   1      32.920  22.461  26.414  1.00  0.00     0.041 A 
ATOM      8  C   UNL A   1      33.947  23.354  26.701  1.00  0.00     0.027 A 
ATOM      9  C   UNL A   1      33.134  21.448  25.488  1.00  0.00     0.027 A 
ATOM     10  C   UNL A   1      35.112  23.367  25.947  1.00  0.00     0.016 A 
ATOM     11  C   UNL A   1      34.307  21.468  24.714  1.00  0.00     0.016 A 
BRANCH   7  12
ATOM     12  N   UNL A   1      31.678  22.625  27.038  1.00  0.00    -0.326 N 
ATOM     13  C   UNL A   1      30.683  23.483  26.610  1.00  0.00     0.226 C 
ATOM     14  O   UNL A   1      29.747  23.788  27.347  1.00  0.00    -0.275 OA
ATOM     15  H   UNL A   1      31.499  22.087  27.844  1.00  0.00     0.169 HD
BRANCH  13  16
ATOM     16  C   UNL A   1      30.674  23.854  25.132  1.00  0.00     0.128 C 
BRANCH  16  17
ATOM     17  C   UNL A   1      31.374  25.140  24.751  1.00  0.00     0.183 C 
ATOM     18  N   UNL A   1      31.644  28.851  24.734  1.00  0.00    -0.234 N 
ATOM     19  C   UNL A   1      31.171  27.660  24.678  1.00  0.00     0.319 C 
ATOM     20  H   UNL A   1      31.612  29.356  23.889  1.00  0.00     0.313 HD
ATOM     21  S   UNL A   1      30.892  26.480  25.914  1.00  0.00    -0.022 SA
ATOM     22  N   UNL A   1      30.847  27.102  23.477  1.00  0.00    -0.193 N 
ATOM     23  C   UNL A   1      31.070  25.743  23.390  1.00  0.00     0.324 C 
ATOM     24  C   UNL A   1      30.526  27.879  22.297  1.00  0.00     0.301 C 
ATOM     25  O   UNL A   1      31.133  25.125  22.333  1.00  0.00    -0.245 OA
BRANCH  18  26
ATOM     26  C   UNL A   1      32.200  29.539  25.823  1.00  0.00     0.128 A 
ATOM     27  C   UNL A   1      34.263  28.036  26.264  1.00  0.00     0.049 C 
ATOM     28  C   UNL A   1      33.419  29.260  26.481  1.00  0.00    -0.004 A 
ATOM     29  C   UNL A   1      33.931  30.187  27.415  1.00  0.00     0.008 A 
ATOM     30  C   UNL A   1      33.309  31.412  27.636  1.00  0.00     0.001 A 
ATOM     31  C   UNL A   1      31.586  30.779  26.082  1.00  0.00     0.052 A 
ATOM     32  C   UNL A   1      32.137  31.712  26.964  1.00  0.00     0.004 A 
ENDBRANCH  18  26
ENDBRANCH  16  17
ENDBRANCH  13  16
ENDBRANCH   7  12
ENDBRANCH   3   6
ENDBRANCH   1   2
BRANCH   1  33
ATOM     33  C   UNL A   1      39.282  21.069  25.913  1.00  0.00     0.042 C 
BRANCH  33  34
ATOM     34  C   UNL A   1      39.608  22.535  26.176  1.00  0.00     0.118 C 
BRANCH  34  35
ATOM     35  N   UNL A   1      41.040  22.831  26.224  1.00  0.00    -0.352 N 
ATOM     36  C   UNL A   1      41.676  24.047  26.455  1.00  0.00     0.251 C 
ATOM     37  H   UNL A   1      41.637  22.063  26.073  1.00  0.00     0.163 HD
ATOM     38  O   UNL A   1      42.887  24.122  26.500  1.00  0.00    -0.269 OA
BRANCH  36  39
ATOM     39  C   UNL A   1      40.837  25.228  26.776  1.00  0.00     0.039 A 
ATOM     40  C   UNL A   1      41.015  26.392  26.022  1.00  0.00     0.014 A 
ATOM     41  C   UNL A   1      40.109  25.256  27.959  1.00  0.00     0.014 A 
ATOM     42  C   UNL A   1      40.707  27.624  26.597  1.00  0.00     0.010 A 
ATOM     43  C   UNL A   1      39.928  26.473  28.579  1.00  0.00     0.010 A 
ATOM     44  C   UNL A   1      40.294  27.659  27.928  1.00  0.00    -0.014 A 
BRANCH  44  45
ATOM     45  C   UNL A   1      40.355  28.851  28.772  1.00  0.00     0.031 A 
ATOM     46  C   UNL A   1      39.267  29.855  28.745  1.00  0.00     0.074 A 
ATOM     47  C   UNL A   1      41.320  28.940  29.717  1.00  0.00     0.049 A 
ATOM     48  N   UNL A   1      39.347  31.022  29.290  1.00  0.00    -0.248 NA
ATOM     49  C   UNL A   1      37.994  29.629  28.071  1.00  0.00     0.031 C 
ATOM     50  C   UNL A   1      41.325  29.805  30.897  1.00  0.00     0.029 A 
ATOM     51  N   UNL A   1      42.608  28.375  29.703  1.00  0.00    -0.354 N 
ATOM     52  C   UNL A   1      38.098  31.595  29.261  1.00  0.00     0.074 A 
ATOM     53  C   UNL A   1      37.293  30.695  28.469  1.00  0.00     0.031 C 
ATOM     54  C   UNL A   1      42.589  29.963  31.316  1.00  0.00     0.029 A 
ATOM     55  C   UNL A   1      43.446  29.334  30.331  1.00  0.00     0.049 A 
ATOM     56  H   UNL A   1      42.872  27.502  29.335  1.00  0.00     0.167 HD
ATOM     57  C   UNL A   1      37.866  32.725  29.989  1.00  0.00     0.037 A 
ATOM     58  C   UNL A   1      44.446  29.961  29.645  1.00  0.00     0.037 A 
ATOM     59  C   UNL A   1      39.080  33.214  30.632  1.00  0.00     0.049 A 
ATOM     60  C   UNL A   1      44.319  31.469  29.561  1.00  0.00     0.074 A 
ATOM     61  C   UNL A   1      39.631  33.092  31.897  1.00  0.00     0.029 A 
ATOM     62  N   UNL A   1      40.080  33.722  29.828  1.00  0.00    -0.354 N 
ATOM     63  N   UNL A   1      43.300  32.146  30.013  1.00  0.00    -0.248 NA
ATOM     64  C   UNL A   1      45.280  32.318  28.856  1.00  0.00     0.031 C 
ATOM     65  C   UNL A   1      40.985  33.530  31.833  1.00  0.00     0.029 A 
ATOM     66  C   UNL A   1      41.249  33.915  30.533  1.00  0.00     0.049 A 
ATOM     67  H   UNL A   1      39.972  33.922  28.870  1.00  0.00     0.167 HD
ATOM     68  C   UNL A   1      43.408  33.447  29.603  1.00  0.00     0.074 A 
ATOM     69  C   UNL A   1      44.670  33.515  28.895  1.00  0.00     0.031 C 
ATOM     70  C   UNL A   1      42.427  34.367  29.818  1.00  0.00     0.037 A 
BRANCH  57  71
ATOM     71  C   UNL A   1      36.501  33.301  30.259  1.00  0.00     0.064 A 
ATOM     72  C   UNL A   1      35.723  33.829  29.206  1.00  0.00     0.173 A 
ATOM     73  C   UNL A   1      35.910  33.383  31.532  1.00  0.00     0.173 A 
ATOM     74  F   UNL A   1      36.120  33.743  27.931  1.00  0.00    -0.203 F 
ATOM     75  C   UNL A   1      34.504  34.474  29.426  1.00  0.00     0.198 A 
ATOM     76  C   UNL A   1      34.721  34.083  31.762  1.00  0.00     0.198 A 
ATOM     77  F   UNL A   1      36.433  32.742  32.585  1.00  0.00    -0.203 F 
ATOM     78  F   UNL A   1      33.807  34.950  28.385  1.00  0.00    -0.200 F 
ATOM     79  C   UNL A   1      34.021  34.635  30.709  1.00  0.00     0.200 A 
ATOM     80  F   UNL A   1      34.256  34.213  33.013  1.00  0.00    -0.200 F 
ATOM     81  F   UNL A   1      32.876  35.295  30.924  1.00  0.00    -0.200 F 
ENDBRANCH  57  71
BRANCH  58  82
ATOM     82  C   UNL A   1      45.022  29.104  28.576  1.00  0.00     0.064 A 
ATOM     83  C   UNL A   1      45.938  28.100  28.946  1.00  0.00     0.173 A 
ATOM     84  C   UNL A   1      44.401  28.991  27.328  1.00  0.00     0.173 A 
ATOM     85  F   UNL A   1      46.558  28.164  30.136  1.00  0.00    -0.203 F 
ATOM     86  C   UNL A   1      46.116  26.963  28.164  1.00  0.00     0.198 A 
ATOM     87  C   UNL A   1      44.599  27.860  26.536  1.00  0.00     0.198 A 
ATOM     88  F   UNL A   1      43.505  29.906  26.928  1.00  0.00    -0.203 F 
ATOM     89  F   UNL A   1      46.889  25.962  28.605  1.00  0.00    -0.200 F 
ATOM     90  C   UNL A   1      45.422  26.831  26.973  1.00  0.00     0.200 A 
ATOM     91  F   UNL A   1      43.904  27.717  25.398  1.00  0.00    -0.200 F 
ATOM     92  F   UNL A   1      45.503  25.693  26.270  1.00  0.00    -0.200 F 
ENDBRANCH  58  82
BRANCH  70  93
ATOM     93  C   UNL A   1      42.512  35.784  29.346  1.00  0.00     0.064 A 
ATOM     94  C   UNL A   1      41.954  36.193  28.127  1.00  0.00     0.173 A 
ATOM     95  C   UNL A   1      43.269  36.744  30.047  1.00  0.00     0.173 A 
ATOM     96  F   UNL A   1      41.239  35.336  27.382  1.00  0.00    -0.203 F 
ATOM     97  C   UNL A   1      42.133  37.491  27.645  1.00  0.00     0.198 A 
ATOM     98  C   UNL A   1      43.489  38.022  29.541  1.00  0.00     0.198 A 
ATOM     99  F   UNL A   1      43.794  36.471  31.252  1.00  0.00    -0.203 F 
ATOM    100  F   UNL A   1      41.554  37.860  26.495  1.00  0.00    -0.200 F 
ATOM    101  C   UNL A   1      42.915  38.398  28.342  1.00  0.00     0.200 A 
ATOM    102  F   UNL A   1      44.257  38.884  30.222  1.00  0.00    -0.200 F 
ATOM    103  F   UNL A   1      43.109  39.634  27.864  1.00  0.00    -0.200 F 
ENDBRANCH  70  93
ENDBRANCH  44  45
ENDBRANCH  36  39
ENDBRANCH  34  35
ENDBRANCH  33  34
ENDBRANCH   1  33
TORSDOF 14
ENDMDL
MODEL 2
REMARK VINA RESULT:     -14.4      3.508      9.990
REMARK SMILES Cc1ccccc1/[NH+]=C1\S[C@@H](CC(=O)Nc2ccc(C(=O)NCCCNC(=O)c3ccc(-c4c5nc(c(-c6c(F)c(F)c(F)c(F)c6F)c6ccc([nH]6)c(-c6c(F)c(F)c(F)c(F)c6F)c6nc(c(-c7c(F)c(F)c(F)c(F)c7F)c7ccc4[nH]7)C=C6)C=C5)cc3)cc2)C(=O)N1C
REMARK SMILES IDX 23 1 22 2 20 3 21 4 19 6 16 7 17 8 93 9 18 10 92 11 15 12
REMARK SMILES IDX 13 13 14 14 12 16 11 17 8 18 9 19 10 21 96 22 94 23 97 24
REMARK SMILES IDX 95 25 7 26 1 27 2 28 3 29 4 30 6 31 5 32 24 33 25 34 26 35
REMARK SMILES IDX 27 36 28 38 29 39 30 40 91 41 31 42 90 43 32 44 33 45 34 46
REMARK SMILES IDX 84 47 35 48 89 49 83 50 85 51 36 52 88 53 82 54 81 55 37 57
REMARK SMILES IDX 69 58 49 59 68 60 50 61 53 62 67 63 86 64 51 65 52 66 66 68
REMARK SMILES IDX 87 69 54 70 38 71 39 72 47 73 40 74 41 75 45 76 48 77 42 78
REMARK SMILES IDX 43 79 46 80 44 81 70 82 71 83 79 84 72 85 73 86 77 87 80 88
REMARK SMILES IDX 74 89 75 90 78 91 76 92 55 93 56 94 64 95 57 96 58 97 62 98
REMARK SMILES IDX 65 99 59 100 60 101 63 102 61 103
REMARK H PARENT 22 5 15 15 8 20 26 37 85 56 53 67
REMARK Flexibility Score: inf
ROOT
ATOM      1  C   UNL A   1      33.654  30.685  27.221  1.00  0.00     0.118 C 
ENDROOT
BRANCH   1   2
ATOM      2  N   UNL A   1      32.594  29.771  27.644  1.00  0.00    -0.352 N 
ATOM      3  C   UNL A   1      32.086  28.640  27.037  1.00  0.00     0.251 C 
ATOM      4  O   UNL A   1      31.373  27.880  27.688  1.00  0.00    -0.269 OA
ATOM      5  H   UNL A   1      32.172  30.002  28.503  1.00  0.00     0.163 HD
BRANCH   3   6
ATOM      6  C   UNL A   1      32.389  28.304  25.623  1.00  0.00     0.039 A 
ATOM      7  C   UNL A   1      32.865  27.560  22.968  1.00  0.00     0.041 A 
ATOM      8  C   UNL A   1      33.825  27.343  23.951  1.00  0.00     0.027 A 
ATOM      9  C   UNL A   1      31.739  28.318  23.268  1.00  0.00     0.027 A 
ATOM     10  C   UNL A   1      33.592  27.711  25.268  1.00  0.00     0.016 A 
ATOM     11  C   UNL A   1      31.495  28.677  24.604  1.00  0.00     0.016 A 
BRANCH   7  12
ATOM     12  N   UNL A   1      33.033  26.976  21.707  1.00  0.00    -0.326 N 
ATOM     13  C   UNL A   1      32.727  25.666  21.393  1.00  0.00     0.226 C 
ATOM     14  O   UNL A   1      33.157  25.142  20.367  1.00  0.00    -0.275 OA
ATOM     15  H   UNL A   1      33.397  27.543  20.989  1.00  0.00     0.169 HD
BRANCH  13  16
ATOM     16  C   UNL A   1      31.669  24.976  22.244  1.00  0.00     0.128 C 
BRANCH  16  17
ATOM     17  C   UNL A   1      32.170  24.077  23.354  1.00  0.00     0.183 C 
ATOM     18  N   UNL A   1      32.308  20.805  25.120  1.00  0.00    -0.234 N 
ATOM     19  C   UNL A   1      31.879  21.836  24.489  1.00  0.00     0.319 C 
ATOM     20  H   UNL A   1      31.992  20.719  26.048  1.00  0.00     0.313 HD
ATOM     21  S   UNL A   1      32.046  22.318  22.834  1.00  0.00    -0.022 SA
ATOM     22  N   UNL A   1      31.204  22.819  25.151  1.00  0.00    -0.193 N 
ATOM     23  C   UNL A   1      31.429  24.095  24.679  1.00  0.00     0.324 C 
ATOM     24  C   UNL A   1      30.498  22.601  26.398  1.00  0.00     0.301 C 
ATOM     25  O   UNL A   1      31.168  25.114  25.309  1.00  0.00    -0.245 OA
BRANCH  18  26
ATOM     26  C   UNL A   1      33.163  19.783  24.680  1.00  0.00     0.128 A 
ATOM     27  C   UNL A   1      35.446  20.866  25.249  1.00  0.00     0.049 C 
ATOM     28  C   UNL A   1      34.570  19.731  24.800  1.00  0.00    -0.004 A 
ATOM     29  C   UNL A   1      35.247  18.529  24.500  1.00  0.00     0.008 A 
ATOM     30  C   UNL A   1      34.554  17.367  24.175  1.00  0.00     0.001 A 
ATOM     31  C   UNL A   1      32.493  18.596  24.331  1.00  0.00     0.052 A 
ATOM     32  C   UNL A   1      33.172  17.398  24.096  1.00  0.00     0.004 A 
ENDBRANCH  18  26
ENDBRANCH  16  17
ENDBRANCH  13  16
ENDBRANCH   7  12
ENDBRANCH   3   6
ENDBRANCH   1   2
BRANCH   1  33
ATOM     33  C   UNL A   1      33.420  32.128  27.668  1.00  0.00     0.042 C 
BRANCH  33  34
ATOM     34  C   UNL A   1      34.670  32.863  28.136  1.00  0.00     0.118 C 
BRANCH  34  35
ATOM     35  N   UNL A   1      34.813  32.938  29.590  1.00  0.00    -0.352 N 
ATOM     36  C   UNL A   1      35.507  32.091  30.448  1.00  0.00     0.251 C 
ATOM     37  H   UNL A   1      34.354  33.695  30.022  1.00  0.00     0.163 HD
ATOM     38  O   UNL A   1      35.560  32.313  31.640  1.00  0.00    -0.269 OA
BRANCH  36  39
ATOM     39  C   UNL A   1      36.292  30.980  29.854  1.00  0.00     0.039 A 
ATOM     40  C   UNL A   1      36.433  29.800  30.591  1.00  0.00     0.014 A 
ATOM     41  C   UNL A   1      37.083  31.215  28.737  1.00  0.00     0.014 A 
ATOM     42  C   UNL A   1      37.551  28.998  30.374  1.00  0.00     0.010 A 
ATOM     43  C   UNL A   1      38.255  30.499  28.610  1.00  0.00     0.010 A 
ATOM     44  C   UNL A   1      38.526  29.432  29.477  1.00  0.00    -0.014 A 
BRANCH  44  45
ATOM     45  C   UNL A   1      39.904  28.945  29.468  1.00  0.00     0.031 A 
ATOM     46  C   UNL A   1      40.218  27.565  29.032  1.00  0.00     0.074 A 
ATOM     47  C   UNL A   1      40.914  29.822  29.679  1.00  0.00     0.049 A 
ATOM     48  N   UNL A   1      41.366  26.998  29.198  1.00  0.00    -0.248 NA
ATOM     49  C   UNL A   1      39.241  26.693  28.390  1.00  0.00     0.031 C 
ATOM     50  C   UNL A   1      42.322  29.652  29.321  1.00  0.00     0.029 A 
ATOM     51  N   UNL A   1      40.896  31.003  30.442  1.00  0.00    -0.354 N 
ATOM     52  C   UNL A   1      41.367  25.820  28.492  1.00  0.00     0.074 A 
ATOM     53  C   UNL A   1      40.010  25.663  28.024  1.00  0.00     0.031 C 
ATOM     54  C   UNL A   1      43.066  30.472  30.078  1.00  0.00     0.029 A 
ATOM     55  C   UNL A   1      42.177  31.078  31.049  1.00  0.00     0.049 A 
ATOM     56  H   UNL A   1      40.153  31.641  30.536  1.00  0.00     0.167 HD
ATOM     57  C   UNL A   1      42.543  25.154  28.309  1.00  0.00     0.037 A 
ATOM     58  C   UNL A   1      42.326  31.004  32.404  1.00  0.00     0.037 A 
ATOM     59  C   UNL A   1      43.644  25.794  29.019  1.00  0.00     0.049 A 
ATOM     60  C   UNL A   1      43.167  29.842  32.894  1.00  0.00     0.074 A 
ATOM     61  C   UNL A   1      44.648  26.680  28.667  1.00  0.00     0.029 A 
ATOM     62  N   UNL A   1      43.633  25.759  30.399  1.00  0.00    -0.354 N 
ATOM     63  N   UNL A   1      43.649  28.908  32.123  1.00  0.00    -0.248 NA
ATOM     64  C   UNL A   1      43.429  29.582  34.311  1.00  0.00     0.031 C 
ATOM     65  C   UNL A   1      45.234  27.184  29.864  1.00  0.00     0.029 A 
ATOM     66  C   UNL A   1      44.584  26.601  30.936  1.00  0.00     0.049 A 
ATOM     67  H   UNL A   1      43.022  25.202  30.933  1.00  0.00     0.167 HD
ATOM     68  C   UNL A   1      44.182  27.916  32.899  1.00  0.00     0.074 A 
ATOM     69  C   UNL A   1      44.039  28.385  34.261  1.00  0.00     0.031 C 
ATOM     70  C   UNL A   1      44.651  26.748  32.377  1.00  0.00     0.037 A 
BRANCH  57  71
ATOM     71  C   UNL A   1      42.737  24.011  27.348  1.00  0.00     0.064 A 
ATOM     72  C   UNL A   1      42.465  22.683  27.746  1.00  0.00     0.173 A 
ATOM     73  C   UNL A   1      43.206  24.149  26.029  1.00  0.00     0.173 A 
ATOM     74  F   UNL A   1      41.933  22.406  28.943  1.00  0.00    -0.203 F 
ATOM     75  C   UNL A   1      42.737  21.585  26.927  1.00  0.00     0.198 A 
ATOM     76  C   UNL A   1      43.538  23.049  25.232  1.00  0.00     0.198 A 
ATOM     77  F   UNL A   1      43.306  25.353  25.450  1.00  0.00    -0.203 F 
ATOM     78  F   UNL A   1      42.451  20.348  27.358  1.00  0.00    -0.200 F 
ATOM     79  C   UNL A   1      43.310  21.766  25.685  1.00  0.00     0.200 A 
ATOM     80  F   UNL A   1      44.076  23.244  24.020  1.00  0.00    -0.200 F 
ATOM     81  F   UNL A   1      43.615  20.710  24.919  1.00  0.00    -0.200 F 
ENDBRANCH  57  71
BRANCH  58  82
ATOM     82  C   UNL A   1      41.160  31.567  33.133  1.00  0.00     0.064 A 
ATOM     83  C   UNL A   1      41.090  32.963  33.306  1.00  0.00     0.173 A 
ATOM     84  C   UNL A   1      39.978  30.832  33.281  1.00  0.00     0.173 A 
ATOM     85  F   UNL A   1      42.197  33.711  33.172  1.00  0.00    -0.203 F 
ATOM     86  C   UNL A   1      39.869  33.607  33.480  1.00  0.00     0.198 A 
ATOM     87  C   UNL A   1      38.759  31.480  33.477  1.00  0.00     0.198 A 
ATOM     88  F   UNL A   1      39.979  29.502  33.109  1.00  0.00    -0.203 F 
ATOM     89  F   UNL A   1      39.816  34.946  33.505  1.00  0.00    -0.200 F 
ATOM     90  C   UNL A   1      38.701  32.865  33.534  1.00  0.00     0.200 A 
ATOM     91  F   UNL A   1      37.625  30.766  33.499  1.00  0.00    -0.200 F 
ATOM     92  F   UNL A   1      37.514  33.485  33.589  1.00  0.00    -0.200 F 
ENDBRANCH  58  82
BRANCH  70  93
ATOM     93  C   UNL A   1      45.205  25.638  33.212  1.00  0.00     0.064 A 
ATOM     94  C   UNL A   1      46.576  25.347  33.243  1.00  0.00     0.173 A 
ATOM     95  C   UNL A   1      44.356  24.751  33.905  1.00  0.00     0.173 A 
ATOM     96  F   UNL A   1      47.453  26.124  32.589  1.00  0.00    -0.203 F 
ATOM     97  C   UNL A   1      47.069  24.241  33.938  1.00  0.00     0.198 A 
ATOM     98  C   UNL A   1      44.844  23.621  34.554  1.00  0.00     0.198 A 
ATOM     99  F   UNL A   1      43.035  24.975  33.986  1.00  0.00    -0.203 F 
ATOM    100  F   UNL A   1      48.389  24.016  33.978  1.00  0.00    -0.200 F 
ATOM    101  C   UNL A   1      46.202  23.369  34.577  1.00  0.00     0.200 A 
ATOM    102  F   UNL A   1      43.992  22.782  35.159  1.00  0.00    -0.200 F 
ATOM    103  F   UNL A   1      46.675  22.293  35.219  1.00  0.00    -0.200 F 
ENDBRANCH  70  93
ENDBRANCH  44  45
ENDBRANCH  36  39
ENDBRANCH  34  35
ENDBRANCH  33  34
ENDBRANCH   1  33
TORSDOF 14
ENDMDL
MODEL 3
REMARK VINA RESULT:     -14.1      1.280      1.893
REMARK SMILES Cc1ccccc1/[NH+]=C1\S[C@@H](CC(=O)Nc2ccc(C(=O)NCCCNC(=O)c3ccc(-c4c5nc(c(-c6c(F)c(F)c(F)c(F)c6F)c6ccc([nH]6)c(-c6c(F)c(F)c(F)c(F)c6F)c6nc(c(-c7c(F)c(F)c(F)c(F)c7F)c7ccc4[nH]7)C=C6)C=C5)cc3)cc2)C(=O)N1C
REMARK SMILES IDX 23 1 22 2 20 3 21 4 19 6 16 7 17 8 93 9 18 10 92 11 15 12
REMARK SMILES IDX 13 13 14 14 12 16 11 17 8 18 9 19 10 21 96 22 94 23 97 24
REMARK SMILES IDX 95 25 7 26 1 27 2 28 3 29 4 30 6 31 5 32 24 33 25 34 26 35
REMARK SMILES IDX 27 36 28 38 29 39 30 40 91 41 31 42 90 43 32 44 33 45 34 46
REMARK SMILES IDX 84 47 35 48 89 49 83 50 85 51 36 52 88 53 82 54 81 55 37 57
REMARK SMILES IDX 69 58 49 59 68 60 50 61 53 62 67 63 86 64 51 65 52 66 66 68
REMARK SMILES IDX 87 69 54 70 38 71 39 72 47 73 40 74 41 75 45 76 48 77 42 78
REMARK SMILES IDX 43 79 46 80 44 81 70 82 71 83 79 84 72 85 73 86 77 87 80 88
REMARK SMILES IDX 74 89 75 90 78 91 76 92 55 93 56 94 64 95 57 96 58 97 62 98
REMARK SMILES IDX 65 99 59 100 60 101 63 102 61 103
REMARK H PARENT 22 5 15 15 8 20 26 37 85 56 53 67
REMARK Flexibility Score: inf
ROOT
ATOM      1  C   UNL A   1      37.053  21.196  24.829  1.00  0.00     0.118 C 
ENDROOT
BRANCH   1   2
ATOM      2  N   UNL A   1      36.423  19.877  24.850  1.00  0.00    -0.352 N 
ATOM      3  C   UNL A   1      35.090  19.517  24.821  1.00  0.00     0.251 C 
ATOM      4  O   UNL A   1      34.792  18.347  24.591  1.00  0.00    -0.269 OA
ATOM      5  H   UNL A   1      37.052  19.122  24.893  1.00  0.00     0.163 HD
BRANCH   3   6
ATOM      6  C   UNL A   1      34.004  20.503  25.045  1.00  0.00     0.039 A 
ATOM      7  C   UNL A   1      31.878  22.256  25.528  1.00  0.00     0.041 A 
ATOM      8  C   UNL A   1      32.177  21.840  24.235  1.00  0.00     0.027 A 
ATOM      9  C   UNL A   1      32.751  21.950  26.564  1.00  0.00     0.027 A 
ATOM     10  C   UNL A   1      33.231  20.970  23.992  1.00  0.00     0.016 A 
ATOM     11  C   UNL A   1      33.810  21.058  26.322  1.00  0.00     0.016 A 
BRANCH   7  12
ATOM     12  N   UNL A   1      30.681  22.943  25.766  1.00  0.00    -0.326 N 
ATOM     13  C   UNL A   1      30.576  24.137  26.452  1.00  0.00     0.226 C 
ATOM     14  O   UNL A   1      29.490  24.536  26.869  1.00  0.00    -0.275 OA
ATOM     15  H   UNL A   1      29.851  22.544  25.417  1.00  0.00     0.169 HD
BRANCH  13  16
ATOM     16  C   UNL A   1      31.807  25.035  26.477  1.00  0.00     0.128 C 
BRANCH  16  17
ATOM     17  C   UNL A   1      31.873  26.126  25.430  1.00  0.00     0.183 C 
ATOM     18  N   UNL A   1      30.361  28.156  22.703  1.00  0.00    -0.234 N 
ATOM     19  C   UNL A   1      30.687  27.170  23.455  1.00  0.00     0.319 C 
ATOM     20  H   UNL A   1      30.728  28.128  21.790  1.00  0.00     0.313 HD
ATOM     21  S   UNL A   1      30.178  26.727  25.049  1.00  0.00    -0.022 SA
ATOM     22  N   UNL A   1      31.635  26.277  23.049  1.00  0.00    -0.193 N 
ATOM     23  C   UNL A   1      32.425  25.771  24.061  1.00  0.00     0.324 C 
ATOM     24  C   UNL A   1      31.970  26.046  21.659  1.00  0.00     0.301 C 
ATOM     25  O   UNL A   1      33.499  25.210  23.876  1.00  0.00    -0.245 OA
BRANCH  18  26
ATOM     26  C   UNL A   1      29.558  29.270  22.993  1.00  0.00     0.128 A 
ATOM     27  C   UNL A   1      31.000  30.361  24.848  1.00  0.00     0.049 C 
ATOM     28  C   UNL A   1      29.849  30.329  23.882  1.00  0.00    -0.004 A 
ATOM     29  C   UNL A   1      29.027  31.477  23.885  1.00  0.00     0.008 A 
ATOM     30  C   UNL A   1      27.990  31.629  22.970  1.00  0.00     0.001 A 
ATOM     31  C   UNL A   1      28.491  29.447  22.092  1.00  0.00     0.052 A 
ATOM     32  C   UNL A   1      27.724  30.615  22.066  1.00  0.00     0.004 A 
ENDBRANCH  18  26
ENDBRANCH  16  17
ENDBRANCH  13  16
ENDBRANCH   7  12
ENDBRANCH   3   6
ENDBRANCH   1   2
BRANCH   1  33
ATOM     33  C   UNL A   1      38.448  21.207  25.453  1.00  0.00     0.042 C 
BRANCH  33  34
ATOM     34  C   UNL A   1      38.862  22.539  26.069  1.00  0.00     0.118 C 
BRANCH  34  35
ATOM     35  N   UNL A   1      40.295  22.653  26.344  1.00  0.00    -0.352 N 
ATOM     36  C   UNL A   1      41.033  23.779  26.694  1.00  0.00     0.251 C 
ATOM     37  H   UNL A   1      40.808  21.816  26.272  1.00  0.00     0.163 HD
ATOM     38  O   UNL A   1      42.222  23.701  26.928  1.00  0.00    -0.269 OA
BRANCH  36  39
ATOM     39  C   UNL A   1      40.307  25.056  26.905  1.00  0.00     0.039 A 
ATOM     40  C   UNL A   1      40.715  26.179  26.176  1.00  0.00     0.014 A 
ATOM     41  C   UNL A   1      39.446  25.190  27.986  1.00  0.00     0.014 A 
ATOM     42  C   UNL A   1      40.486  27.447  26.705  1.00  0.00     0.010 A 
ATOM     43  C   UNL A   1      39.335  26.432  28.576  1.00  0.00     0.010 A 
ATOM     44  C   UNL A   1      39.919  27.554  27.973  1.00  0.00    -0.014 A 
BRANCH  44  45
ATOM     45  C   UNL A   1      40.015  28.745  28.815  1.00  0.00     0.031 A 
ATOM     46  C   UNL A   1      38.973  29.796  28.764  1.00  0.00     0.074 A 
ATOM     47  C   UNL A   1      40.964  28.795  29.779  1.00  0.00     0.049 A 
ATOM     48  N   UNL A   1      39.094  30.960  29.308  1.00  0.00    -0.248 NA
ATOM     49  C   UNL A   1      37.705  29.624  28.065  1.00  0.00     0.031 C 
ATOM     50  C   UNL A   1      40.983  29.662  30.957  1.00  0.00     0.029 A 
ATOM     51  N   UNL A   1      42.226  28.174  29.793  1.00  0.00    -0.354 N 
ATOM     52  C   UNL A   1      37.873  31.588  29.252  1.00  0.00     0.074 A 
ATOM     53  C   UNL A   1      37.044  30.722  28.446  1.00  0.00     0.031 C 
ATOM     54  C   UNL A   1      42.244  29.766  31.401  1.00  0.00     0.029 A 
ATOM     55  C   UNL A   1      43.093  29.097  30.435  1.00  0.00     0.049 A 
ATOM     56  H   UNL A   1      42.458  27.288  29.432  1.00  0.00     0.167 HD
ATOM     57  C   UNL A   1      37.676  32.729  29.972  1.00  0.00     0.037 A 
ATOM     58  C   UNL A   1      44.133  29.676  29.767  1.00  0.00     0.037 A 
ATOM     59  C   UNL A   1      38.898  33.166  30.638  1.00  0.00     0.049 A 
ATOM     60  C   UNL A   1      44.074  31.188  29.677  1.00  0.00     0.074 A 
ATOM     61  C   UNL A   1      39.418  33.025  31.915  1.00  0.00     0.029 A 
ATOM     62  N   UNL A   1      39.935  33.628  29.853  1.00  0.00    -0.354 N 
ATOM     63  N   UNL A   1      43.078  31.911  30.107  1.00  0.00    -0.248 NA
ATOM     64  C   UNL A   1      45.086  31.991  28.989  1.00  0.00     0.031 C 
ATOM     65  C   UNL A   1      40.791  33.402  31.877  1.00  0.00     0.029 A 
ATOM     66  C   UNL A   1      41.097  33.771  30.581  1.00  0.00     0.049 A 
ATOM     67  H   UNL A   1      39.855  33.829  28.893  1.00  0.00     0.167 HD
ATOM     68  C   UNL A   1      43.251  33.204  29.696  1.00  0.00     0.074 A 
ATOM     69  C   UNL A   1      44.529  33.214  29.014  1.00  0.00     0.031 C 
ATOM     70  C   UNL A   1      42.308  34.168  29.889  1.00  0.00     0.037 A 
BRANCH  57  71
ATOM     71  C   UNL A   1      36.333  33.367  30.214  1.00  0.00     0.064 A 
ATOM     72  C   UNL A   1      35.602  33.928  29.145  1.00  0.00     0.173 A 
ATOM     73  C   UNL A   1      35.719  33.476  31.474  1.00  0.00     0.173 A 
ATOM     74  F   UNL A   1      36.022  33.823  27.878  1.00  0.00    -0.203 F 
ATOM     75  C   UNL A   1      34.408  34.627  29.339  1.00  0.00     0.198 A 
ATOM     76  C   UNL A   1      34.558  34.228  31.679  1.00  0.00     0.198 A 
ATOM     77  F   UNL A   1      36.190  32.812  32.538  1.00  0.00    -0.203 F 
ATOM     78  F   UNL A   1      33.756  35.132  28.283  1.00  0.00    -0.200 F 
ATOM     79  C   UNL A   1      33.907  34.810  30.611  1.00  0.00     0.200 A 
ATOM     80  F   UNL A   1      34.073  34.380  32.920  1.00  0.00    -0.200 F 
ATOM     81  F   UNL A   1      32.787  35.521  30.802  1.00  0.00    -0.200 F 
ENDBRANCH  57  71
BRANCH  58  82
ATOM     82  C   UNL A   1      44.691  28.791  28.713  1.00  0.00     0.064 A 
ATOM     83  C   UNL A   1      45.510  27.715  29.109  1.00  0.00     0.173 A 
ATOM     84  C   UNL A   1      44.123  28.742  27.435  1.00  0.00     0.173 A 
ATOM     85  F   UNL A   1      46.076  27.716  30.326  1.00  0.00    -0.203 F 
ATOM     86  C   UNL A   1      45.638  26.578  28.316  1.00  0.00     0.198 A 
ATOM     87  C   UNL A   1      44.271  27.609  26.636  1.00  0.00     0.198 A 
ATOM     88  F   UNL A   1      43.320  29.728  27.010  1.00  0.00    -0.203 F 
ATOM     89  F   UNL A   1      46.310  25.514  28.777  1.00  0.00    -0.200 F 
ATOM     90  C   UNL A   1      44.992  26.514  27.093  1.00  0.00     0.200 A 
ATOM     91  F   UNL A   1      43.622  27.534  25.465  1.00  0.00    -0.200 F 
ATOM     92  F   UNL A   1      45.019  25.383  26.377  1.00  0.00    -0.200 F 
ENDBRANCH  58  82
BRANCH  70  93
ATOM     93  C   UNL A   1      42.465  35.578  29.416  1.00  0.00     0.064 A 
ATOM     94  C   UNL A   1      41.940  36.010  28.189  1.00  0.00     0.173 A 
ATOM     95  C   UNL A   1      43.259  36.503  30.123  1.00  0.00     0.173 A 
ATOM     96  F   UNL A   1      41.195  35.186  27.438  1.00  0.00    -0.203 F 
ATOM     97  C   UNL A   1      42.187  37.297  27.707  1.00  0.00     0.198 A 
ATOM     98  C   UNL A   1      43.544  37.768  29.617  1.00  0.00     0.198 A 
ATOM     99  F   UNL A   1      43.757  36.208  31.334  1.00  0.00    -0.203 F 
ATOM    100  F   UNL A   1      41.638  37.689  26.549  1.00  0.00    -0.200 F 
ATOM    101  C   UNL A   1      43.002  38.168  28.411  1.00  0.00     0.200 A 
ATOM    102  F   UNL A   1      44.344  38.594  30.305  1.00  0.00    -0.200 F 
ATOM    103  F   UNL A   1      43.260  39.392  27.932  1.00  0.00    -0.200 F 
ENDBRANCH  70  93
ENDBRANCH  44  45
ENDBRANCH  36  39
ENDBRANCH  34  35
ENDBRANCH  33  34
ENDBRANCH   1  33
TORSDOF 14
ENDMDL
