MODEL 1
REMARK VINA RESULT:     -12.0      0.000      0.000
REMARK SMILES CCn1ccc([C@@H](C)NC(=O)[C@H](C)n2ccc(C(=O)NCCCNC(=O)c3ccc(-c4c5nc(c(-c6c(F)c(F)c(F)c(F)c6F)c6ccc([nH]6)c(-c6c(F)c(F)c(F)c(F)c6F)c6nc(c(-c7c(F)c(F)c(F)c(F)c7F)c7ccc4[nH]7)C=C6)C=C5)cc3)n2)n1
REMARK SMILES IDX 18 1 19 2 20 3 17 5 14 6 15 7 90 8 16 9 12 10 13 11 10 12
REMARK SMILES IDX 9 13 11 15 7 16 8 17 6 18 3 19 4 20 91 21 5 22 2 23 1 24
REMARK SMILES IDX 21 25 22 26 23 27 24 28 25 29 26 31 27 32 28 33 89 34 29 35
REMARK SMILES IDX 88 36 30 37 31 38 32 39 82 40 33 41 87 42 81 43 83 44 34 45
REMARK SMILES IDX 86 46 80 47 79 48 35 50 67 51 47 52 66 53 48 54 51 55 65 56
REMARK SMILES IDX 84 57 49 58 50 59 64 61 85 62 52 63 36 64 37 65 45 66 38 67
REMARK SMILES IDX 39 68 43 69 46 70 40 71 41 72 44 73 42 74 68 75 69 76 77 77
REMARK SMILES IDX 70 78 71 79 75 80 78 81 72 82 73 83 76 84 74 85 53 86 54 87
REMARK SMILES IDX 62 88 55 89 56 90 60 91 63 92 57 93 58 94 61 95 59 96
REMARK H PARENT 20 4 9 14 24 30 83 49 51 60
REMARK Flexibility Score: inf
ROOT
ATOM      1  C   UNL A   1      38.996  22.421  26.145  1.00  0.00     0.271 C 
ATOM      2  O   UNL A   1      38.987  23.642  26.055  1.00  0.00    -0.267 OA
ATOM      3  N   UNL A   1      40.109  21.832  26.715  1.00  0.00    -0.351 N 
ATOM      4  H   UNL A   1      40.826  22.461  26.961  1.00  0.00     0.163 HD
ENDROOT
BRANCH   1   5
ATOM      5  C   UNL A   1      37.847  21.604  25.714  1.00  0.00     0.150 A 
ATOM      6  N   UNL A   1      35.846  20.950  25.335  1.00  0.00    -0.260 N 
ATOM      7  C   UNL A   1      36.637  20.021  24.725  1.00  0.00     0.110 A 
ATOM      8  N   UNL A   1      36.562  21.923  25.933  1.00  0.00    -0.167 NA
ATOM      9  C   UNL A   1      37.933  20.376  25.009  1.00  0.00     0.056 A 
BRANCH   6  10
ATOM     10  C   UNL A   1      34.392  21.074  25.336  1.00  0.00     0.193 C 
ATOM     11  C   UNL A   1      33.586  19.780  25.201  1.00  0.00     0.044 C 
BRANCH  10  12
ATOM     12  C   UNL A   1      33.910  21.967  26.477  1.00  0.00     0.245 C 
ATOM     13  N   UNL A   1      33.677  23.301  26.323  1.00  0.00    -0.346 N 
ATOM     14  H   UNL A   1      33.414  23.771  27.147  1.00  0.00     0.164 HD
ATOM     15  O   UNL A   1      33.773  21.510  27.619  1.00  0.00    -0.273 OA
BRANCH  13  16
ATOM     16  C   UNL A   1      33.754  24.145  25.136  1.00  0.00     0.130 C 
ATOM     17  C   UNL A   1      34.356  25.501  25.485  1.00  0.00     0.038 C 
BRANCH  16  18
ATOM     18  C   UNL A   1      32.384  24.256  24.525  1.00  0.00     0.084 A 
ATOM     19  N   UNL A   1      30.503  25.128  24.056  1.00  0.00    -0.273 N 
ATOM     20  C   UNL A   1      30.530  23.962  23.346  1.00  0.00     0.109 A 
ATOM     21  N   UNL A   1      31.603  25.307  24.811  1.00  0.00    -0.176 NA
ATOM     22  C   UNL A   1      31.737  23.369  23.630  1.00  0.00     0.047 A 
BRANCH  19  23
ATOM     23  C   UNL A   1      29.492  26.168  24.015  1.00  0.00     0.141 C 
ATOM     24  C   UNL A   1      30.019  27.532  23.605  1.00  0.00     0.029 C 
ENDBRANCH  19  23
ENDBRANCH  16  18
ENDBRANCH  13  16
ENDBRANCH  10  12
ENDBRANCH   6  10
ENDBRANCH   1   5
BRANCH   3  25
ATOM     25  C   UNL A   1      40.396  20.437  27.012  1.00  0.00     0.118 C 
BRANCH  25  26
ATOM     26  C   UNL A   1      41.350  19.813  25.990  1.00  0.00     0.042 C 
BRANCH  26  27
ATOM     27  C   UNL A   1      42.743  19.604  26.571  1.00  0.00     0.118 C 
BRANCH  27  28
ATOM     28  N   UNL A   1      43.754  19.387  25.534  1.00  0.00    -0.352 N 
ATOM     29  C   UNL A   1      44.401  20.319  24.751  1.00  0.00     0.251 C 
ATOM     30  H   UNL A   1      44.007  18.449  25.374  1.00  0.00     0.163 HD
ATOM     31  O   UNL A   1      44.959  19.987  23.713  1.00  0.00    -0.269 OA
BRANCH  29  32
ATOM     32  C   UNL A   1      44.405  21.730  25.172  1.00  0.00     0.039 A 
ATOM     33  C   UNL A   1      43.450  22.617  24.668  1.00  0.00     0.014 A 
ATOM     34  C   UNL A   1      45.357  22.157  26.096  1.00  0.00     0.014 A 
ATOM     35  C   UNL A   1      43.404  23.910  25.177  1.00  0.00     0.010 A 
ATOM     36  C   UNL A   1      45.236  23.394  26.689  1.00  0.00     0.010 A 
ATOM     37  C   UNL A   1      44.275  24.282  26.219  1.00  0.00    -0.014 A 
BRANCH  37  38
ATOM     38  C   UNL A   1      44.028  25.522  26.954  1.00  0.00     0.031 A 
ATOM     39  C   UNL A   1      44.987  26.599  26.592  1.00  0.00     0.074 A 
ATOM     40  C   UNL A   1      42.946  25.752  27.734  1.00  0.00     0.049 A 
ATOM     41  N   UNL A   1      45.936  27.063  27.331  1.00  0.00    -0.248 NA
ATOM     42  C   UNL A   1      45.031  27.089  25.202  1.00  0.00     0.031 C 
ATOM     43  C   UNL A   1      41.787  24.874  27.921  1.00  0.00     0.029 A 
ATOM     44  N   UNL A   1      42.595  26.863  28.451  1.00  0.00    -0.354 N 
ATOM     45  C   UNL A   1      46.525  28.086  26.595  1.00  0.00     0.074 A 
ATOM     46  C   UNL A   1      46.083  27.912  25.238  1.00  0.00     0.031 C 
ATOM     47  C   UNL A   1      40.773  25.571  28.479  1.00  0.00     0.029 A 
ATOM     48  C   UNL A   1      41.259  26.889  28.846  1.00  0.00     0.049 A 
ATOM     49  H   UNL A   1      43.231  27.582  28.669  1.00  0.00     0.167 HD
ATOM     50  C   UNL A   1      47.020  29.174  27.248  1.00  0.00     0.037 A 
ATOM     51  C   UNL A   1      40.589  27.919  29.423  1.00  0.00     0.037 A 
ATOM     52  C   UNL A   1      47.148  28.886  28.657  1.00  0.00     0.049 A 
ATOM     53  C   UNL A   1      41.598  28.799  30.052  1.00  0.00     0.074 A 
ATOM     54  C   UNL A   1      47.933  28.086  29.457  1.00  0.00     0.029 A 
ATOM     55  N   UNL A   1      46.018  29.186  29.365  1.00  0.00    -0.354 N 
ATOM     56  N   UNL A   1      42.298  28.455  31.096  1.00  0.00    -0.248 NA
ATOM     57  C   UNL A   1      42.096  29.953  29.315  1.00  0.00     0.031 C 
ATOM     58  C   UNL A   1      47.142  27.782  30.609  1.00  0.00     0.029 A 
ATOM     59  C   UNL A   1      45.927  28.457  30.513  1.00  0.00     0.049 A 
ATOM     60  H   UNL A   1      45.348  29.849  29.080  1.00  0.00     0.167 HD
ATOM     61  C   UNL A   1      43.535  29.021  30.867  1.00  0.00     0.074 A 
ATOM     62  C   UNL A   1      43.296  30.077  29.889  1.00  0.00     0.031 C 
ATOM     63  C   UNL A   1      44.670  28.349  31.218  1.00  0.00     0.037 A 
BRANCH  50  64
ATOM     64  C   UNL A   1      46.823  30.612  26.790  1.00  0.00     0.064 A 
ATOM     65  C   UNL A   1      47.910  31.507  26.899  1.00  0.00     0.173 A 
ATOM     66  C   UNL A   1      45.561  31.220  26.607  1.00  0.00     0.173 A 
ATOM     67  F   UNL A   1      49.154  31.047  27.106  1.00  0.00    -0.203 F 
ATOM     68  C   UNL A   1      47.733  32.895  26.910  1.00  0.00     0.198 A 
ATOM     69  C   UNL A   1      45.395  32.604  26.569  1.00  0.00     0.198 A 
ATOM     70  F   UNL A   1      44.422  30.521  26.582  1.00  0.00    -0.203 F 
ATOM     71  F   UNL A   1      48.775  33.700  27.152  1.00  0.00    -0.200 F 
ATOM     72  C   UNL A   1      46.473  33.442  26.752  1.00  0.00     0.200 A 
ATOM     73  F   UNL A   1      44.160  33.113  26.448  1.00  0.00    -0.200 F 
ATOM     74  F   UNL A   1      46.288  34.766  26.828  1.00  0.00    -0.200 F 
ENDBRANCH  50  64
BRANCH  51  75
ATOM     75  C   UNL A   1      39.164  28.320  29.319  1.00  0.00     0.064 A 
ATOM     76  C   UNL A   1      38.359  28.442  30.467  1.00  0.00     0.173 A 
ATOM     77  C   UNL A   1      38.652  28.889  28.138  1.00  0.00     0.173 A 
ATOM     78  F   UNL A   1      38.779  27.956  31.643  1.00  0.00    -0.203 F 
ATOM     79  C   UNL A   1      37.144  29.139  30.446  1.00  0.00     0.198 A 
ATOM     80  C   UNL A   1      37.438  29.580  28.117  1.00  0.00     0.198 A 
ATOM     81  F   UNL A   1      39.367  28.878  27.004  1.00  0.00    -0.203 F 
ATOM     82  F   UNL A   1      36.448  29.303  31.580  1.00  0.00    -0.200 F 
ATOM     83  C   UNL A   1      36.694  29.721  29.275  1.00  0.00     0.200 A 
ATOM     84  F   UNL A   1      37.027  30.170  26.985  1.00  0.00    -0.200 F 
ATOM     85  F   UNL A   1      35.573  30.456  29.271  1.00  0.00    -0.200 F 
ENDBRANCH  51  75
BRANCH  63  86
ATOM     86  C   UNL A   1      44.560  27.345  32.322  1.00  0.00     0.064 A 
ATOM     87  C   UNL A   1      44.529  27.648  33.693  1.00  0.00     0.173 A 
ATOM     88  C   UNL A   1      44.431  25.998  31.952  1.00  0.00     0.173 A 
ATOM     89  F   UNL A   1      44.562  28.916  34.125  1.00  0.00    -0.203 F 
ATOM     90  C   UNL A   1      44.428  26.637  34.648  1.00  0.00     0.198 A 
ATOM     91  C   UNL A   1      44.287  24.997  32.904  1.00  0.00     0.198 A 
ATOM     92  F   UNL A   1      44.417  25.657  30.654  1.00  0.00    -0.203 F 
ATOM     93  F   UNL A   1      44.435  26.942  35.953  1.00  0.00    -0.200 F 
ATOM     94  C   UNL A   1      44.302  25.315  34.251  1.00  0.00     0.200 A 
ATOM     95  F   UNL A   1      44.121  23.728  32.511  1.00  0.00    -0.200 F 
ATOM     96  F   UNL A   1      44.178  24.345  35.168  1.00  0.00    -0.200 F 
ENDBRANCH  63  86
ENDBRANCH  37  38
ENDBRANCH  29  32
ENDBRANCH  27  28
ENDBRANCH  26  27
ENDBRANCH  25  26
ENDBRANCH   3  25
TORSDOF 15
ENDMDL
MODEL 2
REMARK VINA RESULT:     -11.5      2.507      4.077
REMARK SMILES CCn1ccc([C@@H](C)NC(=O)[C@H](C)n2ccc(C(=O)NCCCNC(=O)c3ccc(-c4c5nc(c(-c6c(F)c(F)c(F)c(F)c6F)c6ccc([nH]6)c(-c6c(F)c(F)c(F)c(F)c6F)c6nc(c(-c7c(F)c(F)c(F)c(F)c7F)c7ccc4[nH]7)C=C6)C=C5)cc3)n2)n1
REMARK SMILES IDX 18 1 19 2 20 3 17 5 14 6 15 7 90 8 16 9 12 10 13 11 10 12
REMARK SMILES IDX 9 13 11 15 7 16 8 17 6 18 3 19 4 20 91 21 5 22 2 23 1 24
REMARK SMILES IDX 21 25 22 26 23 27 24 28 25 29 26 31 27 32 28 33 89 34 29 35
REMARK SMILES IDX 88 36 30 37 31 38 32 39 82 40 33 41 87 42 81 43 83 44 34 45
REMARK SMILES IDX 86 46 80 47 79 48 35 50 67 51 47 52 66 53 48 54 51 55 65 56
REMARK SMILES IDX 84 57 49 58 50 59 64 61 85 62 52 63 36 64 37 65 45 66 38 67
REMARK SMILES IDX 39 68 43 69 46 70 40 71 41 72 44 73 42 74 68 75 69 76 77 77
REMARK SMILES IDX 70 78 71 79 75 80 78 81 72 82 73 83 76 84 74 85 53 86 54 87
REMARK SMILES IDX 62 88 55 89 56 90 60 91 63 92 57 93 58 94 61 95 59 96
REMARK H PARENT 20 4 9 14 24 30 83 49 51 60
REMARK Flexibility Score: inf
ROOT
ATOM      1  C   UNL A   1      33.906  19.890  24.669  1.00  0.00     0.271 C 
ATOM      2  O   UNL A   1      33.596  18.719  24.492  1.00  0.00    -0.267 OA
ATOM      3  N   UNL A   1      35.175  20.146  25.152  1.00  0.00    -0.351 N 
ATOM      4  H   UNL A   1      35.707  19.343  25.356  1.00  0.00     0.163 HD
ENDROOT
BRANCH   1   5
ATOM      5  C   UNL A   1      32.989  20.994  24.332  1.00  0.00     0.150 A 
ATOM      6  N   UNL A   1      31.738  22.720  24.500  1.00  0.00    -0.260 N 
ATOM      7  C   UNL A   1      31.794  22.461  23.162  1.00  0.00     0.110 A 
ATOM      8  N   UNL A   1      32.463  21.846  25.226  1.00  0.00    -0.167 NA
ATOM      9  C   UNL A   1      32.538  21.314  23.026  1.00  0.00     0.056 A 
BRANCH   6  10
ATOM     10  C   UNL A   1      31.103  23.831  25.205  1.00  0.00     0.193 C 
ATOM     11  C   UNL A   1      30.382  23.499  26.514  1.00  0.00     0.044 C 
BRANCH  10  12
ATOM     12  C   UNL A   1      32.044  25.027  25.322  1.00  0.00     0.245 C 
ATOM     13  N   UNL A   1      32.042  26.059  24.431  1.00  0.00    -0.346 N 
ATOM     14  H   UNL A   1      32.729  26.744  24.593  1.00  0.00     0.164 HD
ATOM     15  O   UNL A   1      32.902  25.068  26.213  1.00  0.00    -0.273 OA
BRANCH  13  16
ATOM     16  C   UNL A   1      31.187  26.311  23.277  1.00  0.00     0.130 C 
ATOM     17  C   UNL A   1      31.922  25.972  21.986  1.00  0.00     0.038 C 
BRANCH  16  18
ATOM     18  C   UNL A   1      30.714  27.738  23.320  1.00  0.00     0.084 A 
ATOM     19  N   UNL A   1      29.624  29.469  22.743  1.00  0.00    -0.273 N 
ATOM     20  C   UNL A   1      30.289  29.842  23.876  1.00  0.00     0.109 A 
ATOM     21  N   UNL A   1      29.900  28.207  22.365  1.00  0.00    -0.176 NA
ATOM     22  C   UNL A   1      31.010  28.742  24.275  1.00  0.00     0.047 A 
BRANCH  19  23
ATOM     23  C   UNL A   1      28.646  30.238  21.995  1.00  0.00     0.141 C 
ATOM     24  C   UNL A   1      27.654  30.993  22.864  1.00  0.00     0.029 C 
ENDBRANCH  19  23
ENDBRANCH  16  18
ENDBRANCH  13  16
ENDBRANCH  10  12
ENDBRANCH   6  10
ENDBRANCH   1   5
BRANCH   3  25
ATOM     25  C   UNL A   1      35.854  21.408  25.410  1.00  0.00     0.118 C 
BRANCH  25  26
ATOM     26  C   UNL A   1      37.161  21.531  24.621  1.00  0.00     0.042 C 
BRANCH  26  27
ATOM     27  C   UNL A   1      38.210  22.329  25.385  1.00  0.00     0.118 C 
BRANCH  27  28
ATOM     28  N   UNL A   1      38.943  21.509  26.352  1.00  0.00    -0.352 N 
ATOM     29  C   UNL A   1      40.026  21.855  27.131  1.00  0.00     0.251 C 
ATOM     30  H   UNL A   1      38.618  20.586  26.460  1.00  0.00     0.163 HD
ATOM     31  O   UNL A   1      40.738  20.994  27.633  1.00  0.00    -0.269 OA
BRANCH  29  32
ATOM     32  C   UNL A   1      40.327  23.280  27.347  1.00  0.00     0.039 A 
ATOM     33  C   UNL A   1      39.319  24.238  27.225  1.00  0.00     0.014 A 
ATOM     34  C   UNL A   1      41.625  23.651  27.698  1.00  0.00     0.014 A 
ATOM     35  C   UNL A   1      39.607  25.558  27.555  1.00  0.00     0.010 A 
ATOM     36  C   UNL A   1      41.880  24.929  28.142  1.00  0.00     0.010 A 
ATOM     37  C   UNL A   1      40.881  25.891  28.052  1.00  0.00    -0.014 A 
BRANCH  37  38
ATOM     38  C   UNL A   1      41.089  27.197  28.679  1.00  0.00     0.031 A 
ATOM     39  C   UNL A   1      42.257  27.921  28.109  1.00  0.00     0.074 A 
ATOM     40  C   UNL A   1      40.226  27.785  29.539  1.00  0.00     0.049 A 
ATOM     41  N   UNL A   1      43.385  28.138  28.694  1.00  0.00    -0.248 NA
ATOM     42  C   UNL A   1      42.256  28.281  26.680  1.00  0.00     0.031 C 
ATOM     43  C   UNL A   1      38.901  27.297  29.935  1.00  0.00     0.029 A 
ATOM     44  N   UNL A   1      40.297  28.996  30.171  1.00  0.00    -0.354 N 
ATOM     45  C   UNL A   1      44.137  28.893  27.799  1.00  0.00     0.074 A 
ATOM     46  C   UNL A   1      43.492  28.763  26.522  1.00  0.00     0.031 C 
ATOM     47  C   UNL A   1      38.205  28.294  30.522  1.00  0.00     0.029 A 
ATOM     48  C   UNL A   1      39.084  29.436  30.699  1.00  0.00     0.049 A 
ATOM     49  H   UNL A   1      41.132  29.512  30.248  1.00  0.00     0.167 HD
ATOM     50  C   UNL A   1      44.998  29.831  28.282  1.00  0.00     0.037 A 
ATOM     51  C   UNL A   1      38.812  30.653  31.235  1.00  0.00     0.037 A 
ATOM     52  C   UNL A   1      45.222  29.616  29.692  1.00  0.00     0.049 A 
ATOM     53  C   UNL A   1      40.099  31.242  31.662  1.00  0.00     0.074 A 
ATOM     54  C   UNL A   1      45.847  28.678  30.484  1.00  0.00     0.029 A 
ATOM     55  N   UNL A   1      44.322  30.279  30.480  1.00  0.00    -0.354 N 
ATOM     56  N   UNL A   1      40.804  30.781  32.656  1.00  0.00    -0.248 NA
ATOM     57  C   UNL A   1      40.802  32.148  30.762  1.00  0.00     0.031 C 
ATOM     58  C   UNL A   1      45.159  28.697  31.737  1.00  0.00     0.029 A 
ATOM     59  C   UNL A   1      44.180  29.688  31.700  1.00  0.00     0.049 A 
ATOM     60  H   UNL A   1      43.835  31.087  30.200  1.00  0.00     0.167 HD
ATOM     61  C   UNL A   1      42.109  30.946  32.242  1.00  0.00     0.074 A 
ATOM     62  C   UNL A   1      42.051  31.956  31.192  1.00  0.00     0.031 C 
ATOM     63  C   UNL A   1      43.046  29.998  32.539  1.00  0.00     0.037 A 
BRANCH  50  64
ATOM     64  C   UNL A   1      45.155  31.230  27.702  1.00  0.00     0.064 A 
ATOM     65  C   UNL A   1      46.457  31.696  27.414  1.00  0.00     0.173 A 
ATOM     66  C   UNL A   1      44.160  32.231  27.765  1.00  0.00     0.173 A 
ATOM     67  F   UNL A   1      47.490  30.841  27.359  1.00  0.00    -0.203 F 
ATOM     68  C   UNL A   1      46.748  33.059  27.286  1.00  0.00     0.198 A 
ATOM     69  C   UNL A   1      44.446  33.584  27.587  1.00  0.00     0.198 A 
ATOM     70  F   UNL A   1      42.898  31.969  28.121  1.00  0.00    -0.203 F 
ATOM     71  F   UNL A   1      48.018  33.460  27.147  1.00  0.00    -0.200 F 
ATOM     72  C   UNL A   1      45.741  34.002  27.379  1.00  0.00     0.200 A 
ATOM     73  F   UNL A   1      43.461  34.485  27.715  1.00  0.00    -0.200 F 
ATOM     74  F   UNL A   1      46.023  35.310  27.323  1.00  0.00    -0.200 F 
ENDBRANCH  50  64
BRANCH  51  75
ATOM     75  C   UNL A   1      37.555  31.443  31.239  1.00  0.00     0.064 A 
ATOM     76  C   UNL A   1      36.857  31.688  32.437  1.00  0.00     0.173 A 
ATOM     77  C   UNL A   1      37.185  32.230  30.133  1.00  0.00     0.173 A 
ATOM     78  F   UNL A   1      37.162  31.007  33.550  1.00  0.00    -0.203 F 
ATOM     79  C   UNL A   1      35.889  32.696  32.534  1.00  0.00     0.198 A 
ATOM     80  C   UNL A   1      36.216  33.231  30.229  1.00  0.00     0.198 A 
ATOM     81  F   UNL A   1      37.829  32.114  28.962  1.00  0.00    -0.203 F 
ATOM     82  F   UNL A   1      35.307  32.952  33.713  1.00  0.00    -0.200 F 
ATOM     83  C   UNL A   1      35.583  33.477  31.434  1.00  0.00     0.200 A 
ATOM     84  F   UNL A   1      35.951  34.005  29.167  1.00  0.00    -0.200 F 
ATOM     85  F   UNL A   1      34.716  34.493  31.545  1.00  0.00    -0.200 F 
ENDBRANCH  51  75
BRANCH  63  86
ATOM     86  C   UNL A   1      42.803  29.147  33.746  1.00  0.00     0.064 A 
ATOM     87  C   UNL A   1      42.065  27.952  33.760  1.00  0.00     0.173 A 
ATOM     88  C   UNL A   1      43.401  29.554  34.948  1.00  0.00     0.173 A 
ATOM     89  F   UNL A   1      41.533  27.451  32.637  1.00  0.00    -0.203 F 
ATOM     90  C   UNL A   1      41.893  27.231  34.941  1.00  0.00     0.198 A 
ATOM     91  C   UNL A   1      43.264  28.811  36.113  1.00  0.00     0.198 A 
ATOM     92  F   UNL A   1      44.149  30.669  34.982  1.00  0.00    -0.203 F 
ATOM     93  F   UNL A   1      41.156  26.110  34.943  1.00  0.00    -0.200 F 
ATOM     94  C   UNL A   1      42.497  27.658  36.113  1.00  0.00     0.200 A 
ATOM     95  F   UNL A   1      43.887  29.207  37.230  1.00  0.00    -0.200 F 
ATOM     96  F   UNL A   1      42.354  26.951  37.242  1.00  0.00    -0.200 F 
ENDBRANCH  63  86
ENDBRANCH  37  38
ENDBRANCH  29  32
ENDBRANCH  27  28
ENDBRANCH  26  27
ENDBRANCH  25  26
ENDBRANCH   3  25
TORSDOF 15
ENDMDL
MODEL 3
REMARK VINA RESULT:     -11.5      8.796     14.928
REMARK SMILES CCn1ccc([C@@H](C)NC(=O)[C@H](C)n2ccc(C(=O)NCCCNC(=O)c3ccc(-c4c5nc(c(-c6c(F)c(F)c(F)c(F)c6F)c6ccc([nH]6)c(-c6c(F)c(F)c(F)c(F)c6F)c6nc(c(-c7c(F)c(F)c(F)c(F)c7F)c7ccc4[nH]7)C=C6)C=C5)cc3)n2)n1
REMARK SMILES IDX 18 1 19 2 20 3 17 5 14 6 15 7 90 8 16 9 12 10 13 11 10 12
REMARK SMILES IDX 9 13 11 15 7 16 8 17 6 18 3 19 4 20 91 21 5 22 2 23 1 24
REMARK SMILES IDX 21 25 22 26 23 27 24 28 25 29 26 31 27 32 28 33 89 34 29 35
REMARK SMILES IDX 88 36 30 37 31 38 32 39 82 40 33 41 87 42 81 43 83 44 34 45
REMARK SMILES IDX 86 46 80 47 79 48 35 50 67 51 47 52 66 53 48 54 51 55 65 56
REMARK SMILES IDX 84 57 49 58 50 59 64 61 85 62 52 63 36 64 37 65 45 66 38 67
REMARK SMILES IDX 39 68 43 69 46 70 40 71 41 72 44 73 42 74 68 75 69 76 77 77
REMARK SMILES IDX 70 78 71 79 75 80 78 81 72 82 73 83 76 84 74 85 53 86 54 87
REMARK SMILES IDX 62 88 55 89 56 90 60 91 63 92 57 93 58 94 61 95 59 96
REMARK H PARENT 20 4 9 14 24 30 83 49 51 60
REMARK Flexibility Score: inf
ROOT
ATOM      1  C   UNL A   1      41.950  42.538  23.561  1.00  0.00     0.271 C 
ATOM      2  O   UNL A   1      41.038  42.735  22.768  1.00  0.00    -0.267 OA
ATOM      3  N   UNL A   1      41.712  41.660  24.601  1.00  0.00    -0.351 N 
ATOM      4  H   UNL A   1      40.795  41.300  24.633  1.00  0.00     0.163 HD
ENDROOT
BRANCH   1   5
ATOM      5  C   UNL A   1      43.273  43.167  23.393  1.00  0.00     0.150 A 
ATOM      6  N   UNL A   1      45.295  43.517  22.791  1.00  0.00    -0.260 N 
ATOM      7  C   UNL A   1      44.907  44.677  23.394  1.00  0.00     0.110 A 
ATOM      8  N   UNL A   1      44.316  42.592  22.773  1.00  0.00    -0.167 NA
ATOM      9  C   UNL A   1      43.630  44.460  23.854  1.00  0.00     0.056 A 
BRANCH   6  10
ATOM     10  C   UNL A   1      46.546  43.201  22.107  1.00  0.00     0.193 C 
ATOM     11  C   UNL A   1      47.763  42.908  22.987  1.00  0.00     0.044 C 
BRANCH  10  12
ATOM     12  C   UNL A   1      46.332  42.161  21.010  1.00  0.00     0.245 C 
ATOM     13  N   UNL A   1      45.937  42.489  19.747  1.00  0.00    -0.346 N 
ATOM     14  H   UNL A   1      45.791  41.722  19.148  1.00  0.00     0.164 HD
ATOM     15  O   UNL A   1      46.452  40.954  21.255  1.00  0.00    -0.273 OA
BRANCH  13  16
ATOM     16  C   UNL A   1      45.696  43.793  19.140  1.00  0.00     0.130 C 
ATOM     17  C   UNL A   1      46.460  44.878  19.890  1.00  0.00     0.038 C 
BRANCH  16  18
ATOM     18  C   UNL A   1      44.214  44.048  19.099  1.00  0.00     0.084 A 
ATOM     19  N   UNL A   1      42.388  44.950  18.491  1.00  0.00    -0.273 N 
ATOM     20  C   UNL A   1      42.014  43.954  19.346  1.00  0.00     0.109 A 
ATOM     21  N   UNL A   1      43.724  45.051  18.358  1.00  0.00    -0.176 NA
ATOM     22  C   UNL A   1      43.176  43.350  19.762  1.00  0.00     0.047 A 
BRANCH  19  23
ATOM     23  C   UNL A   1      41.528  45.811  17.700  1.00  0.00     0.141 C 
ATOM     24  C   UNL A   1      42.069  47.216  17.501  1.00  0.00     0.029 C 
ENDBRANCH  19  23
ENDBRANCH  16  18
ENDBRANCH  13  16
ENDBRANCH  10  12
ENDBRANCH   6  10
ENDBRANCH   1   5
BRANCH   3  25
ATOM     25  C   UNL A   1      42.591  41.178  25.656  1.00  0.00     0.118 C 
BRANCH  25  26
ATOM     26  C   UNL A   1      41.815  40.513  26.795  1.00  0.00     0.042 C 
BRANCH  26  27
ATOM     27  C   UNL A   1      42.028  39.004  26.821  1.00  0.00     0.118 C 
BRANCH  27  28
ATOM     28  N   UNL A   1      43.410  38.629  26.516  1.00  0.00    -0.352 N 
ATOM     29  C   UNL A   1      44.260  37.811  27.229  1.00  0.00     0.251 C 
ATOM     30  H   UNL A   1      43.784  39.013  25.689  1.00  0.00     0.163 HD
ATOM     31  O   UNL A   1      45.470  37.853  27.047  1.00  0.00    -0.269 OA
BRANCH  29  32
ATOM     32  C   UNL A   1      43.695  36.888  28.227  1.00  0.00     0.039 A 
ATOM     33  C   UNL A   1      43.689  37.233  29.580  1.00  0.00     0.014 A 
ATOM     34  C   UNL A   1      43.148  35.680  27.797  1.00  0.00     0.014 A 
ATOM     35  C   UNL A   1      43.040  36.395  30.481  1.00  0.00     0.010 A 
ATOM     36  C   UNL A   1      42.401  34.915  28.664  1.00  0.00     0.010 A 
ATOM     37  C   UNL A   1      42.361  35.256  30.011  1.00  0.00    -0.014 A 
BRANCH  37  38
ATOM     38  C   UNL A   1      41.436  34.553  30.899  1.00  0.00     0.031 A 
ATOM     39  C   UNL A   1      41.976  34.400  32.276  1.00  0.00     0.074 A 
ATOM     40  C   UNL A   1      40.158  34.238  30.587  1.00  0.00     0.049 A 
ATOM     41  N   UNL A   1      42.380  33.305  32.826  1.00  0.00    -0.248 NA
ATOM     42  C   UNL A   1      42.282  35.604  33.070  1.00  0.00     0.031 C 
ATOM     43  C   UNL A   1      39.427  34.609  29.371  1.00  0.00     0.029 A 
ATOM     44  N   UNL A   1      39.198  33.606  31.329  1.00  0.00    -0.354 N 
ATOM     45  C   UNL A   1      42.741  33.645  34.126  1.00  0.00     0.074 A 
ATOM     46  C   UNL A   1      42.868  35.076  34.148  1.00  0.00     0.031 C 
ATOM     47  C   UNL A   1      38.103  34.423  29.561  1.00  0.00     0.029 A 
ATOM     48  C   UNL A   1      37.902  33.763  30.839  1.00  0.00     0.049 A 
ATOM     49  H   UNL A   1      39.404  33.084  32.138  1.00  0.00     0.167 HD
ATOM     50  C   UNL A   1      42.543  32.743  35.127  1.00  0.00     0.037 A 
ATOM     51  C   UNL A   1      36.743  33.391  31.439  1.00  0.00     0.037 A 
ATOM     52  C   UNL A   1      42.303  31.433  34.570  1.00  0.00     0.049 A 
ATOM     53  C   UNL A   1      37.076  32.332  32.416  1.00  0.00     0.074 A 
ATOM     54  C   UNL A   1      43.024  30.476  33.891  1.00  0.00     0.029 A 
ATOM     55  N   UNL A   1      40.979  31.196  34.323  1.00  0.00    -0.354 N 
ATOM     56  N   UNL A   1      37.472  31.139  32.073  1.00  0.00    -0.248 NA
ATOM     57  C   UNL A   1      37.310  32.694  33.808  1.00  0.00     0.031 C 
ATOM     58  C   UNL A   1      42.079  29.762  33.091  1.00  0.00     0.029 A 
ATOM     59  C   UNL A   1      40.802  30.255  33.352  1.00  0.00     0.049 A 
ATOM     60  H   UNL A   1      40.241  31.651  34.790  1.00  0.00     0.167 HD
ATOM     61  C   UNL A   1      38.402  30.808  33.036  1.00  0.00     0.074 A 
ATOM     62  C   UNL A   1      38.114  31.688  34.163  1.00  0.00     0.031 C 
ATOM     63  C   UNL A   1      39.525  30.112  32.692  1.00  0.00     0.037 A 
BRANCH  50  64
ATOM     64  C   UNL A   1      41.976  33.093  36.496  1.00  0.00     0.064 A 
ATOM     65  C   UNL A   1      42.603  32.552  37.641  1.00  0.00     0.173 A 
ATOM     66  C   UNL A   1      40.678  33.605  36.709  1.00  0.00     0.173 A 
ATOM     67  F   UNL A   1      43.826  32.007  37.555  1.00  0.00    -0.203 F 
ATOM     68  C   UNL A   1      41.947  32.458  38.873  1.00  0.00     0.198 A 
ATOM     69  C   UNL A   1      40.046  33.555  37.951  1.00  0.00     0.198 A 
ATOM     70  F   UNL A   1      39.912  34.063  35.713  1.00  0.00    -0.203 F 
ATOM     71  F   UNL A   1      42.531  31.817  39.893  1.00  0.00    -0.200 F 
ATOM     72  C   UNL A   1      40.665  32.954  39.025  1.00  0.00     0.200 A 
ATOM     73  F   UNL A   1      38.790  34.011  38.068  1.00  0.00    -0.200 F 
ATOM     74  F   UNL A   1      40.009  32.808  40.182  1.00  0.00    -0.200 F 
ENDBRANCH  50  64
BRANCH  51  75
ATOM     75  C   UNL A   1      35.391  34.002  31.385  1.00  0.00     0.064 A 
ATOM     76  C   UNL A   1      35.001  34.982  32.317  1.00  0.00     0.173 A 
ATOM     77  C   UNL A   1      34.578  33.871  30.245  1.00  0.00     0.173 A 
ATOM     78  F   UNL A   1      35.733  35.199  33.419  1.00  0.00    -0.203 F 
ATOM     79  C   UNL A   1      33.897  35.815  32.094  1.00  0.00     0.198 A 
ATOM     80  C   UNL A   1      33.474  34.699  30.026  1.00  0.00     0.198 A 
ATOM     81  F   UNL A   1      34.896  33.007  29.270  1.00  0.00    -0.203 F 
ATOM     82  F   UNL A   1      33.608  36.790  32.967  1.00  0.00    -0.200 F 
ATOM     83  C   UNL A   1      33.146  35.683  30.940  1.00  0.00     0.200 A 
ATOM     84  F   UNL A   1      32.773  34.585  28.888  1.00  0.00    -0.200 F 
ATOM     85  F   UNL A   1      32.139  36.530  30.686  1.00  0.00    -0.200 F 
ENDBRANCH  51  75
BRANCH  63  86
ATOM     86  C   UNL A   1      39.450  29.247  31.473  1.00  0.00     0.064 A 
ATOM     87  C   UNL A   1      38.973  27.926  31.444  1.00  0.00     0.173 A 
ATOM     88  C   UNL A   1      39.845  29.821  30.255  1.00  0.00     0.173 A 
ATOM     89  F   UNL A   1      38.499  27.335  32.549  1.00  0.00    -0.203 F 
ATOM     90  C   UNL A   1      38.948  27.200  30.254  1.00  0.00     0.198 A 
ATOM     91  C   UNL A   1      39.777  29.110  29.064  1.00  0.00     0.198 A 
ATOM     92  F   UNL A   1      40.273  31.093  30.220  1.00  0.00    -0.203 F 
ATOM     93  F   UNL A   1      38.522  25.929  30.251  1.00  0.00    -0.200 F 
ATOM     94  C   UNL A   1      39.344  27.795  29.066  1.00  0.00     0.200 A 
ATOM     95  F   UNL A   1      40.121  29.706  27.915  1.00  0.00    -0.200 F 
ATOM     96  F   UNL A   1      39.294  27.106  27.918  1.00  0.00    -0.200 F 
ENDBRANCH  63  86
ENDBRANCH  37  38
ENDBRANCH  29  32
ENDBRANCH  27  28
ENDBRANCH  26  27
ENDBRANCH  25  26
ENDBRANCH   3  25
TORSDOF 15
ENDMDL
