MODEL 1
REMARK VINA RESULT:     -13.6      0.000      0.000
REMARK SMILES CC(C)(C)c1cc2c(cc1Cl)C=C(C(=O)NCCCNC(=O)c1ccc(-c3c4nc(c(-c5c(F)c(F)c(F)c(F)c5F)c5ccc([nH]5)c(-c5c(F)c(F)c(F)c(F)c5F)c5nc(c(-c6c(F)c(F)c(F)c(F)c6F)c6ccc3[nH]6)C=C5)C=C4)cc1)[C@@H](C(F)(F)F)O2
REMARK SMILES IDX 18 1 17 2 16 3 14 4 15 5 13 7 5 8 6 9 10 10 7 11 9 12 11 13
REMARK SMILES IDX 8 14 91 15 12 16 86 17 2 18 1 19 3 20 4 21 87 22 88 23 89 24
REMARK SMILES IDX 90 25 19 26 20 27 21 28 22 30 23 31 24 32 85 33 25 34 84 35
REMARK SMILES IDX 26 36 27 37 28 38 78 39 29 40 83 41 77 42 79 43 30 44 82 45
REMARK SMILES IDX 76 46 75 47 31 49 63 50 43 51 62 52 44 53 47 54 61 55 80 56
REMARK SMILES IDX 45 57 46 58 60 60 81 61 48 62 32 63 33 64 41 65 34 66 35 67
REMARK SMILES IDX 39 68 42 69 36 70 37 71 40 72 38 73 64 74 65 75 73 76 66 77
REMARK SMILES IDX 67 78 71 79 74 80 68 81 69 82 72 83 70 84 49 85 50 86 58 87
REMARK SMILES IDX 51 88 52 89 56 90 59 91 53 92 54 93 57 94 55 95
REMARK H PARENT 16 6 20 29 79 48 47 59
REMARK Flexibility Score: inf
ROOT
ATOM      1  C   UNL A   1      37.930  19.881  24.767  1.00  0.00     0.042 C 
ENDROOT
BRANCH   1   2
ATOM      2  C   UNL A   1      36.610  20.563  25.089  1.00  0.00     0.118 C 
BRANCH   2   3
ATOM      3  N   UNL A   1      35.487  19.643  25.002  1.00  0.00    -0.352 N 
ATOM      4  C   UNL A   1      34.138  19.727  24.929  1.00  0.00     0.251 C 
ATOM      5  O   UNL A   1      33.549  18.642  24.888  1.00  0.00    -0.270 OA
ATOM      6  H   UNL A   1      35.790  18.705  24.994  1.00  0.00     0.163 HD
BRANCH   4   7
ATOM      7  C   UNL A   1      33.356  20.995  24.897  1.00  0.00     0.067 C 
ATOM      8  C   UNL A   1      31.206  25.405  23.562  1.00  0.00    -0.020 A 
ATOM      9  C   UNL A   1      31.064  24.476  24.625  1.00  0.00     0.053 A 
ATOM     10  C   UNL A   1      32.069  25.013  22.515  1.00  0.00     0.045 A 
ATOM     11  C   UNL A   1      31.762  23.271  24.667  1.00  0.00     0.128 A 
ATOM     12  C   UNL A   1      32.757  23.780  22.559  1.00  0.00     0.032 A 
ATOM     13  Cl  UNL A   1      32.399  25.936  21.093  1.00  0.00    -0.084 Cl
ATOM     14  C   UNL A   1      32.618  22.914  23.639  1.00  0.00     0.019 A 
ATOM     15  O   UNL A   1      31.542  22.468  25.749  1.00  0.00    -0.475 OA
ATOM     16  C   UNL A   1      33.331  21.644  23.717  1.00  0.00     0.025 C 
ATOM     17  C   UNL A   1      32.645  21.582  26.086  1.00  0.00     0.314 C 
BRANCH   8  18
ATOM     18  C   UNL A   1      30.414  26.728  23.710  1.00  0.00    -0.012 C 
ATOM     19  C   UNL A   1      28.929  26.408  24.017  1.00  0.00     0.016 C 
ATOM     20  C   UNL A   1      30.394  27.697  22.512  1.00  0.00     0.016 C 
ATOM     21  C   UNL A   1      31.011  27.533  24.895  1.00  0.00     0.016 C 
ENDBRANCH   8  18
BRANCH  17  22
ATOM     22  C   UNL A   1      33.599  22.302  27.061  1.00  0.00     0.429 C 
ATOM     23  F   UNL A   1      32.899  23.139  27.868  1.00  0.00    -0.167 F 
ATOM     24  F   UNL A   1      34.254  21.443  27.877  1.00  0.00    -0.167 F 
ATOM     25  F   UNL A   1      34.540  23.039  26.432  1.00  0.00    -0.167 F 
ENDBRANCH  17  22
ENDBRANCH   4   7
ENDBRANCH   2   3
ENDBRANCH   1   2
BRANCH   1  26
ATOM     26  C   UNL A   1      39.036  20.262  25.744  1.00  0.00     0.118 C 
BRANCH  26  27
ATOM     27  N   UNL A   1      40.051  19.217  25.866  1.00  0.00    -0.352 N 
ATOM     28  C   UNL A   1      41.408  19.310  26.054  1.00  0.00     0.251 C 
ATOM     29  H   UNL A   1      39.705  18.297  25.805  1.00  0.00     0.163 HD
ATOM     30  O   UNL A   1      42.113  18.315  25.920  1.00  0.00    -0.269 OA
BRANCH  28  31
ATOM     31  C   UNL A   1      42.023  20.609  26.394  1.00  0.00     0.039 A 
ATOM     32  C   UNL A   1      42.296  20.933  27.721  1.00  0.00     0.014 A 
ATOM     33  C   UNL A   1      42.331  21.516  25.374  1.00  0.00     0.014 A 
ATOM     34  C   UNL A   1      42.684  22.225  28.047  1.00  0.00     0.010 A 
ATOM     35  C   UNL A   1      42.826  22.782  25.697  1.00  0.00     0.010 A 
ATOM     36  C   UNL A   1      42.956  23.165  27.041  1.00  0.00    -0.014 A 
BRANCH  36  37
ATOM     37  C   UNL A   1      43.361  24.540  27.436  1.00  0.00     0.031 A 
ATOM     38  C   UNL A   1      44.750  25.043  27.149  1.00  0.00     0.074 A 
ATOM     39  C   UNL A   1      42.434  25.367  27.959  1.00  0.00     0.049 A 
ATOM     40  N   UNL A   1      45.262  26.226  27.383  1.00  0.00    -0.248 NA
ATOM     41  C   UNL A   1      45.691  24.103  26.518  1.00  0.00     0.031 C 
ATOM     42  C   UNL A   1      41.048  24.998  28.255  1.00  0.00     0.029 A 
ATOM     43  N   UNL A   1      42.496  26.698  28.286  1.00  0.00    -0.354 N 
ATOM     44  C   UNL A   1      46.578  26.166  26.945  1.00  0.00     0.074 A 
ATOM     45  C   UNL A   1      46.802  24.825  26.455  1.00  0.00     0.031 C 
ATOM     46  C   UNL A   1      40.371  26.091  28.634  1.00  0.00     0.029 A 
ATOM     47  C   UNL A   1      41.290  27.222  28.686  1.00  0.00     0.049 A 
ATOM     48  H   UNL A   1      43.326  27.227  28.240  1.00  0.00     0.167 HD
ATOM     49  C   UNL A   1      47.509  27.149  26.937  1.00  0.00     0.037 A 
ATOM     50  C   UNL A   1      40.962  28.473  29.058  1.00  0.00     0.037 A 
ATOM     51  C   UNL A   1      47.274  28.493  27.395  1.00  0.00     0.049 A 
ATOM     52  C   UNL A   1      42.034  29.525  29.088  1.00  0.00     0.074 A 
ATOM     53  C   UNL A   1      48.160  29.555  27.442  1.00  0.00     0.029 A 
ATOM     54  N   UNL A   1      46.060  28.963  27.870  1.00  0.00    -0.354 N 
ATOM     55  N   UNL A   1      43.283  29.443  28.702  1.00  0.00    -0.248 NA
ATOM     56  C   UNL A   1      41.655  30.837  29.630  1.00  0.00     0.031 C 
ATOM     57  C   UNL A   1      47.488  30.662  27.970  1.00  0.00     0.029 A 
ATOM     58  C   UNL A   1      46.176  30.298  28.219  1.00  0.00     0.049 A 
ATOM     59  H   UNL A   1      45.237  28.427  27.948  1.00  0.00     0.167 HD
ATOM     60  C   UNL A   1      43.837  30.691  28.943  1.00  0.00     0.074 A 
ATOM     61  C   UNL A   1      42.781  31.522  29.486  1.00  0.00     0.031 C 
ATOM     62  C   UNL A   1      45.110  31.108  28.746  1.00  0.00     0.037 A 
BRANCH  49  63
ATOM     63  C   UNL A   1      48.875  26.825  26.410  1.00  0.00     0.064 A 
ATOM     64  C   UNL A   1      49.835  26.193  27.213  1.00  0.00     0.173 A 
ATOM     65  C   UNL A   1      49.193  27.056  25.063  1.00  0.00     0.173 A 
ATOM     66  F   UNL A   1      49.584  25.963  28.510  1.00  0.00    -0.203 F 
ATOM     67  C   UNL A   1      51.065  25.805  26.686  1.00  0.00     0.198 A 
ATOM     68  C   UNL A   1      50.415  26.648  24.533  1.00  0.00     0.198 A 
ATOM     69  F   UNL A   1      48.306  27.653  24.251  1.00  0.00    -0.203 F 
ATOM     70  F   UNL A   1      51.975  25.218  27.476  1.00  0.00    -0.200 F 
ATOM     71  C   UNL A   1      51.349  26.022  25.346  1.00  0.00     0.200 A 
ATOM     72  F   UNL A   1      50.683  26.847  23.236  1.00  0.00    -0.200 F 
ATOM     73  F   UNL A   1      52.524  25.627  24.836  1.00  0.00    -0.200 F 
ENDBRANCH  49  63
BRANCH  50  74
ATOM     74  C   UNL A   1      39.563  28.797  29.437  1.00  0.00     0.064 A 
ATOM     75  C   UNL A   1      38.662  29.303  28.490  1.00  0.00     0.173 A 
ATOM     76  C   UNL A   1      39.096  28.611  30.747  1.00  0.00     0.173 A 
ATOM     77  F   UNL A   1      39.066  29.520  27.229  1.00  0.00    -0.203 F 
ATOM     78  C   UNL A   1      37.352  29.624  28.842  1.00  0.00     0.198 A 
ATOM     79  C   UNL A   1      37.779  28.903  31.090  1.00  0.00     0.198 A 
ATOM     80  F   UNL A   1      39.918  28.129  31.690  1.00  0.00    -0.203 F 
ATOM     81  F   UNL A   1      36.524  30.146  27.928  1.00  0.00    -0.200 F 
ATOM     82  C   UNL A   1      36.910  29.417  30.141  1.00  0.00     0.200 A 
ATOM     83  F   UNL A   1      37.353  28.686  32.343  1.00  0.00    -0.200 F 
ATOM     84  F   UNL A   1      35.649  29.719  30.478  1.00  0.00    -0.200 F 
ENDBRANCH  50  74
BRANCH  62  85
ATOM     85  C   UNL A   1      45.432  32.527  29.103  1.00  0.00     0.064 A 
ATOM     86  C   UNL A   1      45.231  33.570  28.190  1.00  0.00     0.173 A 
ATOM     87  C   UNL A   1      45.880  32.852  30.392  1.00  0.00     0.173 A 
ATOM     88  F   UNL A   1      44.817  33.303  26.941  1.00  0.00    -0.203 F 
ATOM     89  C   UNL A   1      45.481  34.891  28.549  1.00  0.00     0.198 A 
ATOM     90  C   UNL A   1      46.105  34.175  30.756  1.00  0.00     0.198 A 
ATOM     91  F   UNL A   1      46.079  31.887  31.303  1.00  0.00    -0.203 F 
ATOM     92  F   UNL A   1      45.313  35.870  27.651  1.00  0.00    -0.200 F 
ATOM     93  C   UNL A   1      45.909  35.193  29.834  1.00  0.00     0.200 A 
ATOM     94  F   UNL A   1      46.507  34.467  32.001  1.00  0.00    -0.200 F 
ATOM     95  F   UNL A   1      46.136  36.466  30.182  1.00  0.00    -0.200 F 
ENDBRANCH  62  85
ENDBRANCH  36  37
ENDBRANCH  28  31
ENDBRANCH  26  27
ENDBRANCH   1  26
TORSDOF 12
ENDMDL
MODEL 2
REMARK VINA RESULT:     -13.6      5.614     10.899
REMARK SMILES CC(C)(C)c1cc2c(cc1Cl)C=C(C(=O)NCCCNC(=O)c1ccc(-c3c4nc(c(-c5c(F)c(F)c(F)c(F)c5F)c5ccc([nH]5)c(-c5c(F)c(F)c(F)c(F)c5F)c5nc(c(-c6c(F)c(F)c(F)c(F)c6F)c6ccc3[nH]6)C=C5)C=C4)cc1)[C@@H](C(F)(F)F)O2
REMARK SMILES IDX 18 1 17 2 16 3 14 4 15 5 13 7 5 8 6 9 10 10 7 11 9 12 11 13
REMARK SMILES IDX 8 14 91 15 12 16 86 17 2 18 1 19 3 20 4 21 87 22 88 23 89 24
REMARK SMILES IDX 90 25 19 26 20 27 21 28 22 30 23 31 24 32 85 33 25 34 84 35
REMARK SMILES IDX 26 36 27 37 28 38 78 39 29 40 83 41 77 42 79 43 30 44 82 45
REMARK SMILES IDX 76 46 75 47 31 49 63 50 43 51 62 52 44 53 47 54 61 55 80 56
REMARK SMILES IDX 45 57 46 58 60 60 81 61 48 62 32 63 33 64 41 65 34 66 35 67
REMARK SMILES IDX 39 68 42 69 36 70 37 71 40 72 38 73 64 74 65 75 73 76 66 77
REMARK SMILES IDX 67 78 71 79 74 80 68 81 69 82 72 83 70 84 49 85 50 86 58 87
REMARK SMILES IDX 51 88 52 89 56 90 59 91 53 92 54 93 57 94 55 95
REMARK H PARENT 16 6 20 29 79 48 47 59
REMARK Flexibility Score: inf
ROOT
ATOM      1  C   UNL A   1      31.518  31.999  26.493  1.00  0.00     0.042 C 
ENDROOT
BRANCH   1   2
ATOM      2  C   UNL A   1      31.678  30.502  26.279  1.00  0.00     0.118 C 
BRANCH   2   3
ATOM      3  N   UNL A   1      31.299  30.102  24.933  1.00  0.00    -0.352 N 
ATOM      4  C   UNL A   1      31.319  28.970  24.191  1.00  0.00     0.251 C 
ATOM      5  O   UNL A   1      30.899  29.095  23.036  1.00  0.00    -0.270 OA
ATOM      6  H   UNL A   1      30.928  30.859  24.423  1.00  0.00     0.163 HD
BRANCH   4   7
ATOM      7  C   UNL A   1      31.797  27.640  24.664  1.00  0.00     0.067 C 
ATOM      8  C   UNL A   1      34.316  23.269  25.296  1.00  0.00    -0.020 A 
ATOM      9  C   UNL A   1      33.338  24.002  26.016  1.00  0.00     0.053 A 
ATOM     10  C   UNL A   1      34.850  23.913  24.158  1.00  0.00     0.045 A 
ATOM     11  C   UNL A   1      32.892  25.258  25.612  1.00  0.00     0.128 A 
ATOM     12  C   UNL A   1      34.404  25.195  23.768  1.00  0.00     0.032 A 
ATOM     13  Cl  UNL A   1      36.069  23.262  23.121  1.00  0.00    -0.084 Cl
ATOM     14  C   UNL A   1      33.417  25.864  24.483  1.00  0.00     0.019 A 
ATOM     15  O   UNL A   1      31.942  25.855  26.391  1.00  0.00    -0.475 OA
ATOM     16  C   UNL A   1      32.926  27.181  24.092  1.00  0.00     0.025 C 
ATOM     17  C   UNL A   1      31.087  26.801  25.690  1.00  0.00     0.314 C 
BRANCH   8  18
ATOM     18  C   UNL A   1      34.641  21.856  25.842  1.00  0.00    -0.012 C 
ATOM     19  C   UNL A   1      34.050  21.706  27.267  1.00  0.00     0.016 C 
ATOM     20  C   UNL A   1      36.123  21.449  25.958  1.00  0.00     0.016 C 
ATOM     21  C   UNL A   1      33.984  20.801  24.912  1.00  0.00     0.016 C 
ENDBRANCH   8  18
BRANCH  17  22
ATOM     22  C   UNL A   1      29.865  26.054  25.116  1.00  0.00     0.429 C 
ATOM     23  F   UNL A   1      29.105  25.555  26.123  1.00  0.00    -0.167 F 
ATOM     24  F   UNL A   1      29.056  26.862  24.390  1.00  0.00    -0.167 F 
ATOM     25  F   UNL A   1      30.207  25.021  24.315  1.00  0.00    -0.167 F 
ENDBRANCH  17  22
ENDBRANCH   4   7
ENDBRANCH   2   3
ENDBRANCH   1   2
BRANCH   1  26
ATOM     26  C   UNL A   1      32.690  32.607  27.254  1.00  0.00     0.118 C 
BRANCH  26  27
ATOM     27  N   UNL A   1      32.451  34.003  27.616  1.00  0.00    -0.352 N 
ATOM     28  C   UNL A   1      33.020  34.780  28.594  1.00  0.00     0.251 C 
ATOM     29  H   UNL A   1      31.771  34.460  27.070  1.00  0.00     0.163 HD
ATOM     30  O   UNL A   1      32.529  35.870  28.872  1.00  0.00    -0.269 OA
BRANCH  28  31
ATOM     31  C   UNL A   1      34.209  34.298  29.327  1.00  0.00     0.039 A 
ATOM     32  C   UNL A   1      35.487  34.514  28.816  1.00  0.00     0.014 A 
ATOM     33  C   UNL A   1      34.044  33.623  30.541  1.00  0.00     0.014 A 
ATOM     34  C   UNL A   1      36.576  33.887  29.403  1.00  0.00     0.010 A 
ATOM     35  C   UNL A   1      35.158  33.084  31.191  1.00  0.00     0.010 A 
ATOM     36  C   UNL A   1      36.427  33.166  30.599  1.00  0.00    -0.014 A 
BRANCH  36  37
ATOM     37  C   UNL A   1      37.620  32.504  31.189  1.00  0.00     0.031 A 
ATOM     38  C   UNL A   1      38.088  32.859  32.575  1.00  0.00     0.074 A 
ATOM     39  C   UNL A   1      38.215  31.505  30.508  1.00  0.00     0.049 A 
ATOM     40  N   UNL A   1      39.081  32.352  33.264  1.00  0.00    -0.248 NA
ATOM     41  C   UNL A   1      37.351  33.917  33.286  1.00  0.00     0.031 C 
ATOM     42  C   UNL A   1      37.830  31.055  29.168  1.00  0.00     0.029 A 
ATOM     43  N   UNL A   1      39.229  30.652  30.861  1.00  0.00    -0.354 N 
ATOM     44  C   UNL A   1      39.094  33.037  34.472  1.00  0.00     0.074 A 
ATOM     45  C   UNL A   1      38.032  34.015  34.419  1.00  0.00     0.031 C 
ATOM     46  C   UNL A   1      38.535  29.960  28.850  1.00  0.00     0.029 A 
ATOM     47  C   UNL A   1      39.476  29.675  29.926  1.00  0.00     0.049 A 
ATOM     48  H   UNL A   1      39.733  30.733  31.704  1.00  0.00     0.167 HD
ATOM     49  C   UNL A   1      39.911  32.850  35.536  1.00  0.00     0.037 A 
ATOM     50  C   UNL A   1      40.367  28.666  29.933  1.00  0.00     0.037 A 
ATOM     51  C   UNL A   1      40.947  31.854  35.599  1.00  0.00     0.049 A 
ATOM     52  C   UNL A   1      41.293  28.523  31.107  1.00  0.00     0.074 A 
ATOM     53  C   UNL A   1      41.837  31.599  36.629  1.00  0.00     0.029 A 
ATOM     54  N   UNL A   1      41.221  30.936  34.597  1.00  0.00    -0.354 N 
ATOM     55  N   UNL A   1      41.315  29.200  32.228  1.00  0.00    -0.248 NA
ATOM     56  C   UNL A   1      42.334  27.491  31.005  1.00  0.00     0.031 C 
ATOM     57  C   UNL A   1      42.667  30.544  36.238  1.00  0.00     0.029 A 
ATOM     58  C   UNL A   1      42.271  30.119  34.981  1.00  0.00     0.049 A 
ATOM     59  H   UNL A   1      40.740  30.874  33.740  1.00  0.00     0.167 HD
ATOM     60  C   UNL A   1      42.362  28.673  32.969  1.00  0.00     0.074 A 
ATOM     61  C   UNL A   1      42.936  27.601  32.181  1.00  0.00     0.031 C 
ATOM     62  C   UNL A   1      42.817  29.051  34.187  1.00  0.00     0.037 A 
BRANCH  49  63
ATOM     63  C   UNL A   1      39.724  33.733  36.734  1.00  0.00     0.064 A 
ATOM     64  C   UNL A   1      40.304  35.007  36.798  1.00  0.00     0.173 A 
ATOM     65  C   UNL A   1      38.876  33.342  37.782  1.00  0.00     0.173 A 
ATOM     66  F   UNL A   1      41.132  35.422  35.828  1.00  0.00    -0.203 F 
ATOM     67  C   UNL A   1      40.043  35.860  37.869  1.00  0.00     0.198 A 
ATOM     68  C   UNL A   1      38.599  34.204  38.840  1.00  0.00     0.198 A 
ATOM     69  F   UNL A   1      38.292  32.134  37.764  1.00  0.00    -0.203 F 
ATOM     70  F   UNL A   1      40.621  37.068  37.918  1.00  0.00    -0.200 F 
ATOM     71  C   UNL A   1      39.182  35.462  38.882  1.00  0.00     0.200 A 
ATOM     72  F   UNL A   1      37.758  33.824  39.811  1.00  0.00    -0.200 F 
ATOM     73  F   UNL A   1      38.914  36.293  39.899  1.00  0.00    -0.200 F 
ENDBRANCH  49  63
BRANCH  50  74
ATOM     74  C   UNL A   1      40.430  27.718  28.791  1.00  0.00     0.064 A 
ATOM     75  C   UNL A   1      39.687  26.529  28.804  1.00  0.00     0.173 A 
ATOM     76  C   UNL A   1      41.230  27.975  27.668  1.00  0.00     0.173 A 
ATOM     77  F   UNL A   1      38.923  26.227  29.865  1.00  0.00    -0.203 F 
ATOM     78  C   UNL A   1      39.753  25.628  27.743  1.00  0.00     0.198 A 
ATOM     79  C   UNL A   1      41.271  27.088  26.595  1.00  0.00     0.198 A 
ATOM     80  F   UNL A   1      41.960  29.098  27.606  1.00  0.00    -0.203 F 
ATOM     81  F   UNL A   1      39.065  24.480  27.799  1.00  0.00    -0.200 F 
ATOM     82  C   UNL A   1      40.540  25.912  26.636  1.00  0.00     0.200 A 
ATOM     83  F   UNL A   1      42.022  27.374  25.522  1.00  0.00    -0.200 F 
ATOM     84  F   UNL A   1      40.598  25.048  25.614  1.00  0.00    -0.200 F 
ENDBRANCH  50  74
BRANCH  62  85
ATOM     85  C   UNL A   1      43.981  28.296  34.751  1.00  0.00     0.064 A 
ATOM     86  C   UNL A   1      43.795  27.114  35.481  1.00  0.00     0.173 A 
ATOM     87  C   UNL A   1      45.294  28.721  34.502  1.00  0.00     0.173 A 
ATOM     88  F   UNL A   1      42.556  26.678  35.755  1.00  0.00    -0.203 F 
ATOM     89  C   UNL A   1      44.885  26.390  35.955  1.00  0.00     0.198 A 
ATOM     90  C   UNL A   1      46.381  27.981  34.955  1.00  0.00     0.198 A 
ATOM     91  F   UNL A   1      45.520  29.842  33.801  1.00  0.00    -0.203 F 
ATOM     92  F   UNL A   1      44.685  25.280  36.677  1.00  0.00    -0.200 F 
ATOM     93  C   UNL A   1      46.176  26.819  35.684  1.00  0.00     0.200 A 
ATOM     94  F   UNL A   1      47.628  28.390  34.683  1.00  0.00    -0.200 F 
ATOM     95  F   UNL A   1      47.224  26.112  36.129  1.00  0.00    -0.200 F 
ENDBRANCH  62  85
ENDBRANCH  36  37
ENDBRANCH  28  31
ENDBRANCH  26  27
ENDBRANCH   1  26
TORSDOF 12
ENDMDL
MODEL 3
REMARK VINA RESULT:     -13.6      1.297      2.225
REMARK SMILES CC(C)(C)c1cc2c(cc1Cl)C=C(C(=O)NCCCNC(=O)c1ccc(-c3c4nc(c(-c5c(F)c(F)c(F)c(F)c5F)c5ccc([nH]5)c(-c5c(F)c(F)c(F)c(F)c5F)c5nc(c(-c6c(F)c(F)c(F)c(F)c6F)c6ccc3[nH]6)C=C5)C=C4)cc1)[C@@H](C(F)(F)F)O2
REMARK SMILES IDX 18 1 17 2 16 3 14 4 15 5 13 7 5 8 6 9 10 10 7 11 9 12 11 13
REMARK SMILES IDX 8 14 91 15 12 16 86 17 2 18 1 19 3 20 4 21 87 22 88 23 89 24
REMARK SMILES IDX 90 25 19 26 20 27 21 28 22 30 23 31 24 32 85 33 25 34 84 35
REMARK SMILES IDX 26 36 27 37 28 38 78 39 29 40 83 41 77 42 79 43 30 44 82 45
REMARK SMILES IDX 76 46 75 47 31 49 63 50 43 51 62 52 44 53 47 54 61 55 80 56
REMARK SMILES IDX 45 57 46 58 60 60 81 61 48 62 32 63 33 64 41 65 34 66 35 67
REMARK SMILES IDX 39 68 42 69 36 70 37 71 40 72 38 73 64 74 65 75 73 76 66 77
REMARK SMILES IDX 67 78 71 79 74 80 68 81 69 82 72 83 70 84 49 85 50 86 58 87
REMARK SMILES IDX 51 88 52 89 56 90 59 91 53 92 54 93 57 94 55 95
REMARK H PARENT 16 6 20 29 79 48 47 59
REMARK Flexibility Score: inf
ROOT
ATOM      1  C   UNL A   1      37.742  19.806  25.002  1.00  0.00     0.042 C 
ENDROOT
BRANCH   1   2
ATOM      2  C   UNL A   1      36.599  20.754  25.333  1.00  0.00     0.118 C 
BRANCH   2   3
ATOM      3  N   UNL A   1      35.333  20.290  24.787  1.00  0.00    -0.352 N 
ATOM      4  C   UNL A   1      34.071  20.765  24.665  1.00  0.00     0.251 C 
ATOM      5  O   UNL A   1      33.272  19.991  24.128  1.00  0.00    -0.270 OA
ATOM      6  H   UNL A   1      35.416  19.387  24.403  1.00  0.00     0.163 HD
BRANCH   4   7
ATOM      7  C   UNL A   1      33.609  22.106  25.122  1.00  0.00     0.067 C 
ATOM      8  C   UNL A   1      32.705  27.087  25.600  1.00  0.00    -0.020 A 
ATOM      9  C   UNL A   1      32.225  25.895  26.202  1.00  0.00     0.053 A 
ATOM     10  C   UNL A   1      33.579  26.911  24.505  1.00  0.00     0.045 A 
ATOM     11  C   UNL A   1      32.619  24.628  25.778  1.00  0.00     0.128 A 
ATOM     12  C   UNL A   1      33.957  25.621  24.072  1.00  0.00     0.032 A 
ATOM     13  Cl  UNL A   1      34.286  28.185  23.576  1.00  0.00    -0.084 Cl
ATOM     14  C   UNL A   1      33.491  24.479  24.714  1.00  0.00     0.019 A 
ATOM     15  O   UNL A   1      32.088  23.562  26.446  1.00  0.00    -0.475 OA
ATOM     16  C   UNL A   1      33.879  23.136  24.297  1.00  0.00     0.025 C 
ATOM     17  C   UNL A   1      32.910  22.362  26.428  1.00  0.00     0.314 C 
BRANCH   8  18
ATOM     18  C   UNL A   1      32.225  28.412  26.244  1.00  0.00    -0.012 C 
ATOM     19  C   UNL A   1      33.454  29.290  26.593  1.00  0.00     0.016 C 
ATOM     20  C   UNL A   1      31.390  28.327  27.536  1.00  0.00     0.016 C 
ATOM     21  C   UNL A   1      31.342  29.170  25.217  1.00  0.00     0.016 C 
ENDBRANCH   8  18
BRANCH  17  22
ATOM     22  C   UNL A   1      33.873  22.385  27.633  1.00  0.00     0.429 C 
ATOM     23  F   UNL A   1      33.197  22.696  28.768  1.00  0.00    -0.167 F 
ATOM     24  F   UNL A   1      34.461  21.185  27.852  1.00  0.00    -0.167 F 
ATOM     25  F   UNL A   1      34.869  23.288  27.494  1.00  0.00    -0.167 F 
ENDBRANCH  17  22
ENDBRANCH   4   7
ENDBRANCH   2   3
ENDBRANCH   1   2
BRANCH   1  26
ATOM     26  C   UNL A   1      39.089  20.329  25.483  1.00  0.00     0.118 C 
BRANCH  26  27
ATOM     27  N   UNL A   1      40.058  19.255  25.690  1.00  0.00    -0.352 N 
ATOM     28  C   UNL A   1      41.384  19.305  26.046  1.00  0.00     0.251 C 
ATOM     29  H   UNL A   1      39.703  18.347  25.553  1.00  0.00     0.163 HD
ATOM     30  O   UNL A   1      42.078  18.297  25.963  1.00  0.00    -0.269 OA
BRANCH  28  31
ATOM     31  C   UNL A   1      41.980  20.576  26.506  1.00  0.00     0.039 A 
ATOM     32  C   UNL A   1      42.056  20.865  27.867  1.00  0.00     0.014 A 
ATOM     33  C   UNL A   1      42.470  21.489  25.567  1.00  0.00     0.014 A 
ATOM     34  C   UNL A   1      42.430  22.136  28.279  1.00  0.00     0.010 A 
ATOM     35  C   UNL A   1      42.950  22.731  25.992  1.00  0.00     0.010 A 
ATOM     36  C   UNL A   1      42.884  23.085  27.348  1.00  0.00    -0.014 A 
BRANCH  36  37
ATOM     37  C   UNL A   1      43.267  24.437  27.832  1.00  0.00     0.031 A 
ATOM     38  C   UNL A   1      44.710  24.867  27.848  1.00  0.00     0.074 A 
ATOM     39  C   UNL A   1      42.295  25.312  28.158  1.00  0.00     0.049 A 
ATOM     40  N   UNL A   1      45.221  26.022  28.195  1.00  0.00    -0.248 NA
ATOM     41  C   UNL A   1      45.713  23.878  27.418  1.00  0.00     0.031 C 
ATOM     42  C   UNL A   1      40.861  25.016  28.154  1.00  0.00     0.029 A 
ATOM     43  N   UNL A   1      42.356  26.638  28.504  1.00  0.00    -0.354 N 
ATOM     44  C   UNL A   1      46.595  25.892  28.042  1.00  0.00     0.074 A 
ATOM     45  C   UNL A   1      46.848  24.541  27.597  1.00  0.00     0.031 C 
ATOM     46  C   UNL A   1      40.177  26.143  28.394  1.00  0.00     0.029 A 
ATOM     47  C   UNL A   1      41.120  27.225  28.647  1.00  0.00     0.049 A 
ATOM     48  H   UNL A   1      43.202  27.123  28.638  1.00  0.00     0.167 HD
ATOM     49  C   UNL A   1      47.556  26.826  28.238  1.00  0.00     0.037 A 
ATOM     50  C   UNL A   1      40.787  28.491  28.956  1.00  0.00     0.037 A 
ATOM     51  C   UNL A   1      47.299  28.180  28.650  1.00  0.00     0.049 A 
ATOM     52  C   UNL A   1      41.881  29.487  29.219  1.00  0.00     0.074 A 
ATOM     53  C   UNL A   1      48.210  29.195  28.892  1.00  0.00     0.029 A 
ATOM     54  N   UNL A   1      46.038  28.714  28.865  1.00  0.00    -0.354 N 
ATOM     55  N   UNL A   1      43.177  29.339  29.102  1.00  0.00    -0.248 NA
ATOM     56  C   UNL A   1      41.465  30.817  29.682  1.00  0.00     0.031 C 
ATOM     57  C   UNL A   1      47.500  30.336  29.278  1.00  0.00     0.029 A 
ATOM     58  C   UNL A   1      46.147  30.041  29.244  1.00  0.00     0.049 A 
ATOM     59  H   UNL A   1      45.192  28.222  28.764  1.00  0.00     0.167 HD
ATOM     60  C   UNL A   1      43.732  30.556  29.466  1.00  0.00     0.074 A 
ATOM     61  C   UNL A   1      42.630  31.442  29.784  1.00  0.00     0.031 C 
ATOM     62  C   UNL A   1      45.037  30.906  29.544  1.00  0.00     0.037 A 
BRANCH  49  63
ATOM     63  C   UNL A   1      48.984  26.430  28.005  1.00  0.00     0.064 A 
ATOM     64  C   UNL A   1      49.526  26.387  26.713  1.00  0.00     0.173 A 
ATOM     65  C   UNL A   1      49.843  26.191  29.088  1.00  0.00     0.173 A 
ATOM     66  F   UNL A   1      48.743  26.597  25.645  1.00  0.00    -0.203 F 
ATOM     67  C   UNL A   1      50.878  26.117  26.513  1.00  0.00     0.198 A 
ATOM     68  C   UNL A   1      51.199  25.942  28.887  1.00  0.00     0.198 A 
ATOM     69  F   UNL A   1      49.373  26.226  30.345  1.00  0.00    -0.203 F 
ATOM     70  F   UNL A   1      51.373  26.064  25.269  1.00  0.00    -0.200 F 
ATOM     71  C   UNL A   1      51.715  25.907  27.600  1.00  0.00     0.200 A 
ATOM     72  F   UNL A   1      52.008  25.751  29.938  1.00  0.00    -0.200 F 
ATOM     73  F   UNL A   1      53.020  25.670  27.407  1.00  0.00    -0.200 F 
ENDBRANCH  49  63
BRANCH  50  74
ATOM     74  C   UNL A   1      39.358  28.889  29.036  1.00  0.00     0.064 A 
ATOM     75  C   UNL A   1      38.672  29.336  27.899  1.00  0.00     0.173 A 
ATOM     76  C   UNL A   1      38.649  28.833  30.246  1.00  0.00     0.173 A 
ATOM     77  F   UNL A   1      39.311  29.428  26.723  1.00  0.00    -0.203 F 
ATOM     78  C   UNL A   1      37.335  29.724  27.971  1.00  0.00     0.198 A 
ATOM     79  C   UNL A   1      37.305  29.192  30.310  1.00  0.00     0.198 A 
ATOM     80  F   UNL A   1      39.259  28.412  31.363  1.00  0.00    -0.203 F 
ATOM     81  F   UNL A   1      36.715  30.187  26.877  1.00  0.00    -0.200 F 
ATOM     82  C   UNL A   1      36.651  29.646  29.175  1.00  0.00     0.200 A 
ATOM     83  F   UNL A   1      36.645  29.100  31.473  1.00  0.00    -0.200 F 
ATOM     84  F   UNL A   1      35.364  30.013  29.243  1.00  0.00    -0.200 F 
ENDBRANCH  50  74
BRANCH  62  85
ATOM     85  C   UNL A   1      45.349  32.307  29.975  1.00  0.00     0.064 A 
ATOM     86  C   UNL A   1      45.597  32.615  31.319  1.00  0.00     0.173 A 
ATOM     87  C   UNL A   1      45.468  33.334  29.027  1.00  0.00     0.173 A 
ATOM     88  F   UNL A   1      45.480  31.666  32.261  1.00  0.00    -0.203 F 
ATOM     89  C   UNL A   1      45.940  33.908  31.703  1.00  0.00     0.198 A 
ATOM     90  C   UNL A   1      45.835  34.619  29.410  1.00  0.00     0.198 A 
ATOM     91  F   UNL A   1      45.248  33.083  27.727  1.00  0.00    -0.203 F 
ATOM     92  F   UNL A   1      46.142  34.189  32.997  1.00  0.00    -0.200 F 
ATOM     93  C   UNL A   1      46.067  34.906  30.748  1.00  0.00     0.200 A 
ATOM     94  F   UNL A   1      45.970  35.580  28.486  1.00  0.00    -0.200 F 
ATOM     95  F   UNL A   1      46.411  36.147  31.117  1.00  0.00    -0.200 F 
ENDBRANCH  62  85
ENDBRANCH  36  37
ENDBRANCH  28  31
ENDBRANCH  26  27
ENDBRANCH   1  26
TORSDOF 12
ENDMDL
