MODEL 1
REMARK VINA RESULT:     -14.1      0.000      0.000
REMARK SMILES Cc1c(CC(=O)N[C@H](CO)C(=O)NCCCNC(=O)c2ccc(-c3c4nc(c(-c5c(F)c(F)c(F)c(F)c5F)c5ccc([nH]5)c(-c5c(F)c(F)c(F)c(F)c5F)c5nc(c(-c6c(F)c(F)c(F)c(F)c6F)c6ccc3[nH]6)C=C5)C=C4)cc2)cc(-c2ccc(S(C)(=O)=O)cc2)n1-c1ccc(F)cc1
REMARK SMILES IDX 11 1 12 2 13 3 8 5 7 6 5 7 6 8 4 10 3 11 1 12 2 13 95 14
REMARK SMILES IDX 83 15 84 16 96 17 97 18 102 19 98 20 101 21 99 22 100 23
REMARK SMILES IDX 85 24 86 25 94 26 87 27 93 28 88 29 89 30 90 31 91 32 92 33
REMARK SMILES IDX 9 34 10 35 14 37 15 38 16 39 17 40 18 41 19 43 20 44 21 45
REMARK SMILES IDX 82 46 22 47 81 48 23 49 24 50 25 51 75 52 26 53 80 54 74 55
REMARK SMILES IDX 76 56 27 57 79 58 73 59 72 60 28 62 60 63 40 64 59 65 41 66
REMARK SMILES IDX 44 67 58 68 77 69 42 70 43 71 57 73 78 74 45 75 29 76 30 77
REMARK SMILES IDX 38 78 31 79 32 80 36 81 39 82 33 83 34 84 37 85 35 86 61 87
REMARK SMILES IDX 62 88 70 89 63 90 64 91 68 92 71 93 65 94 66 95 69 96 67 97
REMARK SMILES IDX 46 98 47 99 55 100 48 101 49 102 53 103 56 104 50 105 51 106
REMARK SMILES IDX 54 107 52 108
REMARK H PARENT 13 4 7 9 10 36 17 42 76 61 44 72
REMARK Flexibility Score: inf
ROOT
ATOM      1  C   UNL A   1      30.978  28.949  23.402  1.00  0.00     0.244 C 
ATOM      2  O   UNL A   1      31.340  28.389  22.360  1.00  0.00    -0.273 OA
ATOM      3  N   UNL A   1      31.908  29.697  24.044  1.00  0.00    -0.354 N 
ATOM      4  H   UNL A   1      32.478  30.187  23.407  1.00  0.00     0.163 HD
ENDROOT
BRANCH   1   5
ATOM      5  C   UNL A   1      29.585  28.619  23.913  1.00  0.00     0.197 C 
BRANCH   5   6
ATOM      6  N   UNL A   1      29.625  27.578  24.924  1.00  0.00    -0.342 N 
ATOM      7  C   UNL A   1      29.814  26.233  24.775  1.00  0.00     0.225 C 
ATOM      8  O   UNL A   1      29.717  25.566  25.813  1.00  0.00    -0.275 OA
ATOM      9  H   UNL A   1      29.498  27.886  25.851  1.00  0.00     0.164 HD
BRANCH   7  10
ATOM     10  C   UNL A   1      30.243  25.547  23.469  1.00  0.00     0.137 C 
BRANCH  10  11
ATOM     11  C   UNL A   1      31.369  24.541  23.494  1.00  0.00    -0.017 A 
ATOM     12  C   UNL A   1      33.524  26.001  23.585  1.00  0.00     0.065 C 
ATOM     13  C   UNL A   1      32.751  24.723  23.598  1.00  0.00     0.024 A 
ATOM     14  N   UNL A   1      33.337  23.462  23.782  1.00  0.00    -0.314 N 
ATOM     15  C   UNL A   1      31.180  23.140  23.301  1.00  0.00     0.033 A 
ATOM     16  C   UNL A   1      32.372  22.488  23.544  1.00  0.00     0.053 A 
BRANCH  14  17
ATOM     17  C   UNL A   1      34.621  23.158  24.335  1.00  0.00     0.046 A 
ATOM     18  C   UNL A   1      34.887  23.460  25.669  1.00  0.00     0.029 A 
ATOM     19  C   UNL A   1      35.702  22.929  23.464  1.00  0.00     0.029 A 
ATOM     20  C   UNL A   1      36.219  23.506  26.109  1.00  0.00     0.041 A 
ATOM     21  C   UNL A   1      37.019  22.944  23.906  1.00  0.00     0.041 A 
ATOM     22  C   UNL A   1      37.266  23.258  25.225  1.00  0.00     0.123 A 
ATOM     23  F   UNL A   1      38.534  23.367  25.639  1.00  0.00    -0.207 F 
ENDBRANCH  14  17
BRANCH  16  24
ATOM     24  C   UNL A   1      32.602  21.050  23.715  1.00  0.00    -0.001 A 
ATOM     25  C   UNL A   1      33.214  20.581  24.887  1.00  0.00     0.011 A 
ATOM     26  C   UNL A   1      32.226  20.127  22.738  1.00  0.00     0.011 A 
ATOM     27  C   UNL A   1      33.501  19.238  25.077  1.00  0.00     0.021 A 
ATOM     28  C   UNL A   1      32.485  18.762  22.929  1.00  0.00     0.021 A 
ATOM     29  C   UNL A   1      33.133  18.331  24.092  1.00  0.00     0.067 A 
BRANCH  29  30
ATOM     30  S   UNL A   1      33.427  16.611  24.397  1.00  0.00     0.175 S 
ATOM     31  C   UNL A   1      34.945  16.582  25.315  1.00  0.00     0.163 C 
ATOM     32  O   UNL A   1      32.363  16.152  25.273  1.00  0.00    -0.224 OA
ATOM     33  O   UNL A   1      33.670  15.972  23.118  1.00  0.00    -0.224 OA
ENDBRANCH  29  30
ENDBRANCH  16  24
ENDBRANCH  10  11
ENDBRANCH   7  10
ENDBRANCH   5   6
BRANCH   5  34
ATOM     34  C   UNL A   1      28.758  28.305  22.653  1.00  0.00     0.191 C 
BRANCH  34  35
ATOM     35  O   UNL A   1      27.350  28.222  22.915  1.00  0.00    -0.394 OA
ATOM     36  H   UNL A   1      27.203  27.717  23.730  1.00  0.00     0.210 HD
ENDBRANCH  34  35
ENDBRANCH   5  34
ENDBRANCH   1   5
BRANCH   3  37
ATOM     37  C   UNL A   1      32.290  29.971  25.411  1.00  0.00     0.117 C 
BRANCH  37  38
ATOM     38  C   UNL A   1      32.847  28.687  26.157  1.00  0.00     0.042 C 
BRANCH  38  39
ATOM     39  C   UNL A   1      34.031  28.807  27.201  1.00  0.00     0.118 C 
BRANCH  39  40
ATOM     40  N   UNL A   1      34.253  30.137  27.842  1.00  0.00    -0.352 N 
ATOM     41  C   UNL A   1      35.304  30.921  28.357  1.00  0.00     0.251 C 
ATOM     42  H   UNL A   1      33.397  30.614  27.936  1.00  0.00     0.163 HD
ATOM     43  O   UNL A   1      35.040  32.132  28.404  1.00  0.00    -0.269 OA
BRANCH  41  44
ATOM     44  C   UNL A   1      36.695  30.528  28.907  1.00  0.00     0.039 A 
ATOM     45  C   UNL A   1      37.804  30.290  28.052  1.00  0.00     0.014 A 
ATOM     46  C   UNL A   1      36.866  29.823  30.079  1.00  0.00     0.014 A 
ATOM     47  C   UNL A   1      39.115  29.616  28.431  1.00  0.00     0.010 A 
ATOM     48  C   UNL A   1      38.141  29.129  30.418  1.00  0.00     0.010 A 
ATOM     49  C   UNL A   1      39.442  29.077  29.709  1.00  0.00    -0.014 A 
BRANCH  49  50
ATOM     50  C   UNL A   1      40.697  27.780  29.902  1.00  0.00     0.031 A 
ATOM     51  C   UNL A   1      41.361  28.393  31.115  1.00  0.00     0.074 A 
ATOM     52  C   UNL A   1      41.503  26.612  29.352  1.00  0.00     0.049 A 
ATOM     53  N   UNL A   1      41.636  29.661  31.013  1.00  0.00    -0.248 NA
ATOM     54  C   UNL A   1      42.229  27.701  32.036  1.00  0.00     0.031 C 
ATOM     55  C   UNL A   1      42.967  26.360  29.740  1.00  0.00     0.029 A 
ATOM     56  N   UNL A   1      41.540  25.552  28.295  1.00  0.00    -0.354 N 
ATOM     57  C   UNL A   1      42.980  29.575  30.839  1.00  0.00     0.074 A 
ATOM     58  C   UNL A   1      43.313  28.445  31.751  1.00  0.00     0.031 C 
ATOM     59  C   UNL A   1      43.612  25.301  29.213  1.00  0.00     0.029 A 
ATOM     60  C   UNL A   1      42.778  24.634  28.232  1.00  0.00     0.049 A 
ATOM     61  H   UNL A   1      40.797  25.444  27.659  1.00  0.00     0.167 HD
ATOM     62  C   UNL A   1      43.420  29.899  29.574  1.00  0.00     0.037 A 
ATOM     63  C   UNL A   1      43.425  23.563  27.517  1.00  0.00     0.037 A 
ATOM     64  C   UNL A   1      42.908  29.338  28.262  1.00  0.00     0.049 A 
ATOM     65  C   UNL A   1      43.445  24.522  26.326  1.00  0.00     0.074 A 
ATOM     66  C   UNL A   1      41.762  28.978  27.539  1.00  0.00     0.029 A 
ATOM     67  N   UNL A   1      43.826  29.227  27.233  1.00  0.00    -0.354 N 
ATOM     68  N   UNL A   1      44.483  25.183  25.894  1.00  0.00    -0.248 NA
ATOM     69  C   UNL A   1      42.194  24.752  25.597  1.00  0.00     0.031 C 
ATOM     70  C   UNL A   1      42.030  28.476  26.253  1.00  0.00     0.029 A 
ATOM     71  C   UNL A   1      43.385  28.359  26.243  1.00  0.00     0.049 A 
ATOM     72  H   UNL A   1      44.686  29.705  27.206  1.00  0.00     0.167 HD
ATOM     73  C   UNL A   1      43.888  26.248  25.234  1.00  0.00     0.074 A 
ATOM     74  C   UNL A   1      42.530  25.836  24.916  1.00  0.00     0.031 C 
ATOM     75  C   UNL A   1      44.316  27.483  25.608  1.00  0.00     0.037 A 
BRANCH  62  76
ATOM     76  C   UNL A   1      43.798  31.368  29.637  1.00  0.00     0.064 A 
ATOM     77  C   UNL A   1      45.147  31.791  29.725  1.00  0.00     0.173 A 
ATOM     78  C   UNL A   1      42.830  32.385  29.588  1.00  0.00     0.173 A 
ATOM     79  F   UNL A   1      46.162  30.911  29.780  1.00  0.00    -0.203 F 
ATOM     80  C   UNL A   1      45.495  33.132  29.734  1.00  0.00     0.198 A 
ATOM     81  C   UNL A   1      43.189  33.725  29.541  1.00  0.00     0.198 A 
ATOM     82  F   UNL A   1      41.518  32.120  29.558  1.00  0.00    -0.203 F 
ATOM     83  F   UNL A   1      46.786  33.481  29.823  1.00  0.00    -0.200 F 
ATOM     84  C   UNL A   1      44.518  34.099  29.609  1.00  0.00     0.200 A 
ATOM     85  F   UNL A   1      42.234  34.653  29.396  1.00  0.00    -0.200 F 
ATOM     86  F   UNL A   1      44.856  35.390  29.526  1.00  0.00    -0.200 F 
ENDBRANCH  62  76
BRANCH  63  87
ATOM     87  C   UNL A   1      43.940  22.291  26.605  1.00  0.00     0.064 A 
ATOM     88  C   UNL A   1      43.102  21.173  26.273  1.00  0.00     0.173 A 
ATOM     89  C   UNL A   1      45.247  22.122  26.060  1.00  0.00     0.173 A 
ATOM     90  F   UNL A   1      41.861  21.083  26.776  1.00  0.00    -0.203 F 
ATOM     91  C   UNL A   1      43.511  20.089  25.421  1.00  0.00     0.198 A 
ATOM     92  C   UNL A   1      45.656  21.039  25.240  1.00  0.00     0.198 A 
ATOM     93  F   UNL A   1      46.218  23.003  26.309  1.00  0.00    -0.203 F 
ATOM     94  F   UNL A   1      42.666  19.085  25.123  1.00  0.00    -0.200 F 
ATOM     95  C   UNL A   1      44.783  20.041  24.884  1.00  0.00     0.200 A 
ATOM     96  F   UNL A   1      46.923  20.991  24.796  1.00  0.00    -0.200 F 
ATOM     97  F   UNL A   1      45.166  19.061  24.049  1.00  0.00    -0.200 F 
ENDBRANCH  63  87
BRANCH  75  98
ATOM     98  C   UNL A   1      45.773  27.635  25.817  1.00  0.00     0.064 A 
ATOM     99  C   UNL A   1      46.271  27.367  27.089  1.00  0.00     0.173 A 
ATOM    100  C   UNL A   1      46.682  27.855  24.769  1.00  0.00     0.173 A 
ATOM    101  F   UNL A   1      45.430  27.168  28.116  1.00  0.00    -0.203 F 
ATOM    102  C   UNL A   1      47.637  27.225  27.286  1.00  0.00     0.198 A 
ATOM    103  C   UNL A   1      48.034  27.635  24.952  1.00  0.00     0.198 A 
ATOM    104  F   UNL A   1      46.260  28.136  23.526  1.00  0.00    -0.203 F 
ATOM    105  F   UNL A   1      48.100  26.931  28.506  1.00  0.00    -0.200 F 
ATOM    106  C   UNL A   1      48.511  27.320  26.211  1.00  0.00     0.200 A 
ATOM    107  F   UNL A   1      48.854  27.649  23.892  1.00  0.00    -0.200 F 
ATOM    108  F   UNL A   1      49.816  27.077  26.383  1.00  0.00    -0.200 F 
ENDBRANCH  75  98
ENDBRANCH  49  50
ENDBRANCH  41  44
ENDBRANCH  39  40
ENDBRANCH  38  39
ENDBRANCH  37  38
ENDBRANCH   3  37
TORSDOF 18
ENDMDL
MODEL 2
REMARK VINA RESULT:     -13.8      5.578      9.863
REMARK SMILES Cc1c(CC(=O)N[C@H](CO)C(=O)NCCCNC(=O)c2ccc(-c3c4nc(c(-c5c(F)c(F)c(F)c(F)c5F)c5ccc([nH]5)c(-c5c(F)c(F)c(F)c(F)c5F)c5nc(c(-c6c(F)c(F)c(F)c(F)c6F)c6ccc3[nH]6)C=C5)C=C4)cc2)cc(-c2ccc(S(C)(=O)=O)cc2)n1-c1ccc(F)cc1
REMARK SMILES IDX 11 1 12 2 13 3 8 5 7 6 5 7 6 8 4 10 3 11 1 12 2 13 95 14
REMARK SMILES IDX 83 15 84 16 96 17 97 18 102 19 98 20 101 21 99 22 100 23
REMARK SMILES IDX 85 24 86 25 94 26 87 27 93 28 88 29 89 30 90 31 91 32 92 33
REMARK SMILES IDX 9 34 10 35 14 37 15 38 16 39 17 40 18 41 19 43 20 44 21 45
REMARK SMILES IDX 82 46 22 47 81 48 23 49 24 50 25 51 75 52 26 53 80 54 74 55
REMARK SMILES IDX 76 56 27 57 79 58 73 59 72 60 28 62 60 63 40 64 59 65 41 66
REMARK SMILES IDX 44 67 58 68 77 69 42 70 43 71 57 73 78 74 45 75 29 76 30 77
REMARK SMILES IDX 38 78 31 79 32 80 36 81 39 82 33 83 34 84 37 85 35 86 61 87
REMARK SMILES IDX 62 88 70 89 63 90 64 91 68 92 71 93 65 94 66 95 69 96 67 97
REMARK SMILES IDX 46 98 47 99 55 100 48 101 49 102 53 103 56 104 50 105 51 106
REMARK SMILES IDX 54 107 52 108
REMARK H PARENT 13 4 7 9 10 36 17 42 76 61 44 72
REMARK Flexibility Score: inf
ROOT
ATOM      1  C   UNL A   1      33.024  36.606  30.791  1.00  0.00     0.244 C 
ATOM      2  O   UNL A   1      31.858  36.819  31.145  1.00  0.00    -0.273 OA
ATOM      3  N   UNL A   1      33.262  36.594  29.457  1.00  0.00    -0.354 N 
ATOM      4  H   UNL A   1      32.737  37.284  28.992  1.00  0.00     0.163 HD
ENDROOT
BRANCH   1   5
ATOM      5  C   UNL A   1      34.019  36.244  31.882  1.00  0.00     0.197 C 
BRANCH   5   6
ATOM      6  N   UNL A   1      33.677  34.981  32.512  1.00  0.00    -0.342 N 
ATOM      7  C   UNL A   1      34.346  33.790  32.485  1.00  0.00     0.225 C 
ATOM      8  O   UNL A   1      33.775  32.848  33.049  1.00  0.00    -0.275 OA
ATOM      9  H   UNL A   1      32.841  34.983  33.033  1.00  0.00     0.164 HD
BRANCH   7  10
ATOM     10  C   UNL A   1      35.764  33.594  31.927  1.00  0.00     0.137 C 
BRANCH  10  11
ATOM     11  C   UNL A   1      36.927  33.464  32.882  1.00  0.00    -0.017 A 
ATOM     12  C   UNL A   1      38.594  31.892  31.641  1.00  0.00     0.065 C 
ATOM     13  C   UNL A   1      38.147  32.793  32.745  1.00  0.00     0.024 A 
ATOM     14  N   UNL A   1      38.958  33.154  33.831  1.00  0.00    -0.314 N 
ATOM     15  C   UNL A   1      36.914  33.969  34.216  1.00  0.00     0.033 A 
ATOM     16  C   UNL A   1      38.175  33.833  34.760  1.00  0.00     0.053 A 
BRANCH  14  17
ATOM     17  C   UNL A   1      40.382  33.073  33.933  1.00  0.00     0.046 A 
ATOM     18  C   UNL A   1      41.174  34.047  33.328  1.00  0.00     0.029 A 
ATOM     19  C   UNL A   1      40.973  31.847  34.290  1.00  0.00     0.029 A 
ATOM     20  C   UNL A   1      42.536  33.787  33.113  1.00  0.00     0.041 A 
ATOM     21  C   UNL A   1      42.327  31.601  34.105  1.00  0.00     0.041 A 
ATOM     22  C   UNL A   1      43.094  32.569  33.492  1.00  0.00     0.123 A 
ATOM     23  F   UNL A   1      44.378  32.307  33.224  1.00  0.00    -0.207 F 
ENDBRANCH  14  17
BRANCH  16  24
ATOM     24  C   UNL A   1      38.701  34.428  35.993  1.00  0.00    -0.001 A 
ATOM     25  C   UNL A   1      38.397  33.842  37.230  1.00  0.00     0.011 A 
ATOM     26  C   UNL A   1      39.503  35.570  35.970  1.00  0.00     0.011 A 
ATOM     27  C   UNL A   1      38.825  34.393  38.428  1.00  0.00     0.021 A 
ATOM     28  C   UNL A   1      39.967  36.123  37.173  1.00  0.00     0.021 A 
ATOM     29  C   UNL A   1      39.612  35.536  38.393  1.00  0.00     0.067 A 
BRANCH  29  30
ATOM     30  S   UNL A   1      40.224  36.171  39.930  1.00  0.00     0.175 S 
ATOM     31  C   UNL A   1      41.961  35.811  39.891  1.00  0.00     0.163 C 
ATOM     32  O   UNL A   1      40.062  37.613  39.882  1.00  0.00    -0.224 OA
ATOM     33  O   UNL A   1      39.632  35.387  40.997  1.00  0.00    -0.224 OA
ENDBRANCH  29  30
ENDBRANCH  16  24
ENDBRANCH  10  11
ENDBRANCH   7  10
ENDBRANCH   5   6
BRANCH   5  34
ATOM     34  C   UNL A   1      34.061  37.471  32.812  1.00  0.00     0.191 C 
BRANCH  34  35
ATOM     35  O   UNL A   1      33.412  38.620  32.249  1.00  0.00    -0.394 OA
ATOM     36  H   UNL A   1      33.191  38.444  31.322  1.00  0.00     0.210 HD
ENDBRANCH  34  35
ENDBRANCH   5  34
ENDBRANCH   1   5
BRANCH   3  37
ATOM     37  C   UNL A   1      34.080  35.841  28.533  1.00  0.00     0.117 C 
BRANCH  37  38
ATOM     38  C   UNL A   1      33.523  34.378  28.280  1.00  0.00     0.042 C 
BRANCH  38  39
ATOM     39  C   UNL A   1      34.265  33.114  28.880  1.00  0.00     0.118 C 
BRANCH  39  40
ATOM     40  N   UNL A   1      34.465  31.940  27.981  1.00  0.00    -0.352 N 
ATOM     41  C   UNL A   1      35.216  30.750  27.915  1.00  0.00     0.251 C 
ATOM     42  H   UNL A   1      33.894  32.024  27.183  1.00  0.00     0.163 HD
ATOM     43  O   UNL A   1      34.723  29.895  27.164  1.00  0.00    -0.269 OA
BRANCH  41  44
ATOM     44  C   UNL A   1      36.555  30.351  28.578  1.00  0.00     0.039 A 
ATOM     45  C   UNL A   1      37.754  30.209  27.830  1.00  0.00     0.014 A 
ATOM     46  C   UNL A   1      36.628  29.562  29.706  1.00  0.00     0.014 A 
ATOM     47  C   UNL A   1      39.041  29.542  28.294  1.00  0.00     0.010 A 
ATOM     48  C   UNL A   1      37.884  28.877  30.125  1.00  0.00     0.010 A 
ATOM     49  C   UNL A   1      39.252  28.914  29.555  1.00  0.00    -0.014 A 
BRANCH  49  50
ATOM     50  C   UNL A   1      40.523  27.639  29.782  1.00  0.00     0.031 A 
ATOM     51  C   UNL A   1      41.132  28.252  31.024  1.00  0.00     0.074 A 
ATOM     52  C   UNL A   1      41.371  26.491  29.252  1.00  0.00     0.049 A 
ATOM     53  N   UNL A   1      41.385  29.526  30.944  1.00  0.00    -0.248 NA
ATOM     54  C   UNL A   1      41.978  27.568  31.971  1.00  0.00     0.031 C 
ATOM     55  C   UNL A   1      42.825  26.263  29.692  1.00  0.00     0.029 A 
ATOM     56  N   UNL A   1      41.467  25.442  28.188  1.00  0.00    -0.354 N 
ATOM     57  C   UNL A   1      42.737  29.467  30.818  1.00  0.00     0.074 A 
ATOM     58  C   UNL A   1      43.058  28.335  31.732  1.00  0.00     0.031 C 
ATOM     59  C   UNL A   1      43.508  25.221  29.179  1.00  0.00     0.029 A 
ATOM     60  C   UNL A   1      42.723  24.548  28.162  1.00  0.00     0.049 A 
ATOM     61  H   UNL A   1      40.749  25.326  27.525  1.00  0.00     0.167 HD
ATOM     62  C   UNL A   1      43.216  29.811  29.573  1.00  0.00     0.037 A 
ATOM     63  C   UNL A   1      43.416  23.496  27.462  1.00  0.00     0.037 A 
ATOM     64  C   UNL A   1      42.763  29.253  28.239  1.00  0.00     0.049 A 
ATOM     65  C   UNL A   1      43.462  24.467  26.281  1.00  0.00     0.074 A 
ATOM     66  C   UNL A   1      41.651  28.879  27.471  1.00  0.00     0.029 A 
ATOM     67  N   UNL A   1      43.719  29.169  27.243  1.00  0.00    -0.354 N 
ATOM     68  N   UNL A   1      44.501  25.151  25.893  1.00  0.00    -0.248 NA
ATOM     69  C   UNL A   1      42.233  24.680  25.509  1.00  0.00     0.031 C 
ATOM     70  C   UNL A   1      41.975  28.394  26.192  1.00  0.00     0.029 A 
ATOM     71  C   UNL A   1      43.331  28.302  26.230  1.00  0.00     0.049 A 
ATOM     72  H   UNL A   1      44.571  29.663  27.251  1.00  0.00     0.167 HD
ATOM     73  C   UNL A   1      43.911  26.210  25.222  1.00  0.00     0.074 A 
ATOM     74  C   UNL A   1      42.574  25.777  24.850  1.00  0.00     0.031 C 
ATOM     75  C   UNL A   1      44.302  27.449  25.621  1.00  0.00     0.037 A 
BRANCH  62  76
ATOM     76  C   UNL A   1      43.564  31.286  29.663  1.00  0.00     0.064 A 
ATOM     77  C   UNL A   1      42.568  32.293  29.634  1.00  0.00     0.173 A 
ATOM     78  C   UNL A   1      44.890  31.728  29.804  1.00  0.00     0.173 A 
ATOM     79  F   UNL A   1      41.263  31.995  29.502  1.00  0.00    -0.203 F 
ATOM     80  C   UNL A   1      42.881  33.637  29.764  1.00  0.00     0.198 A 
ATOM     81  C   UNL A   1      45.191  33.070  29.990  1.00  0.00     0.198 A 
ATOM     82  F   UNL A   1      45.929  30.882  29.792  1.00  0.00    -0.203 F 
ATOM     83  F   UNL A   1      41.903  34.552  29.725  1.00  0.00    -0.200 F 
ATOM     84  C   UNL A   1      44.189  34.022  29.975  1.00  0.00     0.200 A 
ATOM     85  F   UNL A   1      46.461  33.430  30.218  1.00  0.00    -0.200 F 
ATOM     86  F   UNL A   1      44.485  35.309  30.192  1.00  0.00    -0.200 F 
ENDBRANCH  62  76
BRANCH  63  87
ATOM     87  C   UNL A   1      43.988  22.242  26.558  1.00  0.00     0.064 A 
ATOM     88  C   UNL A   1      43.199  21.088  26.231  1.00  0.00     0.173 A 
ATOM     89  C   UNL A   1      45.303  22.127  26.018  1.00  0.00     0.173 A 
ATOM     90  F   UNL A   1      41.962  20.947  26.731  1.00  0.00    -0.203 F 
ATOM     91  C   UNL A   1      43.658  20.017  25.386  1.00  0.00     0.198 A 
ATOM     92  C   UNL A   1      45.761  21.059  25.205  1.00  0.00     0.198 A 
ATOM     93  F   UNL A   1      46.234  23.050  26.265  1.00  0.00    -0.203 F 
ATOM     94  F   UNL A   1      42.857  18.977  25.090  1.00  0.00    -0.200 F 
ATOM     95  C   UNL A   1      44.931  20.022  24.852  1.00  0.00     0.200 A 
ATOM     96  F   UNL A   1      47.029  21.062  24.765  1.00  0.00    -0.200 F 
ATOM     97  F   UNL A   1      45.359  19.054  24.023  1.00  0.00    -0.200 F 
ENDBRANCH  63  87
BRANCH  75  98
ATOM     98  C   UNL A   1      45.747  27.627  25.886  1.00  0.00     0.064 A 
ATOM     99  C   UNL A   1      46.206  27.341  27.168  1.00  0.00     0.173 A 
ATOM    100  C   UNL A   1      46.686  27.889  24.875  1.00  0.00     0.173 A 
ATOM    101  F   UNL A   1      45.334  27.102  28.160  1.00  0.00    -0.203 F 
ATOM    102  C   UNL A   1      47.566  27.222  27.410  1.00  0.00     0.198 A 
ATOM    103  C   UNL A   1      48.037  27.693  25.100  1.00  0.00     0.198 A 
ATOM    104  F   UNL A   1      46.302  28.189  23.624  1.00  0.00    -0.203 F 
ATOM    105  F   UNL A   1      47.993  26.911  28.639  1.00  0.00    -0.200 F 
ATOM    106  C   UNL A   1      48.475  27.359  26.369  1.00  0.00     0.200 A 
ATOM    107  F   UNL A   1      48.892  27.747  24.070  1.00  0.00    -0.200 F 
ATOM    108  F   UNL A   1      49.778  27.139  26.581  1.00  0.00    -0.200 F 
ENDBRANCH  75  98
ENDBRANCH  49  50
ENDBRANCH  41  44
ENDBRANCH  39  40
ENDBRANCH  38  39
ENDBRANCH  37  38
ENDBRANCH   3  37
TORSDOF 18
ENDMDL
MODEL 3
REMARK VINA RESULT:     -13.6      4.700     10.623
REMARK SMILES Cc1c(CC(=O)N[C@H](CO)C(=O)NCCCNC(=O)c2ccc(-c3c4nc(c(-c5c(F)c(F)c(F)c(F)c5F)c5ccc([nH]5)c(-c5c(F)c(F)c(F)c(F)c5F)c5nc(c(-c6c(F)c(F)c(F)c(F)c6F)c6ccc3[nH]6)C=C5)C=C4)cc2)cc(-c2ccc(S(C)(=O)=O)cc2)n1-c1ccc(F)cc1
REMARK SMILES IDX 11 1 12 2 13 3 8 5 7 6 5 7 6 8 4 10 3 11 1 12 2 13 95 14
REMARK SMILES IDX 83 15 84 16 96 17 97 18 102 19 98 20 101 21 99 22 100 23
REMARK SMILES IDX 85 24 86 25 94 26 87 27 93 28 88 29 89 30 90 31 91 32 92 33
REMARK SMILES IDX 9 34 10 35 14 37 15 38 16 39 17 40 18 41 19 43 20 44 21 45
REMARK SMILES IDX 82 46 22 47 81 48 23 49 24 50 25 51 75 52 26 53 80 54 74 55
REMARK SMILES IDX 76 56 27 57 79 58 73 59 72 60 28 62 60 63 40 64 59 65 41 66
REMARK SMILES IDX 44 67 58 68 77 69 42 70 43 71 57 73 78 74 45 75 29 76 30 77
REMARK SMILES IDX 38 78 31 79 32 80 36 81 39 82 33 83 34 84 37 85 35 86 61 87
REMARK SMILES IDX 62 88 70 89 63 90 64 91 68 92 71 93 65 94 66 95 69 96 67 97
REMARK SMILES IDX 46 98 47 99 55 100 48 101 49 102 53 103 56 104 50 105 51 106
REMARK SMILES IDX 54 107 52 108
REMARK H PARENT 13 4 7 9 10 36 17 42 76 61 44 72
REMARK Flexibility Score: inf
ROOT
ATOM      1  C   UNL A   1      35.408  22.731  24.895  1.00  0.00     0.244 C 
ATOM      2  O   UNL A   1      34.795  23.674  24.378  1.00  0.00    -0.273 OA
ATOM      3  N   UNL A   1      36.594  23.025  25.481  1.00  0.00    -0.354 N 
ATOM      4  H   UNL A   1      36.557  23.890  25.951  1.00  0.00     0.163 HD
ENDROOT
BRANCH   1   5
ATOM      5  C   UNL A   1      34.832  21.340  24.686  1.00  0.00     0.197 C 
BRANCH   5   6
ATOM      6  N   UNL A   1      33.951  21.299  23.534  1.00  0.00    -0.342 N 
ATOM      7  C   UNL A   1      32.586  21.354  23.483  1.00  0.00     0.225 C 
ATOM      8  O   UNL A   1      32.091  21.214  22.358  1.00  0.00    -0.275 OA
ATOM      9  H   UNL A   1      34.402  21.220  22.661  1.00  0.00     0.164 HD
BRANCH   7  10
ATOM     10  C   UNL A   1      31.678  21.689  24.677  1.00  0.00     0.137 C 
BRANCH  10  11
ATOM     11  C   UNL A   1      31.406  23.134  25.020  1.00  0.00    -0.017 A 
ATOM     12  C   UNL A   1      32.591  23.475  27.315  1.00  0.00     0.065 C 
ATOM     13  C   UNL A   1      31.834  23.909  26.103  1.00  0.00     0.024 A 
ATOM     14  N   UNL A   1      31.475  25.240  25.846  1.00  0.00    -0.314 N 
ATOM     15  C   UNL A   1      30.518  23.968  24.278  1.00  0.00     0.033 A 
ATOM     16  C   UNL A   1      30.618  25.262  24.749  1.00  0.00     0.053 A 
BRANCH  14  17
ATOM     17  C   UNL A   1      32.027  26.429  26.418  1.00  0.00     0.046 A 
ATOM     18  C   UNL A   1      31.181  27.374  26.996  1.00  0.00     0.029 A 
ATOM     19  C   UNL A   1      33.330  26.818  26.059  1.00  0.00     0.029 A 
ATOM     20  C   UNL A   1      31.658  28.674  27.222  1.00  0.00     0.041 A 
ATOM     21  C   UNL A   1      33.813  28.095  26.311  1.00  0.00     0.041 A 
ATOM     22  C   UNL A   1      32.959  29.023  26.870  1.00  0.00     0.123 A 
ATOM     23  F   UNL A   1      33.384  30.281  27.031  1.00  0.00    -0.207 F 
ENDBRANCH  14  17
BRANCH  16  24
ATOM     24  C   UNL A   1      30.097  26.491  24.143  1.00  0.00    -0.001 A 
ATOM     25  C   UNL A   1      28.717  26.742  24.162  1.00  0.00     0.011 A 
ATOM     26  C   UNL A   1      30.941  27.428  23.544  1.00  0.00     0.011 A 
ATOM     27  C   UNL A   1      28.167  27.863  23.559  1.00  0.00     0.021 A 
ATOM     28  C   UNL A   1      30.401  28.580  22.955  1.00  0.00     0.021 A 
ATOM     29  C   UNL A   1      29.016  28.780  22.956  1.00  0.00     0.067 A 
BRANCH  29  30
ATOM     30  S   UNL A   1      28.300  30.250  22.272  1.00  0.00     0.175 S 
ATOM     31  C   UNL A   1      29.137  31.573  23.107  1.00  0.00     0.163 C 
ATOM     32  O   UNL A   1      28.681  30.289  20.872  1.00  0.00    -0.224 OA
ATOM     33  O   UNL A   1      26.905  30.286  22.669  1.00  0.00    -0.224 OA
ENDBRANCH  29  30
ENDBRANCH  16  24
ENDBRANCH  10  11
ENDBRANCH   7  10
ENDBRANCH   5   6
BRANCH   5  34
ATOM     34  C   UNL A   1      34.195  20.961  26.037  1.00  0.00     0.191 C 
BRANCH  34  35
ATOM     35  O   UNL A   1      35.032  21.281  27.157  1.00  0.00    -0.394 OA
ATOM     36  H   UNL A   1      35.147  22.242  27.209  1.00  0.00     0.210 HD
ENDBRANCH  34  35
ENDBRANCH   5  34
ENDBRANCH   1   5
BRANCH   3  37
ATOM     37  C   UNL A   1      37.897  22.413  25.605  1.00  0.00     0.117 C 
BRANCH  37  38
ATOM     38  C   UNL A   1      38.882  23.255  26.518  1.00  0.00     0.042 C 
BRANCH  38  39
ATOM     39  C   UNL A   1      40.321  22.704  26.880  1.00  0.00     0.118 C 
BRANCH  39  40
ATOM     40  N   UNL A   1      41.497  23.382  26.259  1.00  0.00    -0.352 N 
ATOM     41  C   UNL A   1      42.460  24.363  26.567  1.00  0.00     0.251 C 
ATOM     42  H   UNL A   1      41.644  23.036  25.349  1.00  0.00     0.163 HD
ATOM     43  O   UNL A   1      43.486  24.281  25.876  1.00  0.00    -0.269 OA
BRANCH  41  44
ATOM     44  C   UNL A   1      42.437  25.533  27.576  1.00  0.00     0.039 A 
ATOM     45  C   UNL A   1      41.242  25.948  28.223  1.00  0.00     0.014 A 
ATOM     46  C   UNL A   1      43.309  26.599  27.510  1.00  0.00     0.014 A 
ATOM     47  C   UNL A   1      41.024  27.247  28.987  1.00  0.00     0.010 A 
ATOM     48  C   UNL A   1      43.062  27.883  28.226  1.00  0.00     0.010 A 
ATOM     49  C   UNL A   1      41.980  28.289  29.155  1.00  0.00    -0.014 A 
BRANCH  49  50
ATOM     50  C   UNL A   1      41.474  29.997  29.501  1.00  0.00     0.031 A 
ATOM     51  C   UNL A   1      42.866  30.511  29.794  1.00  0.00     0.074 A 
ATOM     52  C   UNL A   1      40.411  31.027  29.856  1.00  0.00     0.049 A 
ATOM     53  N   UNL A   1      43.564  29.780  30.613  1.00  0.00    -0.248 NA
ATOM     54  C   UNL A   1      43.268  31.897  29.794  1.00  0.00     0.031 C 
ATOM     55  C   UNL A   1      40.701  32.244  30.747  1.00  0.00     0.029 A 
ATOM     56  N   UNL A   1      38.939  31.303  29.859  1.00  0.00    -0.354 N 
ATOM     57  C   UNL A   1      43.493  30.569  31.717  1.00  0.00     0.074 A 
ATOM     58  C   UNL A   1      43.578  31.924  31.104  1.00  0.00     0.031 C 
ATOM     59  C   UNL A   1      39.706  33.113  31.012  1.00  0.00     0.029 A 
ATOM     60  C   UNL A   1      38.452  32.635  30.465  1.00  0.00     0.049 A 
ATOM     61  H   UNL A   1      38.301  30.654  29.485  1.00  0.00     0.167 HD
ATOM     62  C   UNL A   1      42.715  30.066  32.736  1.00  0.00     0.037 A 
ATOM     63  C   UNL A   1      37.301  33.433  30.804  1.00  0.00     0.037 A 
ATOM     64  C   UNL A   1      41.288  29.566  32.629  1.00  0.00     0.049 A 
ATOM     65  C   UNL A   1      36.923  32.284  31.740  1.00  0.00     0.074 A 
ATOM     66  C   UNL A   1      40.394  28.806  31.860  1.00  0.00     0.029 A 
ATOM     67  N   UNL A   1      40.482  29.745  33.738  1.00  0.00    -0.354 N 
ATOM     68  N   UNL A   1      37.063  32.274  33.036  1.00  0.00    -0.248 NA
ATOM     69  C   UNL A   1      36.367  31.062  31.150  1.00  0.00     0.031 C 
ATOM     70  C   UNL A   1      39.092  28.746  32.388  1.00  0.00     0.029 A 
ATOM     71  C   UNL A   1      39.134  29.634  33.418  1.00  0.00     0.049 A 
ATOM     72  H   UNL A   1      40.820  29.928  34.644  1.00  0.00     0.167 HD
ATOM     73  C   UNL A   1      37.117  30.917  33.308  1.00  0.00     0.074 A 
ATOM     74  C   UNL A   1      36.498  30.240  32.179  1.00  0.00     0.031 C 
ATOM     75  C   UNL A   1      38.188  30.506  34.036  1.00  0.00     0.037 A 
BRANCH  62  76
ATOM     76  C   UNL A   1      43.673  29.333  33.658  1.00  0.00     0.064 A 
ATOM     77  C   UNL A   1      44.368  29.998  34.699  1.00  0.00     0.173 A 
ATOM     78  C   UNL A   1      43.902  27.952  33.542  1.00  0.00     0.173 A 
ATOM     79  F   UNL A   1      44.230  31.319  34.909  1.00  0.00    -0.203 F 
ATOM     80  C   UNL A   1      45.205  29.321  35.570  1.00  0.00     0.198 A 
ATOM     81  C   UNL A   1      44.699  27.271  34.453  1.00  0.00     0.198 A 
ATOM     82  F   UNL A   1      43.351  27.216  32.569  1.00  0.00    -0.203 F 
ATOM     83  F   UNL A   1      45.843  29.996  36.535  1.00  0.00    -0.200 F 
ATOM     84  C   UNL A   1      45.345  27.952  35.467  1.00  0.00     0.200 A 
ATOM     85  F   UNL A   1      44.808  25.939  34.358  1.00  0.00    -0.200 F 
ATOM     86  F   UNL A   1      46.080  27.282  36.361  1.00  0.00    -0.200 F 
ENDBRANCH  62  76
BRANCH  63  87
ATOM     87  C   UNL A   1      35.861  34.201  31.033  1.00  0.00     0.064 A 
ATOM     88  C   UNL A   1      35.572  34.994  32.195  1.00  0.00     0.173 A 
ATOM     89  C   UNL A   1      34.740  34.165  30.153  1.00  0.00     0.173 A 
ATOM     90  F   UNL A   1      36.457  35.073  33.200  1.00  0.00    -0.203 F 
ATOM     91  C   UNL A   1      34.349  35.728  32.380  1.00  0.00     0.198 A 
ATOM     92  C   UNL A   1      33.525  34.871  30.349  1.00  0.00     0.198 A 
ATOM     93  F   UNL A   1      34.755  33.421  29.045  1.00  0.00    -0.203 F 
ATOM     94  F   UNL A   1      34.151  36.480  33.478  1.00  0.00    -0.200 F 
ATOM     95  C   UNL A   1      33.338  35.685  31.439  1.00  0.00     0.200 A 
ATOM     96  F   UNL A   1      32.537  34.745  29.448  1.00  0.00    -0.200 F 
ATOM     97  F   UNL A   1      32.210  36.402  31.573  1.00  0.00    -0.200 F 
ENDBRANCH  63  87
BRANCH  75  98
ATOM     98  C   UNL A   1      38.575  31.369  35.175  1.00  0.00     0.064 A 
ATOM     99  C   UNL A   1      39.299  32.523  34.889  1.00  0.00     0.173 A 
ATOM    100  C   UNL A   1      38.100  31.176  36.482  1.00  0.00     0.173 A 
ATOM    101  F   UNL A   1      39.781  32.730  33.653  1.00  0.00    -0.203 F 
ATOM    102  C   UNL A   1      39.456  33.503  35.857  1.00  0.00     0.198 A 
ATOM    103  C   UNL A   1      38.190  32.188  37.420  1.00  0.00     0.198 A 
ATOM    104  F   UNL A   1      37.412  30.074  36.820  1.00  0.00    -0.203 F 
ATOM    105  F   UNL A   1      40.122  34.624  35.559  1.00  0.00    -0.200 F 
ATOM    106  C   UNL A   1      38.869  33.351  37.107  1.00  0.00     0.200 A 
ATOM    107  F   UNL A   1      37.549  32.061  38.590  1.00  0.00    -0.200 F 
ATOM    108  F   UNL A   1      38.931  34.343  38.003  1.00  0.00    -0.200 F 
ENDBRANCH  75  98
ENDBRANCH  49  50
ENDBRANCH  41  44
ENDBRANCH  39  40
ENDBRANCH  38  39
ENDBRANCH  37  38
ENDBRANCH   3  37
TORSDOF 18
ENDMDL
