MODEL 1
REMARK VINA RESULT:     -12.7      0.000      0.000
REMARK SMILES C[C@@H]1Cc2ccccc2N1S(=O)(=O)c1c[nH]c(C(=O)NCCCNC(=O)c2ccc(-c3c4nc(c(-c5c(F)c(F)c(F)c(F)c5F)c5ccc([nH]5)c(-c5c(F)c(F)c(F)c(F)c5F)c5nc(c(-c6c(F)c(F)c(F)c(F)c6F)c6ccc3[nH]6)C=C5)C=C4)cc2)c1
REMARK SMILES IDX 22 1 21 2 20 3 18 4 19 5 17 7 14 8 15 9 90 10 16 11 11 13
REMARK SMILES IDX 12 14 13 15 10 16 1 17 2 18 3 19 4 20 9 21 5 22 8 23 6 24
REMARK SMILES IDX 7 25 23 26 24 27 25 28 26 30 27 31 28 32 89 33 29 34 88 35
REMARK SMILES IDX 30 36 31 37 32 38 82 39 33 40 87 41 81 42 83 43 34 44 86 45
REMARK SMILES IDX 80 46 79 47 35 49 67 50 47 51 66 52 48 53 51 54 65 55 84 56
REMARK SMILES IDX 49 57 50 58 64 60 85 61 52 62 36 63 37 64 45 65 38 66 39 67
REMARK SMILES IDX 43 68 46 69 40 70 41 71 44 72 42 73 68 74 69 75 77 76 70 77
REMARK SMILES IDX 71 78 75 79 78 80 72 81 73 82 76 83 74 84 53 85 54 86 62 87
REMARK SMILES IDX 55 88 56 89 60 90 63 91 57 92 58 93 61 94 59 95
REMARK H PARENT 20 6 16 12 24 29 83 48 51 59
REMARK Flexibility Score: inf
ROOT
ATOM      1  C   UNL A   1      41.625  21.390  27.567  1.00  0.00     0.042 C 
ENDROOT
BRANCH   1   2
ATOM      2  C   UNL A   1      41.428  20.945  26.122  1.00  0.00     0.118 C 
BRANCH   2   3
ATOM      3  N   UNL A   1      42.372  19.907  25.769  1.00  0.00    -0.351 N 
ATOM      4  C   UNL A   1      43.674  19.944  25.368  1.00  0.00     0.267 C 
ATOM      5  O   UNL A   1      44.229  18.852  25.223  1.00  0.00    -0.268 OA
ATOM      6  H   UNL A   1      42.001  18.997  25.830  1.00  0.00     0.163 HD
BRANCH   4   7
ATOM      7  C   UNL A   1      44.404  21.173  25.149  1.00  0.00     0.105 A 
ATOM      8  C   UNL A   1      45.597  23.113  25.111  1.00  0.00     0.106 A 
ATOM      9  C   UNL A   1      44.949  22.984  23.901  1.00  0.00     0.105 A 
ATOM     10  C   UNL A   1      45.270  21.966  25.893  1.00  0.00     0.055 A 
ATOM     11  N   UNL A   1      44.222  21.833  23.943  1.00  0.00    -0.356 N 
ATOM     12  H   UNL A   1      43.645  21.511  23.214  1.00  0.00     0.166 HD
BRANCH   8  13
ATOM     13  S   UNL A   1      46.560  24.470  25.587  1.00  0.00     0.266 S 
ATOM     14  O   UNL A   1      46.935  25.087  24.337  1.00  0.00    -0.201 OA
ATOM     15  O   UNL A   1      47.567  23.889  26.462  1.00  0.00    -0.201 OA
BRANCH  13  16
ATOM     16  N   UNL A   1      45.674  25.603  26.511  1.00  0.00    -0.263 N 
ATOM     17  C   UNL A   1      45.216  27.625  25.116  1.00  0.00     0.032 C 
ATOM     18  C   UNL A   1      44.635  26.334  25.673  1.00  0.00     0.101 C 
ATOM     19  C   UNL A   1      43.422  26.584  26.595  1.00  0.00     0.063 C 
ATOM     20  C   UNL A   1      43.713  25.710  27.768  1.00  0.00    -0.021 A 
ATOM     21  C   UNL A   1      44.995  25.172  27.700  1.00  0.00     0.055 A 
ATOM     22  C   UNL A   1      42.892  25.498  28.870  1.00  0.00     0.006 A 
ATOM     23  C   UNL A   1      45.515  24.500  28.793  1.00  0.00     0.027 A 
ATOM     24  C   UNL A   1      43.389  24.751  29.938  1.00  0.00     0.000 A 
ATOM     25  C   UNL A   1      44.700  24.266  29.906  1.00  0.00     0.002 A 
ENDBRANCH  13  16
ENDBRANCH   8  13
ENDBRANCH   4   7
ENDBRANCH   2   3
ENDBRANCH   1   2
BRANCH   1  26
ATOM     26  C   UNL A   1      41.011  22.764  27.861  1.00  0.00     0.118 C 
BRANCH  26  27
ATOM     27  N   UNL A   1      39.800  23.092  27.120  1.00  0.00    -0.352 N 
ATOM     28  C   UNL A   1      39.068  24.241  26.955  1.00  0.00     0.251 C 
ATOM     29  H   UNL A   1      39.427  22.322  26.633  1.00  0.00     0.163 HD
ATOM     30  O   UNL A   1      38.119  24.215  26.172  1.00  0.00    -0.269 OA
BRANCH  28  31
ATOM     31  C   UNL A   1      39.317  25.476  27.736  1.00  0.00     0.039 A 
ATOM     32  C   UNL A   1      39.054  25.583  29.100  1.00  0.00     0.014 A 
ATOM     33  C   UNL A   1      39.829  26.591  27.046  1.00  0.00     0.014 A 
ATOM     34  C   UNL A   1      39.138  26.815  29.729  1.00  0.00     0.010 A 
ATOM     35  C   UNL A   1      39.981  27.818  27.689  1.00  0.00     0.010 A 
ATOM     36  C   UNL A   1      39.596  27.933  29.026  1.00  0.00    -0.014 A 
BRANCH  36  37
ATOM     37  C   UNL A   1      39.781  29.164  29.824  1.00  0.00     0.031 A 
ATOM     38  C   UNL A   1      38.566  30.081  29.716  1.00  0.00     0.074 A 
ATOM     39  C   UNL A   1      41.013  29.376  30.368  1.00  0.00     0.049 A 
ATOM     40  N   UNL A   1      38.513  31.372  29.607  1.00  0.00    -0.248 NA
ATOM     41  C   UNL A   1      37.222  29.465  29.578  1.00  0.00     0.031 C 
ATOM     42  C   UNL A   1      42.086  28.368  30.391  1.00  0.00     0.029 A 
ATOM     43  N   UNL A   1      41.629  30.456  30.975  1.00  0.00    -0.354 N 
ATOM     44  C   UNL A   1      37.153  31.734  29.559  1.00  0.00     0.074 A 
ATOM     45  C   UNL A   1      36.416  30.515  29.410  1.00  0.00     0.031 C 
ATOM     46  C   UNL A   1      43.222  28.891  30.894  1.00  0.00     0.029 A 
ATOM     47  C   UNL A   1      43.013  30.282  31.244  1.00  0.00     0.049 A 
ATOM     48  H   UNL A   1      41.146  31.283  31.202  1.00  0.00     0.167 HD
ATOM     49  C   UNL A   1      36.719  33.011  29.774  1.00  0.00     0.037 A 
ATOM     50  C   UNL A   1      43.943  31.201  31.658  1.00  0.00     0.037 A 
ATOM     51  C   UNL A   1      37.830  33.872  30.005  1.00  0.00     0.049 A 
ATOM     52  C   UNL A   1      43.202  32.456  31.881  1.00  0.00     0.074 A 
ATOM     53  C   UNL A   1      38.779  34.417  29.182  1.00  0.00     0.029 A 
ATOM     54  N   UNL A   1      38.231  34.021  31.310  1.00  0.00    -0.354 N 
ATOM     55  N   UNL A   1      42.387  32.680  32.870  1.00  0.00    -0.248 NA
ATOM     56  C   UNL A   1      43.322  33.530  30.885  1.00  0.00     0.031 C 
ATOM     57  C   UNL A   1      39.924  34.526  30.000  1.00  0.00     0.029 A 
ATOM     58  C   UNL A   1      39.596  34.165  31.312  1.00  0.00     0.049 A 
ATOM     59  H   UNL A   1      37.646  34.025  32.101  1.00  0.00     0.167 HD
ATOM     60  C   UNL A   1      41.673  33.770  32.423  1.00  0.00     0.074 A 
ATOM     61  C   UNL A   1      42.474  34.410  31.409  1.00  0.00     0.031 C 
ATOM     62  C   UNL A   1      40.319  33.743  32.490  1.00  0.00     0.037 A 
BRANCH  49  63
ATOM     63  C   UNL A   1      35.352  33.576  30.045  1.00  0.00     0.064 A 
ATOM     64  C   UNL A   1      34.737  34.357  29.032  1.00  0.00     0.173 A 
ATOM     65  C   UNL A   1      34.791  33.677  31.324  1.00  0.00     0.173 A 
ATOM     66  F   UNL A   1      35.164  34.294  27.760  1.00  0.00    -0.203 F 
ATOM     67  C   UNL A   1      33.731  35.279  29.314  1.00  0.00     0.198 A 
ATOM     68  C   UNL A   1      33.743  34.565  31.591  1.00  0.00     0.198 A 
ATOM     69  F   UNL A   1      35.298  33.002  32.362  1.00  0.00    -0.203 F 
ATOM     70  F   UNL A   1      33.285  36.096  28.349  1.00  0.00    -0.200 F 
ATOM     71  C   UNL A   1      33.248  35.395  30.600  1.00  0.00     0.200 A 
ATOM     72  F   UNL A   1      33.269  34.668  32.840  1.00  0.00    -0.200 F 
ATOM     73  F   UNL A   1      32.330  36.327  30.893  1.00  0.00    -0.200 F 
ENDBRANCH  49  63
BRANCH  50  74
ATOM     74  C   UNL A   1      45.456  31.271  31.786  1.00  0.00     0.064 A 
ATOM     75  C   UNL A   1      46.185  31.316  32.982  1.00  0.00     0.173 A 
ATOM     76  C   UNL A   1      46.274  31.203  30.622  1.00  0.00     0.173 A 
ATOM     77  F   UNL A   1      45.593  31.560  34.152  1.00  0.00    -0.203 F 
ATOM     78  C   UNL A   1      47.582  31.146  33.018  1.00  0.00     0.198 A 
ATOM     79  C   UNL A   1      47.653  30.990  30.656  1.00  0.00     0.198 A 
ATOM     80  F   UNL A   1      45.762  31.340  29.392  1.00  0.00    -0.203 F 
ATOM     81  F   UNL A   1      48.224  31.177  34.194  1.00  0.00    -0.200 F 
ATOM     82  C   UNL A   1      48.307  30.935  31.861  1.00  0.00     0.200 A 
ATOM     83  F   UNL A   1      48.328  30.818  29.510  1.00  0.00    -0.200 F 
ATOM     84  F   UNL A   1      49.626  30.704  31.905  1.00  0.00    -0.200 F 
ENDBRANCH  50  74
BRANCH  62  85
ATOM     85  C   UNL A   1      39.791  32.861  33.599  1.00  0.00     0.064 A 
ATOM     86  C   UNL A   1      39.157  31.649  33.285  1.00  0.00     0.173 A 
ATOM     87  C   UNL A   1      39.768  33.239  34.951  1.00  0.00     0.173 A 
ATOM     88  F   UNL A   1      39.143  31.213  32.017  1.00  0.00    -0.203 F 
ATOM     89  C   UNL A   1      38.529  30.875  34.266  1.00  0.00     0.198 A 
ATOM     90  C   UNL A   1      39.151  32.466  35.935  1.00  0.00     0.198 A 
ATOM     91  F   UNL A   1      40.341  34.375  35.342  1.00  0.00    -0.203 F 
ATOM     92  F   UNL A   1      37.931  29.726  33.925  1.00  0.00    -0.200 F 
ATOM     93  C   UNL A   1      38.524  31.285  35.589  1.00  0.00     0.200 A 
ATOM     94  F   UNL A   1      39.167  32.870  37.214  1.00  0.00    -0.200 F 
ATOM     95  F   UNL A   1      37.929  30.538  36.530  1.00  0.00    -0.200 F 
ENDBRANCH  62  85
ENDBRANCH  36  37
ENDBRANCH  28  31
ENDBRANCH  26  27
ENDBRANCH   1  26
TORSDOF 12
ENDMDL
MODEL 2
REMARK VINA RESULT:     -12.7      4.720     11.698
REMARK SMILES C[C@@H]1Cc2ccccc2N1S(=O)(=O)c1c[nH]c(C(=O)NCCCNC(=O)c2ccc(-c3c4nc(c(-c5c(F)c(F)c(F)c(F)c5F)c5ccc([nH]5)c(-c5c(F)c(F)c(F)c(F)c5F)c5nc(c(-c6c(F)c(F)c(F)c(F)c6F)c6ccc3[nH]6)C=C5)C=C4)cc2)c1
REMARK SMILES IDX 22 1 21 2 20 3 18 4 19 5 17 7 14 8 15 9 90 10 16 11 11 13
REMARK SMILES IDX 12 14 13 15 10 16 1 17 2 18 3 19 4 20 9 21 5 22 8 23 6 24
REMARK SMILES IDX 7 25 23 26 24 27 25 28 26 30 27 31 28 32 89 33 29 34 88 35
REMARK SMILES IDX 30 36 31 37 32 38 82 39 33 40 87 41 81 42 83 43 34 44 86 45
REMARK SMILES IDX 80 46 79 47 35 49 67 50 47 51 66 52 48 53 51 54 65 55 84 56
REMARK SMILES IDX 49 57 50 58 64 60 85 61 52 62 36 63 37 64 45 65 38 66 39 67
REMARK SMILES IDX 43 68 46 69 40 70 41 71 44 72 42 73 68 74 69 75 77 76 70 77
REMARK SMILES IDX 71 78 75 79 78 80 72 81 73 82 76 83 74 84 53 85 54 86 62 87
REMARK SMILES IDX 55 88 56 89 60 90 63 91 57 92 58 93 61 94 59 95
REMARK H PARENT 20 6 16 12 24 29 83 48 51 59
REMARK Flexibility Score: inf
ROOT
ATOM      1  C   UNL A   1      35.402  33.739  28.464  1.00  0.00     0.042 C 
ENDROOT
BRANCH   1   2
ATOM      2  C   UNL A   1      33.978  33.433  28.911  1.00  0.00     0.118 C 
BRANCH   2   3
ATOM      3  N   UNL A   1      33.351  34.607  29.477  1.00  0.00    -0.351 N 
ATOM      4  C   UNL A   1      33.442  35.201  30.701  1.00  0.00     0.267 C 
ATOM      5  O   UNL A   1      32.828  36.261  30.839  1.00  0.00    -0.268 OA
ATOM      6  H   UNL A   1      32.739  35.068  28.858  1.00  0.00     0.163 HD
BRANCH   4   7
ATOM      7  C   UNL A   1      34.231  34.663  31.788  1.00  0.00     0.105 A 
ATOM      8  C   UNL A   1      35.722  33.896  33.330  1.00  0.00     0.106 A 
ATOM      9  C   UNL A   1      34.481  33.381  33.639  1.00  0.00     0.105 A 
ATOM     10  C   UNL A   1      35.565  34.718  32.176  1.00  0.00     0.055 A 
ATOM     11  N   UNL A   1      33.603  33.827  32.699  1.00  0.00    -0.356 N 
ATOM     12  H   UNL A   1      32.649  33.589  32.670  1.00  0.00     0.166 HD
BRANCH   8  13
ATOM     13  S   UNL A   1      37.191  33.529  34.167  1.00  0.00     0.266 S 
ATOM     14  O   UNL A   1      36.765  32.705  35.275  1.00  0.00    -0.201 OA
ATOM     15  O   UNL A   1      37.792  34.834  34.400  1.00  0.00    -0.201 OA
BRANCH  13  16
ATOM     16  N   UNL A   1      38.280  32.629  33.205  1.00  0.00    -0.263 N 
ATOM     17  C   UNL A   1      37.228  30.448  32.590  1.00  0.00     0.032 C 
ATOM     18  C   UNL A   1      37.565  31.852  32.109  1.00  0.00     0.101 C 
ATOM     19  C   UNL A   1      38.508  31.846  30.887  1.00  0.00     0.063 C 
ATOM     20  C   UNL A   1      39.526  32.873  31.249  1.00  0.00    -0.021 A 
ATOM     21  C   UNL A   1      39.380  33.297  32.567  1.00  0.00     0.055 A 
ATOM     22  C   UNL A   1      40.574  33.322  30.453  1.00  0.00     0.006 A 
ATOM     23  C   UNL A   1      40.353  34.096  33.142  1.00  0.00     0.027 A 
ATOM     24  C   UNL A   1      41.510  34.192  31.010  1.00  0.00     0.000 A 
ATOM     25  C   UNL A   1      41.408  34.567  32.353  1.00  0.00     0.002 A 
ENDBRANCH  13  16
ENDBRANCH   8  13
ENDBRANCH   4   7
ENDBRANCH   2   3
ENDBRANCH   1   2
BRANCH   1  26
ATOM     26  C   UNL A   1      36.256  32.479  28.275  1.00  0.00     0.118 C 
BRANCH  26  27
ATOM     27  N   UNL A   1      35.525  31.252  27.984  1.00  0.00    -0.352 N 
ATOM     28  C   UNL A   1      35.861  29.922  27.988  1.00  0.00     0.251 C 
ATOM     29  H   UNL A   1      34.588  31.414  27.730  1.00  0.00     0.163 HD
ATOM     30  O   UNL A   1      34.970  29.100  27.777  1.00  0.00    -0.269 OA
BRANCH  28  31
ATOM     31  C   UNL A   1      37.254  29.441  28.149  1.00  0.00     0.039 A 
ATOM     32  C   UNL A   1      38.261  29.692  27.219  1.00  0.00     0.014 A 
ATOM     33  C   UNL A   1      37.553  28.681  29.296  1.00  0.00     0.014 A 
ATOM     34  C   UNL A   1      39.490  29.064  27.339  1.00  0.00     0.010 A 
ATOM     35  C   UNL A   1      38.810  28.101  29.458  1.00  0.00     0.010 A 
ATOM     36  C   UNL A   1      39.766  28.265  28.454  1.00  0.00    -0.014 A 
BRANCH  36  37
ATOM     37  C   UNL A   1      41.150  27.756  28.555  1.00  0.00     0.031 A 
ATOM     38  C   UNL A   1      41.255  26.330  28.024  1.00  0.00     0.074 A 
ATOM     39  C   UNL A   1      42.049  28.524  29.235  1.00  0.00     0.049 A 
ATOM     40  N   UNL A   1      41.929  25.324  28.488  1.00  0.00    -0.248 NA
ATOM     41  C   UNL A   1      40.383  25.928  26.890  1.00  0.00     0.031 C 
ATOM     42  C   UNL A   1      41.784  29.903  29.677  1.00  0.00     0.029 A 
ATOM     43  N   UNL A   1      43.329  28.316  29.715  1.00  0.00    -0.354 N 
ATOM     44  C   UNL A   1      41.703  24.234  27.625  1.00  0.00     0.074 A 
ATOM     45  C   UNL A   1      40.645  24.628  26.744  1.00  0.00     0.031 C 
ATOM     46  C   UNL A   1      42.809  30.373  30.415  1.00  0.00     0.029 A 
ATOM     47  C   UNL A   1      43.838  29.359  30.534  1.00  0.00     0.049 A 
ATOM     48  H   UNL A   1      43.849  27.506  29.507  1.00  0.00     0.167 HD
ATOM     49  C   UNL A   1      42.497  23.123  27.614  1.00  0.00     0.037 A 
ATOM     50  C   UNL A   1      44.972  29.389  31.304  1.00  0.00     0.037 A 
ATOM     51  C   UNL A   1      43.515  23.239  28.604  1.00  0.00     0.049 A 
ATOM     52  C   UNL A   1      45.668  28.113  31.052  1.00  0.00     0.074 A 
ATOM     53  C   UNL A   1      43.510  23.127  29.969  1.00  0.00     0.029 A 
ATOM     54  N   UNL A   1      44.695  23.818  28.207  1.00  0.00    -0.354 N 
ATOM     55  N   UNL A   1      46.295  27.804  29.955  1.00  0.00    -0.248 NA
ATOM     56  C   UNL A   1      45.603  27.063  32.079  1.00  0.00     0.031 C 
ATOM     57  C   UNL A   1      44.526  24.011  30.391  1.00  0.00     0.029 A 
ATOM     58  C   UNL A   1      45.189  24.528  29.273  1.00  0.00     0.049 A 
ATOM     59  H   UNL A   1      45.112  23.738  27.320  1.00  0.00     0.167 HD
ATOM     60  C   UNL A   1      46.400  26.435  30.051  1.00  0.00     0.074 A 
ATOM     61  C   UNL A   1      46.266  26.099  31.447  1.00  0.00     0.031 C 
ATOM     62  C   UNL A   1      46.030  25.670  28.993  1.00  0.00     0.037 A 
BRANCH  49  63
ATOM     63  C   UNL A   1      42.629  21.990  26.633  1.00  0.00     0.064 A 
ATOM     64  C   UNL A   1      42.081  20.730  26.986  1.00  0.00     0.173 A 
ATOM     65  C   UNL A   1      43.532  21.989  25.562  1.00  0.00     0.173 A 
ATOM     66  F   UNL A   1      41.167  20.627  27.964  1.00  0.00    -0.203 F 
ATOM     67  C   UNL A   1      42.520  19.542  26.407  1.00  0.00     0.198 A 
ATOM     68  C   UNL A   1      43.928  20.798  24.946  1.00  0.00     0.198 A 
ATOM     69  F   UNL A   1      44.126  23.116  25.152  1.00  0.00    -0.203 F 
ATOM     70  F   UNL A   1      42.078  18.366  26.877  1.00  0.00    -0.200 F 
ATOM     71  C   UNL A   1      43.459  19.576  25.397  1.00  0.00     0.200 A 
ATOM     72  F   UNL A   1      44.833  20.835  23.958  1.00  0.00    -0.200 F 
ATOM     73  F   UNL A   1      43.936  18.434  24.883  1.00  0.00    -0.200 F 
ENDBRANCH  49  63
BRANCH  50  74
ATOM     74  C   UNL A   1      45.561  30.284  32.382  1.00  0.00     0.064 A 
ATOM     75  C   UNL A   1      46.745  31.026  32.288  1.00  0.00     0.173 A 
ATOM     76  C   UNL A   1      44.848  30.500  33.597  1.00  0.00     0.173 A 
ATOM     77  F   UNL A   1      47.624  30.817  31.306  1.00  0.00    -0.203 F 
ATOM     78  C   UNL A   1      47.097  32.005  33.236  1.00  0.00     0.198 A 
ATOM     79  C   UNL A   1      45.170  31.499  34.516  1.00  0.00     0.198 A 
ATOM     80  F   UNL A   1      43.798  29.743  33.942  1.00  0.00    -0.203 F 
ATOM     81  F   UNL A   1      48.233  32.700  33.082  1.00  0.00    -0.200 F 
ATOM     82  C   UNL A   1      46.286  32.274  34.322  1.00  0.00     0.200 A 
ATOM     83  F   UNL A   1      44.373  31.711  35.574  1.00  0.00    -0.200 F 
ATOM     84  F   UNL A   1      46.589  33.253  35.185  1.00  0.00    -0.200 F 
ENDBRANCH  50  74
BRANCH  62  85
ATOM     85  C   UNL A   1      46.172  26.377  27.664  1.00  0.00     0.064 A 
ATOM     86  C   UNL A   1      45.025  26.753  26.948  1.00  0.00     0.173 A 
ATOM     87  C   UNL A   1      47.399  26.570  27.011  1.00  0.00     0.173 A 
ATOM     88  F   UNL A   1      43.813  26.609  27.505  1.00  0.00    -0.203 F 
ATOM     89  C   UNL A   1      45.108  27.276  25.654  1.00  0.00     0.198 A 
ATOM     90  C   UNL A   1      47.489  27.099  25.724  1.00  0.00     0.198 A 
ATOM     91  F   UNL A   1      48.540  26.239  27.612  1.00  0.00    -0.203 F 
ATOM     92  F   UNL A   1      43.990  27.619  25.001  1.00  0.00    -0.200 F 
ATOM     93  C   UNL A   1      46.339  27.447  25.042  1.00  0.00     0.200 A 
ATOM     94  F   UNL A   1      48.689  27.272  25.151  1.00  0.00    -0.200 F 
ATOM     95  F   UNL A   1      46.418  27.956  23.805  1.00  0.00    -0.200 F 
ENDBRANCH  62  85
ENDBRANCH  36  37
ENDBRANCH  28  31
ENDBRANCH  26  27
ENDBRANCH   1  26
TORSDOF 12
ENDMDL
MODEL 3
REMARK VINA RESULT:     -12.6      0.723      2.067
REMARK SMILES C[C@@H]1Cc2ccccc2N1S(=O)(=O)c1c[nH]c(C(=O)NCCCNC(=O)c2ccc(-c3c4nc(c(-c5c(F)c(F)c(F)c(F)c5F)c5ccc([nH]5)c(-c5c(F)c(F)c(F)c(F)c5F)c5nc(c(-c6c(F)c(F)c(F)c(F)c6F)c6ccc3[nH]6)C=C5)C=C4)cc2)c1
REMARK SMILES IDX 22 1 21 2 20 3 18 4 19 5 17 7 14 8 15 9 90 10 16 11 11 13
REMARK SMILES IDX 12 14 13 15 10 16 1 17 2 18 3 19 4 20 9 21 5 22 8 23 6 24
REMARK SMILES IDX 7 25 23 26 24 27 25 28 26 30 27 31 28 32 89 33 29 34 88 35
REMARK SMILES IDX 30 36 31 37 32 38 82 39 33 40 87 41 81 42 83 43 34 44 86 45
REMARK SMILES IDX 80 46 79 47 35 49 67 50 47 51 66 52 48 53 51 54 65 55 84 56
REMARK SMILES IDX 49 57 50 58 64 60 85 61 52 62 36 63 37 64 45 65 38 66 39 67
REMARK SMILES IDX 43 68 46 69 40 70 41 71 44 72 42 73 68 74 69 75 77 76 70 77
REMARK SMILES IDX 71 78 75 79 78 80 72 81 73 82 76 83 74 84 53 85 54 86 62 87
REMARK SMILES IDX 55 88 56 89 60 90 63 91 57 92 58 93 61 94 59 95
REMARK H PARENT 20 6 16 12 24 29 83 48 51 59
REMARK Flexibility Score: inf
ROOT
ATOM      1  C   UNL A   1      41.541  21.412  27.595  1.00  0.00     0.042 C 
ENDROOT
BRANCH   1   2
ATOM      2  C   UNL A   1      41.350  21.030  26.132  1.00  0.00     0.118 C 
BRANCH   2   3
ATOM      3  N   UNL A   1      42.271  19.982  25.748  1.00  0.00    -0.351 N 
ATOM      4  C   UNL A   1      43.578  20.000  25.361  1.00  0.00     0.267 C 
ATOM      5  O   UNL A   1      44.106  18.900  25.179  1.00  0.00    -0.268 OA
ATOM      6  H   UNL A   1      41.877  19.080  25.771  1.00  0.00     0.163 HD
BRANCH   4   7
ATOM      7  C   UNL A   1      44.340  21.217  25.194  1.00  0.00     0.105 A 
ATOM      8  C   UNL A   1      45.499  23.178  25.237  1.00  0.00     0.106 A 
ATOM      9  C   UNL A   1      45.209  22.880  23.923  1.00  0.00     0.105 A 
ATOM     10  C   UNL A   1      44.969  22.125  26.039  1.00  0.00     0.055 A 
ATOM     11  N   UNL A   1      44.497  21.718  23.911  1.00  0.00    -0.356 N 
ATOM     12  H   UNL A   1      44.143  21.290  23.099  1.00  0.00     0.166 HD
BRANCH   8  13
ATOM     13  S   UNL A   1      46.294  24.615  25.781  1.00  0.00     0.266 S 
ATOM     14  O   UNL A   1      46.469  25.395  24.578  1.00  0.00    -0.201 OA
ATOM     15  O   UNL A   1      47.445  24.116  26.517  1.00  0.00    -0.201 OA
BRANCH  13  16
ATOM     16  N   UNL A   1      45.337  25.512  26.878  1.00  0.00    -0.263 N 
ATOM     17  C   UNL A   1      46.299  25.302  29.174  1.00  0.00     0.032 C 
ATOM     18  C   UNL A   1      46.180  26.193  27.947  1.00  0.00     0.101 C 
ATOM     19  C   UNL A   1      45.492  27.539  28.259  1.00  0.00     0.063 C 
ATOM     20  C   UNL A   1      44.514  27.678  27.142  1.00  0.00    -0.021 A 
ATOM     21  C   UNL A   1      44.441  26.517  26.378  1.00  0.00     0.055 A 
ATOM     22  C   UNL A   1      43.680  28.763  26.898  1.00  0.00     0.006 A 
ATOM     23  C   UNL A   1      43.447  26.386  25.423  1.00  0.00     0.027 A 
ATOM     24  C   UNL A   1      42.732  28.660  25.881  1.00  0.00     0.000 A 
ATOM     25  C   UNL A   1      42.606  27.472  25.155  1.00  0.00     0.002 A 
ENDBRANCH  13  16
ENDBRANCH   8  13
ENDBRANCH   4   7
ENDBRANCH   2   3
ENDBRANCH   1   2
BRANCH   1  26
ATOM     26  C   UNL A   1      40.863  22.737  27.963  1.00  0.00     0.118 C 
BRANCH  26  27
ATOM     27  N   UNL A   1      39.650  23.058  27.222  1.00  0.00    -0.352 N 
ATOM     28  C   UNL A   1      38.929  24.210  27.032  1.00  0.00     0.251 C 
ATOM     29  H   UNL A   1      39.266  22.280  26.757  1.00  0.00     0.163 HD
ATOM     30  O   UNL A   1      37.974  24.174  26.257  1.00  0.00    -0.269 OA
BRANCH  28  31
ATOM     31  C   UNL A   1      39.195  25.462  27.780  1.00  0.00     0.039 A 
ATOM     32  C   UNL A   1      38.955  25.602  29.145  1.00  0.00     0.014 A 
ATOM     33  C   UNL A   1      39.700  26.558  27.055  1.00  0.00     0.014 A 
ATOM     34  C   UNL A   1      39.054  26.848  29.744  1.00  0.00     0.010 A 
ATOM     35  C   UNL A   1      39.868  27.800  27.668  1.00  0.00     0.010 A 
ATOM     36  C   UNL A   1      39.505  27.948  29.008  1.00  0.00    -0.014 A 
BRANCH  36  37
ATOM     37  C   UNL A   1      39.708  29.196  29.773  1.00  0.00     0.031 A 
ATOM     38  C   UNL A   1      38.498  30.118  29.659  1.00  0.00     0.074 A 
ATOM     39  C   UNL A   1      40.949  29.412  30.297  1.00  0.00     0.049 A 
ATOM     40  N   UNL A   1      38.452  31.406  29.520  1.00  0.00    -0.248 NA
ATOM     41  C   UNL A   1      37.148  29.507  29.553  1.00  0.00     0.031 C 
ATOM     42  C   UNL A   1      42.015  28.398  30.330  1.00  0.00     0.029 A 
ATOM     43  N   UNL A   1      41.579  30.502  30.869  1.00  0.00    -0.354 N 
ATOM     44  C   UNL A   1      37.093  31.775  29.480  1.00  0.00     0.074 A 
ATOM     45  C   UNL A   1      36.346  30.558  29.370  1.00  0.00     0.031 C 
ATOM     46  C   UNL A   1      43.161  28.926  30.806  1.00  0.00     0.029 A 
ATOM     47  C   UNL A   1      42.965  30.326  31.125  1.00  0.00     0.049 A 
ATOM     48  H   UNL A   1      41.104  31.338  31.083  1.00  0.00     0.167 HD
ATOM     49  C   UNL A   1      36.670  33.060  29.670  1.00  0.00     0.037 A 
ATOM     50  C   UNL A   1      43.906  31.249  31.505  1.00  0.00     0.037 A 
ATOM     51  C   UNL A   1      37.789  33.919  29.866  1.00  0.00     0.049 A 
ATOM     52  C   UNL A   1      43.176  32.513  31.708  1.00  0.00     0.074 A 
ATOM     53  C   UNL A   1      38.731  34.438  29.019  1.00  0.00     0.029 A 
ATOM     54  N   UNL A   1      38.208  34.097  31.162  1.00  0.00    -0.354 N 
ATOM     55  N   UNL A   1      42.375  32.766  32.701  1.00  0.00    -0.248 NA
ATOM     56  C   UNL A   1      43.290  33.563  30.684  1.00  0.00     0.031 C 
ATOM     57  C   UNL A   1      39.887  34.559  29.819  1.00  0.00     0.029 A 
ATOM     58  C   UNL A   1      39.573  34.232  31.143  1.00  0.00     0.049 A 
ATOM     59  H   UNL A   1      37.633  34.123  31.960  1.00  0.00     0.167 HD
ATOM     60  C   UNL A   1      41.662  33.850  32.237  1.00  0.00     0.074 A 
ATOM     61  C   UNL A   1      42.454  34.460  31.198  1.00  0.00     0.031 C 
ATOM     62  C   UNL A   1      40.309  33.833  32.322  1.00  0.00     0.037 A 
BRANCH  49  63
ATOM     63  C   UNL A   1      35.310  33.640  29.945  1.00  0.00     0.064 A 
ATOM     64  C   UNL A   1      34.704  34.435  28.937  1.00  0.00     0.173 A 
ATOM     65  C   UNL A   1      34.750  33.741  31.225  1.00  0.00     0.173 A 
ATOM     66  F   UNL A   1      35.130  34.374  27.665  1.00  0.00    -0.203 F 
ATOM     67  C   UNL A   1      33.710  35.367  29.224  1.00  0.00     0.198 A 
ATOM     68  C   UNL A   1      33.714  34.640  31.497  1.00  0.00     0.198 A 
ATOM     69  F   UNL A   1      35.249  33.054  32.258  1.00  0.00    -0.203 F 
ATOM     70  F   UNL A   1      33.274  36.196  28.265  1.00  0.00    -0.200 F 
ATOM     71  C   UNL A   1      33.229  35.482  30.512  1.00  0.00     0.200 A 
ATOM     72  F   UNL A   1      33.241  34.742  32.747  1.00  0.00    -0.200 F 
ATOM     73  F   UNL A   1      32.323  36.424  30.810  1.00  0.00    -0.200 F 
ENDBRANCH  49  63
BRANCH  50  74
ATOM     74  C   UNL A   1      45.420  31.312  31.613  1.00  0.00     0.064 A 
ATOM     75  C   UNL A   1      46.333  31.183  30.557  1.00  0.00     0.173 A 
ATOM     76  C   UNL A   1      46.035  31.612  32.863  1.00  0.00     0.173 A 
ATOM     77  F   UNL A   1      45.956  30.731  29.360  1.00  0.00    -0.203 F 
ATOM     78  C   UNL A   1      47.700  31.484  30.703  1.00  0.00     0.198 A 
ATOM     79  C   UNL A   1      47.380  31.954  33.002  1.00  0.00     0.198 A 
ATOM     80  F   UNL A   1      45.344  31.588  34.011  1.00  0.00    -0.203 F 
ATOM     81  F   UNL A   1      48.522  31.363  29.652  1.00  0.00    -0.200 F 
ATOM     82  C   UNL A   1      48.213  31.915  31.912  1.00  0.00     0.200 A 
ATOM     83  F   UNL A   1      47.848  32.340  34.198  1.00  0.00    -0.200 F 
ATOM     84  F   UNL A   1      49.500  32.266  32.031  1.00  0.00    -0.200 F 
ENDBRANCH  50  74
BRANCH  62  85
ATOM     85  C   UNL A   1      39.790  32.981  33.459  1.00  0.00     0.064 A 
ATOM     86  C   UNL A   1      40.030  33.368  34.786  1.00  0.00     0.173 A 
ATOM     87  C   UNL A   1      39.184  31.728  33.279  1.00  0.00     0.173 A 
ATOM     88  F   UNL A   1      40.598  34.555  35.043  1.00  0.00    -0.203 F 
ATOM     89  C   UNL A   1      39.696  32.540  35.862  1.00  0.00     0.198 A 
ATOM     90  C   UNL A   1      38.840  30.902  34.349  1.00  0.00     0.198 A 
ATOM     91  F   UNL A   1      38.921  31.276  32.055  1.00  0.00    -0.203 F 
ATOM     92  F   UNL A   1      39.946  32.943  37.115  1.00  0.00    -0.200 F 
ATOM     93  C   UNL A   1      39.104  31.307  35.644  1.00  0.00     0.200 A 
ATOM     94  F   UNL A   1      38.254  29.717  34.122  1.00  0.00    -0.200 F 
ATOM     95  F   UNL A   1      38.776  30.518  36.676  1.00  0.00    -0.200 F 
ENDBRANCH  62  85
ENDBRANCH  36  37
ENDBRANCH  28  31
ENDBRANCH  26  27
ENDBRANCH   1  26
TORSDOF 12
ENDMDL
