MODEL 1
REMARK VINA RESULT:     -12.6      0.000      0.000
REMARK SMILES Cc1[nH]c2ccc(Br)cc2c(=O)c1CCC(=O)NCCCNC(=O)c1ccc(-c2c3nc(c(-c4c(F)c(F)c(F)c(F)c4F)c4ccc([nH]4)c(-c4c(F)c(F)c(F)c(F)c4F)c4nc(c(-c5c(F)c(F)c(F)c(F)c5F)c5ccc2[nH]5)C=C4)C=C3)cc1
REMARK SMILES IDX 20 1 19 2 18 3 16 4 17 5 15 7 14 8 13 9 1 10 2 11 3 12 4 13
REMARK SMILES IDX 11 15 5 16 10 17 12 18 6 19 9 20 7 21 8 22 21 23 22 24 23 25
REMARK SMILES IDX 24 27 25 28 26 29 87 30 27 31 86 32 28 33 29 34 30 35 80 36
REMARK SMILES IDX 31 37 85 38 79 39 81 40 32 41 84 42 78 43 77 44 33 46 65 47
REMARK SMILES IDX 45 48 64 49 46 50 49 51 63 52 82 53 47 54 48 55 62 57 83 58
REMARK SMILES IDX 50 59 34 60 35 61 43 62 36 63 37 64 41 65 44 66 38 67 39 68
REMARK SMILES IDX 42 69 40 70 66 71 67 72 75 73 68 74 69 75 73 76 76 77 70 78
REMARK SMILES IDX 71 79 74 80 72 81 51 82 52 83 60 84 53 85 54 86 58 87 61 88
REMARK SMILES IDX 55 89 56 90 59 91 57 92
REMARK H PARENT 18 6 3 14 22 26 81 45 49 56
REMARK Flexibility Score: inf
ROOT
ATOM      1  C   UNL A   1      31.724  28.293  26.350  1.00  0.00     0.042 C 
ENDROOT
BRANCH   1   2
ATOM      2  C   UNL A   1      32.499  26.971  26.231  1.00  0.00     0.117 C 
BRANCH   2   3
ATOM      3  N   UNL A   1      31.801  25.868  26.893  1.00  0.00    -0.356 N 
ATOM      4  C   UNL A   1      31.524  24.588  26.507  1.00  0.00     0.220 C 
ATOM      5  O   UNL A   1      30.868  23.884  27.281  1.00  0.00    -0.275 OA
ATOM      6  H   UNL A   1      31.466  26.093  27.791  1.00  0.00     0.163 HD
BRANCH   4   7
ATOM      7  C   UNL A   1      32.048  24.006  25.206  1.00  0.00     0.105 C 
BRANCH   7   8
ATOM      8  C   UNL A   1      30.994  23.943  24.090  1.00  0.00     0.051 C 
BRANCH   8   9
ATOM      9  C   UNL A   1      30.970  25.243  23.335  1.00  0.00     0.020 A 
ATOM     10  C   UNL A   1      32.753  24.652  21.673  1.00  0.00     0.064 C 
ATOM     11  C   UNL A   1      31.808  25.619  22.342  1.00  0.00     0.019 A 
ATOM     12  N   UNL A   1      31.868  26.923  21.890  1.00  0.00    -0.358 N 
ATOM     13  C   UNL A   1      30.985  27.905  22.337  1.00  0.00     0.050 A 
ATOM     14  H   UNL A   1      32.557  27.168  21.231  1.00  0.00     0.166 HD
ATOM     15  C   UNL A   1      29.907  26.201  23.750  1.00  0.00     0.192 A 
ATOM     16  C   UNL A   1      31.140  29.243  21.997  1.00  0.00     0.028 A 
ATOM     17  C   UNL A   1      29.926  27.554  23.183  1.00  0.00     0.047 A 
ATOM     18  O   UNL A   1      29.042  25.899  24.577  1.00  0.00    -0.289 OA
ATOM     19  C   UNL A   1      30.157  30.163  22.368  1.00  0.00     0.018 A 
ATOM     20  C   UNL A   1      28.928  28.460  23.530  1.00  0.00     0.030 A 
ATOM     21  C   UNL A   1      29.015  29.750  23.053  1.00  0.00     0.018 A 
ATOM     22  Br  UNL A   1      27.519  30.882  23.247  1.00  0.00    -0.051 Br
ENDBRANCH   8   9
ENDBRANCH   7   8
ENDBRANCH   4   7
ENDBRANCH   2   3
ENDBRANCH   1   2
BRANCH   1  23
ATOM     23  C   UNL A   1      32.256  29.485  25.541  1.00  0.00     0.118 C 
BRANCH  23  24
ATOM     24  N   UNL A   1      32.139  30.764  26.236  1.00  0.00    -0.352 N 
ATOM     25  C   UNL A   1      32.937  31.489  27.093  1.00  0.00     0.251 C 
ATOM     26  H   UNL A   1      31.286  31.216  26.045  1.00  0.00     0.163 HD
ATOM     27  O   UNL A   1      32.446  32.527  27.547  1.00  0.00    -0.269 OA
BRANCH  25  28
ATOM     28  C   UNL A   1      34.314  31.117  27.554  1.00  0.00     0.039 A 
ATOM     29  C   UNL A   1      34.821  29.825  27.618  1.00  0.00     0.014 A 
ATOM     30  C   UNL A   1      35.202  32.165  27.863  1.00  0.00     0.014 A 
ATOM     31  C   UNL A   1      36.112  29.588  28.143  1.00  0.00     0.010 A 
ATOM     32  C   UNL A   1      36.513  31.924  28.331  1.00  0.00     0.010 A 
ATOM     33  C   UNL A   1      36.966  30.625  28.576  1.00  0.00    -0.014 A 
BRANCH  33  34
ATOM     34  C   UNL A   1      38.251  30.333  29.328  1.00  0.00     0.031 A 
ATOM     35  C   UNL A   1      38.505  30.878  30.735  1.00  0.00     0.074 A 
ATOM     36  C   UNL A   1      39.175  29.474  28.842  1.00  0.00     0.049 A 
ATOM     37  N   UNL A   1      39.429  30.535  31.611  1.00  0.00    -0.248 NA
ATOM     38  C   UNL A   1      37.592  31.908  31.248  1.00  0.00     0.031 C 
ATOM     39  C   UNL A   1      39.126  28.830  27.532  1.00  0.00     0.029 A 
ATOM     40  N   UNL A   1      40.329  28.970  29.411  1.00  0.00    -0.354 N 
ATOM     41  C   UNL A   1      39.147  31.240  32.779  1.00  0.00     0.074 A 
ATOM     42  C   UNL A   1      37.986  32.052  32.505  1.00  0.00     0.031 C 
ATOM     43  C   UNL A   1      40.155  27.974  27.423  1.00  0.00     0.029 A 
ATOM     44  C   UNL A   1      40.984  28.052  28.626  1.00  0.00     0.049 A 
ATOM     45  H   UNL A   1      40.652  29.245  30.300  1.00  0.00     0.167 HD
ATOM     46  C   UNL A   1      39.789  31.245  33.974  1.00  0.00     0.037 A 
ATOM     47  C   UNL A   1      42.127  27.358  28.821  1.00  0.00     0.037 A 
ATOM     48  C   UNL A   1      41.027  30.573  34.261  1.00  0.00     0.049 A 
ATOM     49  C   UNL A   1      42.927  27.530  30.086  1.00  0.00     0.074 A 
ATOM     50  C   UNL A   1      41.778  30.614  35.427  1.00  0.00     0.029 A 
ATOM     51  N   UNL A   1      41.721  29.779  33.370  1.00  0.00    -0.354 N 
ATOM     52  N   UNL A   1      42.625  28.188  31.175  1.00  0.00    -0.248 NA
ATOM     53  C   UNL A   1      44.245  26.873  30.135  1.00  0.00     0.031 C 
ATOM     54  C   UNL A   1      42.960  29.898  35.215  1.00  0.00     0.029 A 
ATOM     55  C   UNL A   1      42.916  29.365  33.940  1.00  0.00     0.049 A 
ATOM     56  H   UNL A   1      41.415  29.542  32.464  1.00  0.00     0.167 HD
ATOM     57  C   UNL A   1      43.708  28.026  32.033  1.00  0.00     0.074 A 
ATOM     58  C   UNL A   1      44.665  27.183  31.353  1.00  0.00     0.031 C 
ATOM     59  C   UNL A   1      43.888  28.544  33.271  1.00  0.00     0.037 A 
BRANCH  46  60
ATOM     60  C   UNL A   1      39.195  32.059  35.088  1.00  0.00     0.064 A 
ATOM     61  C   UNL A   1      38.433  31.454  36.098  1.00  0.00     0.173 A 
ATOM     62  C   UNL A   1      39.488  33.425  35.210  1.00  0.00     0.173 A 
ATOM     63  F   UNL A   1      38.120  30.152  36.021  1.00  0.00    -0.203 F 
ATOM     64  C   UNL A   1      37.992  32.189  37.196  1.00  0.00     0.198 A 
ATOM     65  C   UNL A   1      39.059  34.152  36.317  1.00  0.00     0.198 A 
ATOM     66  F   UNL A   1      40.218  34.045  34.270  1.00  0.00    -0.203 F 
ATOM     67  F   UNL A   1      37.260  31.595  38.149  1.00  0.00    -0.200 F 
ATOM     68  C   UNL A   1      38.314  33.533  37.309  1.00  0.00     0.200 A 
ATOM     69  F   UNL A   1      39.379  35.449  36.429  1.00  0.00    -0.200 F 
ATOM     70  F   UNL A   1      37.907  34.234  38.377  1.00  0.00    -0.200 F 
ENDBRANCH  46  60
BRANCH  47  71
ATOM     71  C   UNL A   1      42.624  26.444  27.755  1.00  0.00     0.064 A 
ATOM     72  C   UNL A   1      43.535  26.887  26.786  1.00  0.00     0.173 A 
ATOM     73  C   UNL A   1      42.177  25.117  27.673  1.00  0.00     0.173 A 
ATOM     74  F   UNL A   1      43.957  28.159  26.796  1.00  0.00    -0.203 F 
ATOM     75  C   UNL A   1      43.983  26.035  25.778  1.00  0.00     0.198 A 
ATOM     76  C   UNL A   1      42.650  24.257  26.686  1.00  0.00     0.198 A 
ATOM     77  F   UNL A   1      41.289  24.651  28.563  1.00  0.00    -0.203 F 
ATOM     78  F   UNL A   1      44.821  26.492  24.839  1.00  0.00    -0.200 F 
ATOM     79  C   UNL A   1      43.548  24.717  25.736  1.00  0.00     0.200 A 
ATOM     80  F   UNL A   1      42.234  22.984  26.655  1.00  0.00    -0.200 F 
ATOM     81  F   UNL A   1      43.989  23.895  24.774  1.00  0.00    -0.200 F 
ENDBRANCH  47  71
BRANCH  59  82
ATOM     82  C   UNL A   1      45.172  28.241  33.986  1.00  0.00     0.064 A 
ATOM     83  C   UNL A   1      45.313  27.087  34.772  1.00  0.00     0.173 A 
ATOM     84  C   UNL A   1      46.293  29.072  33.835  1.00  0.00     0.173 A 
ATOM     85  F   UNL A   1      44.271  26.263  34.953  1.00  0.00    -0.203 F 
ATOM     86  C   UNL A   1      46.523  26.786  35.393  1.00  0.00     0.198 A 
ATOM     87  C   UNL A   1      47.508  28.755  34.440  1.00  0.00     0.198 A 
ATOM     88  F   UNL A   1      46.216  30.182  33.085  1.00  0.00    -0.203 F 
ATOM     89  F   UNL A   1      46.624  25.695  36.165  1.00  0.00    -0.200 F 
ATOM     90  C   UNL A   1      47.620  27.616  35.222  1.00  0.00     0.200 A 
ATOM     91  F   UNL A   1      48.571  29.551  34.261  1.00  0.00    -0.200 F 
ATOM     92  F   UNL A   1      48.786  27.319  35.813  1.00  0.00    -0.200 F 
ENDBRANCH  59  82
ENDBRANCH  33  34
ENDBRANCH  25  28
ENDBRANCH  23  24
ENDBRANCH   1  23
TORSDOF 12
ENDMDL
MODEL 2
REMARK VINA RESULT:     -12.5      0.618      7.343
REMARK SMILES Cc1[nH]c2ccc(Br)cc2c(=O)c1CCC(=O)NCCCNC(=O)c1ccc(-c2c3nc(c(-c4c(F)c(F)c(F)c(F)c4F)c4ccc([nH]4)c(-c4c(F)c(F)c(F)c(F)c4F)c4nc(c(-c5c(F)c(F)c(F)c(F)c5F)c5ccc2[nH]5)C=C4)C=C3)cc1
REMARK SMILES IDX 20 1 19 2 18 3 16 4 17 5 15 7 14 8 13 9 1 10 2 11 3 12 4 13
REMARK SMILES IDX 11 15 5 16 10 17 12 18 6 19 9 20 7 21 8 22 21 23 22 24 23 25
REMARK SMILES IDX 24 27 25 28 26 29 87 30 27 31 86 32 28 33 29 34 30 35 80 36
REMARK SMILES IDX 31 37 85 38 79 39 81 40 32 41 84 42 78 43 77 44 33 46 65 47
REMARK SMILES IDX 45 48 64 49 46 50 49 51 63 52 82 53 47 54 48 55 62 57 83 58
REMARK SMILES IDX 50 59 34 60 35 61 43 62 36 63 37 64 41 65 44 66 38 67 39 68
REMARK SMILES IDX 42 69 40 70 66 71 67 72 75 73 68 74 69 75 73 76 76 77 70 78
REMARK SMILES IDX 71 79 74 80 72 81 51 82 52 83 60 84 53 85 54 86 58 87 61 88
REMARK SMILES IDX 55 89 56 90 59 91 57 92
REMARK H PARENT 18 6 3 14 22 26 81 45 49 56
REMARK Flexibility Score: inf
ROOT
ATOM      1  C   UNL A   1      31.773  28.242  26.401  1.00  0.00     0.042 C 
ENDROOT
BRANCH   1   2
ATOM      2  C   UNL A   1      32.456  26.879  26.213  1.00  0.00     0.117 C 
BRANCH   2   3
ATOM      3  N   UNL A   1      31.705  25.799  26.853  1.00  0.00    -0.356 N 
ATOM      4  C   UNL A   1      31.402  24.527  26.458  1.00  0.00     0.220 C 
ATOM      5  O   UNL A   1      30.701  23.845  27.211  1.00  0.00    -0.275 OA
ATOM      6  H   UNL A   1      31.348  26.035  27.739  1.00  0.00     0.163 HD
BRANCH   4   7
ATOM      7  C   UNL A   1      31.951  23.927  25.176  1.00  0.00     0.105 C 
BRANCH   7   8
ATOM      8  C   UNL A   1      30.929  23.885  24.029  1.00  0.00     0.051 C 
BRANCH   8   9
ATOM      9  C   UNL A   1      30.933  25.196  23.292  1.00  0.00     0.020 A 
ATOM     10  C   UNL A   1      32.741  24.609  21.656  1.00  0.00     0.064 C 
ATOM     11  C   UNL A   1      31.793  25.577  22.320  1.00  0.00     0.019 A 
ATOM     12  N   UNL A   1      31.875  26.886  21.888  1.00  0.00    -0.358 N 
ATOM     13  C   UNL A   1      30.993  27.871  22.333  1.00  0.00     0.050 A 
ATOM     14  H   UNL A   1      32.579  27.133  21.246  1.00  0.00     0.166 HD
ATOM     15  C   UNL A   1      29.872  26.159  23.701  1.00  0.00     0.192 A 
ATOM     16  C   UNL A   1      31.169  29.212  22.015  1.00  0.00     0.028 A 
ATOM     17  C   UNL A   1      29.916  27.519  23.154  1.00  0.00     0.047 A 
ATOM     18  O   UNL A   1      28.989  25.854  24.508  1.00  0.00    -0.289 OA
ATOM     19  C   UNL A   1      30.188  30.137  22.380  1.00  0.00     0.018 A 
ATOM     20  C   UNL A   1      28.920  28.430  23.495  1.00  0.00     0.030 A 
ATOM     21  C   UNL A   1      29.029  29.727  23.038  1.00  0.00     0.018 A 
ATOM     22  Br  UNL A   1      27.542  30.871  23.221  1.00  0.00    -0.051 Br
ENDBRANCH   8   9
ENDBRANCH   7   8
ENDBRANCH   4   7
ENDBRANCH   2   3
ENDBRANCH   1   2
BRANCH   1  23
ATOM     23  C   UNL A   1      32.234  29.384  25.483  1.00  0.00     0.118 C 
BRANCH  23  24
ATOM     24  N   UNL A   1      32.171  30.702  26.108  1.00  0.00    -0.352 N 
ATOM     25  C   UNL A   1      32.942  31.391  27.019  1.00  0.00     0.251 C 
ATOM     26  H   UNL A   1      31.392  31.222  25.807  1.00  0.00     0.163 HD
ATOM     27  O   UNL A   1      32.511  32.492  27.374  1.00  0.00    -0.269 OA
BRANCH  25  28
ATOM     28  C   UNL A   1      34.218  30.914  27.644  1.00  0.00     0.039 A 
ATOM     29  C   UNL A   1      34.686  29.606  27.626  1.00  0.00     0.014 A 
ATOM     30  C   UNL A   1      35.062  31.883  28.220  1.00  0.00     0.014 A 
ATOM     31  C   UNL A   1      35.869  29.259  28.316  1.00  0.00     0.010 A 
ATOM     32  C   UNL A   1      36.275  31.539  28.857  1.00  0.00     0.010 A 
ATOM     33  C   UNL A   1      36.660  30.203  29.007  1.00  0.00    -0.014 A 
BRANCH  33  34
ATOM     34  C   UNL A   1      37.799  29.775  29.912  1.00  0.00     0.031 A 
ATOM     35  C   UNL A   1      38.908  28.840  29.428  1.00  0.00     0.074 A 
ATOM     36  C   UNL A   1      37.956  30.303  31.147  1.00  0.00     0.049 A 
ATOM     37  N   UNL A   1      40.073  28.566  29.981  1.00  0.00    -0.248 NA
ATOM     38  C   UNL A   1      38.714  28.150  28.146  1.00  0.00     0.031 C 
ATOM     39  C   UNL A   1      37.028  31.223  31.800  1.00  0.00     0.029 A 
ATOM     40  N   UNL A   1      38.976  30.160  32.068  1.00  0.00    -0.354 N 
ATOM     41  C   UNL A   1      40.759  27.756  29.080  1.00  0.00     0.074 A 
ATOM     42  C   UNL A   1      39.881  27.553  27.951  1.00  0.00     0.031 C 
ATOM     43  C   UNL A   1      37.546  31.612  32.976  1.00  0.00     0.029 A 
ATOM     44  C   UNL A   1      38.814  30.919  33.203  1.00  0.00     0.049 A 
ATOM     45  H   UNL A   1      39.749  29.567  31.924  1.00  0.00     0.167 HD
ATOM     46  C   UNL A   1      41.994  27.202  29.165  1.00  0.00     0.037 A 
ATOM     47  C   UNL A   1      39.573  31.043  34.314  1.00  0.00     0.037 A 
ATOM     48  C   UNL A   1      42.853  27.247  30.318  1.00  0.00     0.049 A 
ATOM     49  C   UNL A   1      40.853  30.263  34.465  1.00  0.00     0.074 A 
ATOM     50  C   UNL A   1      44.080  26.627  30.501  1.00  0.00     0.029 A 
ATOM     51  N   UNL A   1      42.562  27.907  31.495  1.00  0.00    -0.354 N 
ATOM     52  N   UNL A   1      41.480  29.521  33.590  1.00  0.00    -0.248 NA
ATOM     53  C   UNL A   1      41.519  30.324  35.779  1.00  0.00     0.031 C 
ATOM     54  C   UNL A   1      44.499  26.858  31.814  1.00  0.00     0.029 A 
ATOM     55  C   UNL A   1      43.561  27.669  32.427  1.00  0.00     0.049 A 
ATOM     56  H   UNL A   1      41.765  28.464  31.651  1.00  0.00     0.167 HD
ATOM     57  C   UNL A   1      42.607  29.030  34.242  1.00  0.00     0.074 A 
ATOM     58  C   UNL A   1      42.597  29.579  35.578  1.00  0.00     0.031 C 
ATOM     59  C   UNL A   1      43.557  28.189  33.767  1.00  0.00     0.037 A 
BRANCH  46  60
ATOM     60  C   UNL A   1      42.502  26.429  27.981  1.00  0.00     0.064 A 
ATOM     61  C   UNL A   1      42.115  25.099  27.767  1.00  0.00     0.173 A 
ATOM     62  C   UNL A   1      43.279  27.058  26.998  1.00  0.00     0.173 A 
ATOM     63  F   UNL A   1      41.378  24.453  28.682  1.00  0.00    -0.203 F 
ATOM     64  C   UNL A   1      42.483  24.428  26.604  1.00  0.00     0.198 A 
ATOM     65  C   UNL A   1      43.633  26.389  25.829  1.00  0.00     0.198 A 
ATOM     66  F   UNL A   1      43.669  28.332  27.158  1.00  0.00    -0.203 F 
ATOM     67  F   UNL A   1      42.109  23.153  26.418  1.00  0.00    -0.200 F 
ATOM     68  C   UNL A   1      43.232  25.076  25.632  1.00  0.00     0.200 A 
ATOM     69  F   UNL A   1      44.348  27.020  24.888  1.00  0.00    -0.200 F 
ATOM     70  F   UNL A   1      43.569  24.435  24.504  1.00  0.00    -0.200 F 
ENDBRANCH  46  60
BRANCH  47  71
ATOM     71  C   UNL A   1      39.118  31.930  35.421  1.00  0.00     0.064 A 
ATOM     72  C   UNL A   1      38.345  31.432  36.479  1.00  0.00     0.173 A 
ATOM     73  C   UNL A   1      39.426  33.298  35.426  1.00  0.00     0.173 A 
ATOM     74  F   UNL A   1      37.986  30.140  36.496  1.00  0.00    -0.203 F 
ATOM     75  C   UNL A   1      37.903  32.268  37.503  1.00  0.00     0.198 A 
ATOM     76  C   UNL A   1      39.013  34.126  36.465  1.00  0.00     0.198 A 
ATOM     77  F   UNL A   1      40.143  33.828  34.424  1.00  0.00    -0.203 F 
ATOM     78  F   UNL A   1      37.132  31.778  38.481  1.00  0.00    -0.200 F 
ATOM     79  C   UNL A   1      38.247  33.613  37.500  1.00  0.00     0.200 A 
ATOM     80  F   UNL A   1      39.354  35.421  36.462  1.00  0.00    -0.200 F 
ATOM     81  F   UNL A   1      37.832  34.414  38.491  1.00  0.00    -0.200 F 
ENDBRANCH  47  71
BRANCH  59  82
ATOM     82  C   UNL A   1      44.667  27.781  34.690  1.00  0.00     0.064 A 
ATOM     83  C   UNL A   1      44.551  26.651  35.513  1.00  0.00     0.173 A 
ATOM     84  C   UNL A   1      45.882  28.483  34.707  1.00  0.00     0.173 A 
ATOM     85  F   UNL A   1      43.408  25.949  35.538  1.00  0.00    -0.203 F 
ATOM     86  C   UNL A   1      45.604  26.249  36.332  1.00  0.00     0.198 A 
ATOM     87  C   UNL A   1      46.941  28.064  35.511  1.00  0.00     0.198 A 
ATOM     88  F   UNL A   1      46.051  29.564  33.931  1.00  0.00    -0.203 F 
ATOM     89  F   UNL A   1      45.458  25.185  37.133  1.00  0.00    -0.200 F 
ATOM     90  C   UNL A   1      46.799  26.952  36.325  1.00  0.00     0.200 A 
ATOM     91  F   UNL A   1      48.101  28.736  35.493  1.00  0.00    -0.200 F 
ATOM     92  F   UNL A   1      47.815  26.557  37.107  1.00  0.00    -0.200 F 
ENDBRANCH  59  82
ENDBRANCH  33  34
ENDBRANCH  25  28
ENDBRANCH  23  24
ENDBRANCH   1  23
TORSDOF 12
ENDMDL
MODEL 3
REMARK VINA RESULT:     -12.4      2.033      3.530
REMARK SMILES Cc1[nH]c2ccc(Br)cc2c(=O)c1CCC(=O)NCCCNC(=O)c1ccc(-c2c3nc(c(-c4c(F)c(F)c(F)c(F)c4F)c4ccc([nH]4)c(-c4c(F)c(F)c(F)c(F)c4F)c4nc(c(-c5c(F)c(F)c(F)c(F)c5F)c5ccc2[nH]5)C=C4)C=C3)cc1
REMARK SMILES IDX 20 1 19 2 18 3 16 4 17 5 15 7 14 8 13 9 1 10 2 11 3 12 4 13
REMARK SMILES IDX 11 15 5 16 10 17 12 18 6 19 9 20 7 21 8 22 21 23 22 24 23 25
REMARK SMILES IDX 24 27 25 28 26 29 87 30 27 31 86 32 28 33 29 34 30 35 80 36
REMARK SMILES IDX 31 37 85 38 79 39 81 40 32 41 84 42 78 43 77 44 33 46 65 47
REMARK SMILES IDX 45 48 64 49 46 50 49 51 63 52 82 53 47 54 48 55 62 57 83 58
REMARK SMILES IDX 50 59 34 60 35 61 43 62 36 63 37 64 41 65 44 66 38 67 39 68
REMARK SMILES IDX 42 69 40 70 66 71 67 72 75 73 68 74 69 75 73 76 76 77 70 78
REMARK SMILES IDX 71 79 74 80 72 81 51 82 52 83 60 84 53 85 54 86 58 87 61 88
REMARK SMILES IDX 55 89 56 90 59 91 57 92
REMARK H PARENT 18 6 3 14 22 26 81 45 49 56
REMARK Flexibility Score: inf
ROOT
ATOM      1  C   UNL A   1      31.092  31.212  25.751  1.00  0.00     0.042 C 
ENDROOT
BRANCH   1   2
ATOM      2  C   UNL A   1      31.357  29.913  24.975  1.00  0.00     0.117 C 
BRANCH   2   3
ATOM      3  N   UNL A   1      30.536  29.821  23.768  1.00  0.00    -0.356 N 
ATOM      4  C   UNL A   1      30.692  29.135  22.597  1.00  0.00     0.220 C 
ATOM      5  O   UNL A   1      29.833  29.288  21.724  1.00  0.00    -0.275 OA
ATOM      6  H   UNL A   1      29.712  30.358  23.806  1.00  0.00     0.163 HD
BRANCH   4   7
ATOM      7  C   UNL A   1      31.836  28.160  22.378  1.00  0.00     0.105 C 
BRANCH   7   8
ATOM      8  C   UNL A   1      31.374  26.717  22.123  1.00  0.00     0.051 C 
BRANCH   8   9
ATOM      9  C   UNL A   1      31.875  25.818  23.219  1.00  0.00     0.020 A 
ATOM     10  C   UNL A   1      29.875  26.036  24.718  1.00  0.00     0.064 C 
ATOM     11  C   UNL A   1      31.285  25.591  24.415  1.00  0.00     0.019 A 
ATOM     12  N   UNL A   1      31.946  24.955  25.448  1.00  0.00    -0.358 N 
ATOM     13  C   UNL A   1      33.213  24.396  25.285  1.00  0.00     0.050 A 
ATOM     14  H   UNL A   1      31.510  24.896  26.328  1.00  0.00     0.166 HD
ATOM     15  C   UNL A   1      33.161  25.122  22.933  1.00  0.00     0.192 A 
ATOM     16  C   UNL A   1      33.937  23.891  26.358  1.00  0.00     0.028 A 
ATOM     17  C   UNL A   1      33.801  24.367  24.015  1.00  0.00     0.047 A 
ATOM     18  O   UNL A   1      33.713  25.196  21.832  1.00  0.00    -0.289 OA
ATOM     19  C   UNL A   1      35.143  23.230  26.120  1.00  0.00     0.018 A 
ATOM     20  C   UNL A   1      34.988  23.682  23.768  1.00  0.00     0.030 A 
ATOM     21  C   UNL A   1      35.616  23.051  24.821  1.00  0.00     0.018 A 
ATOM     22  Br  UNL A   1      37.032  21.865  24.441  1.00  0.00    -0.051 Br
ENDBRANCH   8   9
ENDBRANCH   7   8
ENDBRANCH   4   7
ENDBRANCH   2   3
ENDBRANCH   1   2
BRANCH   1  23
ATOM     23  C   UNL A   1      31.852  31.402  27.072  1.00  0.00     0.118 C 
BRANCH  23  24
ATOM     24  N   UNL A   1      32.325  32.767  27.285  1.00  0.00    -0.352 N 
ATOM     25  C   UNL A   1      33.485  33.337  27.762  1.00  0.00     0.251 C 
ATOM     26  H   UNL A   1      31.655  33.439  27.027  1.00  0.00     0.163 HD
ATOM     27  O   UNL A   1      33.483  34.567  27.868  1.00  0.00    -0.269 OA
BRANCH  25  28
ATOM     28  C   UNL A   1      34.721  32.609  28.197  1.00  0.00     0.039 A 
ATOM     29  C   UNL A   1      34.792  31.257  28.509  1.00  0.00     0.014 A 
ATOM     30  C   UNL A   1      35.932  33.328  28.205  1.00  0.00     0.014 A 
ATOM     31  C   UNL A   1      35.999  30.694  28.983  1.00  0.00     0.010 A 
ATOM     32  C   UNL A   1      37.148  32.744  28.622  1.00  0.00     0.010 A 
ATOM     33  C   UNL A   1      37.192  31.437  29.116  1.00  0.00    -0.014 A 
BRANCH  33  34
ATOM     34  C   UNL A   1      38.407  30.868  29.823  1.00  0.00     0.031 A 
ATOM     35  C   UNL A   1      38.756  31.248  31.263  1.00  0.00     0.074 A 
ATOM     36  C   UNL A   1      39.165  29.901  29.258  1.00  0.00     0.049 A 
ATOM     37  N   UNL A   1      39.607  30.682  32.096  1.00  0.00    -0.248 NA
ATOM     38  C   UNL A   1      38.039  32.379  31.868  1.00  0.00     0.031 C 
ATOM     39  C   UNL A   1      39.001  29.379  27.904  1.00  0.00     0.029 A 
ATOM     40  N   UNL A   1      40.214  29.161  29.769  1.00  0.00    -0.354 N 
ATOM     41  C   UNL A   1      39.456  31.332  33.319  1.00  0.00     0.074 A 
ATOM     42  C   UNL A   1      38.455  32.354  33.126  1.00  0.00     0.031 C 
ATOM     43  C   UNL A   1      39.863  28.368  27.713  1.00  0.00     0.029 A 
ATOM     44  C   UNL A   1      40.696  28.206  28.905  1.00  0.00     0.049 A 
ATOM     45  H   UNL A   1      40.583  29.305  30.671  1.00  0.00     0.167 HD
ATOM     46  C   UNL A   1      40.092  31.132  34.500  1.00  0.00     0.037 A 
ATOM     47  C   UNL A   1      41.700  27.310  29.029  1.00  0.00     0.037 A 
ATOM     48  C   UNL A   1      41.194  30.234  34.715  1.00  0.00     0.049 A 
ATOM     49  C   UNL A   1      42.520  27.241  30.290  1.00  0.00     0.074 A 
ATOM     50  C   UNL A   1      41.943  30.052  35.868  1.00  0.00     0.029 A 
ATOM     51  N   UNL A   1      41.736  29.403  33.754  1.00  0.00    -0.354 N 
ATOM     52  N   UNL A   1      42.342  27.855  31.431  1.00  0.00    -0.248 NA
ATOM     53  C   UNL A   1      43.703  26.362  30.268  1.00  0.00     0.031 C 
ATOM     54  C   UNL A   1      42.981  29.160  35.584  1.00  0.00     0.029 A 
ATOM     55  C   UNL A   1      42.840  28.744  34.272  1.00  0.00     0.049 A 
ATOM     56  H   UNL A   1      41.391  29.294  32.839  1.00  0.00     0.167 HD
ATOM     57  C   UNL A   1      43.381  27.440  32.256  1.00  0.00     0.074 A 
ATOM     58  C   UNL A   1      44.174  26.498  31.499  1.00  0.00     0.031 C 
ATOM     59  C   UNL A   1      43.652  27.820  33.528  1.00  0.00     0.037 A 
BRANCH  46  60
ATOM     60  C   UNL A   1      39.652  31.948  35.682  1.00  0.00     0.064 A 
ATOM     61  C   UNL A   1      40.202  33.214  35.931  1.00  0.00     0.173 A 
ATOM     62  C   UNL A   1      38.595  31.515  36.496  1.00  0.00     0.173 A 
ATOM     63  F   UNL A   1      41.219  33.668  35.184  1.00  0.00    -0.203 F 
ATOM     64  C   UNL A   1      39.702  34.020  36.950  1.00  0.00     0.198 A 
ATOM     65  C   UNL A   1      38.088  32.330  37.504  1.00  0.00     0.198 A 
ATOM     66  F   UNL A   1      38.035  30.313  36.291  1.00  0.00    -0.203 F 
ATOM     67  F   UNL A   1      40.244  35.226  37.178  1.00  0.00    -0.200 F 
ATOM     68  C   UNL A   1      38.640  33.583  37.728  1.00  0.00     0.200 A 
ATOM     69  F   UNL A   1      37.056  31.910  38.248  1.00  0.00    -0.200 F 
ATOM     70  F   UNL A   1      38.147  34.369  38.696  1.00  0.00    -0.200 F 
ENDBRANCH  46  60
BRANCH  47  71
ATOM     71  C   UNL A   1      42.027  26.409  27.889  1.00  0.00     0.064 A 
ATOM     72  C   UNL A   1      41.366  25.185  27.717  1.00  0.00     0.173 A 
ATOM     73  C   UNL A   1      43.026  26.747  26.963  1.00  0.00     0.173 A 
ATOM     74  F   UNL A   1      40.434  24.797  28.601  1.00  0.00    -0.203 F 
ATOM     75  C   UNL A   1      41.689  24.335  26.661  1.00  0.00     0.198 A 
ATOM     76  C   UNL A   1      43.324  25.913  25.890  1.00  0.00     0.198 A 
ATOM     77  F   UNL A   1      43.703  27.896  27.096  1.00  0.00    -0.203 F 
ATOM     78  F   UNL A   1      41.072  23.152  26.541  1.00  0.00    -0.200 F 
ATOM     79  C   UNL A   1      42.660  24.706  25.742  1.00  0.00     0.200 A 
ATOM     80  F   UNL A   1      44.257  26.279  25.001  1.00  0.00    -0.200 F 
ATOM     81  F   UNL A   1      42.962  23.894  24.719  1.00  0.00    -0.200 F 
ENDBRANCH  47  71
BRANCH  59  82
ATOM     82  C   UNL A   1      44.865  27.243  34.197  1.00  0.00     0.064 A 
ATOM     83  C   UNL A   1      44.808  26.015  34.874  1.00  0.00     0.173 A 
ATOM     84  C   UNL A   1      46.110  27.885  34.107  1.00  0.00     0.173 A 
ATOM     85  F   UNL A   1      43.641  25.365  34.994  1.00  0.00    -0.203 F 
ATOM     86  C   UNL A   1      45.948  25.461  35.451  1.00  0.00     0.198 A 
ATOM     87  C   UNL A   1      47.253  27.315  34.666  1.00  0.00     0.198 A 
ATOM     88  F   UNL A   1      46.223  29.055  33.461  1.00  0.00    -0.203 F 
ATOM     89  F   UNL A   1      45.862  24.303  36.121  1.00  0.00    -0.200 F 
ATOM     90  C   UNL A   1      47.170  26.108  35.341  1.00  0.00     0.200 A 
ATOM     91  F   UNL A   1      48.435  27.935  34.546  1.00  0.00    -0.200 F 
ATOM     92  F   UNL A   1      48.268  25.567  35.889  1.00  0.00    -0.200 F 
ENDBRANCH  59  82
ENDBRANCH  33  34
ENDBRANCH  25  28
ENDBRANCH  23  24
ENDBRANCH   1  23
TORSDOF 12
ENDMDL
