MODEL 1
REMARK VINA RESULT:     -12.4      0.000      0.000
REMARK SMILES Cc1cc(NC(=O)c2ccc(Br)nc2)sc1C(=O)NCCCNC(=O)c1ccc(-c2c3nc(c(-c4c(F)c(F)c(F)c(F)c4F)c4ccc([nH]4)c(-c4c(F)c(F)c(F)c(F)c4F)c4nc(c(-c5c(F)c(F)c(F)c(F)c5F)c5ccc2[nH]5)C=C4)C=C3)cc1
REMARK SMILES IDX 21 1 20 2 19 3 17 4 18 5 16 7 1 8 2 9 3 10 4 11 15 12 5 13
REMARK SMILES IDX 6 14 7 16 8 17 9 18 14 19 10 20 13 21 11 22 12 23 22 24
REMARK SMILES IDX 23 25 24 26 25 28 26 29 27 30 88 31 28 32 87 33 29 34 30 35
REMARK SMILES IDX 31 36 81 37 32 38 86 39 80 40 82 41 33 42 85 43 79 44 78 45
REMARK SMILES IDX 34 47 66 48 46 49 65 50 47 51 50 52 64 53 83 54 48 55 49 56
REMARK SMILES IDX 63 58 84 59 51 60 35 61 36 62 44 63 37 64 38 65 42 66 45 67
REMARK SMILES IDX 39 68 40 69 43 70 41 71 67 72 68 73 76 74 69 75 70 76 74 77
REMARK SMILES IDX 77 78 71 79 72 80 75 81 73 82 52 83 53 84 61 85 54 86 55 87
REMARK SMILES IDX 59 88 62 89 56 90 57 91 60 92 58 93
REMARK H PARENT 19 6 5 15 23 27 82 46 50 57
REMARK Flexibility Score: inf
ROOT
ATOM      1  C   UNL A   1      31.058  31.908  26.511  1.00  0.00     0.042 C 
ENDROOT
BRANCH   1   2
ATOM      2  C   UNL A   1      31.052  30.852  25.411  1.00  0.00     0.118 C 
BRANCH   2   3
ATOM      3  N   UNL A   1      32.296  30.127  25.360  1.00  0.00    -0.351 N 
ATOM      4  C   UNL A   1      32.625  28.823  25.090  1.00  0.00     0.261 C 
ATOM      5  O   UNL A   1      33.848  28.660  24.986  1.00  0.00    -0.268 OA
ATOM      6  H   UNL A   1      33.079  30.688  25.564  1.00  0.00     0.163 HD
BRANCH   4   7
ATOM      7  C   UNL A   1      31.673  27.713  24.947  1.00  0.00     0.097 A 
ATOM      8  C   UNL A   1      31.055  27.146  22.437  1.00  0.00     0.046 C 
ATOM      9  C   UNL A   1      30.964  27.082  23.921  1.00  0.00    -0.025 A 
ATOM     10  C   UNL A   1      29.929  26.252  24.460  1.00  0.00     0.042 A 
ATOM     11  C   UNL A   1      30.186  25.876  25.744  1.00  0.00     0.096 A 
ATOM     12  S   UNL A   1      31.258  26.942  26.481  1.00  0.00    -0.112 S 
BRANCH  11  13
ATOM     13  N   UNL A   1      29.725  24.826  26.500  1.00  0.00    -0.313 N 
ATOM     14  C   UNL A   1      30.274  23.555  26.541  1.00  0.00     0.257 C 
ATOM     15  H   UNL A   1      28.934  24.991  27.063  1.00  0.00     0.171 HD
ATOM     16  O   UNL A   1      29.699  22.622  27.091  1.00  0.00    -0.269 OA
BRANCH  14  17
ATOM     17  C   UNL A   1      31.615  23.310  25.968  1.00  0.00     0.058 A 
ATOM     18  C   UNL A   1      31.786  22.884  24.648  1.00  0.00     0.018 A 
ATOM     19  C   UNL A   1      32.726  23.375  26.794  1.00  0.00     0.126 A 
ATOM     20  C   UNL A   1      33.048  22.458  24.230  1.00  0.00     0.037 A 
ATOM     21  N   UNL A   1      33.960  22.960  26.411  1.00  0.00    -0.249 NA
ATOM     22  C   UNL A   1      34.093  22.501  25.144  1.00  0.00     0.106 A 
ATOM     23  Br  UNL A   1      35.781  21.811  24.629  1.00  0.00    -0.029 Br
ENDBRANCH  14  17
ENDBRANCH  11  13
ENDBRANCH   4   7
ENDBRANCH   2   3
ENDBRANCH   1   2
BRANCH   1  24
ATOM     24  C   UNL A   1      32.438  32.430  26.876  1.00  0.00     0.118 C 
BRANCH  24  25
ATOM     25  N   UNL A   1      32.388  33.812  27.325  1.00  0.00    -0.352 N 
ATOM     26  C   UNL A   1      33.029  34.440  28.363  1.00  0.00     0.251 C 
ATOM     27  H   UNL A   1      31.795  34.395  26.797  1.00  0.00     0.163 HD
ATOM     28  O   UNL A   1      32.632  35.544  28.725  1.00  0.00    -0.269 OA
BRANCH  26  29
ATOM     29  C   UNL A   1      34.183  33.816  29.055  1.00  0.00     0.039 A 
ATOM     30  C   UNL A   1      35.467  34.311  28.798  1.00  0.00     0.014 A 
ATOM     31  C   UNL A   1      34.029  32.708  29.892  1.00  0.00     0.014 A 
ATOM     32  C   UNL A   1      36.579  33.728  29.410  1.00  0.00     0.010 A 
ATOM     33  C   UNL A   1      35.125  32.186  30.575  1.00  0.00     0.010 A 
ATOM     34  C   UNL A   1      36.414  32.676  30.326  1.00  0.00    -0.014 A 
BRANCH  34  35
ATOM     35  C   UNL A   1      37.577  32.056  31.011  1.00  0.00     0.031 A 
ATOM     36  C   UNL A   1      38.383  30.992  30.315  1.00  0.00     0.074 A 
ATOM     37  C   UNL A   1      37.867  32.403  32.279  1.00  0.00     0.049 A 
ATOM     38  N   UNL A   1      39.378  30.273  30.771  1.00  0.00    -0.248 NA
ATOM     39  C   UNL A   1      37.998  30.671  28.931  1.00  0.00     0.031 C 
ATOM     40  C   UNL A   1      37.129  33.386  33.075  1.00  0.00     0.029 A 
ATOM     41  N   UNL A   1      38.850  31.960  33.127  1.00  0.00    -0.354 N 
ATOM     42  C   UNL A   1      39.722  29.408  29.741  1.00  0.00     0.074 A 
ATOM     43  C   UNL A   1      38.795  29.649  28.657  1.00  0.00     0.031 C 
ATOM     44  C   UNL A   1      37.699  33.487  34.286  1.00  0.00     0.029 A 
ATOM     45  C   UNL A   1      38.816  32.550  34.366  1.00  0.00     0.049 A 
ATOM     46  H   UNL A   1      39.518  31.283  32.870  1.00  0.00     0.167 HD
ATOM     47  C   UNL A   1      40.736  28.510  29.693  1.00  0.00     0.037 A 
ATOM     48  C   UNL A   1      39.593  32.353  35.448  1.00  0.00     0.037 A 
ATOM     49  C   UNL A   1      41.673  28.296  30.764  1.00  0.00     0.049 A 
ATOM     50  C   UNL A   1      40.717  31.355  35.367  1.00  0.00     0.074 A 
ATOM     51  C   UNL A   1      42.770  27.452  30.796  1.00  0.00     0.029 A 
ATOM     52  N   UNL A   1      41.623  28.933  31.995  1.00  0.00    -0.354 N 
ATOM     53  N   UNL A   1      41.071  30.586  34.365  1.00  0.00    -0.248 NA
ATOM     54  C   UNL A   1      41.554  31.204  36.565  1.00  0.00     0.031 C 
ATOM     55  C   UNL A   1      43.357  27.548  32.062  1.00  0.00     0.029 A 
ATOM     56  C   UNL A   1      42.658  28.489  32.801  1.00  0.00     0.049 A 
ATOM     57  H   UNL A   1      40.949  29.602  32.257  1.00  0.00     0.167 HD
ATOM     58  C   UNL A   1      42.185  29.881  34.801  1.00  0.00     0.074 A 
ATOM     59  C   UNL A   1      42.457  30.326  36.152  1.00  0.00     0.031 C 
ATOM     60  C   UNL A   1      42.916  28.949  34.142  1.00  0.00     0.037 A 
BRANCH  47  61
ATOM     61  C   UNL A   1      40.886  27.698  28.438  1.00  0.00     0.064 A 
ATOM     62  C   UNL A   1      41.708  28.119  27.382  1.00  0.00     0.173 A 
ATOM     63  C   UNL A   1      40.224  26.468  28.301  1.00  0.00     0.173 A 
ATOM     64  F   UNL A   1      42.355  29.293  27.456  1.00  0.00    -0.203 F 
ATOM     65  C   UNL A   1      41.838  27.357  26.224  1.00  0.00     0.198 A 
ATOM     66  C   UNL A   1      40.381  25.692  27.153  1.00  0.00     0.198 A 
ATOM     67  F   UNL A   1      39.430  26.013  29.281  1.00  0.00    -0.203 F 
ATOM     68  F   UNL A   1      42.586  27.807  25.207  1.00  0.00    -0.200 F 
ATOM     69  C   UNL A   1      41.180  26.142  26.114  1.00  0.00     0.200 A 
ATOM     70  F   UNL A   1      39.755  24.512  27.055  1.00  0.00    -0.200 F 
ATOM     71  F   UNL A   1      41.310  25.406  25.000  1.00  0.00    -0.200 F 
ENDBRANCH  47  61
BRANCH  48  72
ATOM     72  C   UNL A   1      39.353  33.136  36.686  1.00  0.00     0.064 A 
ATOM     73  C   UNL A   1      40.017  34.350  36.910  1.00  0.00     0.173 A 
ATOM     74  C   UNL A   1      38.452  32.695  37.667  1.00  0.00     0.173 A 
ATOM     75  F   UNL A   1      40.902  34.804  36.010  1.00  0.00    -0.203 F 
ATOM     76  C   UNL A   1      39.805  35.084  38.076  1.00  0.00     0.198 A 
ATOM     77  C   UNL A   1      38.219  33.443  38.819  1.00  0.00     0.198 A 
ATOM     78  F   UNL A   1      37.786  31.544  37.498  1.00  0.00    -0.203 F 
ATOM     79  F   UNL A   1      40.486  36.218  38.283  1.00  0.00    -0.200 F 
ATOM     80  C   UNL A   1      38.902  34.633  39.026  1.00  0.00     0.200 A 
ATOM     81  F   UNL A   1      37.334  33.013  39.728  1.00  0.00    -0.200 F 
ATOM     82  F   UNL A   1      38.693  35.342  40.144  1.00  0.00    -0.200 F 
ENDBRANCH  48  72
BRANCH  60  83
ATOM     83  C   UNL A   1      44.101  28.373  34.861  1.00  0.00     0.064 A 
ATOM     84  C   UNL A   1      45.360  28.989  34.819  1.00  0.00     0.173 A 
ATOM     85  C   UNL A   1      43.964  27.207  35.631  1.00  0.00     0.173 A 
ATOM     86  F   UNL A   1      45.545  30.097  34.085  1.00  0.00    -0.203 F 
ATOM     87  C   UNL A   1      46.444  28.446  35.502  1.00  0.00     0.198 A 
ATOM     88  C   UNL A   1      45.043  26.685  36.337  1.00  0.00     0.198 A 
ATOM     89  F   UNL A   1      42.779  26.584  35.709  1.00  0.00    -0.203 F 
ATOM     90  F   UNL A   1      47.649  29.025  35.408  1.00  0.00    -0.200 F 
ATOM     91  C   UNL A   1      46.284  27.300  36.266  1.00  0.00     0.200 A 
ATOM     92  F   UNL A   1      44.882  25.585  37.086  1.00  0.00    -0.200 F 
ATOM     93  F   UNL A   1      47.328  26.782  36.927  1.00  0.00    -0.200 F 
ENDBRANCH  60  83
ENDBRANCH  34  35
ENDBRANCH  26  29
ENDBRANCH  24  25
ENDBRANCH   1  24
TORSDOF 12
ENDMDL
MODEL 2
REMARK VINA RESULT:     -12.4      0.204      1.614
REMARK SMILES Cc1cc(NC(=O)c2ccc(Br)nc2)sc1C(=O)NCCCNC(=O)c1ccc(-c2c3nc(c(-c4c(F)c(F)c(F)c(F)c4F)c4ccc([nH]4)c(-c4c(F)c(F)c(F)c(F)c4F)c4nc(c(-c5c(F)c(F)c(F)c(F)c5F)c5ccc2[nH]5)C=C4)C=C3)cc1
REMARK SMILES IDX 21 1 20 2 19 3 17 4 18 5 16 7 1 8 2 9 3 10 4 11 15 12 5 13
REMARK SMILES IDX 6 14 7 16 8 17 9 18 14 19 10 20 13 21 11 22 12 23 22 24
REMARK SMILES IDX 23 25 24 26 25 28 26 29 27 30 88 31 28 32 87 33 29 34 30 35
REMARK SMILES IDX 31 36 81 37 32 38 86 39 80 40 82 41 33 42 85 43 79 44 78 45
REMARK SMILES IDX 34 47 66 48 46 49 65 50 47 51 50 52 64 53 83 54 48 55 49 56
REMARK SMILES IDX 63 58 84 59 51 60 35 61 36 62 44 63 37 64 38 65 42 66 45 67
REMARK SMILES IDX 39 68 40 69 43 70 41 71 67 72 68 73 76 74 69 75 70 76 74 77
REMARK SMILES IDX 77 78 71 79 72 80 75 81 73 82 52 83 53 84 61 85 54 86 55 87
REMARK SMILES IDX 59 88 62 89 56 90 57 91 60 92 58 93
REMARK H PARENT 19 6 5 15 23 27 82 46 50 57
REMARK Flexibility Score: inf
ROOT
ATOM      1  C   UNL A   1      31.047  31.965  26.443  1.00  0.00     0.042 C 
ENDROOT
BRANCH   1   2
ATOM      2  C   UNL A   1      31.091  30.849  25.405  1.00  0.00     0.118 C 
BRANCH   2   3
ATOM      3  N   UNL A   1      32.342  30.136  25.440  1.00  0.00    -0.351 N 
ATOM      4  C   UNL A   1      32.695  28.826  25.234  1.00  0.00     0.261 C 
ATOM      5  O   UNL A   1      33.923  28.672  25.194  1.00  0.00    -0.268 OA
ATOM      6  H   UNL A   1      33.110  30.712  25.660  1.00  0.00     0.163 HD
BRANCH   4   7
ATOM      7  C   UNL A   1      31.761  27.702  25.087  1.00  0.00     0.097 A 
ATOM      8  C   UNL A   1      31.314  26.999  22.575  1.00  0.00     0.046 C 
ATOM      9  C   UNL A   1      31.125  27.012  24.051  1.00  0.00    -0.025 A 
ATOM     10  C   UNL A   1      30.061  26.202  24.563  1.00  0.00     0.042 A 
ATOM     11  C   UNL A   1      30.233  25.896  25.879  1.00  0.00     0.096 A 
ATOM     12  S   UNL A   1      31.248  27.008  26.629  1.00  0.00    -0.112 S 
BRANCH  11  13
ATOM     13  N   UNL A   1      29.729  24.883  26.657  1.00  0.00    -0.313 N 
ATOM     14  C   UNL A   1      30.216  23.587  26.716  1.00  0.00     0.257 C 
ATOM     15  H   UNL A   1      28.952  25.097  27.224  1.00  0.00     0.171 HD
ATOM     16  O   UNL A   1      29.600  22.694  27.287  1.00  0.00    -0.269 OA
BRANCH  14  17
ATOM     17  C   UNL A   1      31.537  23.267  26.136  1.00  0.00     0.058 A 
ATOM     18  C   UNL A   1      31.677  22.834  24.813  1.00  0.00     0.018 A 
ATOM     19  C   UNL A   1      32.654  23.266  26.956  1.00  0.00     0.126 A 
ATOM     20  C   UNL A   1      32.910  22.338  24.389  1.00  0.00     0.037 A 
ATOM     21  N   UNL A   1      33.861  22.783  26.566  1.00  0.00    -0.249 NA
ATOM     22  C   UNL A   1      33.961  22.319  25.298  1.00  0.00     0.106 A 
ATOM     23  Br  UNL A   1      35.604  21.534  24.773  1.00  0.00    -0.029 Br
ENDBRANCH  14  17
ENDBRANCH  11  13
ENDBRANCH   4   7
ENDBRANCH   2   3
ENDBRANCH   1   2
BRANCH   1  24
ATOM     24  C   UNL A   1      32.412  32.441  26.915  1.00  0.00     0.118 C 
BRANCH  24  25
ATOM     25  N   UNL A   1      32.379  33.833  27.336  1.00  0.00    -0.352 N 
ATOM     26  C   UNL A   1      33.047  34.479  28.346  1.00  0.00     0.251 C 
ATOM     27  H   UNL A   1      31.777  34.407  26.809  1.00  0.00     0.163 HD
ATOM     28  O   UNL A   1      32.664  35.592  28.693  1.00  0.00    -0.269 OA
BRANCH  26  29
ATOM     29  C   UNL A   1      34.213  33.862  29.024  1.00  0.00     0.039 A 
ATOM     30  C   UNL A   1      35.488  34.379  28.767  1.00  0.00     0.014 A 
ATOM     31  C   UNL A   1      34.079  32.742  29.848  1.00  0.00     0.014 A 
ATOM     32  C   UNL A   1      36.612  33.803  29.366  1.00  0.00     0.010 A 
ATOM     33  C   UNL A   1      35.185  32.227  30.519  1.00  0.00     0.010 A 
ATOM     34  C   UNL A   1      36.467  32.738  30.270  1.00  0.00    -0.014 A 
BRANCH  34  35
ATOM     35  C   UNL A   1      37.641  32.126  30.941  1.00  0.00     0.031 A 
ATOM     36  C   UNL A   1      38.439  31.060  30.241  1.00  0.00     0.074 A 
ATOM     37  C   UNL A   1      37.950  32.484  32.203  1.00  0.00     0.049 A 
ATOM     38  N   UNL A   1      39.443  30.347  30.687  1.00  0.00    -0.248 NA
ATOM     39  C   UNL A   1      38.034  30.727  28.866  1.00  0.00     0.031 C 
ATOM     40  C   UNL A   1      37.222  33.471  33.003  1.00  0.00     0.029 A 
ATOM     41  N   UNL A   1      38.948  32.049  33.038  1.00  0.00    -0.354 N 
ATOM     42  C   UNL A   1      39.774  29.475  29.658  1.00  0.00     0.074 A 
ATOM     43  C   UNL A   1      38.830  29.705  28.587  1.00  0.00     0.031 C 
ATOM     44  C   UNL A   1      37.810  33.582  34.204  1.00  0.00     0.029 A 
ATOM     45  C   UNL A   1      38.930  32.649  34.274  1.00  0.00     0.049 A 
ATOM     46  H   UNL A   1      39.613  31.373  32.776  1.00  0.00     0.167 HD
ATOM     47  C   UNL A   1      40.789  28.579  29.601  1.00  0.00     0.037 A 
ATOM     48  C   UNL A   1      39.725  32.461  35.344  1.00  0.00     0.037 A 
ATOM     49  C   UNL A   1      41.743  28.375  30.659  1.00  0.00     0.049 A 
ATOM     50  C   UNL A   1      40.850  31.466  35.253  1.00  0.00     0.074 A 
ATOM     51  C   UNL A   1      42.843  27.535  30.681  1.00  0.00     0.029 A 
ATOM     52  N   UNL A   1      41.710  29.022  31.886  1.00  0.00    -0.354 N 
ATOM     53  N   UNL A   1      41.190  30.691  34.253  1.00  0.00    -0.248 NA
ATOM     54  C   UNL A   1      41.706  31.326  36.440  1.00  0.00     0.031 C 
ATOM     55  C   UNL A   1      43.450  27.642  31.937  1.00  0.00     0.029 A 
ATOM     56  C   UNL A   1      42.759  28.586  32.679  1.00  0.00     0.049 A 
ATOM     57  H   UNL A   1      41.039  29.691  32.154  1.00  0.00     0.167 HD
ATOM     58  C   UNL A   1      42.313  29.992  34.676  1.00  0.00     0.074 A 
ATOM     59  C   UNL A   1      42.605  30.448  36.020  1.00  0.00     0.031 C 
ATOM     60  C   UNL A   1      43.037  29.057  34.013  1.00  0.00     0.037 A 
BRANCH  47  61
ATOM     61  C   UNL A   1      40.923  27.758  28.350  1.00  0.00     0.064 A 
ATOM     62  C   UNL A   1      41.687  28.197  27.259  1.00  0.00     0.173 A 
ATOM     63  C   UNL A   1      40.303  26.502  28.252  1.00  0.00     0.173 A 
ATOM     64  F   UNL A   1      42.291  29.395  27.295  1.00  0.00    -0.203 F 
ATOM     65  C   UNL A   1      41.801  27.426  26.105  1.00  0.00     0.198 A 
ATOM     66  C   UNL A   1      40.446  25.720  27.108  1.00  0.00     0.198 A 
ATOM     67  F   UNL A   1      39.565  26.030  29.267  1.00  0.00    -0.203 F 
ATOM     68  F   UNL A   1      42.493  27.892  25.055  1.00  0.00    -0.200 F 
ATOM     69  C   UNL A   1      41.187  26.186  26.033  1.00  0.00     0.200 A 
ATOM     70  F   UNL A   1      39.861  24.515  27.046  1.00  0.00    -0.200 F 
ATOM     71  F   UNL A   1      41.302  25.443  24.924  1.00  0.00    -0.200 F 
ENDBRANCH  47  61
BRANCH  48  72
ATOM     72  C   UNL A   1      39.501  33.254  36.581  1.00  0.00     0.064 A 
ATOM     73  C   UNL A   1      38.655  32.784  37.593  1.00  0.00     0.173 A 
ATOM     74  C   UNL A   1      40.132  34.491  36.780  1.00  0.00     0.173 A 
ATOM     75  F   UNL A   1      38.014  31.614  37.441  1.00  0.00    -0.203 F 
ATOM     76  C   UNL A   1      38.431  33.528  38.750  1.00  0.00     0.198 A 
ATOM     77  C   UNL A   1      39.930  35.221  37.949  1.00  0.00     0.198 A 
ATOM     78  F   UNL A   1      40.957  34.983  35.845  1.00  0.00    -0.203 F 
ATOM     79  F   UNL A   1      37.583  33.074  39.682  1.00  0.00    -0.200 F 
ATOM     80  C   UNL A   1      39.073  34.743  38.930  1.00  0.00     0.200 A 
ATOM     81  F   UNL A   1      40.565  36.388  38.126  1.00  0.00    -0.200 F 
ATOM     82  F   UNL A   1      38.863  35.456  40.044  1.00  0.00    -0.200 F 
ENDBRANCH  48  72
BRANCH  60  83
ATOM     83  C   UNL A   1      44.234  28.489  34.718  1.00  0.00     0.064 A 
ATOM     84  C   UNL A   1      44.150  27.319  35.486  1.00  0.00     0.173 A 
ATOM     85  C   UNL A   1      45.489  29.105  34.592  1.00  0.00     0.173 A 
ATOM     86  F   UNL A   1      42.969  26.701  35.648  1.00  0.00    -0.203 F 
ATOM     87  C   UNL A   1      45.274  26.800  36.123  1.00  0.00     0.198 A 
ATOM     88  C   UNL A   1      46.616  28.566  35.205  1.00  0.00     0.198 A 
ATOM     89  F   UNL A   1      45.623  30.223  33.862  1.00  0.00    -0.203 F 
ATOM     90  F   UNL A   1      45.160  25.709  36.892  1.00  0.00    -0.200 F 
ATOM     91  C   UNL A   1      46.506  27.419  35.976  1.00  0.00     0.200 A 
ATOM     92  F   UNL A   1      47.808  29.158  35.050  1.00  0.00    -0.200 F 
ATOM     93  F   UNL A   1      47.587  26.915  36.586  1.00  0.00    -0.200 F 
ENDBRANCH  60  83
ENDBRANCH  34  35
ENDBRANCH  26  29
ENDBRANCH  24  25
ENDBRANCH   1  24
TORSDOF 12
ENDMDL
MODEL 3
REMARK VINA RESULT:     -12.4      0.544      7.318
REMARK SMILES Cc1cc(NC(=O)c2ccc(Br)nc2)sc1C(=O)NCCCNC(=O)c1ccc(-c2c3nc(c(-c4c(F)c(F)c(F)c(F)c4F)c4ccc([nH]4)c(-c4c(F)c(F)c(F)c(F)c4F)c4nc(c(-c5c(F)c(F)c(F)c(F)c5F)c5ccc2[nH]5)C=C4)C=C3)cc1
REMARK SMILES IDX 21 1 20 2 19 3 17 4 18 5 16 7 1 8 2 9 3 10 4 11 15 12 5 13
REMARK SMILES IDX 6 14 7 16 8 17 9 18 14 19 10 20 13 21 11 22 12 23 22 24
REMARK SMILES IDX 23 25 24 26 25 28 26 29 27 30 88 31 28 32 87 33 29 34 30 35
REMARK SMILES IDX 31 36 81 37 32 38 86 39 80 40 82 41 33 42 85 43 79 44 78 45
REMARK SMILES IDX 34 47 66 48 46 49 65 50 47 51 50 52 64 53 83 54 48 55 49 56
REMARK SMILES IDX 63 58 84 59 51 60 35 61 36 62 44 63 37 64 38 65 42 66 45 67
REMARK SMILES IDX 39 68 40 69 43 70 41 71 67 72 68 73 76 74 69 75 70 76 74 77
REMARK SMILES IDX 77 78 71 79 72 80 75 81 73 82 52 83 53 84 61 85 54 86 55 87
REMARK SMILES IDX 59 88 62 89 56 90 57 91 60 92 58 93
REMARK H PARENT 19 6 5 15 23 27 82 46 50 57
REMARK Flexibility Score: inf
ROOT
ATOM      1  C   UNL A   1      31.074  31.973  26.516  1.00  0.00     0.042 C 
ENDROOT
BRANCH   1   2
ATOM      2  C   UNL A   1      31.031  30.894  25.439  1.00  0.00     0.118 C 
BRANCH   2   3
ATOM      3  N   UNL A   1      32.280  30.182  25.345  1.00  0.00    -0.351 N 
ATOM      4  C   UNL A   1      32.613  28.880  25.073  1.00  0.00     0.261 C 
ATOM      5  O   UNL A   1      33.833  28.730  24.923  1.00  0.00    -0.268 OA
ATOM      6  H   UNL A   1      33.064  30.754  25.515  1.00  0.00     0.163 HD
BRANCH   4   7
ATOM      7  C   UNL A   1      31.669  27.758  24.976  1.00  0.00     0.097 A 
ATOM      8  C   UNL A   1      31.044  27.094  22.492  1.00  0.00     0.046 C 
ATOM      9  C   UNL A   1      30.960  27.085  23.977  1.00  0.00    -0.025 A 
ATOM     10  C   UNL A   1      29.934  26.267  24.552  1.00  0.00     0.042 A 
ATOM     11  C   UNL A   1      30.200  25.941  25.847  1.00  0.00     0.096 A 
ATOM     12  S   UNL A   1      31.267  27.041  26.539  1.00  0.00    -0.112 S 
BRANCH  11  13
ATOM     13  N   UNL A   1      29.751  24.916  26.644  1.00  0.00    -0.313 N 
ATOM     14  C   UNL A   1      30.270  23.632  26.682  1.00  0.00     0.257 C 
ATOM     15  H   UNL A   1      28.992  25.111  27.241  1.00  0.00     0.171 HD
ATOM     16  O   UNL A   1      29.699  22.724  27.276  1.00  0.00    -0.269 OA
BRANCH  14  17
ATOM     17  C   UNL A   1      31.574  23.343  26.049  1.00  0.00     0.058 A 
ATOM     18  C   UNL A   1      32.784  23.627  26.689  1.00  0.00     0.018 A 
ATOM     19  C   UNL A   1      31.607  22.902  24.735  1.00  0.00     0.126 A 
ATOM     20  C   UNL A   1      33.973  23.540  25.964  1.00  0.00     0.037 A 
ATOM     21  N   UNL A   1      32.750  22.816  24.009  1.00  0.00    -0.249 NA
ATOM     22  C   UNL A   1      33.905  23.147  24.633  1.00  0.00     0.106 A 
ATOM     23  Br  UNL A   1      35.495  23.145  23.602  1.00  0.00    -0.029 Br
ENDBRANCH  14  17
ENDBRANCH  11  13
ENDBRANCH   4   7
ENDBRANCH   2   3
ENDBRANCH   1   2
BRANCH   1  24
ATOM     24  C   UNL A   1      32.473  32.435  26.888  1.00  0.00     0.118 C 
BRANCH  24  25
ATOM     25  N   UNL A   1      32.476  33.812  27.359  1.00  0.00    -0.352 N 
ATOM     26  C   UNL A   1      33.177  34.409  28.377  1.00  0.00     0.251 C 
ATOM     27  H   UNL A   1      31.876  34.416  26.865  1.00  0.00     0.163 HD
ATOM     28  O   UNL A   1      32.823  35.516  28.771  1.00  0.00    -0.269 OA
BRANCH  26  29
ATOM     29  C   UNL A   1      34.343  33.746  29.009  1.00  0.00     0.039 A 
ATOM     30  C   UNL A   1      34.114  32.689  29.898  1.00  0.00     0.014 A 
ATOM     31  C   UNL A   1      35.649  34.195  28.798  1.00  0.00     0.014 A 
ATOM     32  C   UNL A   1      35.189  32.062  30.534  1.00  0.00     0.010 A 
ATOM     33  C   UNL A   1      36.726  33.511  29.357  1.00  0.00     0.010 A 
ATOM     34  C   UNL A   1      36.507  32.450  30.247  1.00  0.00    -0.014 A 
BRANCH  34  35
ATOM     35  C   UNL A   1      37.668  31.783  30.888  1.00  0.00     0.031 A 
ATOM     36  C   UNL A   1      38.098  32.182  32.273  1.00  0.00     0.074 A 
ATOM     37  C   UNL A   1      38.373  30.864  30.199  1.00  0.00     0.049 A 
ATOM     38  N   UNL A   1      39.131  31.780  32.971  1.00  0.00    -0.248 NA
ATOM     39  C   UNL A   1      37.274  33.193  32.955  1.00  0.00     0.031 C 
ATOM     40  C   UNL A   1      38.083  30.429  28.832  1.00  0.00     0.029 A 
ATOM     41  N   UNL A   1      39.485  30.141  30.550  1.00  0.00    -0.354 N 
ATOM     42  C   UNL A   1      39.089  32.500  34.158  1.00  0.00     0.074 A 
ATOM     43  C   UNL A   1      37.966  33.405  34.065  1.00  0.00     0.031 C 
ATOM     44  C   UNL A   1      38.981  29.499  28.468  1.00  0.00     0.029 A 
ATOM     45  C   UNL A   1      39.930  29.300  29.559  1.00  0.00     0.049 A 
ATOM     46  H   UNL A   1      39.922  30.216  31.429  1.00  0.00     0.167 HD
ATOM     47  C   UNL A   1      39.901  32.398  35.239  1.00  0.00     0.037 A 
ATOM     48  C   UNL A   1      40.988  28.469  29.531  1.00  0.00     0.037 A 
ATOM     49  C   UNL A   1      40.999  31.474  35.336  1.00  0.00     0.049 A 
ATOM     50  C   UNL A   1      41.870  28.369  30.747  1.00  0.00     0.074 A 
ATOM     51  C   UNL A   1      41.847  31.249  36.407  1.00  0.00     0.029 A 
ATOM     52  N   UNL A   1      41.402  30.618  34.321  1.00  0.00    -0.354 N 
ATOM     53  N   UNL A   1      41.784  29.011  31.887  1.00  0.00    -0.248 NA
ATOM     54  C   UNL A   1      42.991  27.422  30.673  1.00  0.00     0.031 C 
ATOM     55  C   UNL A   1      42.790  30.289  36.024  1.00  0.00     0.029 A 
ATOM     56  C   UNL A   1      42.498  29.877  34.734  1.00  0.00     0.049 A 
ATOM     57  H   UNL A   1      40.974  30.548  33.438  1.00  0.00     0.167 HD
ATOM     58  C   UNL A   1      42.820  28.528  32.675  1.00  0.00     0.074 A 
ATOM     59  C   UNL A   1      43.511  27.527  31.888  1.00  0.00     0.031 C 
ATOM     60  C   UNL A   1      43.168  28.881  33.937  1.00  0.00     0.037 A 
BRANCH  47  61
ATOM     61  C   UNL A   1      39.623  33.304  36.404  1.00  0.00     0.064 A 
ATOM     62  C   UNL A   1      40.204  34.577  36.502  1.00  0.00     0.173 A 
ATOM     63  C   UNL A   1      38.743  32.907  37.422  1.00  0.00     0.173 A 
ATOM     64  F   UNL A   1      41.063  35.002  35.562  1.00  0.00    -0.203 F 
ATOM     65  C   UNL A   1      39.939  35.407  37.589  1.00  0.00     0.198 A 
ATOM     66  C   UNL A   1      38.455  33.752  38.492  1.00  0.00     0.198 A 
ATOM     67  F   UNL A   1      38.154  31.703  37.378  1.00  0.00    -0.203 F 
ATOM     68  F   UNL A   1      40.549  36.596  37.687  1.00  0.00    -0.200 F 
ATOM     69  C   UNL A   1      39.060  34.996  38.579  1.00  0.00     0.200 A 
ATOM     70  F   UNL A   1      37.595  33.359  39.441  1.00  0.00    -0.200 F 
ATOM     71  F   UNL A   1      38.802  35.798  39.622  1.00  0.00    -0.200 F 
ENDBRANCH  47  61
BRANCH  48  72
ATOM     72  C   UNL A   1      41.254  27.647  28.323  1.00  0.00     0.064 A 
ATOM     73  C   UNL A   1      42.133  28.094  27.328  1.00  0.00     0.173 A 
ATOM     74  C   UNL A   1      40.641  26.399  28.140  1.00  0.00     0.173 A 
ATOM     75  F   UNL A   1      42.729  29.290  27.449  1.00  0.00    -0.203 F 
ATOM     76  C   UNL A   1      42.377  27.333  26.185  1.00  0.00     0.198 A 
ATOM     77  C   UNL A   1      40.907  25.626  27.011  1.00  0.00     0.198 A 
ATOM     78  F   UNL A   1      39.796  25.922  29.065  1.00  0.00    -0.203 F 
ATOM     79  F   UNL A   1      43.188  27.805  25.230  1.00  0.00    -0.200 F 
ATOM     80  C   UNL A   1      41.768  26.097  26.031  1.00  0.00     0.200 A 
ATOM     81  F   UNL A   1      40.329  24.425  26.873  1.00  0.00    -0.200 F 
ATOM     82  F   UNL A   1      42.007  25.363  24.936  1.00  0.00    -0.200 F 
ENDBRANCH  48  72
BRANCH  60  83
ATOM     83  C   UNL A   1      44.328  28.157  34.556  1.00  0.00     0.064 A 
ATOM     84  C   UNL A   1      45.632  28.670  34.500  1.00  0.00     0.173 A 
ATOM     85  C   UNL A   1      44.124  26.953  35.248  1.00  0.00     0.173 A 
ATOM     86  F   UNL A   1      45.880  29.811  33.838  1.00  0.00    -0.203 F 
ATOM     87  C   UNL A   1      46.693  27.990  35.090  1.00  0.00     0.198 A 
ATOM     88  C   UNL A   1      45.183  26.292  35.863  1.00  0.00     0.198 A 
ATOM     89  F   UNL A   1      42.894  26.424  35.337  1.00  0.00    -0.203 F 
ATOM     90  F   UNL A   1      47.938  28.474  34.981  1.00  0.00    -0.200 F 
ATOM     91  C   UNL A   1      46.468  26.807  35.777  1.00  0.00     0.200 A 
ATOM     92  F   UNL A   1      44.960  25.156  36.539  1.00  0.00    -0.200 F 
ATOM     93  F   UNL A   1      47.490  26.157  36.350  1.00  0.00    -0.200 F 
ENDBRANCH  60  83
ENDBRANCH  34  35
ENDBRANCH  26  29
ENDBRANCH  24  25
ENDBRANCH   1  24
TORSDOF 12
ENDMDL
