MODEL 1
REMARK VINA RESULT:     -12.4      0.000      0.000
REMARK SMILES Cc1ccc(C(=O)[C@@H]2CCC[C@H]2C(=O)NCCCNC(=O)c2ccc(-c3c4nc(c(-c5c(F)c(F)c(F)c(F)c5F)c5ccc([nH]5)c(-c5c(F)c(F)c(F)c(F)c5F)c5nc(c(-c6c(F)c(F)c(F)c(F)c6F)c6ccc3[nH]6)C=C5)C=C4)cc2)c(C)c1
REMARK SMILES IDX 17 1 16 2 15 3 13 4 14 5 12 7 8 8 9 9 10 10 11 11 6 12 7 13
REMARK SMILES IDX 5 14 1 15 2 16 3 17 87 18 4 19 85 20 86 21 18 22 19 23 20 24
REMARK SMILES IDX 21 26 22 27 23 28 84 29 24 30 83 31 25 32 26 33 27 34 77 35
REMARK SMILES IDX 28 36 82 37 76 38 78 39 29 40 81 41 75 42 74 43 30 45 62 46
REMARK SMILES IDX 42 47 61 48 43 49 46 50 60 51 79 52 44 53 45 54 59 56 80 57
REMARK SMILES IDX 47 58 31 59 32 60 40 61 33 62 34 63 38 64 41 65 35 66 36 67
REMARK SMILES IDX 39 68 37 69 63 70 64 71 72 72 65 73 66 74 70 75 73 76 67 77
REMARK SMILES IDX 68 78 71 79 69 80 48 81 49 82 57 83 50 84 51 85 55 86 58 87
REMARK SMILES IDX 52 88 53 89 56 90 54 91
REMARK H PARENT 15 6 19 25 78 44 46 55
REMARK Flexibility Score: inf
ROOT
ATOM      1  C   UNL A   1      37.922  19.891  24.686  1.00  0.00     0.042 C 
ENDROOT
BRANCH   1   2
ATOM      2  C   UNL A   1      36.448  20.040  25.053  1.00  0.00     0.117 C 
BRANCH   2   3
ATOM      3  N   UNL A   1      36.213  21.176  25.925  1.00  0.00    -0.356 N 
ATOM      4  C   UNL A   1      35.506  22.320  25.762  1.00  0.00     0.223 C 
ATOM      5  O   UNL A   1      35.554  23.139  26.685  1.00  0.00    -0.275 OA
ATOM      6  H   UNL A   1      36.651  21.101  26.803  1.00  0.00     0.163 HD
BRANCH   4   7
ATOM      7  C   UNL A   1      34.672  22.629  24.528  1.00  0.00     0.089 C 
ATOM      8  C   UNL A   1      33.225  23.025  24.817  1.00  0.00     0.073 C 
ATOM      9  C   UNL A   1      32.824  23.944  23.664  1.00  0.00     0.013 C 
ATOM     10  C   UNL A   1      34.101  24.675  23.285  1.00  0.00     0.002 C 
ATOM     11  C   UNL A   1      35.256  23.745  23.648  1.00  0.00     0.014 C 
BRANCH   8  12
ATOM     12  C   UNL A   1      32.188  21.924  25.051  1.00  0.00     0.167 C 
ATOM     13  O   UNL A   1      31.081  22.247  25.490  1.00  0.00    -0.294 OA
BRANCH  12  14
ATOM     14  C   UNL A   1      32.423  20.486  24.698  1.00  0.00     0.021 A 
ATOM     15  C   UNL A   1      33.438  16.397  23.705  1.00  0.00     0.044 C 
ATOM     16  C   UNL A   1      33.060  17.805  24.061  1.00  0.00    -0.051 A 
ATOM     17  C   UNL A   1      33.143  18.256  25.376  1.00  0.00     0.004 A 
ATOM     18  C   UNL A   1      32.660  18.700  23.064  1.00  0.00     0.007 A 
ATOM     19  C   UNL A   1      32.839  19.582  25.687  1.00  0.00     0.012 A 
ATOM     20  C   UNL A   1      32.319  20.035  23.363  1.00  0.00    -0.040 A 
ATOM     21  C   UNL A   1      31.922  20.918  22.209  1.00  0.00     0.045 C 
ENDBRANCH  12  14
ENDBRANCH   8  12
ENDBRANCH   4   7
ENDBRANCH   2   3
ENDBRANCH   1   2
BRANCH   1  22
ATOM     22  C   UNL A   1      38.890  20.202  25.824  1.00  0.00     0.118 C 
BRANCH  22  23
ATOM     23  N   UNL A   1      39.960  19.222  25.935  1.00  0.00    -0.352 N 
ATOM     24  C   UNL A   1      41.309  19.393  26.115  1.00  0.00     0.251 C 
ATOM     25  H   UNL A   1      39.669  18.284  25.871  1.00  0.00     0.163 HD
ATOM     26  O   UNL A   1      42.062  18.428  25.987  1.00  0.00    -0.269 OA
BRANCH  24  27
ATOM     27  C   UNL A   1      41.876  20.719  26.443  1.00  0.00     0.039 A 
ATOM     28  C   UNL A   1      42.105  21.626  25.403  1.00  0.00     0.014 A 
ATOM     29  C   UNL A   1      42.227  21.060  27.752  1.00  0.00     0.014 A 
ATOM     30  C   UNL A   1      42.624  22.891  25.683  1.00  0.00     0.010 A 
ATOM     31  C   UNL A   1      42.676  22.348  28.041  1.00  0.00     0.010 A 
ATOM     32  C   UNL A   1      42.883  23.276  27.009  1.00  0.00    -0.014 A 
BRANCH  32  33
ATOM     33  C   UNL A   1      43.365  24.644  27.329  1.00  0.00     0.031 A 
ATOM     34  C   UNL A   1      42.425  25.665  27.908  1.00  0.00     0.074 A 
ATOM     35  C   UNL A   1      44.639  24.981  27.048  1.00  0.00     0.049 A 
ATOM     36  N   UNL A   1      42.645  26.925  28.192  1.00  0.00    -0.248 NA
ATOM     37  C   UNL A   1      41.051  25.220  28.183  1.00  0.00     0.031 C 
ATOM     38  C   UNL A   1      45.634  24.095  26.442  1.00  0.00     0.029 A 
ATOM     39  N   UNL A   1      45.313  26.164  27.226  1.00  0.00    -0.354 N 
ATOM     40  C   UNL A   1      41.439  27.421  28.667  1.00  0.00     0.074 A 
ATOM     41  C   UNL A   1      40.476  26.343  28.588  1.00  0.00     0.031 C 
ATOM     42  C   UNL A   1      46.794  24.758  26.313  1.00  0.00     0.029 A 
ATOM     43  C   UNL A   1      46.617  26.124  26.797  1.00  0.00     0.049 A 
ATOM     44  H   UNL A   1      44.901  26.964  27.624  1.00  0.00     0.167 HD
ATOM     45  C   UNL A   1      41.165  28.658  29.148  1.00  0.00     0.037 A 
ATOM     46  C   UNL A   1      47.561  27.084  26.786  1.00  0.00     0.037 A 
ATOM     47  C   UNL A   1      42.127  29.722  29.250  1.00  0.00     0.049 A 
ATOM     48  C   UNL A   1      47.229  28.447  27.332  1.00  0.00     0.074 A 
ATOM     49  C   UNL A   1      41.956  30.997  29.762  1.00  0.00     0.029 A 
ATOM     50  N   UNL A   1      43.447  29.634  28.832  1.00  0.00    -0.354 N 
ATOM     51  N   UNL A   1      46.099  28.885  27.832  1.00  0.00    -0.248 NA
ATOM     52  C   UNL A   1      48.307  29.445  27.319  1.00  0.00     0.031 C 
ATOM     53  C   UNL A   1      43.163  31.691  29.627  1.00  0.00     0.029 A 
ATOM     54  C   UNL A   1      44.098  30.835  29.067  1.00  0.00     0.049 A 
ATOM     55  H   UNL A   1      43.860  28.836  28.429  1.00  0.00     0.167 HD
ATOM     56  C   UNL A   1      46.337  30.198  28.216  1.00  0.00     0.074 A 
ATOM     57  C   UNL A   1      47.723  30.478  27.910  1.00  0.00     0.031 C 
ATOM     58  C   UNL A   1      45.481  31.092  28.767  1.00  0.00     0.037 A 
BRANCH  45  59
ATOM     59  C   UNL A   1      39.766  28.926  29.623  1.00  0.00     0.064 A 
ATOM     60  C   UNL A   1      38.784  29.426  28.754  1.00  0.00     0.173 A 
ATOM     61  C   UNL A   1      39.387  28.627  30.940  1.00  0.00     0.173 A 
ATOM     62  F   UNL A   1      39.100  29.738  27.487  1.00  0.00    -0.203 F 
ATOM     63  C   UNL A   1      37.479  29.633  29.191  1.00  0.00     0.198 A 
ATOM     64  C   UNL A   1      38.074  28.810  31.365  1.00  0.00     0.198 A 
ATOM     65  F   UNL A   1      40.285  28.141  31.810  1.00  0.00    -0.203 F 
ATOM     66  F   UNL A   1      36.566  30.144  28.352  1.00  0.00    -0.200 F 
ATOM     67  C   UNL A   1      37.122  29.317  30.493  1.00  0.00     0.200 A 
ATOM     68  F   UNL A   1      37.727  28.493  32.621  1.00  0.00    -0.200 F 
ATOM     69  F   UNL A   1      35.862  29.504  30.907  1.00  0.00    -0.200 F 
ENDBRANCH  45  59
BRANCH  46  70
ATOM     70  C   UNL A   1      48.918  26.791  26.257  1.00  0.00     0.064 A 
ATOM     71  C   UNL A   1      49.238  27.048  24.915  1.00  0.00     0.173 A 
ATOM     72  C   UNL A   1      49.913  26.228  27.069  1.00  0.00     0.173 A 
ATOM     73  F   UNL A   1      48.313  27.566  24.095  1.00  0.00    -0.203 F 
ATOM     74  C   UNL A   1      50.491  26.727  24.401  1.00  0.00     0.198 A 
ATOM     75  C   UNL A   1      51.176  25.934  26.559  1.00  0.00     0.198 A 
ATOM     76  F   UNL A   1      49.658  25.966  28.359  1.00  0.00    -0.203 F 
ATOM     77  F   UNL A   1      50.753  26.933  23.104  1.00  0.00    -0.200 F 
ATOM     78  C   UNL A   1      51.461  26.173  25.223  1.00  0.00     0.200 A 
ATOM     79  F   UNL A   1      52.113  25.410  27.360  1.00  0.00    -0.200 F 
ATOM     80  F   UNL A   1      52.666  25.862  24.727  1.00  0.00    -0.200 F 
ENDBRANCH  46  70
BRANCH  58  81
ATOM     81  C   UNL A   1      46.032  32.446  29.104  1.00  0.00     0.064 A 
ATOM     82  C   UNL A   1      45.983  33.508  28.190  1.00  0.00     0.173 A 
ATOM     83  C   UNL A   1      46.591  32.691  30.368  1.00  0.00     0.173 A 
ATOM     84  F   UNL A   1      45.472  33.319  26.964  1.00  0.00    -0.203 F 
ATOM     85  C   UNL A   1      46.498  34.759  28.518  1.00  0.00     0.198 A 
ATOM     86  C   UNL A   1      47.080  33.950  30.703  1.00  0.00     0.198 A 
ATOM     87  F   UNL A   1      46.656  31.709  31.280  1.00  0.00    -0.203 F 
ATOM     88  F   UNL A   1      46.484  35.746  27.612  1.00  0.00    -0.200 F 
ATOM     89  C   UNL A   1      47.040  34.980  29.776  1.00  0.00     0.200 A 
ATOM     90  F   UNL A   1      47.594  34.165  31.922  1.00  0.00    -0.200 F 
ATOM     91  F   UNL A   1      47.533  36.186  30.091  1.00  0.00    -0.200 F 
ENDBRANCH  58  81
ENDBRANCH  32  33
ENDBRANCH  24  27
ENDBRANCH  22  23
ENDBRANCH   1  22
TORSDOF 12
ENDMDL
MODEL 2
REMARK VINA RESULT:     -12.4      5.848     11.174
REMARK SMILES Cc1ccc(C(=O)[C@@H]2CCC[C@H]2C(=O)NCCCNC(=O)c2ccc(-c3c4nc(c(-c5c(F)c(F)c(F)c(F)c5F)c5ccc([nH]5)c(-c5c(F)c(F)c(F)c(F)c5F)c5nc(c(-c6c(F)c(F)c(F)c(F)c6F)c6ccc3[nH]6)C=C5)C=C4)cc2)c(C)c1
REMARK SMILES IDX 17 1 16 2 15 3 13 4 14 5 12 7 8 8 9 9 10 10 11 11 6 12 7 13
REMARK SMILES IDX 5 14 1 15 2 16 3 17 87 18 4 19 85 20 86 21 18 22 19 23 20 24
REMARK SMILES IDX 21 26 22 27 23 28 84 29 24 30 83 31 25 32 26 33 27 34 77 35
REMARK SMILES IDX 28 36 82 37 76 38 78 39 29 40 81 41 75 42 74 43 30 45 62 46
REMARK SMILES IDX 42 47 61 48 43 49 46 50 60 51 79 52 44 53 45 54 59 56 80 57
REMARK SMILES IDX 47 58 31 59 32 60 40 61 33 62 34 63 38 64 41 65 35 66 36 67
REMARK SMILES IDX 39 68 37 69 63 70 64 71 72 72 65 73 66 74 70 75 73 76 67 77
REMARK SMILES IDX 68 78 71 79 69 80 48 81 49 82 57 83 50 84 51 85 55 86 58 87
REMARK SMILES IDX 52 88 53 89 56 90 54 91
REMARK H PARENT 15 6 19 25 78 44 46 55
REMARK Flexibility Score: inf
ROOT
ATOM      1  C   UNL A   1      31.328  31.733  26.200  1.00  0.00     0.042 C 
ENDROOT
BRANCH   1   2
ATOM      2  C   UNL A   1      31.436  30.271  25.772  1.00  0.00     0.117 C 
BRANCH   2   3
ATOM      3  N   UNL A   1      32.667  30.000  25.055  1.00  0.00    -0.356 N 
ATOM      4  C   UNL A   1      33.217  28.855  24.585  1.00  0.00     0.223 C 
ATOM      5  O   UNL A   1      34.332  28.946  24.063  1.00  0.00    -0.275 OA
ATOM      6  H   UNL A   1      33.208  30.803  24.876  1.00  0.00     0.163 HD
BRANCH   4   7
ATOM      7  C   UNL A   1      32.533  27.497  24.662  1.00  0.00     0.089 C 
ATOM      8  C   UNL A   1      32.494  26.726  23.344  1.00  0.00     0.073 C 
ATOM      9  C   UNL A   1      32.480  25.251  23.744  1.00  0.00     0.013 C 
ATOM     10  C   UNL A   1      33.297  25.186  25.023  1.00  0.00     0.002 C 
ATOM     11  C   UNL A   1      33.154  26.548  25.697  1.00  0.00     0.014 C 
BRANCH   8  12
ATOM     12  C   UNL A   1      31.395  27.048  22.329  1.00  0.00     0.167 C 
ATOM     13  O   UNL A   1      31.329  26.367  21.302  1.00  0.00    -0.294 OA
BRANCH  12  14
ATOM     14  C   UNL A   1      30.346  28.095  22.557  1.00  0.00     0.021 A 
ATOM     15  C   UNL A   1      27.523  31.248  23.463  1.00  0.00     0.044 C 
ATOM     16  C   UNL A   1      28.491  30.155  23.121  1.00  0.00    -0.051 A 
ATOM     17  C   UNL A   1      29.646  30.426  22.390  1.00  0.00     0.004 A 
ATOM     18  C   UNL A   1      28.268  28.850  23.572  1.00  0.00     0.007 A 
ATOM     19  C   UNL A   1      30.566  29.411  22.123  1.00  0.00     0.012 A 
ATOM     20  C   UNL A   1      29.171  27.805  23.285  1.00  0.00    -0.040 A 
ATOM     21  C   UNL A   1      28.843  26.443  23.839  1.00  0.00     0.045 C 
ENDBRANCH  12  14
ENDBRANCH   8  12
ENDBRANCH   4   7
ENDBRANCH   2   3
ENDBRANCH   1   2
BRANCH   1  22
ATOM     22  C   UNL A   1      32.531  32.251  26.983  1.00  0.00     0.118 C 
BRANCH  22  23
ATOM     23  N   UNL A   1      32.397  33.651  27.358  1.00  0.00    -0.352 N 
ATOM     24  C   UNL A   1      33.056  34.384  28.312  1.00  0.00     0.251 C 
ATOM     25  H   UNL A   1      31.726  34.154  26.844  1.00  0.00     0.163 HD
ATOM     26  O   UNL A   1      32.648  35.510  28.595  1.00  0.00    -0.269 OA
BRANCH  24  27
ATOM     27  C   UNL A   1      34.235  33.838  29.019  1.00  0.00     0.039 A 
ATOM     28  C   UNL A   1      34.034  32.875  30.013  1.00  0.00     0.014 A 
ATOM     29  C   UNL A   1      35.527  34.297  28.747  1.00  0.00     0.014 A 
ATOM     30  C   UNL A   1      35.128  32.329  30.686  1.00  0.00     0.010 A 
ATOM     31  C   UNL A   1      36.624  33.700  29.367  1.00  0.00     0.010 A 
ATOM     32  C   UNL A   1      36.436  32.713  30.346  1.00  0.00    -0.014 A 
BRANCH  32  33
ATOM     33  C   UNL A   1      37.613  32.087  31.001  1.00  0.00     0.031 A 
ATOM     34  C   UNL A   1      38.408  31.029  30.287  1.00  0.00     0.074 A 
ATOM     35  C   UNL A   1      37.933  32.436  32.263  1.00  0.00     0.049 A 
ATOM     36  N   UNL A   1      39.424  30.325  30.719  1.00  0.00    -0.248 NA
ATOM     37  C   UNL A   1      37.993  30.703  28.914  1.00  0.00     0.031 C 
ATOM     38  C   UNL A   1      37.211  33.414  33.079  1.00  0.00     0.029 A 
ATOM     39  N   UNL A   1      38.943  32.000  33.085  1.00  0.00    -0.354 N 
ATOM     40  C   UNL A   1      39.761  29.469  29.679  1.00  0.00     0.074 A 
ATOM     41  C   UNL A   1      38.812  29.705  28.612  1.00  0.00     0.031 C 
ATOM     42  C   UNL A   1      37.809  33.516  34.276  1.00  0.00     0.029 A 
ATOM     43  C   UNL A   1      38.935  32.589  34.325  1.00  0.00     0.049 A 
ATOM     44  H   UNL A   1      39.608  31.329  32.810  1.00  0.00     0.167 HD
ATOM     45  C   UNL A   1      40.784  28.584  29.611  1.00  0.00     0.037 A 
ATOM     46  C   UNL A   1      39.742  32.395  35.386  1.00  0.00     0.037 A 
ATOM     47  C   UNL A   1      41.742  28.366  30.663  1.00  0.00     0.049 A 
ATOM     48  C   UNL A   1      40.873  31.409  35.280  1.00  0.00     0.074 A 
ATOM     49  C   UNL A   1      42.838  27.521  30.671  1.00  0.00     0.029 A 
ATOM     50  N   UNL A   1      41.719  29.003  31.894  1.00  0.00    -0.354 N 
ATOM     51  N   UNL A   1      41.214  30.648  34.268  1.00  0.00    -0.248 NA
ATOM     52  C   UNL A   1      41.735  31.261  36.460  1.00  0.00     0.031 C 
ATOM     53  C   UNL A   1      43.462  27.624  31.919  1.00  0.00     0.029 A 
ATOM     54  C   UNL A   1      42.777  28.563  32.673  1.00  0.00     0.049 A 
ATOM     55  H   UNL A   1      41.051  29.671  32.173  1.00  0.00     0.167 HD
ATOM     56  C   UNL A   1      42.343  29.952  34.679  1.00  0.00     0.074 A 
ATOM     57  C   UNL A   1      42.640  30.396  36.025  1.00  0.00     0.031 C 
ATOM     58  C   UNL A   1      43.064  29.025  34.005  1.00  0.00     0.037 A 
BRANCH  45  59
ATOM     59  C   UNL A   1      40.935  27.790  28.346  1.00  0.00     0.064 A 
ATOM     60  C   UNL A   1      41.728  28.253  27.285  1.00  0.00     0.173 A 
ATOM     61  C   UNL A   1      40.331  26.531  28.214  1.00  0.00     0.173 A 
ATOM     62  F   UNL A   1      42.318  29.457  27.358  1.00  0.00    -0.203 F 
ATOM     63  C   UNL A   1      41.897  27.492  26.132  1.00  0.00     0.198 A 
ATOM     64  C   UNL A   1      40.524  25.762  27.070  1.00  0.00     0.198 A 
ATOM     65  F   UNL A   1      39.567  26.039  29.201  1.00  0.00    -0.203 F 
ATOM     66  F   UNL A   1      42.631  27.970  25.117  1.00  0.00    -0.200 F 
ATOM     67  C   UNL A   1      41.303  26.243  26.028  1.00  0.00     0.200 A 
ATOM     68  F   UNL A   1      39.959  24.549  26.975  1.00  0.00    -0.200 F 
ATOM     69  F   UNL A   1      41.477  25.507  24.923  1.00  0.00    -0.200 F 
ENDBRANCH  45  59
BRANCH  46  70
ATOM     70  C   UNL A   1      39.523  33.163  36.639  1.00  0.00     0.064 A 
ATOM     71  C   UNL A   1      38.617  32.713  37.610  1.00  0.00     0.173 A 
ATOM     72  C   UNL A   1      40.193  34.371  36.882  1.00  0.00     0.173 A 
ATOM     73  F   UNL A   1      37.936  31.574  37.413  1.00  0.00    -0.203 F 
ATOM     74  C   UNL A   1      38.369  33.454  38.763  1.00  0.00     0.198 A 
ATOM     75  C   UNL A   1      39.965  35.098  38.049  1.00  0.00     0.198 A 
ATOM     76  F   UNL A   1      41.072  34.843  35.987  1.00  0.00    -0.203 F 
ATOM     77  F   UNL A   1      37.459  33.028  39.648  1.00  0.00    -0.200 F 
ATOM     78  C   UNL A   1      39.046  34.645  38.983  1.00  0.00     0.200 A 
ATOM     79  F   UNL A   1      40.630  36.241  38.264  1.00  0.00    -0.200 F 
ATOM     80  F   UNL A   1      38.805  35.360  40.090  1.00  0.00    -0.200 F 
ENDBRANCH  46  70
BRANCH  58  81
ATOM     81  C   UNL A   1      44.265  28.454  34.702  1.00  0.00     0.064 A 
ATOM     82  C   UNL A   1      44.183  27.279  35.463  1.00  0.00     0.173 A 
ATOM     83  C   UNL A   1      45.517  29.076  34.583  1.00  0.00     0.173 A 
ATOM     84  F   UNL A   1      43.004  26.657  35.619  1.00  0.00    -0.203 F 
ATOM     85  C   UNL A   1      45.305  26.762  36.103  1.00  0.00     0.198 A 
ATOM     86  C   UNL A   1      46.643  28.541  35.201  1.00  0.00     0.198 A 
ATOM     87  F   UNL A   1      45.648  30.199  33.861  1.00  0.00    -0.203 F 
ATOM     88  F   UNL A   1      45.194  25.665  36.864  1.00  0.00    -0.200 F 
ATOM     89  C   UNL A   1      46.535  27.389  35.966  1.00  0.00     0.200 A 
ATOM     90  F   UNL A   1      47.833  29.142  35.060  1.00  0.00    -0.200 F 
ATOM     91  F   UNL A   1      47.615  26.888  36.581  1.00  0.00    -0.200 F 
ENDBRANCH  58  81
ENDBRANCH  32  33
ENDBRANCH  24  27
ENDBRANCH  22  23
ENDBRANCH   1  22
TORSDOF 12
ENDMDL
MODEL 3
REMARK VINA RESULT:     -12.4      5.318     10.414
REMARK SMILES Cc1ccc(C(=O)[C@@H]2CCC[C@H]2C(=O)NCCCNC(=O)c2ccc(-c3c4nc(c(-c5c(F)c(F)c(F)c(F)c5F)c5ccc([nH]5)c(-c5c(F)c(F)c(F)c(F)c5F)c5nc(c(-c6c(F)c(F)c(F)c(F)c6F)c6ccc3[nH]6)C=C5)C=C4)cc2)c(C)c1
REMARK SMILES IDX 17 1 16 2 15 3 13 4 14 5 12 7 8 8 9 9 10 10 11 11 6 12 7 13
REMARK SMILES IDX 5 14 1 15 2 16 3 17 87 18 4 19 85 20 86 21 18 22 19 23 20 24
REMARK SMILES IDX 21 26 22 27 23 28 84 29 24 30 83 31 25 32 26 33 27 34 77 35
REMARK SMILES IDX 28 36 82 37 76 38 78 39 29 40 81 41 75 42 74 43 30 45 62 46
REMARK SMILES IDX 42 47 61 48 43 49 46 50 60 51 79 52 44 53 45 54 59 56 80 57
REMARK SMILES IDX 47 58 31 59 32 60 40 61 33 62 34 63 38 64 41 65 35 66 36 67
REMARK SMILES IDX 39 68 37 69 63 70 64 71 72 72 65 73 66 74 70 75 73 76 67 77
REMARK SMILES IDX 68 78 71 79 69 80 48 81 49 82 57 83 50 84 51 85 55 86 58 87
REMARK SMILES IDX 52 88 53 89 56 90 54 91
REMARK H PARENT 15 6 19 25 78 44 46 55
REMARK Flexibility Score: inf
ROOT
ATOM      1  C   UNL A   1      34.030  33.495  28.587  1.00  0.00     0.042 C 
ENDROOT
BRANCH   1   2
ATOM      2  C   UNL A   1      34.473  34.435  29.706  1.00  0.00     0.117 C 
BRANCH   2   3
ATOM      3  N   UNL A   1      34.000  33.999  31.006  1.00  0.00    -0.356 N 
ATOM      4  C   UNL A   1      34.532  33.175  31.941  1.00  0.00     0.223 C 
ATOM      5  O   UNL A   1      33.841  32.946  32.938  1.00  0.00    -0.275 OA
ATOM      6  H   UNL A   1      33.125  34.373  31.257  1.00  0.00     0.163 HD
BRANCH   4   7
ATOM      7  C   UNL A   1      35.911  32.543  31.823  1.00  0.00     0.089 C 
ATOM      8  C   UNL A   1      36.875  32.896  32.953  1.00  0.00     0.073 C 
ATOM      9  C   UNL A   1      37.816  31.697  33.067  1.00  0.00     0.013 C 
ATOM     10  C   UNL A   1      36.964  30.496  32.694  1.00  0.00     0.002 C 
ATOM     11  C   UNL A   1      35.886  31.009  31.743  1.00  0.00     0.014 C 
BRANCH   8  12
ATOM     12  C   UNL A   1      37.646  34.217  32.885  1.00  0.00     0.167 C 
ATOM     13  O   UNL A   1      37.362  35.102  33.697  1.00  0.00    -0.294 OA
BRANCH  12  14
ATOM     14  C   UNL A   1      38.780  34.459  31.934  1.00  0.00     0.021 A 
ATOM     15  C   UNL A   1      42.019  34.828  29.088  1.00  0.00     0.044 C 
ATOM     16  C   UNL A   1      40.890  34.729  30.071  1.00  0.00    -0.051 A 
ATOM     17  C   UNL A   1      39.566  34.729  29.641  1.00  0.00     0.004 A 
ATOM     18  C   UNL A   1      41.157  34.590  31.437  1.00  0.00     0.007 A 
ATOM     19  C   UNL A   1      38.526  34.584  30.560  1.00  0.00     0.012 A 
ATOM     20  C   UNL A   1      40.119  34.473  32.384  1.00  0.00    -0.040 A 
ATOM     21  C   UNL A   1      40.520  34.307  33.826  1.00  0.00     0.045 C 
ENDBRANCH  12  14
ENDBRANCH   8  12
ENDBRANCH   4   7
ENDBRANCH   2   3
ENDBRANCH   1   2
BRANCH   1  22
ATOM     22  C   UNL A   1      35.025  32.385  28.265  1.00  0.00     0.118 C 
BRANCH  22  23
ATOM     23  N   UNL A   1      34.378  31.109  27.997  1.00  0.00    -0.352 N 
ATOM     24  C   UNL A   1      34.913  29.857  27.834  1.00  0.00     0.251 C 
ATOM     25  H   UNL A   1      33.398  31.152  27.920  1.00  0.00     0.163 HD
ATOM     26  O   UNL A   1      34.197  28.945  27.420  1.00  0.00    -0.269 OA
BRANCH  24  27
ATOM     27  C   UNL A   1      36.336  29.586  28.129  1.00  0.00     0.039 A 
ATOM     28  C   UNL A   1      36.665  28.975  29.342  1.00  0.00     0.014 A 
ATOM     29  C   UNL A   1      37.350  29.969  27.247  1.00  0.00     0.014 A 
ATOM     30  C   UNL A   1      37.999  28.692  29.643  1.00  0.00     0.010 A 
ATOM     31  C   UNL A   1      38.674  29.621  27.512  1.00  0.00     0.010 A 
ATOM     32  C   UNL A   1      39.013  28.982  28.715  1.00  0.00    -0.014 A 
BRANCH  32  33
ATOM     33  C   UNL A   1      40.427  28.620  28.987  1.00  0.00     0.031 A 
ATOM     34  C   UNL A   1      41.333  29.579  29.710  1.00  0.00     0.074 A 
ATOM     35  C   UNL A   1      40.911  27.446  28.534  1.00  0.00     0.049 A 
ATOM     36  N   UNL A   1      42.609  29.468  29.981  1.00  0.00    -0.248 NA
ATOM     37  C   UNL A   1      40.730  30.840  30.169  1.00  0.00     0.031 C 
ATOM     38  C   UNL A   1      40.146  26.452  27.778  1.00  0.00     0.029 A 
ATOM     39  N   UNL A   1      42.164  26.894  28.635  1.00  0.00    -0.354 N 
ATOM     40  C   UNL A   1      42.962  30.642  30.630  1.00  0.00     0.074 A 
ATOM     41  C   UNL A   1      41.779  31.476  30.670  1.00  0.00     0.031 C 
ATOM     42  C   UNL A   1      40.940  25.407  27.497  1.00  0.00     0.029 A 
ATOM     43  C   UNL A   1      42.276  25.669  28.024  1.00  0.00     0.049 A 
ATOM     44  H   UNL A   1      42.910  27.335  29.100  1.00  0.00     0.167 HD
ATOM     45  C   UNL A   1      44.158  30.985  31.166  1.00  0.00     0.037 A 
ATOM     46  C   UNL A   1      43.339  24.853  27.897  1.00  0.00     0.037 A 
ATOM     47  C   UNL A   1      45.327  30.147  31.149  1.00  0.00     0.049 A 
ATOM     48  C   UNL A   1      44.654  25.258  28.507  1.00  0.00     0.074 A 
ATOM     49  C   UNL A   1      46.573  30.389  31.702  1.00  0.00     0.029 A 
ATOM     50  N   UNL A   1      45.393  28.899  30.547  1.00  0.00    -0.354 N 
ATOM     51  N   UNL A   1      44.957  26.348  29.169  1.00  0.00    -0.248 NA
ATOM     52  C   UNL A   1      45.771  24.315  28.358  1.00  0.00     0.031 C 
ATOM     53  C   UNL A   1      47.402  29.301  31.409  1.00  0.00     0.029 A 
ATOM     54  C   UNL A   1      46.662  28.364  30.707  1.00  0.00     0.049 A 
ATOM     55  H   UNL A   1      44.649  28.459  30.076  1.00  0.00     0.167 HD
ATOM     56  C   UNL A   1      46.289  26.211  29.537  1.00  0.00     0.074 A 
ATOM     57  C   UNL A   1      46.728  24.924  29.043  1.00  0.00     0.031 C 
ATOM     58  C   UNL A   1      47.077  27.076  30.219  1.00  0.00     0.037 A 
BRANCH  45  59
ATOM     59  C   UNL A   1      44.262  32.323  31.838  1.00  0.00     0.064 A 
ATOM     60  C   UNL A   1      43.970  32.480  33.202  1.00  0.00     0.173 A 
ATOM     61  C   UNL A   1      44.712  33.448  31.130  1.00  0.00     0.173 A 
ATOM     62  F   UNL A   1      43.525  31.437  33.921  1.00  0.00    -0.203 F 
ATOM     63  C   UNL A   1      44.109  33.715  33.827  1.00  0.00     0.198 A 
ATOM     64  C   UNL A   1      44.875  34.675  31.765  1.00  0.00     0.198 A 
ATOM     65  F   UNL A   1      45.010  33.351  29.825  1.00  0.00    -0.203 F 
ATOM     66  F   UNL A   1      43.792  33.849  35.123  1.00  0.00    -0.200 F 
ATOM     67  C   UNL A   1      44.570  34.810  33.112  1.00  0.00     0.200 A 
ATOM     68  F   UNL A   1      45.332  35.731  31.076  1.00  0.00    -0.200 F 
ATOM     69  F   UNL A   1      44.716  35.995  33.719  1.00  0.00    -0.200 F 
ENDBRANCH  45  59
BRANCH  46  70
ATOM     70  C   UNL A   1      43.206  23.561  27.175  1.00  0.00     0.064 A 
ATOM     71  C   UNL A   1      42.611  22.451  27.791  1.00  0.00     0.173 A 
ATOM     72  C   UNL A   1      43.692  23.401  25.869  1.00  0.00     0.173 A 
ATOM     73  F   UNL A   1      42.151  22.549  29.047  1.00  0.00    -0.203 F 
ATOM     74  C   UNL A   1      42.530  21.223  27.139  1.00  0.00     0.198 A 
ATOM     75  C   UNL A   1      43.585  22.179  25.207  1.00  0.00     0.198 A 
ATOM     76  F   UNL A   1      44.267  24.433  25.235  1.00  0.00    -0.203 F 
ATOM     77  F   UNL A   1      42.005  20.165  27.770  1.00  0.00    -0.200 F 
ATOM     78  C   UNL A   1      43.015  21.088  25.846  1.00  0.00     0.200 A 
ATOM     79  F   UNL A   1      44.043  22.057  23.954  1.00  0.00    -0.200 F 
ATOM     80  F   UNL A   1      42.941  19.906  25.220  1.00  0.00    -0.200 F 
ENDBRANCH  46  70
BRANCH  58  81
ATOM     81  C   UNL A   1      48.486  26.642  30.498  1.00  0.00     0.064 A 
ATOM     82  C   UNL A   1      49.542  26.977  29.638  1.00  0.00     0.173 A 
ATOM     83  C   UNL A   1      48.787  25.906  31.654  1.00  0.00     0.173 A 
ATOM     84  F   UNL A   1      49.302  27.666  28.512  1.00  0.00    -0.203 F 
ATOM     85  C   UNL A   1      50.844  26.567  29.910  1.00  0.00     0.198 A 
ATOM     86  C   UNL A   1      50.094  25.522  31.938  1.00  0.00     0.198 A 
ATOM     87  F   UNL A   1      47.813  25.566  32.511  1.00  0.00    -0.203 F 
ATOM     88  F   UNL A   1      51.829  26.857  29.050  1.00  0.00    -0.200 F 
ATOM     89  C   UNL A   1      51.120  25.846  31.063  1.00  0.00     0.200 A 
ATOM     90  F   UNL A   1      50.360  24.833  33.058  1.00  0.00    -0.200 F 
ATOM     91  F   UNL A   1      52.374  25.454  31.325  1.00  0.00    -0.200 F 
ENDBRANCH  58  81
ENDBRANCH  32  33
ENDBRANCH  24  27
ENDBRANCH  22  23
ENDBRANCH   1  22
TORSDOF 12
ENDMDL
