MODEL 1
REMARK VINA RESULT:     -10.2      0.000      0.000
REMARK SMILES C[N@@H+]1CC[N@H+](Cc2ccc(C#CC(C)(C)O)s2)C[C@H]1C(=O)NCCCNC(=O)c1ccc(-c2c3nc(c(-c4c(F)c(F)c(F)c(F)c4F)c4ccc([nH]4)c(-c4c(F)c(F)c(F)c(F)c4F)c4nc(c(-c5c(F)c(F)c(F)c(F)c5F)c5ccc2[nH]5)C=C4)C=C3)cc1
REMARK SMILES IDX 20 1 21 2 22 3 19 5 1 6 2 7 3 8 4 10 18 11 5 12 6 14 7 15
REMARK SMILES IDX 8 16 17 17 9 18 10 19 11 20 12 21 13 22 14 23 15 24 16 25
REMARK SMILES IDX 23 27 24 28 25 29 26 30 27 31 28 33 29 34 30 35 91 36 31 37
REMARK SMILES IDX 90 38 32 39 33 40 34 41 84 42 35 43 89 44 83 45 85 46 36 47
REMARK SMILES IDX 88 48 82 49 81 50 37 52 69 53 49 54 68 55 50 56 53 57 67 58
REMARK SMILES IDX 86 59 51 60 52 61 66 63 87 64 54 65 38 66 39 67 47 68 40 69
REMARK SMILES IDX 41 70 45 71 48 72 42 73 43 74 46 75 44 76 70 77 71 78 79 79
REMARK SMILES IDX 72 80 73 81 77 82 80 83 74 84 75 85 78 86 76 87 55 88 56 89
REMARK SMILES IDX 64 90 57 91 58 92 62 93 65 94 59 95 60 96 63 97 61 98
REMARK H PARENT 22 4 2 9 5 13 16 26 26 32 85 51 53 62
REMARK Flexibility Score: inf
ROOT
ATOM      1  C   UNL A   1      45.076  26.590  25.330  1.00  0.00     0.284 C 
ATOM      2  O   UNL A   1      44.818  27.674  24.798  1.00  0.00    -0.268 OA
ATOM      3  N   UNL A   1      44.396  25.482  24.899  1.00  0.00    -0.351 N 
ATOM      4  H   UNL A   1      43.724  25.640  24.198  1.00  0.00     0.163 HD
ENDROOT
BRANCH   1   5
ATOM      5  C   UNL A   1      46.137  26.473  26.444  1.00  0.00     0.329 C 
ATOM      6  C   UNL A   1      48.078  26.552  24.981  1.00  0.00     0.333 C 
ATOM      7  N   UNL A   1      47.351  27.246  26.053  1.00  0.00    -0.318 N 
ATOM      8  C   UNL A   1      48.239  27.480  27.196  1.00  0.00     0.325 C 
ATOM      9  H   UNL A   1      47.037  28.155  25.711  1.00  0.00     0.348 HD
ATOM     10  C   UNL A   1      47.525  27.959  28.479  1.00  0.00     0.324 C 
ATOM     11  C   UNL A   1      45.468  26.845  27.805  1.00  0.00     0.339 C 
ATOM     12  N   UNL A   1      46.362  27.185  28.924  1.00  0.00    -0.320 N 
ATOM     13  H   UNL A   1      45.837  27.818  29.527  1.00  0.00     0.348 HD
BRANCH  12  14
ATOM     14  C   UNL A   1      46.644  26.082  29.854  1.00  0.00     0.310 C 
BRANCH  14  15
ATOM     15  C   UNL A   1      45.646  25.934  30.955  1.00  0.00     0.060 A 
ATOM     16  C   UNL A   1      44.312  26.289  30.979  1.00  0.00     0.022 A 
ATOM     17  S   UNL A   1      46.116  25.235  32.451  1.00  0.00    -0.126 S 
ATOM     18  C   UNL A   1      43.804  26.316  32.311  1.00  0.00     0.029 A 
ATOM     19  C   UNL A   1      44.737  25.872  33.218  1.00  0.00     0.077 A 
BRANCH  19  20
ATOM     20  C   UNL A   1      44.555  25.803  34.619  1.00  0.00    -0.053 C 
ATOM     21  C   UNL A   1      44.694  25.581  35.896  1.00  0.00    -0.063 C 
BRANCH  21  22
ATOM     22  C   UNL A   1      44.856  25.321  37.385  1.00  0.00     0.120 C 
ATOM     23  C   UNL A   1      46.173  24.594  37.642  1.00  0.00     0.056 C 
ATOM     24  C   UNL A   1      44.789  26.640  38.150  1.00  0.00     0.056 C 
BRANCH  22  25
ATOM     25  O   UNL A   1      43.776  24.491  37.807  1.00  0.00    -0.378 OA
ATOM     26  H   UNL A   1      44.043  23.988  38.593  1.00  0.00     0.212 HD
ENDBRANCH  22  25
ENDBRANCH  21  22
ENDBRANCH  19  20
ENDBRANCH  14  15
ENDBRANCH  12  14
ENDBRANCH   1   5
BRANCH   3  27
ATOM     27  C   UNL A   1      44.536  24.101  25.338  1.00  0.00     0.118 C 
BRANCH  27  28
ATOM     28  C   UNL A   1      43.403  23.185  24.881  1.00  0.00     0.042 C 
BRANCH  28  29
ATOM     29  C   UNL A   1      42.893  22.295  25.994  1.00  0.00     0.118 C 
BRANCH  29  30
ATOM     30  N   UNL A   1      41.446  22.091  25.935  1.00  0.00    -0.352 N 
ATOM     31  C   UNL A   1      40.445  22.884  26.470  1.00  0.00     0.251 C 
ATOM     32  H   UNL A   1      41.144  21.287  25.453  1.00  0.00     0.163 HD
ATOM     33  O   UNL A   1      39.309  22.482  26.595  1.00  0.00    -0.269 OA
BRANCH  31  34
ATOM     34  C   UNL A   1      40.821  24.239  26.910  1.00  0.00     0.039 A 
ATOM     35  C   UNL A   1      40.422  25.360  26.180  1.00  0.00     0.014 A 
ATOM     36  C   UNL A   1      41.475  24.365  28.130  1.00  0.00     0.014 A 
ATOM     37  C   UNL A   1      40.599  26.621  26.743  1.00  0.00     0.010 A 
ATOM     38  C   UNL A   1      41.492  25.588  28.750  1.00  0.00     0.010 A 
ATOM     39  C   UNL A   1      41.108  26.729  28.046  1.00  0.00    -0.014 A 
BRANCH  39  40
ATOM     40  C   UNL A   1      41.178  28.027  28.715  1.00  0.00     0.031 A 
ATOM     41  C   UNL A   1      42.326  28.910  28.345  1.00  0.00     0.074 A 
ATOM     42  C   UNL A   1      40.146  28.511  29.441  1.00  0.00     0.049 A 
ATOM     43  N   UNL A   1      43.224  29.427  29.121  1.00  0.00    -0.248 NA
ATOM     44  C   UNL A   1      42.534  29.214  26.919  1.00  0.00     0.031 C 
ATOM     45  C   UNL A   1      38.812  27.927  29.633  1.00  0.00     0.029 A 
ATOM     46  N   UNL A   1      40.038  29.715  30.065  1.00  0.00    -0.354 N 
ATOM     47  C   UNL A   1      44.026  30.239  28.318  1.00  0.00     0.074 A 
ATOM     48  C   UNL A   1      43.631  29.973  26.959  1.00  0.00     0.031 C 
ATOM     49  C   UNL A   1      37.968  28.873  30.097  1.00  0.00     0.029 A 
ATOM     50  C   UNL A   1      38.742  30.055  30.419  1.00  0.00     0.049 A 
ATOM     51  H   UNL A   1      40.813  30.293  30.249  1.00  0.00     0.167 HD
ATOM     52  C   UNL A   1      44.828  31.206  28.849  1.00  0.00     0.037 A 
ATOM     53  C   UNL A   1      38.320  31.237  30.920  1.00  0.00     0.037 A 
ATOM     54  C   UNL A   1      45.035  30.994  30.257  1.00  0.00     0.049 A 
ATOM     55  C   UNL A   1      39.506  31.939  31.461  1.00  0.00     0.074 A 
ATOM     56  C   UNL A   1      45.605  29.992  31.016  1.00  0.00     0.029 A 
ATOM     57  N   UNL A   1      44.313  31.758  31.139  1.00  0.00    -0.354 N 
ATOM     58  N   UNL A   1      40.182  31.536  32.501  1.00  0.00    -0.248 NA
ATOM     59  C   UNL A   1      40.206  32.863  30.581  1.00  0.00     0.031 C 
ATOM     60  C   UNL A   1      44.798  29.916  32.189  1.00  0.00     0.029 A 
ATOM     61  C   UNL A   1      43.822  30.910  32.095  1.00  0.00     0.049 A 
ATOM     62  H   UNL A   1      44.175  32.732  31.093  1.00  0.00     0.167 HD
ATOM     63  C   UNL A   1      41.505  31.808  32.190  1.00  0.00     0.074 A 
ATOM     64  C   UNL A   1      41.447  32.720  31.051  1.00  0.00     0.031 C 
ATOM     65  C   UNL A   1      42.520  31.053  32.702  1.00  0.00     0.037 A 
BRANCH  52  66
ATOM     66  C   UNL A   1      45.168  32.527  28.192  1.00  0.00     0.064 A 
ATOM     67  C   UNL A   1      44.134  33.456  27.935  1.00  0.00     0.173 A 
ATOM     68  C   UNL A   1      46.387  32.786  27.534  1.00  0.00     0.173 A 
ATOM     69  F   UNL A   1      42.926  33.311  28.501  1.00  0.00    -0.203 F 
ATOM     70  C   UNL A   1      44.284  34.498  27.016  1.00  0.00     0.198 A 
ATOM     71  C   UNL A   1      46.549  33.861  26.658  1.00  0.00     0.198 A 
ATOM     72  F   UNL A   1      47.432  31.956  27.619  1.00  0.00    -0.203 F 
ATOM     73  F   UNL A   1      43.232  35.268  26.704  1.00  0.00    -0.200 F 
ATOM     74  C   UNL A   1      45.489  34.694  26.370  1.00  0.00     0.200 A 
ATOM     75  F   UNL A   1      47.723  34.027  26.032  1.00  0.00    -0.200 F 
ATOM     76  F   UNL A   1      45.617  35.649  25.439  1.00  0.00    -0.200 F 
ENDBRANCH  52  66
BRANCH  53  77
ATOM     77  C   UNL A   1      37.010  31.888  30.720  1.00  0.00     0.064 A 
ATOM     78  C   UNL A   1      36.052  31.929  31.741  1.00  0.00     0.173 A 
ATOM     79  C   UNL A   1      36.773  32.707  29.596  1.00  0.00     0.173 A 
ATOM     80  F   UNL A   1      36.229  31.211  32.859  1.00  0.00    -0.203 F 
ATOM     81  C   UNL A   1      34.927  32.755  31.652  1.00  0.00     0.198 A 
ATOM     82  C   UNL A   1      35.648  33.525  29.506  1.00  0.00     0.198 A 
ATOM     83  F   UNL A   1      37.676  32.793  28.609  1.00  0.00    -0.203 F 
ATOM     84  F   UNL A   1      34.057  32.811  32.672  1.00  0.00    -0.200 F 
ATOM     85  C   UNL A   1      34.731  33.558  30.540  1.00  0.00     0.200 A 
ATOM     86  F   UNL A   1      35.489  34.325  28.442  1.00  0.00    -0.200 F 
ATOM     87  F   UNL A   1      33.684  34.393  30.482  1.00  0.00    -0.200 F 
ENDBRANCH  53  77
BRANCH  65  88
ATOM     88  C   UNL A   1      42.199  30.098  33.817  1.00  0.00     0.064 A 
ATOM     89  C   UNL A   1      41.667  28.812  33.618  1.00  0.00     0.173 A 
ATOM     90  C   UNL A   1      42.613  30.431  35.114  1.00  0.00     0.173 A 
ATOM     91  F   UNL A   1      41.340  28.383  32.396  1.00  0.00    -0.203 F 
ATOM     92  C   UNL A   1      41.529  27.916  34.676  1.00  0.00     0.198 A 
ATOM     93  C   UNL A   1      42.507  29.521  36.161  1.00  0.00     0.198 A 
ATOM     94  F   UNL A   1      43.181  31.624  35.352  1.00  0.00    -0.203 F 
ATOM     95  F   UNL A   1      41.018  26.694  34.460  1.00  0.00    -0.200 F 
ATOM     96  C   UNL A   1      41.958  28.267  35.944  1.00  0.00     0.200 A 
ATOM     97  F   UNL A   1      42.971  29.848  37.376  1.00  0.00    -0.200 F 
ATOM     98  F   UNL A   1      41.873  27.387  36.953  1.00  0.00    -0.200 F 
ENDBRANCH  65  88
ENDBRANCH  39  40
ENDBRANCH  31  34
ENDBRANCH  29  30
ENDBRANCH  28  29
ENDBRANCH  27  28
ENDBRANCH   3  27
TORSDOF 15
ENDMDL
MODEL 2
REMARK VINA RESULT:     -10.1      0.789      1.882
REMARK SMILES C[N@@H+]1CC[N@H+](Cc2ccc(C#CC(C)(C)O)s2)C[C@H]1C(=O)NCCCNC(=O)c1ccc(-c2c3nc(c(-c4c(F)c(F)c(F)c(F)c4F)c4ccc([nH]4)c(-c4c(F)c(F)c(F)c(F)c4F)c4nc(c(-c5c(F)c(F)c(F)c(F)c5F)c5ccc2[nH]5)C=C4)C=C3)cc1
REMARK SMILES IDX 20 1 21 2 22 3 19 5 1 6 2 7 3 8 4 10 18 11 5 12 6 14 7 15
REMARK SMILES IDX 8 16 17 17 9 18 10 19 11 20 12 21 13 22 14 23 15 24 16 25
REMARK SMILES IDX 23 27 24 28 25 29 26 30 27 31 28 33 29 34 30 35 91 36 31 37
REMARK SMILES IDX 90 38 32 39 33 40 34 41 84 42 35 43 89 44 83 45 85 46 36 47
REMARK SMILES IDX 88 48 82 49 81 50 37 52 69 53 49 54 68 55 50 56 53 57 67 58
REMARK SMILES IDX 86 59 51 60 52 61 66 63 87 64 54 65 38 66 39 67 47 68 40 69
REMARK SMILES IDX 41 70 45 71 48 72 42 73 43 74 46 75 44 76 70 77 71 78 79 79
REMARK SMILES IDX 72 80 73 81 77 82 80 83 74 84 75 85 78 86 76 87 55 88 56 89
REMARK SMILES IDX 64 90 57 91 58 92 62 93 65 94 59 95 60 96 63 97 61 98
REMARK H PARENT 22 4 2 9 5 13 16 26 26 32 85 51 53 62
REMARK Flexibility Score: inf
ROOT
ATOM      1  C   UNL A   1      45.969  26.619  25.277  1.00  0.00     0.284 C 
ATOM      2  O   UNL A   1      45.543  27.603  24.665  1.00  0.00    -0.268 OA
ATOM      3  N   UNL A   1      45.464  25.389  24.952  1.00  0.00    -0.351 N 
ATOM      4  H   UNL A   1      44.768  25.384  24.256  1.00  0.00     0.163 HD
ENDROOT
BRANCH   1   5
ATOM      5  C   UNL A   1      47.045  26.758  26.374  1.00  0.00     0.329 C 
ATOM      6  C   UNL A   1      48.965  26.662  24.884  1.00  0.00     0.333 C 
ATOM      7  N   UNL A   1      48.215  27.504  25.826  1.00  0.00    -0.318 N 
ATOM      8  C   UNL A   1      49.102  27.984  26.890  1.00  0.00     0.325 C 
ATOM      9  H   UNL A   1      47.852  28.320  25.331  1.00  0.00     0.348 HD
ATOM     10  C   UNL A   1      48.378  28.653  28.080  1.00  0.00     0.324 C 
ATOM     11  C   UNL A   1      46.372  27.339  27.657  1.00  0.00     0.339 C 
ATOM     12  N   UNL A   1      47.260  27.919  28.679  1.00  0.00    -0.320 N 
ATOM     13  H   UNL A   1      46.709  28.625  29.167  1.00  0.00     0.348 HD
BRANCH  12  14
ATOM     14  C   UNL A   1      47.606  27.018  29.788  1.00  0.00     0.310 C 
BRANCH  14  15
ATOM     15  C   UNL A   1      46.432  26.507  30.557  1.00  0.00     0.060 A 
ATOM     16  C   UNL A   1      45.104  26.442  30.183  1.00  0.00     0.022 A 
ATOM     17  S   UNL A   1      46.649  25.890  32.143  1.00  0.00    -0.126 S 
ATOM     18  C   UNL A   1      44.257  26.231  31.310  1.00  0.00     0.029 A 
ATOM     19  C   UNL A   1      44.983  26.032  32.461  1.00  0.00     0.077 A 
BRANCH  19  20
ATOM     20  C   UNL A   1      44.441  25.823  33.750  1.00  0.00    -0.053 C 
ATOM     21  C   UNL A   1      43.937  25.301  34.833  1.00  0.00    -0.063 C 
BRANCH  21  22
ATOM     22  C   UNL A   1      43.349  24.693  36.096  1.00  0.00     0.120 C 
ATOM     23  C   UNL A   1      43.646  25.596  37.291  1.00  0.00     0.056 C 
ATOM     24  C   UNL A   1      41.847  24.482  35.918  1.00  0.00     0.056 C 
BRANCH  22  25
ATOM     25  O   UNL A   1      43.968  23.426  36.305  1.00  0.00    -0.378 OA
ATOM     26  H   UNL A   1      44.269  23.361  37.225  1.00  0.00     0.212 HD
ENDBRANCH  22  25
ENDBRANCH  21  22
ENDBRANCH  19  20
ENDBRANCH  14  15
ENDBRANCH  12  14
ENDBRANCH   1   5
BRANCH   3  27
ATOM     27  C   UNL A   1      45.817  24.086  25.498  1.00  0.00     0.118 C 
BRANCH  27  28
ATOM     28  C   UNL A   1      44.660  23.091  25.534  1.00  0.00     0.042 C 
BRANCH  28  29
ATOM     29  C   UNL A   1      43.354  23.706  25.079  1.00  0.00     0.118 C 
BRANCH  29  30
ATOM     30  N   UNL A   1      42.227  22.779  25.181  1.00  0.00    -0.352 N 
ATOM     31  C   UNL A   1      41.203  22.772  26.113  1.00  0.00     0.251 C 
ATOM     32  H   UNL A   1      42.192  22.068  24.501  1.00  0.00     0.163 HD
ATOM     33  O   UNL A   1      40.485  21.809  26.266  1.00  0.00    -0.269 OA
BRANCH  31  34
ATOM     34  C   UNL A   1      41.035  23.981  26.939  1.00  0.00     0.039 A 
ATOM     35  C   UNL A   1      41.779  24.152  28.108  1.00  0.00     0.014 A 
ATOM     36  C   UNL A   1      40.210  24.987  26.453  1.00  0.00     0.014 A 
ATOM     37  C   UNL A   1      41.761  25.395  28.735  1.00  0.00     0.010 A 
ATOM     38  C   UNL A   1      40.328  26.251  26.973  1.00  0.00     0.010 A 
ATOM     39  C   UNL A   1      41.056  26.454  28.145  1.00  0.00    -0.014 A 
BRANCH  39  40
ATOM     40  C   UNL A   1      41.129  27.804  28.704  1.00  0.00     0.031 A 
ATOM     41  C   UNL A   1      42.214  28.688  28.180  1.00  0.00     0.074 A 
ATOM     42  C   UNL A   1      40.137  28.313  29.466  1.00  0.00     0.049 A 
ATOM     43  N   UNL A   1      43.148  29.292  28.842  1.00  0.00    -0.248 NA
ATOM     44  C   UNL A   1      42.306  28.882  26.723  1.00  0.00     0.031 C 
ATOM     45  C   UNL A   1      38.842  27.708  29.805  1.00  0.00     0.029 A 
ATOM     46  N   UNL A   1      40.032  29.560  30.001  1.00  0.00    -0.354 N 
ATOM     47  C   UNL A   1      43.859  30.059  27.919  1.00  0.00     0.074 A 
ATOM     48  C   UNL A   1      43.375  29.674  26.619  1.00  0.00     0.031 C 
ATOM     49  C   UNL A   1      38.001  28.662  30.256  1.00  0.00     0.029 A 
ATOM     50  C   UNL A   1      38.754  29.889  30.425  1.00  0.00     0.049 A 
ATOM     51  H   UNL A   1      40.797  30.174  30.080  1.00  0.00     0.167 HD
ATOM     52  C   UNL A   1      44.663  31.090  28.311  1.00  0.00     0.037 A 
ATOM     53  C   UNL A   1      38.328  31.094  30.864  1.00  0.00     0.037 A 
ATOM     54  C   UNL A   1      44.981  30.998  29.712  1.00  0.00     0.049 A 
ATOM     55  C   UNL A   1      39.526  31.872  31.256  1.00  0.00     0.074 A 
ATOM     56  C   UNL A   1      45.641  30.077  30.501  1.00  0.00     0.029 A 
ATOM     57  N   UNL A   1      44.299  31.809  30.583  1.00  0.00    -0.354 N 
ATOM     58  N   UNL A   1      40.290  31.574  32.270  1.00  0.00    -0.248 NA
ATOM     59  C   UNL A   1      40.125  32.742  30.256  1.00  0.00     0.031 C 
ATOM     60  C   UNL A   1      44.925  30.072  31.734  1.00  0.00     0.029 A 
ATOM     61  C   UNL A   1      43.910  31.026  31.638  1.00  0.00     0.049 A 
ATOM     62  H   UNL A   1      44.123  32.771  30.473  1.00  0.00     0.167 HD
ATOM     63  C   UNL A   1      41.576  31.860  31.839  1.00  0.00     0.074 A 
ATOM     64  C   UNL A   1      41.402  32.675  30.640  1.00  0.00     0.031 C 
ATOM     65  C   UNL A   1      42.652  31.178  32.329  1.00  0.00     0.037 A 
BRANCH  52  66
ATOM     66  C   UNL A   1      44.906  32.363  27.529  1.00  0.00     0.064 A 
ATOM     67  C   UNL A   1      46.135  32.533  26.852  1.00  0.00     0.173 A 
ATOM     68  C   UNL A   1      44.130  33.532  27.672  1.00  0.00     0.173 A 
ATOM     69  F   UNL A   1      46.962  31.494  26.660  1.00  0.00    -0.203 F 
ATOM     70  C   UNL A   1      46.588  33.790  26.441  1.00  0.00     0.198 A 
ATOM     71  C   UNL A   1      44.563  34.777  27.212  1.00  0.00     0.198 A 
ATOM     72  F   UNL A   1      42.981  33.543  28.355  1.00  0.00    -0.203 F 
ATOM     73  F   UNL A   1      47.820  33.919  25.927  1.00  0.00    -0.200 F 
ATOM     74  C   UNL A   1      45.807  34.913  26.631  1.00  0.00     0.200 A 
ATOM     75  F   UNL A   1      43.795  35.856  27.416  1.00  0.00    -0.200 F 
ATOM     76  F   UNL A   1      46.266  36.127  26.301  1.00  0.00    -0.200 F 
ENDBRANCH  52  66
BRANCH  53  77
ATOM     77  C   UNL A   1      36.985  31.688  30.714  1.00  0.00     0.064 A 
ATOM     78  C   UNL A   1      36.120  31.821  31.807  1.00  0.00     0.173 A 
ATOM     79  C   UNL A   1      36.622  32.369  29.533  1.00  0.00     0.173 A 
ATOM     80  F   UNL A   1      36.419  31.238  32.976  1.00  0.00    -0.203 F 
ATOM     81  C   UNL A   1      34.964  32.606  31.732  1.00  0.00     0.198 A 
ATOM     82  C   UNL A   1      35.467  33.146  29.457  1.00  0.00     0.198 A 
ATOM     83  F   UNL A   1      37.431  32.365  28.464  1.00  0.00    -0.203 F 
ATOM     84  F   UNL A   1      34.187  32.755  32.814  1.00  0.00    -0.200 F 
ATOM     85  C   UNL A   1      34.644  33.274  30.561  1.00  0.00     0.200 A 
ATOM     86  F   UNL A   1      35.188  33.817  28.331  1.00  0.00    -0.200 F 
ATOM     87  F   UNL A   1      33.569  34.072  30.507  1.00  0.00    -0.200 F 
ENDBRANCH  53  77
BRANCH  65  88
ATOM     88  C   UNL A   1      42.448  30.307  33.536  1.00  0.00     0.064 A 
ATOM     89  C   UNL A   1      42.511  30.778  34.860  1.00  0.00     0.173 A 
ATOM     90  C   UNL A   1      41.997  28.996  33.339  1.00  0.00     0.173 A 
ATOM     91  F   UNL A   1      42.837  32.046  35.127  1.00  0.00    -0.203 F 
ATOM     92  C   UNL A   1      42.167  29.959  35.934  1.00  0.00     0.198 A 
ATOM     93  C   UNL A   1      41.619  28.193  34.411  1.00  0.00     0.198 A 
ATOM     94  F   UNL A   1      41.862  28.513  32.093  1.00  0.00    -0.203 F 
ATOM     95  F   UNL A   1      42.236  30.432  37.188  1.00  0.00    -0.200 F 
ATOM     96  C   UNL A   1      41.711  28.672  35.708  1.00  0.00     0.200 A 
ATOM     97  F   UNL A   1      41.131  26.966  34.183  1.00  0.00    -0.200 F 
ATOM     98  F   UNL A   1      41.332  27.901  36.737  1.00  0.00    -0.200 F 
ENDBRANCH  65  88
ENDBRANCH  39  40
ENDBRANCH  31  34
ENDBRANCH  29  30
ENDBRANCH  28  29
ENDBRANCH  27  28
ENDBRANCH   3  27
TORSDOF 15
ENDMDL
MODEL 3
REMARK VINA RESULT:      -9.9      3.575     10.366
REMARK SMILES C[N@@H+]1CC[N@H+](Cc2ccc(C#CC(C)(C)O)s2)C[C@H]1C(=O)NCCCNC(=O)c1ccc(-c2c3nc(c(-c4c(F)c(F)c(F)c(F)c4F)c4ccc([nH]4)c(-c4c(F)c(F)c(F)c(F)c4F)c4nc(c(-c5c(F)c(F)c(F)c(F)c5F)c5ccc2[nH]5)C=C4)C=C3)cc1
REMARK SMILES IDX 20 1 21 2 22 3 19 5 1 6 2 7 3 8 4 10 18 11 5 12 6 14 7 15
REMARK SMILES IDX 8 16 17 17 9 18 10 19 11 20 12 21 13 22 14 23 15 24 16 25
REMARK SMILES IDX 23 27 24 28 25 29 26 30 27 31 28 33 29 34 30 35 91 36 31 37
REMARK SMILES IDX 90 38 32 39 33 40 34 41 84 42 35 43 89 44 83 45 85 46 36 47
REMARK SMILES IDX 88 48 82 49 81 50 37 52 69 53 49 54 68 55 50 56 53 57 67 58
REMARK SMILES IDX 86 59 51 60 52 61 66 63 87 64 54 65 38 66 39 67 47 68 40 69
REMARK SMILES IDX 41 70 45 71 48 72 42 73 43 74 46 75 44 76 70 77 71 78 79 79
REMARK SMILES IDX 72 80 73 81 77 82 80 83 74 84 75 85 78 86 76 87 55 88 56 89
REMARK SMILES IDX 64 90 57 91 58 92 62 93 65 94 59 95 60 96 63 97 61 98
REMARK H PARENT 22 4 2 9 5 13 16 26 26 32 85 51 53 62
REMARK Flexibility Score: inf
ROOT
ATOM      1  C   UNL A   1      38.543  31.069  35.672  1.00  0.00     0.284 C 
ATOM      2  O   UNL A   1      38.623  30.065  36.386  1.00  0.00    -0.268 OA
ATOM      3  N   UNL A   1      37.469  31.177  34.829  1.00  0.00    -0.351 N 
ATOM      4  H   UNL A   1      36.840  30.420  34.841  1.00  0.00     0.163 HD
ENDROOT
BRANCH   1   5
ATOM      5  C   UNL A   1      39.612  32.179  35.723  1.00  0.00     0.329 C 
ATOM      6  C   UNL A   1      39.156  32.890  38.004  1.00  0.00     0.333 C 
ATOM      7  N   UNL A   1      40.151  32.282  37.110  1.00  0.00    -0.318 N 
ATOM      8  C   UNL A   1      41.403  33.045  37.153  1.00  0.00     0.325 C 
ATOM      9  H   UNL A   1      40.354  31.334  37.429  1.00  0.00     0.348 HD
ATOM     10  C   UNL A   1      42.428  32.665  36.062  1.00  0.00     0.324 C 
ATOM     11  C   UNL A   1      40.644  31.927  34.579  1.00  0.00     0.339 C 
ATOM     12  N   UNL A   1      41.943  32.612  34.680  1.00  0.00    -0.320 N 
ATOM     13  H   UNL A   1      42.614  32.025  34.184  1.00  0.00     0.348 HD
BRANCH  12  14
ATOM     14  C   UNL A   1      42.048  33.863  33.916  1.00  0.00     0.310 C 
BRANCH  14  15
ATOM     15  C   UNL A   1      41.911  33.697  32.438  1.00  0.00     0.060 A 
ATOM     16  C   UNL A   1      41.315  32.675  31.725  1.00  0.00     0.022 A 
ATOM     17  S   UNL A   1      42.550  34.886  31.378  1.00  0.00    -0.126 S 
ATOM     18  C   UNL A   1      41.703  32.703  30.354  1.00  0.00     0.029 A 
ATOM     19  C   UNL A   1      42.477  33.803  30.067  1.00  0.00     0.077 A 
BRANCH  19  20
ATOM     20  C   UNL A   1      43.043  34.105  28.807  1.00  0.00    -0.053 C 
ATOM     21  C   UNL A   1      43.431  34.696  27.712  1.00  0.00    -0.063 C 
BRANCH  21  22
ATOM     22  C   UNL A   1      43.885  35.384  26.435  1.00  0.00     0.120 C 
ATOM     23  C   UNL A   1      45.407  35.502  26.424  1.00  0.00     0.056 C 
ATOM     24  C   UNL A   1      43.377  34.610  25.221  1.00  0.00     0.056 C 
BRANCH  22  25
ATOM     25  O   UNL A   1      43.317  36.692  26.415  1.00  0.00    -0.378 OA
ATOM     26  H   UNL A   1      43.712  37.228  27.121  1.00  0.00     0.212 HD
ENDBRANCH  22  25
ENDBRANCH  21  22
ENDBRANCH  19  20
ENDBRANCH  14  15
ENDBRANCH  12  14
ENDBRANCH   1   5
BRANCH   3  27
ATOM     27  C   UNL A   1      37.132  32.263  33.919  1.00  0.00     0.118 C 
BRANCH  27  28
ATOM     28  C   UNL A   1      36.060  31.904  32.893  1.00  0.00     0.042 C 
BRANCH  28  29
ATOM     29  C   UNL A   1      36.056  32.844  31.706  1.00  0.00     0.118 C 
BRANCH  29  30
ATOM     30  N   UNL A   1      35.036  32.500  30.716  1.00  0.00    -0.352 N 
ATOM     31  C   UNL A   1      35.193  31.808  29.528  1.00  0.00     0.251 C 
ATOM     32  H   UNL A   1      34.121  32.799  30.921  1.00  0.00     0.163 HD
ATOM     33  O   UNL A   1      34.341  31.818  28.666  1.00  0.00    -0.269 OA
BRANCH  31  34
ATOM     34  C   UNL A   1      36.456  31.073  29.337  1.00  0.00     0.039 A 
ATOM     35  C   UNL A   1      37.640  31.757  29.059  1.00  0.00     0.014 A 
ATOM     36  C   UNL A   1      36.447  29.702  29.561  1.00  0.00     0.014 A 
ATOM     37  C   UNL A   1      38.843  31.057  29.110  1.00  0.00     0.010 A 
ATOM     38  C   UNL A   1      37.638  29.058  29.777  1.00  0.00     0.010 A 
ATOM     39  C   UNL A   1      38.840  29.710  29.500  1.00  0.00    -0.014 A 
BRANCH  39  40
ATOM     40  C   UNL A   1      40.095  28.986  29.695  1.00  0.00     0.031 A 
ATOM     41  C   UNL A   1      40.582  28.855  31.103  1.00  0.00     0.074 A 
ATOM     42  C   UNL A   1      40.663  28.265  28.703  1.00  0.00     0.049 A 
ATOM     43  N   UNL A   1      41.719  29.227  31.597  1.00  0.00    -0.248 NA
ATOM     44  C   UNL A   1      39.663  28.284  32.103  1.00  0.00     0.031 C 
ATOM     45  C   UNL A   1      40.148  28.006  27.352  1.00  0.00     0.029 A 
ATOM     46  N   UNL A   1      41.784  27.496  28.748  1.00  0.00    -0.354 N 
ATOM     47  C   UNL A   1      41.728  28.814  32.930  1.00  0.00     0.074 A 
ATOM     48  C   UNL A   1      40.396  28.350  33.216  1.00  0.00     0.031 C 
ATOM     49  C   UNL A   1      40.807  26.960  26.811  1.00  0.00     0.029 A 
ATOM     50  C   UNL A   1      41.909  26.613  27.686  1.00  0.00     0.049 A 
ATOM     51  H   UNL A   1      42.450  27.561  29.470  1.00  0.00     0.167 HD
ATOM     52  C   UNL A   1      42.888  28.712  33.642  1.00  0.00     0.037 A 
ATOM     53  C   UNL A   1      42.836  25.642  27.541  1.00  0.00     0.037 A 
ATOM     54  C   UNL A   1      43.952  29.445  33.008  1.00  0.00     0.049 A 
ATOM     55  C   UNL A   1      43.962  25.964  28.448  1.00  0.00     0.074 A 
ATOM     56  C   UNL A   1      44.166  30.772  32.693  1.00  0.00     0.029 A 
ATOM     57  N   UNL A   1      44.878  28.740  32.281  1.00  0.00    -0.354 N 
ATOM     58  N   UNL A   1      44.752  26.989  28.295  1.00  0.00    -0.248 NA
ATOM     59  C   UNL A   1      43.944  25.382  29.781  1.00  0.00     0.031 C 
ATOM     60  C   UNL A   1      44.849  30.747  31.441  1.00  0.00     0.029 A 
ATOM     61  C   UNL A   1      45.053  29.409  31.099  1.00  0.00     0.049 A 
ATOM     62  H   UNL A   1      45.332  27.912  32.557  1.00  0.00     0.167 HD
ATOM     63  C   UNL A   1      45.002  27.439  29.582  1.00  0.00     0.074 A 
ATOM     64  C   UNL A   1      44.571  26.349  30.454  1.00  0.00     0.031 C 
ATOM     65  C   UNL A   1      45.270  28.754  29.831  1.00  0.00     0.037 A 
BRANCH  52  66
ATOM     66  C   UNL A   1      43.169  27.697  34.729  1.00  0.00     0.064 A 
ATOM     67  C   UNL A   1      43.523  28.149  36.020  1.00  0.00     0.173 A 
ATOM     68  C   UNL A   1      43.407  26.329  34.483  1.00  0.00     0.173 A 
ATOM     69  F   UNL A   1      43.347  29.432  36.370  1.00  0.00    -0.203 F 
ATOM     70  C   UNL A   1      44.154  27.318  36.950  1.00  0.00     0.198 A 
ATOM     71  C   UNL A   1      43.989  25.490  35.434  1.00  0.00     0.198 A 
ATOM     72  F   UNL A   1      43.194  25.775  33.285  1.00  0.00    -0.203 F 
ATOM     73  F   UNL A   1      44.594  27.829  38.108  1.00  0.00    -0.200 F 
ATOM     74  C   UNL A   1      44.397  25.992  36.652  1.00  0.00     0.200 A 
ATOM     75  F   UNL A   1      44.227  24.208  35.122  1.00  0.00    -0.200 F 
ATOM     76  F   UNL A   1      45.062  25.210  37.513  1.00  0.00    -0.200 F 
ENDBRANCH  52  66
BRANCH  53  77
ATOM     77  C   UNL A   1      42.683  24.338  26.866  1.00  0.00     0.064 A 
ATOM     78  C   UNL A   1      43.268  24.089  25.618  1.00  0.00     0.173 A 
ATOM     79  C   UNL A   1      42.163  23.222  27.556  1.00  0.00     0.173 A 
ATOM     80  F   UNL A   1      43.820  25.092  24.922  1.00  0.00    -0.203 F 
ATOM     81  C   UNL A   1      43.346  22.794  25.095  1.00  0.00     0.198 A 
ATOM     82  C   UNL A   1      42.237  21.933  27.031  1.00  0.00     0.198 A 
ATOM     83  F   UNL A   1      41.660  23.355  28.791  1.00  0.00    -0.203 F 
ATOM     84  F   UNL A   1      43.962  22.584  23.922  1.00  0.00    -0.200 F 
ATOM     85  C   UNL A   1      42.839  21.717  25.805  1.00  0.00     0.200 A 
ATOM     86  F   UNL A   1      41.777  20.896  27.744  1.00  0.00    -0.200 F 
ATOM     87  F   UNL A   1      42.967  20.470  25.330  1.00  0.00    -0.200 F 
ENDBRANCH  53  77
BRANCH  65  88
ATOM     88  C   UNL A   1      45.559  29.651  28.660  1.00  0.00     0.064 A 
ATOM     89  C   UNL A   1      44.566  30.319  27.924  1.00  0.00     0.173 A 
ATOM     90  C   UNL A   1      46.894  29.984  28.394  1.00  0.00     0.173 A 
ATOM     91  F   UNL A   1      43.269  30.131  28.184  1.00  0.00    -0.203 F 
ATOM     92  C   UNL A   1      44.899  31.254  26.944  1.00  0.00     0.198 A 
ATOM     93  C   UNL A   1      47.222  30.944  27.442  1.00  0.00     0.198 A 
ATOM     94  F   UNL A   1      47.881  29.419  29.107  1.00  0.00    -0.203 F 
ATOM     95  F   UNL A   1      43.933  31.878  26.254  1.00  0.00    -0.200 F 
ATOM     96  C   UNL A   1      46.226  31.573  26.712  1.00  0.00     0.200 A 
ATOM     97  F   UNL A   1      48.505  31.285  27.256  1.00  0.00    -0.200 F 
ATOM     98  F   UNL A   1      46.546  32.508  25.806  1.00  0.00    -0.200 F 
ENDBRANCH  65  88
ENDBRANCH  39  40
ENDBRANCH  31  34
ENDBRANCH  29  30
ENDBRANCH  28  29
ENDBRANCH  27  28
ENDBRANCH   3  27
TORSDOF 15
ENDMDL
