MODEL 1
REMARK VINA RESULT:     -11.6      0.000      0.000
REMARK SMILES CC(C)[C@@H](CC(=O)NCCCNC(=O)c1ccc(-c2c3nc(c(-c4c(F)c(F)c(F)c(F)c4F)c4ccc([nH]4)c(-c4c(F)c(F)c(F)c(F)c4F)c4nc(c(-c5c(F)c(F)c(F)c(F)c5F)c5ccc2[nH]5)C=C4)C=C3)cc1)NC(=O)OCc1ccccc1
REMARK SMILES IDX 6 1 7 2 8 3 5 5 4 6 2 7 1 8 3 9 78 10 79 11 80 13 81 14
REMARK SMILES IDX 82 15 83 16 84 17 88 18 85 19 87 20 86 21 9 22 10 23 11 24
REMARK SMILES IDX 12 25 13 26 14 28 15 29 16 30 77 31 17 32 76 33 18 34 19 35
REMARK SMILES IDX 20 36 70 37 21 38 75 39 69 40 71 41 22 42 74 43 68 44 67 45
REMARK SMILES IDX 23 47 55 48 35 49 54 50 36 51 39 52 53 53 72 54 37 55 38 56
REMARK SMILES IDX 52 58 73 59 40 60 24 61 25 62 33 63 26 64 27 65 31 66 34 67
REMARK SMILES IDX 28 68 29 69 32 70 30 71 56 72 57 73 65 74 58 75 59 76 63 77
REMARK SMILES IDX 66 78 60 79 61 80 64 81 62 82 41 83 42 84 50 85 43 86 44 87
REMARK SMILES IDX 48 88 51 89 45 90 46 91 49 92 47 93
REMARK H PARENT 8 4 78 12 12 27 71 46 39 57
REMARK Flexibility Score: inf
ROOT
ATOM      1  C   UNL A   1      30.845  28.885  23.943  1.00  0.00     0.222 C 
ATOM      2  O   UNL A   1      30.682  28.920  22.721  1.00  0.00    -0.275 OA
ATOM      3  N   UNL A   1      31.114  30.064  24.565  1.00  0.00    -0.356 N 
ATOM      4  H   UNL A   1      31.051  30.856  23.984  1.00  0.00     0.163 HD
ENDROOT
BRANCH   1   5
ATOM      5  C   UNL A   1      30.726  27.575  24.705  1.00  0.00     0.125 C 
BRANCH   5   6
ATOM      6  C   UNL A   1      31.908  26.586  24.595  1.00  0.00     0.097 C 
BRANCH   6   7
ATOM      7  C   UNL A   1      32.751  26.437  25.887  1.00  0.00     0.006 C 
ATOM      8  C   UNL A   1      33.433  25.074  26.021  1.00  0.00     0.009 C 
ATOM      9  C   UNL A   1      33.789  27.542  26.117  1.00  0.00     0.009 C 
ENDBRANCH   6   7
BRANCH   6  10
ATOM     10  N   UNL A   1      32.770  26.919  23.464  1.00  0.00    -0.318 N 
ATOM     11  C   UNL A   1      33.130  26.088  22.445  1.00  0.00     0.407 C 
ATOM     12  H   UNL A   1      33.126  27.836  23.434  1.00  0.00     0.167 HD
ATOM     13  O   UNL A   1      34.025  26.386  21.669  1.00  0.00    -0.225 OA
BRANCH  11  14
ATOM     14  O   UNL A   1      32.365  24.973  22.386  1.00  0.00    -0.445 OA
BRANCH  14  15
ATOM     15  C   UNL A   1      33.005  23.816  21.836  1.00  0.00     0.270 C 
BRANCH  15  16
ATOM     16  C   UNL A   1      33.675  22.948  22.881  1.00  0.00    -0.011 A 
ATOM     17  C   UNL A   1      35.026  23.095  23.235  1.00  0.00     0.007 A 
ATOM     18  C   UNL A   1      32.905  22.011  23.586  1.00  0.00     0.007 A 
ATOM     19  C   UNL A   1      35.590  22.336  24.260  1.00  0.00     0.000 A 
ATOM     20  C   UNL A   1      33.471  21.247  24.609  1.00  0.00     0.000 A 
ATOM     21  C   UNL A   1      34.812  21.413  24.948  1.00  0.00     0.000 A 
ENDBRANCH  15  16
ENDBRANCH  14  15
ENDBRANCH  11  14
ENDBRANCH   6  10
ENDBRANCH   5   6
ENDBRANCH   1   5
BRANCH   3  22
ATOM     22  C   UNL A   1      31.475  30.352  25.938  1.00  0.00     0.117 C 
BRANCH  22  23
ATOM     23  C   UNL A   1      31.411  31.856  26.210  1.00  0.00     0.042 C 
BRANCH  23  24
ATOM     24  C   UNL A   1      32.414  32.350  27.233  1.00  0.00     0.118 C 
BRANCH  24  25
ATOM     25  N   UNL A   1      32.284  33.775  27.483  1.00  0.00    -0.352 N 
ATOM     26  C   UNL A   1      32.936  34.578  28.386  1.00  0.00     0.251 C 
ATOM     27  H   UNL A   1      31.623  34.237  26.917  1.00  0.00     0.163 HD
ATOM     28  O   UNL A   1      32.513  35.712  28.596  1.00  0.00    -0.269 OA
BRANCH  26  29
ATOM     29  C   UNL A   1      34.123  34.089  29.127  1.00  0.00     0.039 A 
ATOM     30  C   UNL A   1      33.928  33.340  30.293  1.00  0.00     0.014 A 
ATOM     31  C   UNL A   1      35.422  34.382  28.707  1.00  0.00     0.014 A 
ATOM     32  C   UNL A   1      35.028  32.831  30.988  1.00  0.00     0.010 A 
ATOM     33  C   UNL A   1      36.512  33.791  29.340  1.00  0.00     0.010 A 
ATOM     34  C   UNL A   1      36.329  33.015  30.493  1.00  0.00    -0.014 A 
BRANCH  34  35
ATOM     35  C   UNL A   1      37.510  32.408  31.162  1.00  0.00     0.031 A 
ATOM     36  C   UNL A   1      38.232  31.256  30.517  1.00  0.00     0.074 A 
ATOM     37  C   UNL A   1      37.881  32.842  32.383  1.00  0.00     0.049 A 
ATOM     38  N   UNL A   1      39.215  30.528  30.985  1.00  0.00    -0.248 NA
ATOM     39  C   UNL A   1      37.773  30.848  29.179  1.00  0.00     0.031 C 
ATOM     40  C   UNL A   1      37.233  33.921  33.129  1.00  0.00     0.029 A 
ATOM     41  N   UNL A   1      38.881  32.415  33.222  1.00  0.00    -0.354 N 
ATOM     42  C   UNL A   1      39.471  29.567  30.015  1.00  0.00     0.074 A 
ATOM     43  C   UNL A   1      38.515  29.774  28.950  1.00  0.00     0.031 C 
ATOM     44  C   UNL A   1      37.860  34.083  34.305  1.00  0.00     0.029 A 
ATOM     45  C   UNL A   1      38.919  33.086  34.422  1.00  0.00     0.049 A 
ATOM     46  H   UNL A   1      39.512  31.698  32.986  1.00  0.00     0.167 HD
ATOM     47  C   UNL A   1      40.427  28.609  30.009  1.00  0.00     0.037 A 
ATOM     48  C   UNL A   1      39.701  32.901  35.503  1.00  0.00     0.037 A 
ATOM     49  C   UNL A   1      41.398  28.433  31.057  1.00  0.00     0.049 A 
ATOM     50  C   UNL A   1      40.742  31.812  35.473  1.00  0.00     0.074 A 
ATOM     51  C   UNL A   1      42.467  27.555  31.100  1.00  0.00     0.029 A 
ATOM     52  N   UNL A   1      41.411  29.139  32.250  1.00  0.00    -0.354 N 
ATOM     53  N   UNL A   1      41.038  30.976  34.509  1.00  0.00    -0.248 NA
ATOM     54  C   UNL A   1      41.558  31.640  36.685  1.00  0.00     0.031 C 
ATOM     55  C   UNL A   1      43.082  27.679  32.348  1.00  0.00     0.029 A 
ATOM     56  C   UNL A   1      42.440  28.682  33.056  1.00  0.00     0.049 A 
ATOM     57  H   UNL A   1      40.782  29.858  32.489  1.00  0.00     0.167 HD
ATOM     58  C   UNL A   1      42.087  30.200  34.984  1.00  0.00     0.074 A 
ATOM     59  C   UNL A   1      42.391  30.679  36.316  1.00  0.00     0.031 C 
ATOM     60  C   UNL A   1      42.737  29.178  34.375  1.00  0.00     0.037 A 
BRANCH  47  61
ATOM     61  C   UNL A   1      40.478  27.664  28.843  1.00  0.00     0.064 A 
ATOM     62  C   UNL A   1      39.683  26.509  28.789  1.00  0.00     0.173 A 
ATOM     63  C   UNL A   1      41.280  27.960  27.730  1.00  0.00     0.173 A 
ATOM     64  F   UNL A   1      38.904  26.176  29.830  1.00  0.00    -0.203 F 
ATOM     65  C   UNL A   1      39.703  25.678  27.673  1.00  0.00     0.198 A 
ATOM     66  C   UNL A   1      41.274  27.143  26.603  1.00  0.00     0.198 A 
ATOM     67  F   UNL A   1      42.055  29.055  27.726  1.00  0.00    -0.203 F 
ATOM     68  F   UNL A   1      38.963  24.559  27.659  1.00  0.00    -0.200 F 
ATOM     69  C   UNL A   1      40.489  26.000  26.577  1.00  0.00     0.200 A 
ATOM     70  F   UNL A   1      42.020  27.467  25.538  1.00  0.00    -0.200 F 
ATOM     71  F   UNL A   1      40.492  25.208  25.495  1.00  0.00    -0.200 F 
ENDBRANCH  47  61
BRANCH  48  72
ATOM     72  C   UNL A   1      39.527  33.750  36.713  1.00  0.00     0.064 A 
ATOM     73  C   UNL A   1      40.202  34.972  36.843  1.00  0.00     0.173 A 
ATOM     74  C   UNL A   1      38.714  33.341  37.783  1.00  0.00     0.173 A 
ATOM     75  F   UNL A   1      41.006  35.400  35.858  1.00  0.00    -0.203 F 
ATOM     76  C   UNL A   1      40.100  35.733  38.006  1.00  0.00     0.198 A 
ATOM     77  C   UNL A   1      38.584  34.121  38.929  1.00  0.00     0.198 A 
ATOM     78  F   UNL A   1      38.041  32.183  37.711  1.00  0.00    -0.203 F 
ATOM     79  F   UNL A   1      40.809  36.863  38.128  1.00  0.00    -0.200 F 
ATOM     80  C   UNL A   1      39.288  35.309  39.047  1.00  0.00     0.200 A 
ATOM     81  F   UNL A   1      37.783  33.716  39.925  1.00  0.00    -0.200 F 
ATOM     82  F   UNL A   1      39.193  36.039  40.166  1.00  0.00    -0.200 F 
ENDBRANCH  48  72
BRANCH  60  83
ATOM     83  C   UNL A   1      43.863  28.527  35.124  1.00  0.00     0.064 A 
ATOM     84  C   UNL A   1      43.657  27.389  35.919  1.00  0.00     0.173 A 
ATOM     85  C   UNL A   1      45.175  29.007  34.993  1.00  0.00     0.173 A 
ATOM     86  F   UNL A   1      42.419  26.900  36.089  1.00  0.00    -0.203 F 
ATOM     87  C   UNL A   1      44.720  26.768  36.568  1.00  0.00     0.198 A 
ATOM     88  C   UNL A   1      46.241  28.362  35.614  1.00  0.00     0.198 A 
ATOM     89  F   UNL A   1      45.427  30.087  34.239  1.00  0.00    -0.203 F 
ATOM     90  F   UNL A   1      44.493  25.708  37.356  1.00  0.00    -0.200 F 
ATOM     91  C   UNL A   1      46.012  27.247  36.406  1.00  0.00     0.200 A 
ATOM     92  F   UNL A   1      47.489  28.817  35.442  1.00  0.00    -0.200 F 
ATOM     93  F   UNL A   1      47.036  26.637  37.018  1.00  0.00    -0.200 F 
ENDBRANCH  60  83
ENDBRANCH  34  35
ENDBRANCH  26  29
ENDBRANCH  24  25
ENDBRANCH  23  24
ENDBRANCH  22  23
ENDBRANCH   3  22
TORSDOF 16
ENDMDL
MODEL 2
REMARK VINA RESULT:     -11.4      5.679     11.095
REMARK SMILES CC(C)[C@@H](CC(=O)NCCCNC(=O)c1ccc(-c2c3nc(c(-c4c(F)c(F)c(F)c(F)c4F)c4ccc([nH]4)c(-c4c(F)c(F)c(F)c(F)c4F)c4nc(c(-c5c(F)c(F)c(F)c(F)c5F)c5ccc2[nH]5)C=C4)C=C3)cc1)NC(=O)OCc1ccccc1
REMARK SMILES IDX 6 1 7 2 8 3 5 5 4 6 2 7 1 8 3 9 78 10 79 11 80 13 81 14
REMARK SMILES IDX 82 15 83 16 84 17 88 18 85 19 87 20 86 21 9 22 10 23 11 24
REMARK SMILES IDX 12 25 13 26 14 28 15 29 16 30 77 31 17 32 76 33 18 34 19 35
REMARK SMILES IDX 20 36 70 37 21 38 75 39 69 40 71 41 22 42 74 43 68 44 67 45
REMARK SMILES IDX 23 47 55 48 35 49 54 50 36 51 39 52 53 53 72 54 37 55 38 56
REMARK SMILES IDX 52 58 73 59 40 60 24 61 25 62 33 63 26 64 27 65 31 66 34 67
REMARK SMILES IDX 28 68 29 69 32 70 30 71 56 72 57 73 65 74 58 75 59 76 63 77
REMARK SMILES IDX 66 78 60 79 61 80 64 81 62 82 41 83 42 84 50 85 43 86 44 87
REMARK SMILES IDX 48 88 51 89 45 90 46 91 49 92 47 93
REMARK H PARENT 8 4 78 12 12 27 71 46 39 57
REMARK Flexibility Score: inf
ROOT
ATOM      1  C   UNL A   1      35.129  21.643  26.092  1.00  0.00     0.222 C 
ATOM      2  O   UNL A   1      34.233  21.260  26.847  1.00  0.00    -0.275 OA
ATOM      3  N   UNL A   1      35.872  20.682  25.479  1.00  0.00    -0.356 N 
ATOM      4  H   UNL A   1      35.552  19.763  25.623  1.00  0.00     0.163 HD
ENDROOT
BRANCH   1   5
ATOM      5  C   UNL A   1      35.363  23.125  25.852  1.00  0.00     0.125 C 
BRANCH   5   6
ATOM      6  C   UNL A   1      34.240  23.909  25.135  1.00  0.00     0.097 C 
BRANCH   6   7
ATOM      7  C   UNL A   1      33.420  24.851  26.053  1.00  0.00     0.006 C 
ATOM      8  C   UNL A   1      33.664  26.336  25.782  1.00  0.00     0.009 C 
ATOM      9  C   UNL A   1      31.910  24.587  26.073  1.00  0.00     0.009 C 
ENDBRANCH   6   7
BRANCH   6  10
ATOM     10  N   UNL A   1      33.349  23.007  24.410  1.00  0.00    -0.318 N 
ATOM     11  C   UNL A   1      32.929  23.144  23.120  1.00  0.00     0.407 C 
ATOM     12  H   UNL A   1      33.019  22.221  24.902  1.00  0.00     0.167 HD
ATOM     13  O   UNL A   1      32.017  22.465  22.675  1.00  0.00    -0.225 OA
BRANCH  11  14
ATOM     14  O   UNL A   1      33.658  24.050  22.427  1.00  0.00    -0.445 OA
BRANCH  14  15
ATOM     15  C   UNL A   1      32.903  24.947  21.605  1.00  0.00     0.270 C 
BRANCH  15  16
ATOM     16  C   UNL A   1      32.682  26.303  22.243  1.00  0.00    -0.011 A 
ATOM     17  C   UNL A   1      33.655  27.315  22.224  1.00  0.00     0.007 A 
ATOM     18  C   UNL A   1      31.432  26.597  22.806  1.00  0.00     0.007 A 
ATOM     19  C   UNL A   1      33.389  28.580  22.747  1.00  0.00     0.000 A 
ATOM     20  C   UNL A   1      31.167  27.862  23.335  1.00  0.00     0.000 A 
ATOM     21  C   UNL A   1      32.144  28.854  23.301  1.00  0.00     0.000 A 
ENDBRANCH  15  16
ENDBRANCH  14  15
ENDBRANCH  11  14
ENDBRANCH   6  10
ENDBRANCH   5   6
ENDBRANCH   1   5
BRANCH   3  22
ATOM     22  C   UNL A   1      37.055  20.785  24.648  1.00  0.00     0.117 C 
BRANCH  22  23
ATOM     23  C   UNL A   1      38.059  19.686  25.000  1.00  0.00     0.042 C 
BRANCH  23  24
ATOM     24  C   UNL A   1      39.189  20.136  25.905  1.00  0.00     0.118 C 
BRANCH  24  25
ATOM     25  N   UNL A   1      40.246  19.145  25.994  1.00  0.00    -0.352 N 
ATOM     26  C   UNL A   1      41.605  19.309  26.115  1.00  0.00     0.251 C 
ATOM     27  H   UNL A   1      39.942  18.210  25.962  1.00  0.00     0.163 HD
ATOM     28  O   UNL A   1      42.344  18.344  25.941  1.00  0.00    -0.269 OA
BRANCH  26  29
ATOM     29  C   UNL A   1      42.190  20.635  26.426  1.00  0.00     0.039 A 
ATOM     30  C   UNL A   1      42.620  21.446  25.370  1.00  0.00     0.014 A 
ATOM     31  C   UNL A   1      42.349  21.077  27.742  1.00  0.00     0.014 A 
ATOM     32  C   UNL A   1      43.138  22.718  25.631  1.00  0.00     0.010 A 
ATOM     33  C   UNL A   1      42.768  22.380  27.996  1.00  0.00     0.010 A 
ATOM     34  C   UNL A   1      43.175  23.213  26.944  1.00  0.00    -0.014 A 
BRANCH  34  35
ATOM     35  C   UNL A   1      43.635  24.596  27.242  1.00  0.00     0.031 A 
ATOM     36  C   UNL A   1      42.658  25.623  27.747  1.00  0.00     0.074 A 
ATOM     37  C   UNL A   1      44.911  24.944  26.984  1.00  0.00     0.049 A 
ATOM     38  N   UNL A   1      42.839  26.901  27.968  1.00  0.00    -0.248 NA
ATOM     39  C   UNL A   1      41.286  25.161  28.014  1.00  0.00     0.031 C 
ATOM     40  C   UNL A   1      45.941  24.049  26.453  1.00  0.00     0.029 A 
ATOM     41  N   UNL A   1      45.557  26.149  27.113  1.00  0.00    -0.354 N 
ATOM     42  C   UNL A   1      41.606  27.395  28.371  1.00  0.00     0.074 A 
ATOM     43  C   UNL A   1      40.671  26.293  28.326  1.00  0.00     0.031 C 
ATOM     44  C   UNL A   1      47.090  24.730  26.318  1.00  0.00     0.029 A 
ATOM     45  C   UNL A   1      46.868  26.120  26.699  1.00  0.00     0.049 A 
ATOM     46  H   UNL A   1      45.122  26.957  27.470  1.00  0.00     0.167 HD
ATOM     47  C   UNL A   1      41.287  28.653  28.758  1.00  0.00     0.037 A 
ATOM     48  C   UNL A   1      47.780  27.109  26.613  1.00  0.00     0.037 A 
ATOM     49  C   UNL A   1      42.232  29.736  28.835  1.00  0.00     0.049 A 
ATOM     50  C   UNL A   1      47.388  28.502  27.032  1.00  0.00     0.074 A 
ATOM     51  C   UNL A   1      42.030  31.021  29.308  1.00  0.00     0.029 A 
ATOM     52  N   UNL A   1      43.553  29.664  28.419  1.00  0.00    -0.354 N 
ATOM     53  N   UNL A   1      46.245  28.934  27.506  1.00  0.00    -0.248 NA
ATOM     54  C   UNL A   1      48.414  29.548  26.902  1.00  0.00     0.031 C 
ATOM     55  C   UNL A   1      43.207  31.747  29.109  1.00  0.00     0.029 A 
ATOM     56  C   UNL A   1      44.163  30.897  28.578  1.00  0.00     0.049 A 
ATOM     57  H   UNL A   1      43.991  28.858  28.062  1.00  0.00     0.167 HD
ATOM     58  C   UNL A   1      46.421  30.288  27.755  1.00  0.00     0.074 A 
ATOM     59  C   UNL A   1      47.789  30.604  27.400  1.00  0.00     0.031 C 
ATOM     60  C   UNL A   1      45.530  31.192  28.230  1.00  0.00     0.037 A 
BRANCH  47  61
ATOM     61  C   UNL A   1      39.860  28.944  29.124  1.00  0.00     0.064 A 
ATOM     62  C   UNL A   1      38.914  29.336  28.166  1.00  0.00     0.173 A 
ATOM     63  C   UNL A   1      39.417  28.752  30.442  1.00  0.00     0.173 A 
ATOM     64  F   UNL A   1      39.286  29.541  26.893  1.00  0.00    -0.203 F 
ATOM     65  C   UNL A   1      37.583  29.543  28.517  1.00  0.00     0.198 A 
ATOM     66  C   UNL A   1      38.079  28.930  30.784  1.00  0.00     0.198 A 
ATOM     67  F   UNL A   1      40.279  28.371  31.397  1.00  0.00    -0.203 F 
ATOM     68  F   UNL A   1      36.704  29.955  27.592  1.00  0.00    -0.200 F 
ATOM     69  C   UNL A   1      37.164  29.330  29.822  1.00  0.00     0.200 A 
ATOM     70  F   UNL A   1      37.674  28.706  32.041  1.00  0.00    -0.200 F 
ATOM     71  F   UNL A   1      35.878  29.512  30.153  1.00  0.00    -0.200 F 
ENDBRANCH  47  61
BRANCH  48  72
ATOM     72  C   UNL A   1      49.147  26.829  26.096  1.00  0.00     0.064 A 
ATOM     73  C   UNL A   1      49.465  27.028  24.745  1.00  0.00     0.173 A 
ATOM     74  C   UNL A   1      50.155  26.321  26.932  1.00  0.00     0.173 A 
ATOM     75  F   UNL A   1      48.532  27.493  23.900  1.00  0.00    -0.203 F 
ATOM     76  C   UNL A   1      50.721  26.695  24.242  1.00  0.00     0.198 A 
ATOM     77  C   UNL A   1      51.422  26.024  26.435  1.00  0.00     0.198 A 
ATOM     78  F   UNL A   1      49.909  26.116  28.234  1.00  0.00    -0.203 F 
ATOM     79  F   UNL A   1      50.974  26.832  22.934  1.00  0.00    -0.200 F 
ATOM     80  C   UNL A   1      51.700  26.198  25.089  1.00  0.00     0.200 A 
ATOM     81  F   UNL A   1      52.371  25.562  27.261  1.00  0.00    -0.200 F 
ATOM     82  F   UNL A   1      52.907  25.875  24.605  1.00  0.00    -0.200 F 
ENDBRANCH  48  72
BRANCH  60  83
ATOM     83  C   UNL A   1      46.007  32.601  28.426  1.00  0.00     0.064 A 
ATOM     84  C   UNL A   1      46.613  33.014  29.622  1.00  0.00     0.173 A 
ATOM     85  C   UNL A   1      45.918  33.533  27.380  1.00  0.00     0.173 A 
ATOM     86  F   UNL A   1      46.708  32.165  30.658  1.00  0.00    -0.203 F 
ATOM     87  C   UNL A   1      47.094  34.311  29.771  1.00  0.00     0.198 A 
ATOM     88  C   UNL A   1      46.433  34.819  27.519  1.00  0.00     0.198 A 
ATOM     89  F   UNL A   1      45.355  33.188  26.213  1.00  0.00    -0.203 F 
ATOM     90  F   UNL A   1      47.630  34.695  30.938  1.00  0.00    -0.200 F 
ATOM     91  C   UNL A   1      47.015  35.209  28.716  1.00  0.00     0.200 A 
ATOM     92  F   UNL A   1      46.371  35.678  26.493  1.00  0.00    -0.200 F 
ATOM     93  F   UNL A   1      47.496  36.452  28.855  1.00  0.00    -0.200 F 
ENDBRANCH  60  83
ENDBRANCH  34  35
ENDBRANCH  26  29
ENDBRANCH  24  25
ENDBRANCH  23  24
ENDBRANCH  22  23
ENDBRANCH   3  22
TORSDOF 16
ENDMDL
MODEL 3
REMARK VINA RESULT:     -11.3      5.737     10.727
REMARK SMILES CC(C)[C@@H](CC(=O)NCCCNC(=O)c1ccc(-c2c3nc(c(-c4c(F)c(F)c(F)c(F)c4F)c4ccc([nH]4)c(-c4c(F)c(F)c(F)c(F)c4F)c4nc(c(-c5c(F)c(F)c(F)c(F)c5F)c5ccc2[nH]5)C=C4)C=C3)cc1)NC(=O)OCc1ccccc1
REMARK SMILES IDX 6 1 7 2 8 3 5 5 4 6 2 7 1 8 3 9 78 10 79 11 80 13 81 14
REMARK SMILES IDX 82 15 83 16 84 17 88 18 85 19 87 20 86 21 9 22 10 23 11 24
REMARK SMILES IDX 12 25 13 26 14 28 15 29 16 30 77 31 17 32 76 33 18 34 19 35
REMARK SMILES IDX 20 36 70 37 21 38 75 39 69 40 71 41 22 42 74 43 68 44 67 45
REMARK SMILES IDX 23 47 55 48 35 49 54 50 36 51 39 52 53 53 72 54 37 55 38 56
REMARK SMILES IDX 52 58 73 59 40 60 24 61 25 62 33 63 26 64 27 65 31 66 34 67
REMARK SMILES IDX 28 68 29 69 32 70 30 71 56 72 57 73 65 74 58 75 59 76 63 77
REMARK SMILES IDX 66 78 60 79 61 80 64 81 62 82 41 83 42 84 50 85 43 86 44 87
REMARK SMILES IDX 48 88 51 89 45 90 46 91 49 92 47 93
REMARK H PARENT 8 4 78 12 12 27 71 46 39 57
REMARK Flexibility Score: inf
ROOT
ATOM      1  C   UNL A   1      36.818  23.140  25.523  1.00  0.00     0.222 C 
ATOM      2  O   UNL A   1      37.181  23.904  26.421  1.00  0.00    -0.275 OA
ATOM      3  N   UNL A   1      37.019  21.810  25.724  1.00  0.00    -0.356 N 
ATOM      4  H   UNL A   1      37.348  21.577  26.621  1.00  0.00     0.163 HD
ENDROOT
BRANCH   1   5
ATOM      5  C   UNL A   1      36.156  23.680  24.266  1.00  0.00     0.125 C 
BRANCH   5   6
ATOM      6  C   UNL A   1      34.610  23.671  24.224  1.00  0.00     0.097 C 
BRANCH   6   7
ATOM      7  C   UNL A   1      33.980  24.786  23.351  1.00  0.00     0.006 C 
ATOM      8  C   UNL A   1      32.671  24.371  22.677  1.00  0.00     0.009 C 
ATOM      9  C   UNL A   1      33.774  26.130  24.061  1.00  0.00     0.009 C 
ENDBRANCH   6   7
BRANCH   6  10
ATOM     10  N   UNL A   1      34.047  23.703  25.571  1.00  0.00    -0.318 N 
ATOM     11  C   UNL A   1      33.430  22.674  26.218  1.00  0.00     0.407 C 
ATOM     12  H   UNL A   1      34.121  24.554  26.061  1.00  0.00     0.167 HD
ATOM     13  O   UNL A   1      32.800  22.859  27.247  1.00  0.00    -0.225 OA
BRANCH  11  14
ATOM     14  O   UNL A   1      33.646  21.478  25.621  1.00  0.00    -0.445 OA
BRANCH  14  15
ATOM     15  C   UNL A   1      32.472  20.800  25.161  1.00  0.00     0.270 C 
BRANCH  15  16
ATOM     16  C   UNL A   1      32.775  19.529  24.394  1.00  0.00    -0.011 A 
ATOM     17  C   UNL A   1      32.183  19.232  23.156  1.00  0.00     0.007 A 
ATOM     18  C   UNL A   1      33.744  18.646  24.893  1.00  0.00     0.007 A 
ATOM     19  C   UNL A   1      32.547  18.094  22.437  1.00  0.00     0.000 A 
ATOM     20  C   UNL A   1      34.104  17.503  24.176  1.00  0.00     0.000 A 
ATOM     21  C   UNL A   1      33.509  17.230  22.947  1.00  0.00     0.000 A 
ENDBRANCH  15  16
ENDBRANCH  14  15
ENDBRANCH  11  14
ENDBRANCH   6  10
ENDBRANCH   5   6
ENDBRANCH   1   5
BRANCH   3  22
ATOM     22  C   UNL A   1      36.829  20.678  24.839  1.00  0.00     0.117 C 
BRANCH  22  23
ATOM     23  C   UNL A   1      37.960  19.663  25.010  1.00  0.00     0.042 C 
BRANCH  23  24
ATOM     24  C   UNL A   1      39.163  20.188  25.769  1.00  0.00     0.118 C 
BRANCH  24  25
ATOM     25  N   UNL A   1      40.193  19.177  25.929  1.00  0.00    -0.352 N 
ATOM     26  C   UNL A   1      41.537  19.315  26.179  1.00  0.00     0.251 C 
ATOM     27  H   UNL A   1      39.880  18.248  25.843  1.00  0.00     0.163 HD
ATOM     28  O   UNL A   1      42.274  18.341  26.048  1.00  0.00    -0.269 OA
BRANCH  26  29
ATOM     29  C   UNL A   1      42.110  20.622  26.579  1.00  0.00     0.039 A 
ATOM     30  C   UNL A   1      42.555  21.496  25.581  1.00  0.00     0.014 A 
ATOM     31  C   UNL A   1      42.244  20.985  27.921  1.00  0.00     0.014 A 
ATOM     32  C   UNL A   1      43.062  22.752  25.926  1.00  0.00     0.010 A 
ATOM     33  C   UNL A   1      42.653  22.272  28.260  1.00  0.00     0.010 A 
ATOM     34  C   UNL A   1      43.074  23.168  27.267  1.00  0.00    -0.014 A 
BRANCH  34  35
ATOM     35  C   UNL A   1      43.522  24.532  27.655  1.00  0.00     0.031 A 
ATOM     36  C   UNL A   1      42.509  25.582  28.024  1.00  0.00     0.074 A 
ATOM     37  C   UNL A   1      44.832  24.845  27.597  1.00  0.00     0.049 A 
ATOM     38  N   UNL A   1      42.691  26.850  28.292  1.00  0.00    -0.248 NA
ATOM     39  C   UNL A   1      41.100  25.158  28.074  1.00  0.00     0.031 C 
ATOM     40  C   UNL A   1      45.904  23.926  27.212  1.00  0.00     0.029 A 
ATOM     41  N   UNL A   1      45.484  26.028  27.843  1.00  0.00    -0.354 N 
ATOM     42  C   UNL A   1      41.425  27.377  28.513  1.00  0.00     0.074 A 
ATOM     43  C   UNL A   1      40.477  26.304  28.310  1.00  0.00     0.031 C 
ATOM     44  C   UNL A   1      47.079  24.573  27.263  1.00  0.00     0.029 A 
ATOM     45  C   UNL A   1      46.841  25.965  27.631  1.00  0.00     0.049 A 
ATOM     46  H   UNL A   1      45.023  26.844  28.145  1.00  0.00     0.167 HD
ATOM     47  C   UNL A   1      41.087  28.638  28.870  1.00  0.00     0.037 A 
ATOM     48  C   UNL A   1      47.783  26.927  27.700  1.00  0.00     0.037 A 
ATOM     49  C   UNL A   1      42.039  29.691  29.108  1.00  0.00     0.049 A 
ATOM     50  C   UNL A   1      47.371  28.326  28.079  1.00  0.00     0.074 A 
ATOM     51  C   UNL A   1      41.805  30.976  29.566  1.00  0.00     0.029 A 
ATOM     52  N   UNL A   1      43.405  29.585  28.893  1.00  0.00    -0.354 N 
ATOM     53  N   UNL A   1      46.182  28.785  28.383  1.00  0.00    -0.248 NA
ATOM     54  C   UNL A   1      48.434  29.341  28.123  1.00  0.00     0.031 C 
ATOM     55  C   UNL A   1      43.018  31.668  29.560  1.00  0.00     0.029 A 
ATOM     56  C   UNL A   1      44.019  30.797  29.164  1.00  0.00     0.049 A 
ATOM     57  H   UNL A   1      43.869  28.770  28.593  1.00  0.00     0.167 HD
ATOM     58  C   UNL A   1      46.357  30.130  28.680  1.00  0.00     0.074 A 
ATOM     59  C   UNL A   1      47.771  30.409  28.540  1.00  0.00     0.031 C 
ATOM     60  C   UNL A   1      45.430  31.054  29.031  1.00  0.00     0.037 A 
BRANCH  47  61
ATOM     61  C   UNL A   1      39.630  28.967  29.022  1.00  0.00     0.064 A 
ATOM     62  C   UNL A   1      38.853  29.413  27.942  1.00  0.00     0.173 A 
ATOM     63  C   UNL A   1      38.985  28.760  30.251  1.00  0.00     0.173 A 
ATOM     64  F   UNL A   1      39.422  29.634  26.747  1.00  0.00    -0.203 F 
ATOM     65  C   UNL A   1      37.491  29.655  28.092  1.00  0.00     0.198 A 
ATOM     66  C   UNL A   1      37.616  28.974  30.390  1.00  0.00     0.198 A 
ATOM     67  F   UNL A   1      39.679  28.329  31.316  1.00  0.00    -0.203 F 
ATOM     68  F   UNL A   1      36.776  30.117  27.055  1.00  0.00    -0.200 F 
ATOM     69  C   UNL A   1      36.871  29.426  29.311  1.00  0.00     0.200 A 
ATOM     70  F   UNL A   1      37.016  28.735  31.564  1.00  0.00    -0.200 F 
ATOM     71  F   UNL A   1      35.555  29.642  29.448  1.00  0.00    -0.200 F 
ENDBRANCH  47  61
BRANCH  48  72
ATOM     72  C   UNL A   1      49.204  26.612  27.390  1.00  0.00     0.064 A 
ATOM     73  C   UNL A   1      50.100  26.237  28.402  1.00  0.00     0.173 A 
ATOM     74  C   UNL A   1      49.709  26.717  26.084  1.00  0.00     0.173 A 
ATOM     75  F   UNL A   1      49.674  26.141  29.670  1.00  0.00    -0.203 F 
ATOM     76  C   UNL A   1      51.448  26.016  28.128  1.00  0.00     0.198 A 
ATOM     77  C   UNL A   1      51.049  26.459  25.805  1.00  0.00     0.198 A 
ATOM     78  F   UNL A   1      48.896  27.066  25.076  1.00  0.00    -0.203 F 
ATOM     79  F   UNL A   1      52.293  25.725  29.125  1.00  0.00    -0.200 F 
ATOM     80  C   UNL A   1      51.920  26.122  26.828  1.00  0.00     0.200 A 
ATOM     81  F   UNL A   1      51.497  26.545  24.545  1.00  0.00    -0.200 F 
ATOM     82  F   UNL A   1      53.217  25.913  26.565  1.00  0.00    -0.200 F 
ENDBRANCH  48  72
BRANCH  60  83
ATOM     83  C   UNL A   1      45.912  32.446  29.321  1.00  0.00     0.064 A 
ATOM     84  C   UNL A   1      46.307  32.834  30.609  1.00  0.00     0.173 A 
ATOM     85  C   UNL A   1      46.042  33.383  28.284  1.00  0.00     0.173 A 
ATOM     86  F   UNL A   1      46.187  31.980  31.638  1.00  0.00    -0.203 F 
ATOM     87  C   UNL A   1      46.797  34.114  30.852  1.00  0.00     0.198 A 
ATOM     88  C   UNL A   1      46.567  34.650  28.524  1.00  0.00     0.198 A 
ATOM     89  F   UNL A   1      45.685  33.060  27.032  1.00  0.00    -0.203 F 
ATOM     90  F   UNL A   1      47.129  34.476  32.100  1.00  0.00    -0.200 F 
ATOM     91  C   UNL A   1      46.938  35.016  29.808  1.00  0.00     0.200 A 
ATOM     92  F   UNL A   1      46.718  35.513  27.510  1.00  0.00    -0.200 F 
ATOM     93  F   UNL A   1      47.428  36.242  30.041  1.00  0.00    -0.200 F 
ENDBRANCH  60  83
ENDBRANCH  34  35
ENDBRANCH  26  29
ENDBRANCH  24  25
ENDBRANCH  23  24
ENDBRANCH  22  23
ENDBRANCH   3  22
TORSDOF 16
ENDMDL
