MODEL 1
REMARK VINA RESULT:     -12.9      0.000      0.000
REMARK SMILES O=C(NCCCNC(=O)[C@H]1CCc2[nH]nc(C(F)(F)F)c2C1)c1ccc(-c2c3nc(c(-c4c(F)c(F)c(F)c(F)c4F)c4ccc([nH]4)c(-c4c(F)c(F)c(F)c(F)c4F)c4nc(c(-c5c(F)c(F)c(F)c(F)c5F)c5ccc2[nH]5)C=C4)C=C3)cc1
REMARK SMILES IDX 4 1 3 2 1 3 2 4 23 6 24 7 85 8 25 9 84 10 26 11 27 12 28 13
REMARK SMILES IDX 78 14 29 15 83 16 77 17 79 18 30 19 82 20 76 21 75 22 31 24
REMARK SMILES IDX 63 25 43 26 62 27 44 28 47 29 61 30 80 31 45 32 46 33 60 35
REMARK SMILES IDX 81 36 48 37 32 38 33 39 41 40 34 41 35 42 39 43 42 44 36 45
REMARK SMILES IDX 37 46 40 47 38 48 64 49 65 50 73 51 66 52 67 53 71 54 74 55
REMARK SMILES IDX 68 56 69 57 72 58 70 59 49 60 50 61 58 62 51 63 52 64 56 65
REMARK SMILES IDX 59 66 53 67 54 68 57 69 55 70 5 71 6 72 7 73 8 74 9 76 10 77
REMARK SMILES IDX 11 78 22 79 12 80 21 81 13 82 16 83 14 84 15 85 17 87 18 88
REMARK SMILES IDX 19 89 20 90
REMARK H PARENT 3 5 79 23 47 34 7 75 14 86
REMARK Flexibility Score: inf
ROOT
ATOM      1  C   UNL A   1      32.684  32.847  27.163  1.00  0.00     0.118 C 
ENDROOT
BRANCH   1   2
ATOM      2  N   UNL A   1      32.440  34.202  27.643  1.00  0.00    -0.352 N 
ATOM      3  O   UNL A   1      32.579  35.945  29.071  1.00  0.00    -0.269 OA
ATOM      4  C   UNL A   1      33.034  34.873  28.684  1.00  0.00     0.251 C 
ATOM      5  H   UNL A   1      31.753  34.707  27.152  1.00  0.00     0.163 HD
BRANCH   4   6
ATOM      6  C   UNL A   1      34.215  34.285  29.348  1.00  0.00     0.039 A 
ATOM      7  C   UNL A   1      35.498  34.584  28.887  1.00  0.00     0.014 A 
ATOM      8  C   UNL A   1      34.038  33.428  30.437  1.00  0.00     0.014 A 
ATOM      9  C   UNL A   1      36.590  33.905  29.409  1.00  0.00     0.010 A 
ATOM     10  C   UNL A   1      35.151  32.824  31.031  1.00  0.00     0.010 A 
ATOM     11  C   UNL A   1      36.432  33.034  30.501  1.00  0.00    -0.014 A 
BRANCH  11  12
ATOM     12  C   UNL A   1      37.647  32.428  31.101  1.00  0.00     0.031 A 
ATOM     13  C   UNL A   1      38.110  32.796  32.481  1.00  0.00     0.074 A 
ATOM     14  C   UNL A   1      38.294  31.479  30.396  1.00  0.00     0.049 A 
ATOM     15  N   UNL A   1      39.105  32.300  33.174  1.00  0.00    -0.248 NA
ATOM     16  C   UNL A   1      37.370  33.860  33.175  1.00  0.00     0.031 C 
ATOM     17  C   UNL A   1      37.946  31.062  29.035  1.00  0.00     0.029 A 
ATOM     18  N   UNL A   1      39.348  30.670  30.730  1.00  0.00    -0.354 N 
ATOM     19  C   UNL A   1      39.118  32.994  34.376  1.00  0.00     0.074 A 
ATOM     20  C   UNL A   1      38.050  33.970  34.309  1.00  0.00     0.031 C 
ATOM     21  C   UNL A   1      38.726  30.035  28.675  1.00  0.00     0.029 A 
ATOM     22  C   UNL A   1      39.670  29.762  29.752  1.00  0.00     0.049 A 
ATOM     23  H   UNL A   1      39.827  30.733  31.587  1.00  0.00     0.167 HD
ATOM     24  C   UNL A   1      39.939  32.820  35.440  1.00  0.00     0.037 A 
ATOM     25  C   UNL A   1      40.627  28.816  29.718  1.00  0.00     0.037 A 
ATOM     26  C   UNL A   1      40.995  31.842  35.499  1.00  0.00     0.049 A 
ATOM     27  C   UNL A   1      41.515  28.646  30.916  1.00  0.00     0.074 A 
ATOM     28  C   UNL A   1      41.882  31.587  36.532  1.00  0.00     0.029 A 
ATOM     29  N   UNL A   1      41.306  30.951  34.481  1.00  0.00    -0.354 N 
ATOM     30  N   UNL A   1      41.504  29.298  32.052  1.00  0.00    -0.248 NA
ATOM     31  C   UNL A   1      42.549  27.608  30.826  1.00  0.00     0.031 C 
ATOM     32  C   UNL A   1      42.749  30.567  36.125  1.00  0.00     0.029 A 
ATOM     33  C   UNL A   1      42.375  30.154  34.857  1.00  0.00     0.049 A 
ATOM     34  H   UNL A   1      40.835  30.893  33.618  1.00  0.00     0.167 HD
ATOM     35  C   UNL A   1      42.524  28.751  32.815  1.00  0.00     0.074 A 
ATOM     36  C   UNL A   1      43.109  27.687  32.025  1.00  0.00     0.031 C 
ATOM     37  C   UNL A   1      42.948  29.106  34.052  1.00  0.00     0.037 A 
BRANCH  24  38
ATOM     38  C   UNL A   1      39.736  33.711  36.631  1.00  0.00     0.064 A 
ATOM     39  C   UNL A   1      40.332  34.978  36.709  1.00  0.00     0.173 A 
ATOM     40  C   UNL A   1      38.887  33.321  37.679  1.00  0.00     0.173 A 
ATOM     41  F   UNL A   1      41.161  35.395  35.741  1.00  0.00    -0.203 F 
ATOM     42  C   UNL A   1      40.099  35.815  37.799  1.00  0.00     0.198 A 
ATOM     43  C   UNL A   1      38.637  34.169  38.754  1.00  0.00     0.198 A 
ATOM     44  F   UNL A   1      38.288  32.121  37.652  1.00  0.00    -0.203 F 
ATOM     45  F   UNL A   1      40.707  37.007  37.868  1.00  0.00    -0.200 F 
ATOM     46  C   UNL A   1      39.246  35.413  38.816  1.00  0.00     0.200 A 
ATOM     47  F   UNL A   1      37.803  33.785  39.731  1.00  0.00    -0.200 F 
ATOM     48  F   UNL A   1      39.015  36.224  39.858  1.00  0.00    -0.200 F 
ENDBRANCH  24  38
BRANCH  25  49
ATOM     49  C   UNL A   1      40.788  27.973  28.507  1.00  0.00     0.064 A 
ATOM     50  C   UNL A   1      40.151  26.732  28.395  1.00  0.00     0.173 A 
ATOM     51  C   UNL A   1      41.576  28.403  27.428  1.00  0.00     0.173 A 
ATOM     52  F   UNL A   1      39.399  26.271  29.407  1.00  0.00    -0.203 F 
ATOM     53  C   UNL A   1      40.308  25.943  27.258  1.00  0.00     0.198 A 
ATOM     54  C   UNL A   1      41.706  27.629  26.279  1.00  0.00     0.198 A 
ATOM     55  F   UNL A   1      42.200  29.589  27.483  1.00  0.00    -0.203 F 
ATOM     56  F   UNL A   1      39.723  24.739  27.193  1.00  0.00    -0.200 F 
ATOM     57  C   UNL A   1      41.080  26.395  26.198  1.00  0.00     0.200 A 
ATOM     58  F   UNL A   1      42.436  28.081  25.249  1.00  0.00    -0.200 F 
ATOM     59  F   UNL A   1      41.224  25.640  25.101  1.00  0.00    -0.200 F 
ENDBRANCH  25  49
BRANCH  37  60
ATOM     60  C   UNL A   1      44.096  28.325  34.620  1.00  0.00     0.064 A 
ATOM     61  C   UNL A   1      45.423  28.741  34.439  1.00  0.00     0.173 A 
ATOM     62  C   UNL A   1      43.866  27.151  35.350  1.00  0.00     0.173 A 
ATOM     63  F   UNL A   1      45.694  29.849  33.732  1.00  0.00    -0.203 F 
ATOM     64  C   UNL A   1      46.482  27.990  34.943  1.00  0.00     0.198 A 
ATOM     65  C   UNL A   1      44.926  26.418  35.877  1.00  0.00     0.198 A 
ATOM     66  F   UNL A   1      42.614  26.714  35.553  1.00  0.00    -0.203 F 
ATOM     67  F   UNL A   1      47.743  28.376  34.710  1.00  0.00    -0.200 F 
ATOM     68  C   UNL A   1      46.232  26.833  35.665  1.00  0.00     0.200 A 
ATOM     69  F   UNL A   1      44.684  25.305  36.582  1.00  0.00    -0.200 F 
ATOM     70  F   UNL A   1      47.253  26.110  36.145  1.00  0.00    -0.200 F 
ENDBRANCH  37  60
ENDBRANCH  11  12
ENDBRANCH   4   6
ENDBRANCH   1   2
BRANCH   1  71
ATOM     71  C   UNL A   1      31.412  32.157  26.687  1.00  0.00     0.042 C 
BRANCH  71  72
ATOM     72  C   UNL A   1      31.655  30.759  26.134  1.00  0.00     0.117 C 
BRANCH  72  73
ATOM     73  N   UNL A   1      31.663  29.787  27.210  1.00  0.00    -0.356 N 
ATOM     74  C   UNL A   1      31.817  28.436  27.130  1.00  0.00     0.223 C 
ATOM     75  H   UNL A   1      31.541  30.151  28.117  1.00  0.00     0.163 HD
ATOM     76  O   UNL A   1      31.377  27.760  28.057  1.00  0.00    -0.275 OA
BRANCH  74  77
ATOM     77  C   UNL A   1      32.560  27.850  25.931  1.00  0.00     0.083 C 
ATOM     78  C   UNL A   1      32.570  26.298  26.023  1.00  0.00     0.020 C 
ATOM     79  C   UNL A   1      31.909  28.315  24.604  1.00  0.00     0.053 C 
ATOM     80  C   UNL A   1      31.153  25.684  25.992  1.00  0.00     0.057 C 
ATOM     81  C   UNL A   1      30.640  27.575  24.350  1.00  0.00     0.006 A 
ATOM     82  C   UNL A   1      30.334  26.390  24.981  1.00  0.00     0.039 A 
ATOM     83  C   UNL A   1      29.507  27.875  23.546  1.00  0.00     0.169 A 
ATOM     84  N   UNL A   1      29.081  26.055  24.582  1.00  0.00    -0.282 N 
ATOM     85  N   UNL A   1      28.567  26.913  23.683  1.00  0.00    -0.171 NA
ATOM     86  H   UNL A   1      28.598  25.264  24.916  1.00  0.00     0.190 HD
BRANCH  83  87
ATOM     87  C   UNL A   1      29.309  29.082  22.665  1.00  0.00     0.435 C 
ATOM     88  F   UNL A   1      30.255  29.180  21.691  1.00  0.00    -0.164 F 
ATOM     89  F   UNL A   1      28.099  29.082  22.041  1.00  0.00    -0.164 F 
ATOM     90  F   UNL A   1      29.375  30.250  23.367  1.00  0.00    -0.164 F 
ENDBRANCH  83  87
ENDBRANCH  74  77
ENDBRANCH  72  73
ENDBRANCH  71  72
ENDBRANCH   1  71
TORSDOF 11
ENDMDL
MODEL 2
REMARK VINA RESULT:     -12.9      1.785      2.171
REMARK SMILES O=C(NCCCNC(=O)[C@H]1CCc2[nH]nc(C(F)(F)F)c2C1)c1ccc(-c2c3nc(c(-c4c(F)c(F)c(F)c(F)c4F)c4ccc([nH]4)c(-c4c(F)c(F)c(F)c(F)c4F)c4nc(c(-c5c(F)c(F)c(F)c(F)c5F)c5ccc2[nH]5)C=C4)C=C3)cc1
REMARK SMILES IDX 4 1 3 2 1 3 2 4 23 6 24 7 85 8 25 9 84 10 26 11 27 12 28 13
REMARK SMILES IDX 78 14 29 15 83 16 77 17 79 18 30 19 82 20 76 21 75 22 31 24
REMARK SMILES IDX 63 25 43 26 62 27 44 28 47 29 61 30 80 31 45 32 46 33 60 35
REMARK SMILES IDX 81 36 48 37 32 38 33 39 41 40 34 41 35 42 39 43 42 44 36 45
REMARK SMILES IDX 37 46 40 47 38 48 64 49 65 50 73 51 66 52 67 53 71 54 74 55
REMARK SMILES IDX 68 56 69 57 72 58 70 59 49 60 50 61 58 62 51 63 52 64 56 65
REMARK SMILES IDX 59 66 53 67 54 68 57 69 55 70 5 71 6 72 7 73 8 74 9 76 10 77
REMARK SMILES IDX 11 78 22 79 12 80 21 81 13 82 16 83 14 84 15 85 17 87 18 88
REMARK SMILES IDX 19 89 20 90
REMARK H PARENT 3 5 79 23 47 34 7 75 14 86
REMARK Flexibility Score: inf
ROOT
ATOM      1  C   UNL A   1      32.627  32.858  27.188  1.00  0.00     0.118 C 
ENDROOT
BRANCH   1   2
ATOM      2  N   UNL A   1      32.406  34.224  27.646  1.00  0.00    -0.352 N 
ATOM      3  O   UNL A   1      32.582  35.991  29.041  1.00  0.00    -0.269 OA
ATOM      4  C   UNL A   1      33.019  34.906  28.669  1.00  0.00     0.251 C 
ATOM      5  H   UNL A   1      31.720  34.729  27.153  1.00  0.00     0.163 HD
BRANCH   4   6
ATOM      6  C   UNL A   1      34.199  34.315  29.331  1.00  0.00     0.039 A 
ATOM      7  C   UNL A   1      35.482  34.605  28.865  1.00  0.00     0.014 A 
ATOM      8  C   UNL A   1      34.022  33.464  30.425  1.00  0.00     0.014 A 
ATOM      9  C   UNL A   1      36.572  33.923  29.386  1.00  0.00     0.010 A 
ATOM     10  C   UNL A   1      35.133  32.857  31.017  1.00  0.00     0.010 A 
ATOM     11  C   UNL A   1      36.414  33.058  30.482  1.00  0.00    -0.014 A 
BRANCH  11  12
ATOM     12  C   UNL A   1      37.628  32.448  31.081  1.00  0.00     0.031 A 
ATOM     13  C   UNL A   1      38.094  32.816  32.460  1.00  0.00     0.074 A 
ATOM     14  C   UNL A   1      38.270  31.495  30.377  1.00  0.00     0.049 A 
ATOM     15  N   UNL A   1      39.089  32.317  33.151  1.00  0.00    -0.248 NA
ATOM     16  C   UNL A   1      37.360  33.884  33.154  1.00  0.00     0.031 C 
ATOM     17  C   UNL A   1      37.917  31.078  29.016  1.00  0.00     0.029 A 
ATOM     18  N   UNL A   1      39.322  30.683  30.710  1.00  0.00    -0.354 N 
ATOM     19  C   UNL A   1      39.107  33.013  34.353  1.00  0.00     0.074 A 
ATOM     20  C   UNL A   1      38.042  33.993  34.286  1.00  0.00     0.031 C 
ATOM     21  C   UNL A   1      38.693  30.048  28.657  1.00  0.00     0.029 A 
ATOM     22  C   UNL A   1      39.638  29.773  29.732  1.00  0.00     0.049 A 
ATOM     23  H   UNL A   1      39.802  30.746  31.566  1.00  0.00     0.167 HD
ATOM     24  C   UNL A   1      39.929  32.838  35.415  1.00  0.00     0.037 A 
ATOM     25  C   UNL A   1      40.591  28.824  29.698  1.00  0.00     0.037 A 
ATOM     26  C   UNL A   1      40.982  31.856  35.474  1.00  0.00     0.049 A 
ATOM     27  C   UNL A   1      41.482  28.652  30.895  1.00  0.00     0.074 A 
ATOM     28  C   UNL A   1      41.869  31.599  36.505  1.00  0.00     0.029 A 
ATOM     29  N   UNL A   1      41.287  30.962  34.457  1.00  0.00    -0.354 N 
ATOM     30  N   UNL A   1      41.475  29.306  32.030  1.00  0.00    -0.248 NA
ATOM     31  C   UNL A   1      42.512  27.610  30.804  1.00  0.00     0.031 C 
ATOM     32  C   UNL A   1      42.732  30.575  36.099  1.00  0.00     0.029 A 
ATOM     33  C   UNL A   1      42.355  30.162  34.832  1.00  0.00     0.049 A 
ATOM     34  H   UNL A   1      40.815  30.906  33.595  1.00  0.00     0.167 HD
ATOM     35  C   UNL A   1      42.494  28.756  32.791  1.00  0.00     0.074 A 
ATOM     36  C   UNL A   1      43.074  27.689  32.001  1.00  0.00     0.031 C 
ATOM     37  C   UNL A   1      42.922  29.111  34.027  1.00  0.00     0.037 A 
BRANCH  24  38
ATOM     38  C   UNL A   1      39.731  33.731  36.605  1.00  0.00     0.064 A 
ATOM     39  C   UNL A   1      40.324  35.001  36.676  1.00  0.00     0.173 A 
ATOM     40  C   UNL A   1      38.891  33.341  37.660  1.00  0.00     0.173 A 
ATOM     41  F   UNL A   1      41.145  35.417  35.702  1.00  0.00    -0.203 F 
ATOM     42  C   UNL A   1      40.096  35.839  37.765  1.00  0.00     0.198 A 
ATOM     43  C   UNL A   1      38.646  34.191  38.735  1.00  0.00     0.198 A 
ATOM     44  F   UNL A   1      38.295  32.139  37.640  1.00  0.00    -0.203 F 
ATOM     45  F   UNL A   1      40.701  37.034  37.828  1.00  0.00    -0.200 F 
ATOM     46  C   UNL A   1      39.252  35.438  38.789  1.00  0.00     0.200 A 
ATOM     47  F   UNL A   1      37.820  33.807  39.719  1.00  0.00    -0.200 F 
ATOM     48  F   UNL A   1      39.025  36.250  39.831  1.00  0.00    -0.200 F 
ENDBRANCH  24  38
BRANCH  25  49
ATOM     49  C   UNL A   1      40.748  27.979  28.488  1.00  0.00     0.064 A 
ATOM     50  C   UNL A   1      40.118  26.732  28.386  1.00  0.00     0.173 A 
ATOM     51  C   UNL A   1      41.522  28.411  27.400  1.00  0.00     0.173 A 
ATOM     52  F   UNL A   1      39.380  26.268  29.405  1.00  0.00    -0.203 F 
ATOM     53  C   UNL A   1      40.271  25.941  27.249  1.00  0.00     0.198 A 
ATOM     54  C   UNL A   1      41.647  27.635  26.252  1.00  0.00     0.198 A 
ATOM     55  F   UNL A   1      42.138  29.601  27.446  1.00  0.00    -0.203 F 
ATOM     56  F   UNL A   1      39.694  24.733  27.193  1.00  0.00    -0.200 F 
ATOM     57  C   UNL A   1      41.029  26.396  26.180  1.00  0.00     0.200 A 
ATOM     58  F   UNL A   1      42.364  28.088  25.214  1.00  0.00    -0.200 F 
ATOM     59  F   UNL A   1      41.169  25.639  25.084  1.00  0.00    -0.200 F 
ENDBRANCH  25  49
BRANCH  37  60
ATOM     60  C   UNL A   1      44.068  28.326  34.594  1.00  0.00     0.064 A 
ATOM     61  C   UNL A   1      45.396  28.738  34.412  1.00  0.00     0.173 A 
ATOM     62  C   UNL A   1      43.835  27.153  35.326  1.00  0.00     0.173 A 
ATOM     63  F   UNL A   1      45.669  29.845  33.703  1.00  0.00    -0.203 F 
ATOM     64  C   UNL A   1      46.453  27.984  34.915  1.00  0.00     0.198 A 
ATOM     65  C   UNL A   1      44.894  26.418  35.851  1.00  0.00     0.198 A 
ATOM     66  F   UNL A   1      42.582  26.721  35.530  1.00  0.00    -0.203 F 
ATOM     67  F   UNL A   1      47.716  28.366  34.679  1.00  0.00    -0.200 F 
ATOM     68  C   UNL A   1      46.201  26.828  35.637  1.00  0.00     0.200 A 
ATOM     69  F   UNL A   1      44.648  25.306  36.557  1.00  0.00    -0.200 F 
ATOM     70  F   UNL A   1      47.220  26.102  36.117  1.00  0.00    -0.200 F 
ENDBRANCH  37  60
ENDBRANCH  11  12
ENDBRANCH   4   6
ENDBRANCH   1   2
BRANCH   1  71
ATOM     71  C   UNL A   1      31.397  32.257  26.521  1.00  0.00     0.042 C 
BRANCH  71  72
ATOM     72  C   UNL A   1      31.422  30.735  26.468  1.00  0.00     0.117 C 
BRANCH  72  73
ATOM     73  N   UNL A   1      32.485  30.280  25.593  1.00  0.00    -0.356 N 
ATOM     74  C   UNL A   1      32.759  29.010  25.184  1.00  0.00     0.223 C 
ATOM     75  H   UNL A   1      33.087  30.980  25.250  1.00  0.00     0.163 HD
ATOM     76  O   UNL A   1      33.907  28.770  24.816  1.00  0.00    -0.275 OA
BRANCH  74  77
ATOM     77  C   UNL A   1      31.629  27.985  25.160  1.00  0.00     0.083 C 
ATOM     78  C   UNL A   1      30.636  28.319  24.011  1.00  0.00     0.020 C 
ATOM     79  C   UNL A   1      32.194  26.551  24.996  1.00  0.00     0.053 C 
ATOM     80  C   UNL A   1      31.293  28.266  22.614  1.00  0.00     0.057 C 
ATOM     81  C   UNL A   1      32.622  26.311  23.588  1.00  0.00     0.006 A 
ATOM     82  C   UNL A   1      32.192  27.091  22.538  1.00  0.00     0.039 A 
ATOM     83  C   UNL A   1      33.528  25.378  23.015  1.00  0.00     0.169 A 
ATOM     84  N   UNL A   1      32.846  26.647  21.435  1.00  0.00    -0.282 N 
ATOM     85  N   UNL A   1      33.634  25.585  21.682  1.00  0.00    -0.171 NA
ATOM     86  H   UNL A   1      32.752  27.059  20.546  1.00  0.00     0.190 HD
BRANCH  83  87
ATOM     87  C   UNL A   1      34.308  24.306  23.731  1.00  0.00     0.435 C 
ATOM     88  F   UNL A   1      34.993  23.497  22.878  1.00  0.00    -0.164 F 
ATOM     89  F   UNL A   1      35.216  24.815  24.608  1.00  0.00    -0.164 F 
ATOM     90  F   UNL A   1      33.500  23.480  24.458  1.00  0.00    -0.164 F 
ENDBRANCH  83  87
ENDBRANCH  74  77
ENDBRANCH  72  73
ENDBRANCH  71  72
ENDBRANCH   1  71
TORSDOF 11
ENDMDL
MODEL 3
REMARK VINA RESULT:     -12.9      0.042      1.153
REMARK SMILES O=C(NCCCNC(=O)[C@H]1CCc2[nH]nc(C(F)(F)F)c2C1)c1ccc(-c2c3nc(c(-c4c(F)c(F)c(F)c(F)c4F)c4ccc([nH]4)c(-c4c(F)c(F)c(F)c(F)c4F)c4nc(c(-c5c(F)c(F)c(F)c(F)c5F)c5ccc2[nH]5)C=C4)C=C3)cc1
REMARK SMILES IDX 4 1 3 2 1 3 2 4 23 6 24 7 85 8 25 9 84 10 26 11 27 12 28 13
REMARK SMILES IDX 78 14 29 15 83 16 77 17 79 18 30 19 82 20 76 21 75 22 31 24
REMARK SMILES IDX 63 25 43 26 62 27 44 28 47 29 61 30 80 31 45 32 46 33 60 35
REMARK SMILES IDX 81 36 48 37 32 38 33 39 41 40 34 41 35 42 39 43 42 44 36 45
REMARK SMILES IDX 37 46 40 47 38 48 64 49 65 50 73 51 66 52 67 53 71 54 74 55
REMARK SMILES IDX 68 56 69 57 72 58 70 59 49 60 50 61 58 62 51 63 52 64 56 65
REMARK SMILES IDX 59 66 53 67 54 68 57 69 55 70 5 71 6 72 7 73 8 74 9 76 10 77
REMARK SMILES IDX 11 78 22 79 12 80 21 81 13 82 16 83 14 84 15 85 17 87 18 88
REMARK SMILES IDX 19 89 20 90
REMARK H PARENT 3 5 79 23 47 34 7 75 14 86
REMARK Flexibility Score: inf
ROOT
ATOM      1  C   UNL A   1      32.684  32.848  27.169  1.00  0.00     0.118 C 
ENDROOT
BRANCH   1   2
ATOM      2  N   UNL A   1      32.440  34.204  27.645  1.00  0.00    -0.352 N 
ATOM      3  O   UNL A   1      32.580  35.952  29.068  1.00  0.00    -0.269 OA
ATOM      4  C   UNL A   1      33.035  34.879  28.683  1.00  0.00     0.251 C 
ATOM      5  H   UNL A   1      31.751  34.707  27.154  1.00  0.00     0.163 HD
BRANCH   4   6
ATOM      6  C   UNL A   1      34.218  34.295  29.346  1.00  0.00     0.039 A 
ATOM      7  C   UNL A   1      35.499  34.584  28.875  1.00  0.00     0.014 A 
ATOM      8  C   UNL A   1      34.045  33.451  30.446  1.00  0.00     0.014 A 
ATOM      9  C   UNL A   1      36.592  33.907  29.397  1.00  0.00     0.010 A 
ATOM     10  C   UNL A   1      35.159  32.850  31.040  1.00  0.00     0.010 A 
ATOM     11  C   UNL A   1      36.438  33.050  30.500  1.00  0.00    -0.014 A 
BRANCH  11  12
ATOM     12  C   UNL A   1      37.655  32.446  31.099  1.00  0.00     0.031 A 
ATOM     13  C   UNL A   1      38.117  32.815  32.479  1.00  0.00     0.074 A 
ATOM     14  C   UNL A   1      38.303  31.498  30.395  1.00  0.00     0.049 A 
ATOM     15  N   UNL A   1      39.113  32.321  33.172  1.00  0.00    -0.248 NA
ATOM     16  C   UNL A   1      37.375  33.877  33.174  1.00  0.00     0.031 C 
ATOM     17  C   UNL A   1      37.955  31.081  29.033  1.00  0.00     0.029 A 
ATOM     18  N   UNL A   1      39.359  30.692  30.728  1.00  0.00    -0.354 N 
ATOM     19  C   UNL A   1      39.125  33.015  34.374  1.00  0.00     0.074 A 
ATOM     20  C   UNL A   1      38.055  33.989  34.308  1.00  0.00     0.031 C 
ATOM     21  C   UNL A   1      38.738  30.056  28.673  1.00  0.00     0.029 A 
ATOM     22  C   UNL A   1      39.683  29.784  29.749  1.00  0.00     0.049 A 
ATOM     23  H   UNL A   1      39.838  30.756  31.585  1.00  0.00     0.167 HD
ATOM     24  C   UNL A   1      39.947  32.842  35.438  1.00  0.00     0.037 A 
ATOM     25  C   UNL A   1      40.641  28.841  29.716  1.00  0.00     0.037 A 
ATOM     26  C   UNL A   1      41.005  31.866  35.496  1.00  0.00     0.049 A 
ATOM     27  C   UNL A   1      41.531  28.673  30.913  1.00  0.00     0.074 A 
ATOM     28  C   UNL A   1      41.892  31.614  36.529  1.00  0.00     0.029 A 
ATOM     29  N   UNL A   1      41.317  30.977  34.479  1.00  0.00    -0.354 N 
ATOM     30  N   UNL A   1      41.518  29.325  32.049  1.00  0.00    -0.248 NA
ATOM     31  C   UNL A   1      42.567  27.637  30.822  1.00  0.00     0.031 C 
ATOM     32  C   UNL A   1      42.762  30.595  36.122  1.00  0.00     0.029 A 
ATOM     33  C   UNL A   1      42.389  30.182  34.854  1.00  0.00     0.049 A 
ATOM     34  H   UNL A   1      40.846  30.918  33.616  1.00  0.00     0.167 HD
ATOM     35  C   UNL A   1      42.540  28.780  32.811  1.00  0.00     0.074 A 
ATOM     36  C   UNL A   1      43.128  27.717  32.021  1.00  0.00     0.031 C 
ATOM     37  C   UNL A   1      42.964  29.135  34.049  1.00  0.00     0.037 A 
BRANCH  24  38
ATOM     38  C   UNL A   1      39.742  33.733  36.629  1.00  0.00     0.064 A 
ATOM     39  C   UNL A   1      40.333  35.003  36.706  1.00  0.00     0.173 A 
ATOM     40  C   UNL A   1      38.896  33.340  37.678  1.00  0.00     0.173 A 
ATOM     41  F   UNL A   1      41.159  35.422  35.737  1.00  0.00    -0.203 F 
ATOM     42  C   UNL A   1      40.098  35.838  37.796  1.00  0.00     0.198 A 
ATOM     43  C   UNL A   1      38.645  34.187  38.754  1.00  0.00     0.198 A 
ATOM     44  F   UNL A   1      38.302  32.138  37.652  1.00  0.00    -0.203 F 
ATOM     45  F   UNL A   1      40.703  37.033  37.865  1.00  0.00    -0.200 F 
ATOM     46  C   UNL A   1      39.249  35.434  38.814  1.00  0.00     0.200 A 
ATOM     47  F   UNL A   1      37.814  33.799  39.732  1.00  0.00    -0.200 F 
ATOM     48  F   UNL A   1      39.016  36.243  39.857  1.00  0.00    -0.200 F 
ENDBRANCH  24  38
BRANCH  25  49
ATOM     49  C   UNL A   1      40.805  27.999  28.505  1.00  0.00     0.064 A 
ATOM     50  C   UNL A   1      40.170  26.756  28.393  1.00  0.00     0.173 A 
ATOM     51  C   UNL A   1      41.591  28.431  27.425  1.00  0.00     0.173 A 
ATOM     52  F   UNL A   1      39.420  26.293  29.404  1.00  0.00    -0.203 F 
ATOM     53  C   UNL A   1      40.329  25.968  27.255  1.00  0.00     0.198 A 
ATOM     54  C   UNL A   1      41.723  27.657  26.275  1.00  0.00     0.198 A 
ATOM     55  F   UNL A   1      42.213  29.618  27.480  1.00  0.00    -0.203 F 
ATOM     56  F   UNL A   1      39.746  24.762  27.191  1.00  0.00    -0.200 F 
ATOM     57  C   UNL A   1      41.099  26.422  26.194  1.00  0.00     0.200 A 
ATOM     58  F   UNL A   1      42.451  28.110  25.246  1.00  0.00    -0.200 F 
ATOM     59  F   UNL A   1      41.245  25.667  25.098  1.00  0.00    -0.200 F 
ENDBRANCH  25  49
BRANCH  37  60
ATOM     60  C   UNL A   1      44.114  28.357  34.616  1.00  0.00     0.064 A 
ATOM     61  C   UNL A   1      43.907  27.181  35.352  1.00  0.00     0.173 A 
ATOM     62  C   UNL A   1      45.433  28.790  34.420  1.00  0.00     0.173 A 
ATOM     63  F   UNL A   1      42.662  26.737  35.581  1.00  0.00    -0.203 F 
ATOM     64  C   UNL A   1      44.980  26.485  35.901  1.00  0.00     0.198 A 
ATOM     65  C   UNL A   1      46.505  28.075  34.946  1.00  0.00     0.198 A 
ATOM     66  F   UNL A   1      45.682  29.906  33.719  1.00  0.00    -0.203 F 
ATOM     67  F   UNL A   1      44.756  25.397  36.650  1.00  0.00    -0.200 F 
ATOM     68  C   UNL A   1      46.277  26.930  35.694  1.00  0.00     0.200 A 
ATOM     69  F   UNL A   1      47.758  28.501  34.738  1.00  0.00    -0.200 F 
ATOM     70  F   UNL A   1      47.308  26.260  36.228  1.00  0.00    -0.200 F 
ENDBRANCH  37  60
ENDBRANCH  11  12
ENDBRANCH   4   6
ENDBRANCH   1   2
BRANCH   1  71
ATOM     71  C   UNL A   1      31.414  32.160  26.685  1.00  0.00     0.042 C 
BRANCH  71  72
ATOM     72  C   UNL A   1      31.660  30.764  26.129  1.00  0.00     0.117 C 
BRANCH  72  73
ATOM     73  N   UNL A   1      31.667  29.788  27.201  1.00  0.00    -0.356 N 
ATOM     74  C   UNL A   1      31.817  28.437  27.117  1.00  0.00     0.223 C 
ATOM     75  H   UNL A   1      31.547  30.150  28.110  1.00  0.00     0.163 HD
ATOM     76  O   UNL A   1      31.376  27.760  28.043  1.00  0.00    -0.275 OA
BRANCH  74  77
ATOM     77  C   UNL A   1      32.556  27.853  25.915  1.00  0.00     0.083 C 
ATOM     78  C   UNL A   1      32.571  26.301  26.007  1.00  0.00     0.020 C 
ATOM     79  C   UNL A   1      31.899  28.317  24.590  1.00  0.00     0.053 C 
ATOM     80  C   UNL A   1      31.156  25.683  25.983  1.00  0.00     0.057 C 
ATOM     81  C   UNL A   1      30.631  27.572  24.342  1.00  0.00     0.006 A 
ATOM     82  C   UNL A   1      30.331  26.387  24.974  1.00  0.00     0.039 A 
ATOM     83  C   UNL A   1      29.494  27.870  23.543  1.00  0.00     0.169 A 
ATOM     84  N   UNL A   1      29.076  26.048  24.581  1.00  0.00    -0.282 N 
ATOM     85  N   UNL A   1      28.556  26.905  23.684  1.00  0.00    -0.171 NA
ATOM     86  H   UNL A   1      28.597  25.257  24.917  1.00  0.00     0.190 HD
BRANCH  83  87
ATOM     87  C   UNL A   1      29.289  29.076  22.662  1.00  0.00     0.435 C 
ATOM     88  F   UNL A   1      30.233  29.179  21.687  1.00  0.00    -0.164 F 
ATOM     89  F   UNL A   1      28.078  29.071  22.041  1.00  0.00    -0.164 F 
ATOM     90  F   UNL A   1      29.351  30.244  23.365  1.00  0.00    -0.164 F 
ENDBRANCH  83  87
ENDBRANCH  74  77
ENDBRANCH  72  73
ENDBRANCH  71  72
ENDBRANCH   1  71
TORSDOF 11
ENDMDL
