MODEL 1
REMARK VINA RESULT:     -12.4      0.000      0.000
REMARK SMILES NC(=O)c1c(F)cccc1N1CCC[C@H](CC(=O)NCCCNC(=O)c2ccc(-c3c4nc(c(-c5c(F)c(F)c(F)c(F)c5F)c5ccc([nH]5)c(-c5c(F)c(F)c(F)c(F)c5F)c5nc(c(-c6c(F)c(F)c(F)c(F)c6F)c6ccc3[nH]6)C=C5)C=C4)cc2)C1
REMARK SMILES IDX 20 1 19 2 17 3 18 4 16 6 15 7 11 8 12 9 89 10 13 11 14 12
REMARK SMILES IDX 10 13 4 14 5 15 6 16 7 17 9 18 8 19 2 20 1 21 3 24 21 25
REMARK SMILES IDX 22 26 23 27 24 28 25 30 26 31 27 32 88 33 28 34 87 35 29 36
REMARK SMILES IDX 30 37 31 38 81 39 32 40 86 41 80 42 82 43 33 44 85 45 79 46
REMARK SMILES IDX 78 47 34 49 66 50 46 51 65 52 47 53 50 54 64 55 83 56 48 57
REMARK SMILES IDX 49 58 63 60 84 61 51 62 35 63 36 64 44 65 37 66 38 67 42 68
REMARK SMILES IDX 45 69 39 70 40 71 43 72 41 73 67 74 68 75 76 76 69 77 70 78
REMARK SMILES IDX 74 79 77 80 71 81 72 82 75 83 73 84 52 85 53 86 61 87 54 88
REMARK SMILES IDX 55 89 59 90 62 91 56 92 57 93 60 94 58 95
REMARK H PARENT 19 5 1 22 1 23 23 29 82 48 50 59
REMARK Flexibility Score: inf
ROOT
ATOM      1  C   UNL A   1      37.157  20.658  24.739  1.00  0.00     0.117 C 
ENDROOT
BRANCH   1   2
ATOM      2  N   UNL A   1      35.894  20.329  25.377  1.00  0.00    -0.356 N 
ATOM      3  C   UNL A   1      34.833  21.133  25.666  1.00  0.00     0.220 C 
ATOM      4  O   UNL A   1      33.934  20.681  26.378  1.00  0.00    -0.275 OA
ATOM      5  H   UNL A   1      35.788  19.386  25.638  1.00  0.00     0.163 HD
BRANCH   3   6
ATOM      6  C   UNL A   1      34.742  22.529  25.090  1.00  0.00     0.105 C 
BRANCH   6   7
ATOM      7  C   UNL A   1      34.225  22.579  23.636  1.00  0.00     0.018 C 
ATOM      8  N   UNL A   1      33.095  24.687  23.997  1.00  0.00    -0.371 N 
ATOM      9  C   UNL A   1      31.731  24.191  23.832  1.00  0.00     0.116 C 
ATOM     10  C   UNL A   1      34.129  24.045  23.186  1.00  0.00     0.120 C 
ATOM     11  C   UNL A   1      31.712  22.694  24.148  1.00  0.00     0.022 C 
ATOM     12  C   UNL A   1      32.836  21.949  23.420  1.00  0.00     0.008 C 
BRANCH   8  13
ATOM     13  C   UNL A   1      33.270  26.001  24.401  1.00  0.00     0.053 A 
ATOM     14  C   UNL A   1      33.258  27.122  23.552  1.00  0.00     0.098 A 
ATOM     15  C   UNL A   1      33.576  28.386  24.057  1.00  0.00     0.138 A 
ATOM     16  F   UNL A   1      33.587  29.463  23.257  1.00  0.00    -0.206 F 
ATOM     17  C   UNL A   1      33.896  28.565  25.400  1.00  0.00     0.040 A 
ATOM     18  C   UNL A   1      33.565  26.211  25.763  1.00  0.00     0.027 A 
ATOM     19  C   UNL A   1      33.881  27.475  26.261  1.00  0.00     0.005 A 
BRANCH  14  20
ATOM     20  C   UNL A   1      32.857  27.010  22.133  1.00  0.00     0.253 C 
ATOM     21  N   UNL A   1      31.546  27.270  21.847  1.00  0.00    -0.365 N 
ATOM     22  H   UNL A   1      31.223  27.211  20.918  1.00  0.00     0.159 HD
ATOM     23  H   UNL A   1      30.924  27.518  22.569  1.00  0.00     0.159 HD
ATOM     24  O   UNL A   1      33.653  26.720  21.248  1.00  0.00    -0.269 OA
ENDBRANCH  14  20
ENDBRANCH   8  13
ENDBRANCH   6   7
ENDBRANCH   3   6
ENDBRANCH   1   2
BRANCH   1  25
ATOM     25  C   UNL A   1      38.186  19.565  25.001  1.00  0.00     0.042 C 
BRANCH  25  26
ATOM     26  C   UNL A   1      39.207  19.935  26.062  1.00  0.00     0.118 C 
BRANCH  26  27
ATOM     27  N   UNL A   1      40.349  19.038  26.062  1.00  0.00    -0.352 N 
ATOM     28  C   UNL A   1      41.693  19.313  26.126  1.00  0.00     0.251 C 
ATOM     29  H   UNL A   1      40.126  18.081  26.006  1.00  0.00     0.163 HD
ATOM     30  O   UNL A   1      42.500  18.412  25.911  1.00  0.00    -0.269 OA
BRANCH  28  31
ATOM     31  C   UNL A   1      42.188  20.679  26.430  1.00  0.00     0.039 A 
ATOM     32  C   UNL A   1      42.460  21.545  25.364  1.00  0.00     0.014 A 
ATOM     33  C   UNL A   1      42.433  21.106  27.737  1.00  0.00     0.014 A 
ATOM     34  C   UNL A   1      42.925  22.840  25.611  1.00  0.00     0.010 A 
ATOM     35  C   UNL A   1      42.798  22.428  27.988  1.00  0.00     0.010 A 
ATOM     36  C   UNL A   1      43.070  23.304  26.928  1.00  0.00    -0.014 A 
BRANCH  36  37
ATOM     37  C   UNL A   1      43.542  24.684  27.217  1.00  0.00     0.031 A 
ATOM     38  C   UNL A   1      42.583  25.709  27.763  1.00  0.00     0.074 A 
ATOM     39  C   UNL A   1      44.816  25.031  26.948  1.00  0.00     0.049 A 
ATOM     40  N   UNL A   1      42.779  26.981  28.004  1.00  0.00    -0.248 NA
ATOM     41  C   UNL A   1      41.213  25.253  28.050  1.00  0.00     0.031 C 
ATOM     42  C   UNL A   1      45.832  24.142  26.381  1.00  0.00     0.029 A 
ATOM     43  N   UNL A   1      45.474  26.225  27.111  1.00  0.00    -0.354 N 
ATOM     44  C   UNL A   1      41.559  27.475  28.447  1.00  0.00     0.074 A 
ATOM     45  C   UNL A   1      40.614  26.383  28.394  1.00  0.00     0.031 C 
ATOM     46  C   UNL A   1      46.991  24.812  26.273  1.00  0.00     0.029 A 
ATOM     47  C   UNL A   1      46.792  26.187  26.723  1.00  0.00     0.049 A 
ATOM     48  H   UNL A   1      45.043  27.032  27.471  1.00  0.00     0.167 HD
ATOM     49  C   UNL A   1      41.262  28.720  28.887  1.00  0.00     0.037 A 
ATOM     50  C   UNL A   1      47.733  27.151  26.725  1.00  0.00     0.037 A 
ATOM     51  C   UNL A   1      42.215  29.792  28.988  1.00  0.00     0.049 A 
ATOM     52  C   UNL A   1      47.377  28.525  27.227  1.00  0.00     0.074 A 
ATOM     53  C   UNL A   1      42.023  31.070  29.481  1.00  0.00     0.029 A 
ATOM     54  N   UNL A   1      43.543  29.706  28.600  1.00  0.00    -0.354 N 
ATOM     55  N   UNL A   1      46.231  28.964  27.688  1.00  0.00    -0.248 NA
ATOM     56  C   UNL A   1      48.444  29.536  27.214  1.00  0.00     0.031 C 
ATOM     57  C   UNL A   1      43.224  31.772  29.355  1.00  0.00     0.029 A 
ATOM     58  C   UNL A   1      44.178  30.916  28.829  1.00  0.00     0.049 A 
ATOM     59  H   UNL A   1      43.971  28.906  28.219  1.00  0.00     0.167 HD
ATOM     60  C   UNL A   1      46.443  30.290  28.039  1.00  0.00     0.074 A 
ATOM     61  C   UNL A   1      47.832  30.582  27.753  1.00  0.00     0.031 C 
ATOM     62  C   UNL A   1      45.565  31.185  28.551  1.00  0.00     0.037 A 
BRANCH  49  63
ATOM     63  C   UNL A   1      39.852  28.996  29.322  1.00  0.00     0.064 A 
ATOM     64  C   UNL A   1      39.462  28.780  30.653  1.00  0.00     0.173 A 
ATOM     65  C   UNL A   1      38.869  29.392  28.404  1.00  0.00     0.173 A 
ATOM     66  F   UNL A   1      40.363  28.394  31.568  1.00  0.00    -0.203 F 
ATOM     67  C   UNL A   1      38.134  28.933  31.042  1.00  0.00     0.198 A 
ATOM     68  C   UNL A   1      37.547  29.572  28.804  1.00  0.00     0.198 A 
ATOM     69  F   UNL A   1      39.194  29.624  27.124  1.00  0.00    -0.203 F 
ATOM     70  F   UNL A   1      37.777  28.685  32.310  1.00  0.00    -0.200 F 
ATOM     71  C   UNL A   1      37.179  29.330  30.120  1.00  0.00     0.200 A 
ATOM     72  F   UNL A   1      36.630  29.978  27.916  1.00  0.00    -0.200 F 
ATOM     73  F   UNL A   1      35.901  29.482  30.497  1.00  0.00    -0.200 F 
ENDBRANCH  49  63
BRANCH  50  74
ATOM     74  C   UNL A   1      49.111  26.840  26.264  1.00  0.00     0.064 A 
ATOM     75  C   UNL A   1      49.496  27.027  24.928  1.00  0.00     0.173 A 
ATOM     76  C   UNL A   1      50.068  26.332  27.153  1.00  0.00     0.173 A 
ATOM     77  F   UNL A   1      48.616  27.507  24.036  1.00  0.00    -0.203 F 
ATOM     78  C   UNL A   1      50.781  26.703  24.497  1.00  0.00     0.198 A 
ATOM     79  C   UNL A   1      51.361  26.034  26.726  1.00  0.00     0.198 A 
ATOM     80  F   UNL A   1      49.754  26.156  28.445  1.00  0.00    -0.203 F 
ATOM     81  F   UNL A   1      51.113  26.863  23.209  1.00  0.00    -0.200 F 
ATOM     82  C   UNL A   1      51.714  26.212  25.397  1.00  0.00     0.200 A 
ATOM     83  F   UNL A   1      52.266  25.584  27.606  1.00  0.00    -0.200 F 
ATOM     84  F   UNL A   1      52.954  25.915  24.986  1.00  0.00    -0.200 F 
ENDBRANCH  50  74
BRANCH  62  85
ATOM     85  C   UNL A   1      46.071  32.562  28.864  1.00  0.00     0.064 A 
ATOM     86  C   UNL A   1      46.567  32.861  30.142  1.00  0.00     0.173 A 
ATOM     87  C   UNL A   1      45.981  33.603  27.930  1.00  0.00     0.173 A 
ATOM     88  F   UNL A   1      46.662  31.900  31.073  1.00  0.00    -0.203 F 
ATOM     89  C   UNL A   1      46.936  34.160  30.480  1.00  0.00     0.198 A 
ATOM     90  C   UNL A   1      46.377  34.896  28.263  1.00  0.00     0.198 A 
ATOM     91  F   UNL A   1      45.525  33.362  26.693  1.00  0.00    -0.203 F 
ATOM     92  F   UNL A   1      47.370  34.432  31.718  1.00  0.00    -0.200 F 
ATOM     93  C   UNL A   1      46.843  35.175  29.540  1.00  0.00     0.200 A 
ATOM     94  F   UNL A   1      46.307  35.872  27.347  1.00  0.00    -0.200 F 
ATOM     95  F   UNL A   1      47.204  36.425  29.863  1.00  0.00    -0.200 F 
ENDBRANCH  62  85
ENDBRANCH  36  37
ENDBRANCH  28  31
ENDBRANCH  26  27
ENDBRANCH  25  26
ENDBRANCH   1  25
TORSDOF 13
ENDMDL
MODEL 2
REMARK VINA RESULT:     -12.3      5.462     10.855
REMARK SMILES NC(=O)c1c(F)cccc1N1CCC[C@H](CC(=O)NCCCNC(=O)c2ccc(-c3c4nc(c(-c5c(F)c(F)c(F)c(F)c5F)c5ccc([nH]5)c(-c5c(F)c(F)c(F)c(F)c5F)c5nc(c(-c6c(F)c(F)c(F)c(F)c6F)c6ccc3[nH]6)C=C5)C=C4)cc2)C1
REMARK SMILES IDX 20 1 19 2 17 3 18 4 16 6 15 7 11 8 12 9 89 10 13 11 14 12
REMARK SMILES IDX 10 13 4 14 5 15 6 16 7 17 9 18 8 19 2 20 1 21 3 24 21 25
REMARK SMILES IDX 22 26 23 27 24 28 25 30 26 31 27 32 88 33 28 34 87 35 29 36
REMARK SMILES IDX 30 37 31 38 81 39 32 40 86 41 80 42 82 43 33 44 85 45 79 46
REMARK SMILES IDX 78 47 34 49 66 50 46 51 65 52 47 53 50 54 64 55 83 56 48 57
REMARK SMILES IDX 49 58 63 60 84 61 51 62 35 63 36 64 44 65 37 66 38 67 42 68
REMARK SMILES IDX 45 69 39 70 40 71 43 72 41 73 67 74 68 75 76 76 69 77 70 78
REMARK SMILES IDX 74 79 77 80 71 81 72 82 75 83 73 84 52 85 53 86 61 87 54 88
REMARK SMILES IDX 55 89 59 90 62 91 56 92 57 93 60 94 58 95
REMARK H PARENT 19 5 1 22 1 23 23 29 82 48 50 59
REMARK Flexibility Score: inf
ROOT
ATOM      1  C   UNL A   1      31.269  30.444  25.427  1.00  0.00     0.117 C 
ENDROOT
BRANCH   1   2
ATOM      2  N   UNL A   1      30.426  30.374  24.246  1.00  0.00    -0.356 N 
ATOM      3  C   UNL A   1      30.338  29.399  23.298  1.00  0.00     0.220 C 
ATOM      4  O   UNL A   1      29.686  29.632  22.279  1.00  0.00    -0.275 OA
ATOM      5  H   UNL A   1      29.830  31.145  24.109  1.00  0.00     0.163 HD
BRANCH   3   6
ATOM      6  C   UNL A   1      30.988  28.050  23.516  1.00  0.00     0.105 C 
BRANCH   6   7
ATOM      7  C   UNL A   1      32.312  27.855  22.746  1.00  0.00     0.018 C 
ATOM      8  N   UNL A   1      32.842  25.828  23.955  1.00  0.00    -0.371 N 
ATOM      9  C   UNL A   1      34.020  26.337  24.653  1.00  0.00     0.116 C 
ATOM     10  C   UNL A   1      32.599  26.352  22.611  1.00  0.00     0.120 C 
ATOM     11  C   UNL A   1      33.907  27.860  24.757  1.00  0.00     0.022 C 
ATOM     12  C   UNL A   1      33.548  28.493  23.408  1.00  0.00     0.008 C 
BRANCH   8  13
ATOM     13  C   UNL A   1      32.383  24.562  24.282  1.00  0.00     0.053 A 
ATOM     14  C   UNL A   1      31.426  24.275  25.272  1.00  0.00     0.098 A 
ATOM     15  C   UNL A   1      31.138  22.947  25.601  1.00  0.00     0.138 A 
ATOM     16  F   UNL A   1      30.241  22.654  26.556  1.00  0.00    -0.206 F 
ATOM     17  C   UNL A   1      31.774  21.890  24.956  1.00  0.00     0.040 A 
ATOM     18  C   UNL A   1      32.992  23.478  23.620  1.00  0.00     0.027 A 
ATOM     19  C   UNL A   1      32.698  22.155  23.952  1.00  0.00     0.005 A 
BRANCH  14  20
ATOM     20  C   UNL A   1      30.664  25.349  25.943  1.00  0.00     0.253 C 
ATOM     21  N   UNL A   1      29.397  25.577  25.484  1.00  0.00    -0.365 N 
ATOM     22  H   UNL A   1      28.843  26.280  25.894  1.00  0.00     0.159 HD
ATOM     23  H   UNL A   1      29.037  25.036  24.743  1.00  0.00     0.159 HD
ATOM     24  O   UNL A   1      31.125  25.995  26.876  1.00  0.00    -0.269 OA
ENDBRANCH  14  20
ENDBRANCH   8  13
ENDBRANCH   6   7
ENDBRANCH   3   6
ENDBRANCH   1   2
BRANCH   1  25
ATOM     25  C   UNL A   1      31.095  31.785  26.127  1.00  0.00     0.042 C 
BRANCH  25  26
ATOM     26  C   UNL A   1      32.325  32.229  26.900  1.00  0.00     0.118 C 
BRANCH  26  27
ATOM     27  N   UNL A   1      32.271  33.637  27.255  1.00  0.00    -0.352 N 
ATOM     28  C   UNL A   1      32.990  34.344  28.188  1.00  0.00     0.251 C 
ATOM     29  H   UNL A   1      31.617  34.168  26.747  1.00  0.00     0.163 HD
ATOM     30  O   UNL A   1      32.646  35.490  28.465  1.00  0.00    -0.269 OA
BRANCH  28  31
ATOM     31  C   UNL A   1      34.158  33.744  28.880  1.00  0.00     0.039 A 
ATOM     32  C   UNL A   1      35.432  34.252  28.604  1.00  0.00     0.014 A 
ATOM     33  C   UNL A   1      34.027  32.664  29.756  1.00  0.00     0.014 A 
ATOM     34  C   UNL A   1      36.556  33.714  29.238  1.00  0.00     0.010 A 
ATOM     35  C   UNL A   1      35.133  32.196  30.464  1.00  0.00     0.010 A 
ATOM     36  C   UNL A   1      36.413  32.700  30.198  1.00  0.00    -0.014 A 
BRANCH  36  37
ATOM     37  C   UNL A   1      37.590  32.126  30.902  1.00  0.00     0.031 A 
ATOM     38  C   UNL A   1      38.411  31.049  30.241  1.00  0.00     0.074 A 
ATOM     39  C   UNL A   1      37.898  32.536  32.147  1.00  0.00     0.049 A 
ATOM     40  N   UNL A   1      39.421  30.367  30.719  1.00  0.00    -0.248 NA
ATOM     41  C   UNL A   1      38.027  30.665  28.872  1.00  0.00     0.031 C 
ATOM     42  C   UNL A   1      37.159  33.543  32.912  1.00  0.00     0.029 A 
ATOM     43  N   UNL A   1      38.909  32.154  32.994  1.00  0.00    -0.354 N 
ATOM     44  C   UNL A   1      39.775  29.467  29.722  1.00  0.00     0.074 A 
ATOM     45  C   UNL A   1      38.844  29.650  28.633  1.00  0.00     0.031 C 
ATOM     46  C   UNL A   1      37.760  33.721  34.100  1.00  0.00     0.029 A 
ATOM     47  C   UNL A   1      38.899  32.813  34.200  1.00  0.00     0.049 A 
ATOM     48  H   UNL A   1      39.578  31.471  32.760  1.00  0.00     0.167 HD
ATOM     49  C   UNL A   1      40.806  28.588  29.706  1.00  0.00     0.037 A 
ATOM     50  C   UNL A   1      39.713  32.698  35.267  1.00  0.00     0.037 A 
ATOM     51  C   UNL A   1      41.763  28.443  30.768  1.00  0.00     0.049 A 
ATOM     52  C   UNL A   1      40.856  31.718  35.218  1.00  0.00     0.074 A 
ATOM     53  C   UNL A   1      42.877  27.625  30.816  1.00  0.00     0.029 A 
ATOM     54  N   UNL A   1      41.726  29.143  31.965  1.00  0.00    -0.354 N 
ATOM     55  N   UNL A   1      41.207  30.907  34.250  1.00  0.00    -0.248 NA
ATOM     56  C   UNL A   1      41.716  31.639  36.407  1.00  0.00     0.031 C 
ATOM     57  C   UNL A   1      43.493  27.798  32.057  1.00  0.00     0.029 A 
ATOM     58  C   UNL A   1      42.791  28.761  32.764  1.00  0.00     0.049 A 
ATOM     59  H   UNL A   1      41.046  29.811  32.210  1.00  0.00     0.167 HD
ATOM     60  C   UNL A   1      42.337  30.241  34.701  1.00  0.00     0.074 A 
ATOM     61  C   UNL A   1      42.624  30.751  36.025  1.00  0.00     0.031 C 
ATOM     62  C   UNL A   1      43.071  29.289  34.074  1.00  0.00     0.037 A 
BRANCH  49  63
ATOM     63  C   UNL A   1      40.976  27.725  28.490  1.00  0.00     0.064 A 
ATOM     64  C   UNL A   1      41.764  28.159  27.412  1.00  0.00     0.173 A 
ATOM     65  C   UNL A   1      40.291  26.509  28.356  1.00  0.00     0.173 A 
ATOM     66  F   UNL A   1      42.433  29.318  27.488  1.00  0.00    -0.203 F 
ATOM     67  C   UNL A   1      41.843  27.414  26.239  1.00  0.00     0.198 A 
ATOM     68  C   UNL A   1      40.396  25.752  27.191  1.00  0.00     0.198 A 
ATOM     69  F   UNL A   1      39.535  26.044  29.362  1.00  0.00    -0.203 F 
ATOM     70  F   UNL A   1      42.573  27.865  25.209  1.00  0.00    -0.200 F 
ATOM     71  C   UNL A   1      41.163  26.211  26.130  1.00  0.00     0.200 A 
ATOM     72  F   UNL A   1      39.756  24.580  27.096  1.00  0.00    -0.200 F 
ATOM     73  F   UNL A   1      41.244  25.493  25.001  1.00  0.00    -0.200 F 
ENDBRANCH  49  63
BRANCH  50  74
ATOM     74  C   UNL A   1      39.495  33.556  36.460  1.00  0.00     0.064 A 
ATOM     75  C   UNL A   1      40.063  34.836  36.555  1.00  0.00     0.173 A 
ATOM     76  C   UNL A   1      38.724  33.104  37.539  1.00  0.00     0.173 A 
ATOM     77  F   UNL A   1      40.813  35.314  35.551  1.00  0.00    -0.203 F 
ATOM     78  C   UNL A   1      39.879  35.622  37.690  1.00  0.00     0.198 A 
ATOM     79  C   UNL A   1      38.518  33.903  38.663  1.00  0.00     0.198 A 
ATOM     80  F   UNL A   1      38.142  31.896  37.486  1.00  0.00    -0.203 F 
ATOM     81  F   UNL A   1      40.458  36.828  37.768  1.00  0.00    -0.200 F 
ATOM     82  C   UNL A   1      39.103  35.158  38.741  1.00  0.00     0.200 A 
ATOM     83  F   UNL A   1      37.746  33.459  39.664  1.00  0.00    -0.200 F 
ATOM     84  F   UNL A   1      38.913  35.921  39.826  1.00  0.00    -0.200 F 
ENDBRANCH  50  74
BRANCH  62  85
ATOM     85  C   UNL A   1      44.272  28.747  34.790  1.00  0.00     0.064 A 
ATOM     86  C   UNL A   1      45.531  29.342  34.612  1.00  0.00     0.173 A 
ATOM     87  C   UNL A   1      44.193  27.589  35.575  1.00  0.00     0.173 A 
ATOM     88  F   UNL A   1      45.657  30.446  33.861  1.00  0.00    -0.203 F 
ATOM     89  C   UNL A   1      46.671  28.783  35.181  1.00  0.00     0.198 A 
ATOM     90  C   UNL A   1      45.332  27.048  36.165  1.00  0.00     0.198 A 
ATOM     91  F   UNL A   1      43.010  26.993  35.782  1.00  0.00    -0.203 F 
ATOM     92  F   UNL A   1      47.869  29.344  34.968  1.00  0.00    -0.200 F 
ATOM     93  C   UNL A   1      46.571  27.639  35.958  1.00  0.00     0.200 A 
ATOM     94  F   UNL A   1      45.232  25.955  36.934  1.00  0.00    -0.200 F 
ATOM     95  F   UNL A   1      47.669  27.104  36.511  1.00  0.00    -0.200 F 
ENDBRANCH  62  85
ENDBRANCH  36  37
ENDBRANCH  28  31
ENDBRANCH  26  27
ENDBRANCH  25  26
ENDBRANCH   1  25
TORSDOF 13
ENDMDL
MODEL 3
REMARK VINA RESULT:     -12.3      5.657     11.073
REMARK SMILES NC(=O)c1c(F)cccc1N1CCC[C@H](CC(=O)NCCCNC(=O)c2ccc(-c3c4nc(c(-c5c(F)c(F)c(F)c(F)c5F)c5ccc([nH]5)c(-c5c(F)c(F)c(F)c(F)c5F)c5nc(c(-c6c(F)c(F)c(F)c(F)c6F)c6ccc3[nH]6)C=C5)C=C4)cc2)C1
REMARK SMILES IDX 20 1 19 2 17 3 18 4 16 6 15 7 11 8 12 9 89 10 13 11 14 12
REMARK SMILES IDX 10 13 4 14 5 15 6 16 7 17 9 18 8 19 2 20 1 21 3 24 21 25
REMARK SMILES IDX 22 26 23 27 24 28 25 30 26 31 27 32 88 33 28 34 87 35 29 36
REMARK SMILES IDX 30 37 31 38 81 39 32 40 86 41 80 42 82 43 33 44 85 45 79 46
REMARK SMILES IDX 78 47 34 49 66 50 46 51 65 52 47 53 50 54 64 55 83 56 48 57
REMARK SMILES IDX 49 58 63 60 84 61 51 62 35 63 36 64 44 65 37 66 38 67 42 68
REMARK SMILES IDX 45 69 39 70 40 71 43 72 41 73 67 74 68 75 76 76 69 77 70 78
REMARK SMILES IDX 74 79 77 80 71 81 72 82 75 83 73 84 52 85 53 86 61 87 54 88
REMARK SMILES IDX 55 89 59 90 62 91 56 92 57 93 60 94 58 95
REMARK H PARENT 19 5 1 22 1 23 23 29 82 48 50 59
REMARK Flexibility Score: inf
ROOT
ATOM      1  C   UNL A   1      31.418  30.842  26.159  1.00  0.00     0.117 C 
ENDROOT
BRANCH   1   2
ATOM      2  N   UNL A   1      32.655  30.261  26.650  1.00  0.00    -0.356 N 
ATOM      3  C   UNL A   1      33.224  29.057  26.361  1.00  0.00     0.220 C 
ATOM      4  O   UNL A   1      34.187  28.689  27.036  1.00  0.00    -0.275 OA
ATOM      5  H   UNL A   1      33.158  30.819  27.286  1.00  0.00     0.163 HD
BRANCH   3   6
ATOM      6  C   UNL A   1      32.711  28.218  25.211  1.00  0.00     0.105 C 
BRANCH   6   7
ATOM      7  C   UNL A   1      31.393  27.473  25.511  1.00  0.00     0.018 C 
ATOM      8  N   UNL A   1      32.397  25.310  25.111  1.00  0.00    -0.371 N 
ATOM      9  C   UNL A   1      31.620  24.968  23.922  1.00  0.00     0.116 C 
ATOM     10  C   UNL A   1      31.716  26.106  26.132  1.00  0.00     0.120 C 
ATOM     11  C   UNL A   1      31.139  26.262  23.262  1.00  0.00     0.022 C 
ATOM     12  C   UNL A   1      30.501  27.212  24.282  1.00  0.00     0.008 C 
BRANCH   8  13
ATOM     13  C   UNL A   1      33.426  24.461  25.488  1.00  0.00     0.053 A 
ATOM     14  C   UNL A   1      33.283  23.321  26.299  1.00  0.00     0.098 A 
ATOM     15  C   UNL A   1      34.415  22.617  26.720  1.00  0.00     0.138 A 
ATOM     16  F   UNL A   1      34.299  21.537  27.509  1.00  0.00    -0.206 F 
ATOM     17  C   UNL A   1      35.694  23.014  26.340  1.00  0.00     0.040 A 
ATOM     18  C   UNL A   1      34.726  24.827  25.090  1.00  0.00     0.027 A 
ATOM     19  C   UNL A   1      35.852  24.119  25.512  1.00  0.00     0.005 A 
BRANCH  14  20
ATOM     20  C   UNL A   1      31.950  22.805  26.678  1.00  0.00     0.253 C 
ATOM     21  N   UNL A   1      31.422  21.832  25.876  1.00  0.00    -0.365 N 
ATOM     22  H   UNL A   1      30.537  21.452  26.080  1.00  0.00     0.159 HD
ATOM     23  H   UNL A   1      31.927  21.511  25.094  1.00  0.00     0.159 HD
ATOM     24  O   UNL A   1      31.350  23.206  27.667  1.00  0.00    -0.269 OA
ENDBRANCH  14  20
ENDBRANCH   8  13
ENDBRANCH   6   7
ENDBRANCH   3   6
ENDBRANCH   1   2
BRANCH   1  25
ATOM     25  C   UNL A   1      31.349  32.323  26.507  1.00  0.00     0.042 C 
BRANCH  25  26
ATOM     26  C   UNL A   1      32.599  32.843  27.195  1.00  0.00     0.118 C 
BRANCH  26  27
ATOM     27  N   UNL A   1      32.444  34.212  27.654  1.00  0.00    -0.352 N 
ATOM     28  C   UNL A   1      33.069  34.880  28.679  1.00  0.00     0.251 C 
ATOM     29  H   UNL A   1      31.787  34.746  27.153  1.00  0.00     0.163 HD
ATOM     30  O   UNL A   1      32.644  35.980  29.024  1.00  0.00    -0.269 OA
BRANCH  28  31
ATOM     31  C   UNL A   1      34.233  34.292  29.388  1.00  0.00     0.039 A 
ATOM     32  C   UNL A   1      33.995  33.455  30.484  1.00  0.00     0.014 A 
ATOM     33  C   UNL A   1      35.549  34.585  29.024  1.00  0.00     0.014 A 
ATOM     34  C   UNL A   1      35.066  32.881  31.175  1.00  0.00     0.010 A 
ATOM     35  C   UNL A   1      36.612  33.934  29.648  1.00  0.00     0.010 A 
ATOM     36  C   UNL A   1      36.385  33.091  30.744  1.00  0.00    -0.014 A 
BRANCH  36  37
ATOM     37  C   UNL A   1      37.539  32.474  31.450  1.00  0.00     0.031 A 
ATOM     38  C   UNL A   1      38.298  31.342  30.806  1.00  0.00     0.074 A 
ATOM     39  C   UNL A   1      37.880  32.895  32.683  1.00  0.00     0.049 A 
ATOM     40  N   UNL A   1      39.278  30.621  31.290  1.00  0.00    -0.248 NA
ATOM     41  C   UNL A   1      37.882  30.948  29.450  1.00  0.00     0.031 C 
ATOM     42  C   UNL A   1      37.201  33.954  33.431  1.00  0.00     0.029 A 
ATOM     43  N   UNL A   1      38.879  32.481  33.529  1.00  0.00    -0.354 N 
ATOM     44  C   UNL A   1      39.576  29.683  30.310  1.00  0.00     0.074 A 
ATOM     45  C   UNL A   1      38.644  29.888  29.226  1.00  0.00     0.031 C 
ATOM     46  C   UNL A   1      37.822  34.128  34.610  1.00  0.00     0.029 A 
ATOM     47  C   UNL A   1      38.915  33.167  34.719  1.00  0.00     0.049 A 
ATOM     48  H   UNL A   1      39.511  31.761  33.304  1.00  0.00     0.167 HD
ATOM     49  C   UNL A   1      40.561  28.754  30.304  1.00  0.00     0.037 A 
ATOM     50  C   UNL A   1      39.733  33.034  35.781  1.00  0.00     0.037 A 
ATOM     51  C   UNL A   1      41.521  28.584  31.360  1.00  0.00     0.049 A 
ATOM     52  C   UNL A   1      40.825  31.997  35.744  1.00  0.00     0.074 A 
ATOM     53  C   UNL A   1      42.593  27.712  31.417  1.00  0.00     0.029 A 
ATOM     54  N   UNL A   1      41.532  29.311  32.541  1.00  0.00    -0.354 N 
ATOM     55  N   UNL A   1      41.125  31.149  34.791  1.00  0.00    -0.248 NA
ATOM     56  C   UNL A   1      41.693  31.901  36.926  1.00  0.00     0.031 C 
ATOM     57  C   UNL A   1      43.230  27.881  32.648  1.00  0.00     0.029 A 
ATOM     58  C   UNL A   1      42.584  28.894  33.339  1.00  0.00     0.049 A 
ATOM     59  H   UNL A   1      40.888  30.017  32.778  1.00  0.00     0.167 HD
ATOM     60  C   UNL A   1      42.225  30.436  35.246  1.00  0.00     0.074 A 
ATOM     61  C   UNL A   1      42.551  30.961  36.556  1.00  0.00     0.031 C 
ATOM     62  C   UNL A   1      42.904  29.436  34.634  1.00  0.00     0.037 A 
BRANCH  49  63
ATOM     63  C   UNL A   1      40.676  27.856  29.106  1.00  0.00     0.064 A 
ATOM     64  C   UNL A   1      41.567  28.165  28.067  1.00  0.00     0.173 A 
ATOM     65  C   UNL A   1      39.842  26.740  28.948  1.00  0.00     0.173 A 
ATOM     66  F   UNL A   1      42.380  29.226  28.167  1.00  0.00    -0.203 F 
ATOM     67  C   UNL A   1      41.605  27.397  26.906  1.00  0.00     0.198 A 
ATOM     68  C   UNL A   1      39.904  25.958  27.797  1.00  0.00     0.198 A 
ATOM     69  F   UNL A   1      38.982  26.395  29.918  1.00  0.00    -0.203 F 
ATOM     70  F   UNL A   1      42.438  27.732  25.911  1.00  0.00    -0.200 F 
ATOM     71  C   UNL A   1      40.776  26.294  26.773  1.00  0.00     0.200 A 
ATOM     72  F   UNL A   1      39.118  24.879  27.680  1.00  0.00    -0.200 F 
ATOM     73  F   UNL A   1      40.818  25.553  25.656  1.00  0.00    -0.200 F 
ENDBRANCH  49  63
BRANCH  50  74
ATOM     74  C   UNL A   1      39.571  33.929  36.956  1.00  0.00     0.064 A 
ATOM     75  C   UNL A   1      40.174  35.194  37.003  1.00  0.00     0.173 A 
ATOM     76  C   UNL A   1      38.818  33.525  38.068  1.00  0.00     0.173 A 
ATOM     77  F   UNL A   1      40.909  35.626  35.967  1.00  0.00    -0.203 F 
ATOM     78  C   UNL A   1      40.043  36.014  38.121  1.00  0.00     0.198 A 
ATOM     79  C   UNL A   1      38.664  34.358  39.175  1.00  0.00     0.198 A 
ATOM     80  F   UNL A   1      38.203  32.333  38.062  1.00  0.00    -0.203 F 
ATOM     81  F   UNL A   1      40.655  37.206  38.151  1.00  0.00    -0.200 F 
ATOM     82  C   UNL A   1      39.284  35.598  39.204  1.00  0.00     0.200 A 
ATOM     83  F   UNL A   1      37.908  33.962  40.208  1.00  0.00    -0.200 F 
ATOM     84  F   UNL A   1      39.145  36.393  40.273  1.00  0.00    -0.200 F 
ENDBRANCH  50  74
BRANCH  62  85
ATOM     85  C   UNL A   1      44.083  28.850  35.351  1.00  0.00     0.064 A 
ATOM     86  C   UNL A   1      43.905  27.812  36.278  1.00  0.00     0.173 A 
ATOM     87  C   UNL A   1      45.372  29.378  35.190  1.00  0.00     0.173 A 
ATOM     88  F   UNL A   1      42.689  27.282  36.474  1.00  0.00    -0.203 F 
ATOM     89  C   UNL A   1      44.974  27.335  37.031  1.00  0.00     0.198 A 
ATOM     90  C   UNL A   1      46.444  28.880  35.925  1.00  0.00     0.198 A 
ATOM     91  F   UNL A   1      45.592  30.363  34.307  1.00  0.00    -0.203 F 
ATOM     92  F   UNL A   1      44.775  26.369  37.938  1.00  0.00    -0.200 F 
ATOM     93  C   UNL A   1      46.242  27.867  36.853  1.00  0.00     0.200 A 
ATOM     94  F   UNL A   1      47.673  29.380  35.737  1.00  0.00    -0.200 F 
ATOM     95  F   UNL A   1      47.272  27.405  37.574  1.00  0.00    -0.200 F 
ENDBRANCH  62  85
ENDBRANCH  36  37
ENDBRANCH  28  31
ENDBRANCH  26  27
ENDBRANCH  25  26
ENDBRANCH   1  25
TORSDOF 13
ENDMDL
