MODEL 1
REMARK VINA RESULT:     -12.7      0.000      0.000
REMARK SMILES CC(C)(O)CC[C@@]1(C(=O)NCCCNC(=O)c2ccc(-c3c4nc(c(-c5c(F)c(F)c(F)c(F)c5F)c5ccc([nH]5)c(-c5c(F)c(F)c(F)c(F)c5F)c5nc(c(-c6c(F)c(F)c(F)c(F)c6F)c6ccc3[nH]6)C=C5)C=C4)cc2)CCc2ccccc21
REMARK SMILES IDX 11 1 10 2 8 3 9 4 7 6 80 7 87 8 81 9 82 10 86 11 83 12 85 13
REMARK SMILES IDX 84 14 6 15 5 16 2 17 1 18 3 19 4 20 12 22 13 23 14 24 15 25
REMARK SMILES IDX 16 27 17 28 18 29 79 30 19 31 78 32 20 33 21 34 22 35 72 36
REMARK SMILES IDX 23 37 77 38 71 39 73 40 24 41 76 42 70 43 69 44 25 46 57 47
REMARK SMILES IDX 37 48 56 49 38 50 41 51 55 52 74 53 39 54 40 55 54 57 75 58
REMARK SMILES IDX 42 59 26 60 27 61 35 62 28 63 29 64 33 65 36 66 30 67 31 68
REMARK SMILES IDX 34 69 32 70 58 71 59 72 67 73 60 74 61 75 65 76 68 77 62 78
REMARK SMILES IDX 63 79 66 80 64 81 43 82 44 83 52 84 45 85 46 86 50 87 53 88
REMARK SMILES IDX 47 89 48 90 51 91 49 92
REMARK H PARENT 10 5 4 21 14 26 73 45 41 56
REMARK Flexibility Score: inf
ROOT
ATOM      1  C   UNL A   1      31.815  30.716  26.267  1.00  0.00     0.117 C 
ENDROOT
BRANCH   1   2
ATOM      2  N   UNL A   1      31.149  30.412  25.013  1.00  0.00    -0.355 N 
ATOM      3  C   UNL A   1      31.022  29.263  24.298  1.00  0.00     0.230 C 
ATOM      4  O   UNL A   1      30.321  29.368  23.287  1.00  0.00    -0.274 OA
ATOM      5  H   UNL A   1      30.702  31.188  24.603  1.00  0.00     0.163 HD
BRANCH   3   6
ATOM      6  C   UNL A   1      31.720  27.945  24.686  1.00  0.00     0.075 C 
ATOM      7  C   UNL A   1      33.167  28.180  25.248  1.00  0.00     0.026 C 
ATOM      8  C   UNL A   1      32.052  27.064  23.493  1.00  0.00    -0.029 A 
ATOM      9  C   UNL A   1      34.006  26.946  24.872  1.00  0.00     0.037 C 
ATOM     10  C   UNL A   1      33.283  26.423  23.673  1.00  0.00    -0.044 A 
ATOM     11  C   UNL A   1      31.325  26.846  22.330  1.00  0.00     0.005 A 
ATOM     12  C   UNL A   1      33.714  25.431  22.805  1.00  0.00     0.004 A 
ATOM     13  C   UNL A   1      31.758  25.856  21.438  1.00  0.00     0.000 A 
ATOM     14  C   UNL A   1      32.926  25.127  21.695  1.00  0.00     0.000 A 
BRANCH   6  15
ATOM     15  C   UNL A   1      30.974  27.182  25.847  1.00  0.00     0.025 C 
BRANCH  15  16
ATOM     16  C   UNL A   1      30.078  25.946  25.625  1.00  0.00     0.036 C 
BRANCH  16  17
ATOM     17  C   UNL A   1      30.624  24.546  25.974  1.00  0.00     0.059 C 
ATOM     18  C   UNL A   1      31.960  24.594  26.698  1.00  0.00     0.042 C 
ATOM     19  C   UNL A   1      30.810  23.741  24.680  1.00  0.00     0.042 C 
BRANCH  17  20
ATOM     20  O   UNL A   1      29.664  23.839  26.762  1.00  0.00    -0.390 OA
ATOM     21  H   UNL A   1      30.052  23.007  27.075  1.00  0.00     0.211 HD
ENDBRANCH  17  20
ENDBRANCH  16  17
ENDBRANCH  15  16
ENDBRANCH   6  15
ENDBRANCH   3   6
ENDBRANCH   1   2
BRANCH   1  22
ATOM     22  C   UNL A   1      31.519  32.118  26.766  1.00  0.00     0.042 C 
BRANCH  22  23
ATOM     23  C   UNL A   1      32.716  32.835  27.369  1.00  0.00     0.118 C 
BRANCH  23  24
ATOM     24  N   UNL A   1      32.448  34.231  27.693  1.00  0.00    -0.352 N 
ATOM     25  C   UNL A   1      33.003  35.047  28.652  1.00  0.00     0.251 C 
ATOM     26  H   UNL A   1      31.758  34.660  27.136  1.00  0.00     0.163 HD
ATOM     27  O   UNL A   1      32.515  36.144  28.885  1.00  0.00    -0.269 OA
BRANCH  25  28
ATOM     28  C   UNL A   1      34.171  34.579  29.427  1.00  0.00     0.039 A 
ATOM     29  C   UNL A   1      33.975  34.058  30.708  1.00  0.00     0.014 A 
ATOM     30  C   UNL A   1      35.454  34.630  28.882  1.00  0.00     0.014 A 
ATOM     31  C   UNL A   1      35.053  33.505  31.399  1.00  0.00     0.010 A 
ATOM     32  C   UNL A   1      36.497  33.966  29.513  1.00  0.00     0.010 A 
ATOM     33  C   UNL A   1      36.314  33.407  30.785  1.00  0.00    -0.014 A 
BRANCH  33  34
ATOM     34  C   UNL A   1      37.454  32.733  31.454  1.00  0.00     0.031 A 
ATOM     35  C   UNL A   1      38.134  31.567  30.793  1.00  0.00     0.074 A 
ATOM     36  C   UNL A   1      37.822  33.116  32.692  1.00  0.00     0.049 A 
ATOM     37  N   UNL A   1      39.095  30.801  31.244  1.00  0.00    -0.248 NA
ATOM     38  C   UNL A   1      37.638  31.179  29.462  1.00  0.00     0.031 C 
ATOM     39  C   UNL A   1      37.191  34.183  33.469  1.00  0.00     0.029 A 
ATOM     40  N   UNL A   1      38.807  32.641  33.520  1.00  0.00    -0.354 N 
ATOM     41  C   UNL A   1      39.299  29.836  30.267  1.00  0.00     0.074 A 
ATOM     42  C   UNL A   1      38.313  30.065  29.235  1.00  0.00     0.031 C 
ATOM     43  C   UNL A   1      37.824  34.303  34.647  1.00  0.00     0.029 A 
ATOM     44  C   UNL A   1      38.875  33.293  34.726  1.00  0.00     0.049 A 
ATOM     45  H   UNL A   1      39.409  31.902  33.272  1.00  0.00     0.167 HD
ATOM     46  C   UNL A   1      40.241  28.864  30.219  1.00  0.00     0.037 A 
ATOM     47  C   UNL A   1      39.688  33.095  35.781  1.00  0.00     0.037 A 
ATOM     48  C   UNL A   1      41.235  28.660  31.240  1.00  0.00     0.049 A 
ATOM     49  C   UNL A   1      40.736  32.020  35.705  1.00  0.00     0.074 A 
ATOM     50  C   UNL A   1      42.286  27.762  31.254  1.00  0.00     0.029 A 
ATOM     51  N   UNL A   1      41.290  29.360  32.438  1.00  0.00    -0.354 N 
ATOM     52  N   UNL A   1      40.982  31.173  34.736  1.00  0.00    -0.248 NA
ATOM     53  C   UNL A   1      41.627  31.882  36.865  1.00  0.00     0.031 C 
ATOM     54  C   UNL A   1      42.938  27.874  32.487  1.00  0.00     0.029 A 
ATOM     55  C   UNL A   1      42.337  28.890  33.214  1.00  0.00     0.049 A 
ATOM     56  H   UNL A   1      40.677  30.086  32.697  1.00  0.00     0.167 HD
ATOM     57  C   UNL A   1      42.065  30.413  35.157  1.00  0.00     0.074 A 
ATOM     58  C   UNL A   1      42.441  30.916  36.463  1.00  0.00     0.031 C 
ATOM     59  C   UNL A   1      42.692  29.394  34.518  1.00  0.00     0.037 A 
BRANCH  46  60
ATOM     60  C   UNL A   1      40.228  27.948  29.027  1.00  0.00     0.064 A 
ATOM     61  C   UNL A   1      39.527  26.732  29.031  1.00  0.00     0.173 A 
ATOM     62  C   UNL A   1      40.934  28.289  27.862  1.00  0.00     0.173 A 
ATOM     63  F   UNL A   1      38.842  26.351  30.120  1.00  0.00    -0.203 F 
ATOM     64  C   UNL A   1      39.575  25.870  27.938  1.00  0.00     0.198 A 
ATOM     65  C   UNL A   1      40.948  27.442  26.757  1.00  0.00     0.198 A 
ATOM     66  F   UNL A   1      41.618  29.441  27.796  1.00  0.00    -0.203 F 
ATOM     67  F   UNL A   1      38.961  24.680  27.999  1.00  0.00    -0.200 F 
ATOM     68  C   UNL A   1      40.281  26.227  26.801  1.00  0.00     0.200 A 
ATOM     69  F   UNL A   1      41.618  27.797  25.651  1.00  0.00    -0.200 F 
ATOM     70  F   UNL A   1      40.329  25.396  25.751  1.00  0.00    -0.200 F 
ENDBRANCH  46  60
BRANCH  47  71
ATOM     71  C   UNL A   1      39.549  33.960  36.983  1.00  0.00     0.064 A 
ATOM     72  C   UNL A   1      40.144  35.229  37.031  1.00  0.00     0.173 A 
ATOM     73  C   UNL A   1      38.788  33.554  38.088  1.00  0.00     0.173 A 
ATOM     74  F   UNL A   1      40.896  35.654  36.005  1.00  0.00    -0.203 F 
ATOM     75  C   UNL A   1      39.988  36.054  38.143  1.00  0.00     0.198 A 
ATOM     76  C   UNL A   1      38.609  34.392  39.187  1.00  0.00     0.198 A 
ATOM     77  F   UNL A   1      38.191  32.353  38.088  1.00  0.00    -0.203 F 
ATOM     78  F   UNL A   1      40.593  37.249  38.176  1.00  0.00    -0.200 F 
ATOM     79  C   UNL A   1      39.214  35.639  39.215  1.00  0.00     0.200 A 
ATOM     80  F   UNL A   1      37.844  33.995  40.212  1.00  0.00    -0.200 F 
ATOM     81  F   UNL A   1      39.050  36.441  40.277  1.00  0.00    -0.200 F 
ENDBRANCH  47  71
BRANCH  59  82
ATOM     82  C   UNL A   1      43.868  28.766  35.212  1.00  0.00     0.064 A 
ATOM     83  C   UNL A   1      45.172  29.254  35.044  1.00  0.00     0.173 A 
ATOM     84  C   UNL A   1      43.679  27.688  36.092  1.00  0.00     0.173 A 
ATOM     85  F   UNL A   1      45.409  30.272  34.203  1.00  0.00    -0.203 F 
ATOM     86  C   UNL A   1      46.246  28.668  35.708  1.00  0.00     0.198 A 
ATOM     87  C   UNL A   1      44.750  27.129  36.781  1.00  0.00     0.198 A 
ATOM     88  F   UNL A   1      42.450  27.189  36.296  1.00  0.00    -0.203 F 
ATOM     89  F   UNL A   1      47.490  29.116  35.492  1.00  0.00    -0.200 F 
ATOM     90  C   UNL A   1      46.034  27.613  36.583  1.00  0.00     0.200 A 
ATOM     91  F   UNL A   1      44.540  26.121  37.639  1.00  0.00    -0.200 F 
ATOM     92  F   UNL A   1      47.068  27.057  37.229  1.00  0.00    -0.200 F 
ENDBRANCH  59  82
ENDBRANCH  33  34
ENDBRANCH  25  28
ENDBRANCH  23  24
ENDBRANCH  22  23
ENDBRANCH   1  22
TORSDOF 14
ENDMDL
MODEL 2
REMARK VINA RESULT:     -12.6      6.125     11.290
REMARK SMILES CC(C)(O)CC[C@@]1(C(=O)NCCCNC(=O)c2ccc(-c3c4nc(c(-c5c(F)c(F)c(F)c(F)c5F)c5ccc([nH]5)c(-c5c(F)c(F)c(F)c(F)c5F)c5nc(c(-c6c(F)c(F)c(F)c(F)c6F)c6ccc3[nH]6)C=C5)C=C4)cc2)CCc2ccccc21
REMARK SMILES IDX 11 1 10 2 8 3 9 4 7 6 80 7 87 8 81 9 82 10 86 11 83 12 85 13
REMARK SMILES IDX 84 14 6 15 5 16 2 17 1 18 3 19 4 20 12 22 13 23 14 24 15 25
REMARK SMILES IDX 16 27 17 28 18 29 79 30 19 31 78 32 20 33 21 34 22 35 72 36
REMARK SMILES IDX 23 37 77 38 71 39 73 40 24 41 76 42 70 43 69 44 25 46 57 47
REMARK SMILES IDX 37 48 56 49 38 50 41 51 55 52 74 53 39 54 40 55 54 57 75 58
REMARK SMILES IDX 42 59 26 60 27 61 35 62 28 63 29 64 33 65 36 66 30 67 31 68
REMARK SMILES IDX 34 69 32 70 58 71 59 72 67 73 60 74 61 75 65 76 68 77 62 78
REMARK SMILES IDX 63 79 66 80 64 81 43 82 44 83 52 84 45 85 46 86 50 87 53 88
REMARK SMILES IDX 47 89 48 90 51 91 49 92
REMARK H PARENT 10 5 4 21 14 26 73 45 41 56
REMARK Flexibility Score: inf
ROOT
ATOM      1  C   UNL A   1      37.185  21.023  24.251  1.00  0.00     0.117 C 
ENDROOT
BRANCH   1   2
ATOM      2  N   UNL A   1      37.271  22.302  24.933  1.00  0.00    -0.355 N 
ATOM      3  C   UNL A   1      36.349  23.053  25.592  1.00  0.00     0.230 C 
ATOM      4  O   UNL A   1      36.803  24.078  26.109  1.00  0.00    -0.274 OA
ATOM      5  H   UNL A   1      38.170  22.702  24.916  1.00  0.00     0.163 HD
BRANCH   3   6
ATOM      6  C   UNL A   1      34.854  22.684  25.663  1.00  0.00     0.075 C 
ATOM      7  C   UNL A   1      34.626  21.218  26.177  1.00  0.00     0.026 C 
ATOM      8  C   UNL A   1      34.192  22.580  24.300  1.00  0.00    -0.029 A 
ATOM      9  C   UNL A   1      33.340  20.699  25.511  1.00  0.00     0.037 C 
ATOM     10  C   UNL A   1      33.263  21.534  24.274  1.00  0.00    -0.044 A 
ATOM     11  C   UNL A   1      34.398  23.346  23.160  1.00  0.00     0.005 A 
ATOM     12  C   UNL A   1      32.404  21.357  23.200  1.00  0.00     0.004 A 
ATOM     13  C   UNL A   1      33.546  23.167  22.062  1.00  0.00     0.000 A 
ATOM     14  C   UNL A   1      32.531  22.203  22.098  1.00  0.00     0.000 A 
BRANCH   6  15
ATOM     15  C   UNL A   1      34.055  23.580  26.686  1.00  0.00     0.025 C 
BRANCH  15  16
ATOM     16  C   UNL A   1      33.171  24.775  26.272  1.00  0.00     0.036 C 
BRANCH  16  17
ATOM     17  C   UNL A   1      31.638  24.601  26.235  1.00  0.00     0.059 C 
ATOM     18  C   UNL A   1      31.173  23.304  26.876  1.00  0.00     0.042 C 
ATOM     19  C   UNL A   1      31.165  24.611  24.775  1.00  0.00     0.042 C 
BRANCH  17  20
ATOM     20  O   UNL A   1      31.015  25.716  26.876  1.00  0.00    -0.390 OA
ATOM     21  H   UNL A   1      31.014  26.477  26.274  1.00  0.00     0.211 HD
ENDBRANCH  17  20
ENDBRANCH  16  17
ENDBRANCH  15  16
ENDBRANCH   6  15
ENDBRANCH   3   6
ENDBRANCH   1   2
BRANCH   1  22
ATOM     22  C   UNL A   1      37.861  19.901  25.018  1.00  0.00     0.042 C 
BRANCH  22  23
ATOM     23  C   UNL A   1      39.134  20.313  25.739  1.00  0.00     0.118 C 
BRANCH  23  24
ATOM     24  N   UNL A   1      40.077  19.215  25.915  1.00  0.00    -0.352 N 
ATOM     25  C   UNL A   1      41.437  19.232  26.127  1.00  0.00     0.251 C 
ATOM     26  H   UNL A   1      39.677  18.316  25.876  1.00  0.00     0.163 HD
ATOM     27  O   UNL A   1      42.081  18.194  26.070  1.00  0.00    -0.269 OA
BRANCH  25  28
ATOM     28  C   UNL A   1      42.122  20.515  26.386  1.00  0.00     0.039 A 
ATOM     29  C   UNL A   1      42.589  21.268  25.307  1.00  0.00     0.014 A 
ATOM     30  C   UNL A   1      42.283  20.985  27.689  1.00  0.00     0.014 A 
ATOM     31  C   UNL A   1      43.131  22.534  25.535  1.00  0.00     0.010 A 
ATOM     32  C   UNL A   1      42.701  22.291  27.903  1.00  0.00     0.010 A 
ATOM     33  C   UNL A   1      43.142  23.078  26.831  1.00  0.00    -0.014 A 
BRANCH  33  34
ATOM     34  C   UNL A   1      43.618  24.459  27.090  1.00  0.00     0.031 A 
ATOM     35  C   UNL A   1      42.658  25.508  27.578  1.00  0.00     0.074 A 
ATOM     36  C   UNL A   1      44.892  24.792  26.804  1.00  0.00     0.049 A 
ATOM     37  N   UNL A   1      42.860  26.784  27.793  1.00  0.00    -0.248 NA
ATOM     38  C   UNL A   1      41.272  25.075  27.817  1.00  0.00     0.031 C 
ATOM     39  C   UNL A   1      45.899  23.883  26.254  1.00  0.00     0.029 A 
ATOM     40  N   UNL A   1      45.554  25.987  26.924  1.00  0.00    -0.354 N 
ATOM     41  C   UNL A   1      41.628  27.303  28.166  1.00  0.00     0.074 A 
ATOM     42  C   UNL A   1      40.670  26.225  28.077  1.00  0.00     0.031 C 
ATOM     43  C   UNL A   1      47.058  24.545  26.114  1.00  0.00     0.029 A 
ATOM     44  C   UNL A   1      46.865  25.933  26.522  1.00  0.00     0.049 A 
ATOM     45  H   UNL A   1      45.129  26.806  27.267  1.00  0.00     0.167 HD
ATOM     46  C   UNL A   1      41.327  28.558  28.577  1.00  0.00     0.037 A 
ATOM     47  C   UNL A   1      47.806  26.896  26.478  1.00  0.00     0.037 A 
ATOM     48  C   UNL A   1      42.293  29.620  28.686  1.00  0.00     0.049 A 
ATOM     49  C   UNL A   1      47.456  28.281  26.948  1.00  0.00     0.074 A 
ATOM     50  C   UNL A   1      42.114  30.903  29.169  1.00  0.00     0.029 A 
ATOM     51  N   UNL A   1      43.621  29.520  28.295  1.00  0.00    -0.354 N 
ATOM     52  N   UNL A   1      46.310  28.739  27.389  1.00  0.00    -0.248 NA
ATOM     53  C   UNL A   1      48.534  29.278  26.925  1.00  0.00     0.031 C 
ATOM     54  C   UNL A   1      43.317  31.599  29.009  1.00  0.00     0.029 A 
ATOM     55  C   UNL A   1      44.265  30.731  28.493  1.00  0.00     0.049 A 
ATOM     56  H   UNL A   1      44.044  28.708  27.932  1.00  0.00     0.167 HD
ATOM     57  C   UNL A   1      46.530  30.071  27.715  1.00  0.00     0.074 A 
ATOM     58  C   UNL A   1      47.927  30.340  27.438  1.00  0.00     0.031 C 
ATOM     59  C   UNL A   1      45.655  30.986  28.202  1.00  0.00     0.037 A 
BRANCH  46  60
ATOM     60  C   UNL A   1      39.892  28.845  28.924  1.00  0.00     0.064 A 
ATOM     61  C   UNL A   1      39.389  28.658  30.221  1.00  0.00     0.173 A 
ATOM     62  C   UNL A   1      39.003  29.309  27.941  1.00  0.00     0.173 A 
ATOM     63  F   UNL A   1      40.191  28.207  31.198  1.00  0.00    -0.203 F 
ATOM     64  C   UNL A   1      38.044  28.873  30.510  1.00  0.00     0.198 A 
ATOM     65  C   UNL A   1      37.667  29.561  28.243  1.00  0.00     0.198 A 
ATOM     66  F   UNL A   1      39.427  29.513  26.685  1.00  0.00    -0.203 F 
ATOM     67  F   UNL A   1      37.573  28.612  31.737  1.00  0.00    -0.200 F 
ATOM     68  C   UNL A   1      37.185  29.328  29.522  1.00  0.00     0.200 A 
ATOM     69  F   UNL A   1      36.841  30.016  27.290  1.00  0.00    -0.200 F 
ATOM     70  F   UNL A   1      35.890  29.532  29.799  1.00  0.00    -0.200 F 
ENDBRANCH  46  60
BRANCH  47  71
ATOM     71  C   UNL A   1      49.171  26.563  25.993  1.00  0.00     0.064 A 
ATOM     72  C   UNL A   1      49.563  26.862  24.680  1.00  0.00     0.173 A 
ATOM     73  C   UNL A   1      50.123  25.980  26.841  1.00  0.00     0.173 A 
ATOM     74  F   UNL A   1      48.683  27.404  23.826  1.00  0.00    -0.203 F 
ATOM     75  C   UNL A   1      50.853  26.581  24.233  1.00  0.00     0.198 A 
ATOM     76  C   UNL A   1      51.420  25.726  26.402  1.00  0.00     0.198 A 
ATOM     77  F   UNL A   1      49.801  25.683  28.109  1.00  0.00    -0.203 F 
ATOM     78  F   UNL A   1      51.192  26.847  22.965  1.00  0.00    -0.200 F 
ATOM     79  C   UNL A   1      51.783  26.022  25.096  1.00  0.00     0.200 A 
ATOM     80  F   UNL A   1      52.321  25.204  27.245  1.00  0.00    -0.200 F 
ATOM     81  F   UNL A   1      53.028  25.769  24.671  1.00  0.00    -0.200 F 
ENDBRANCH  47  71
BRANCH  59  82
ATOM     82  C   UNL A   1      46.186  32.362  28.488  1.00  0.00     0.064 A 
ATOM     83  C   UNL A   1      46.751  32.691  29.729  1.00  0.00     0.173 A 
ATOM     84  C   UNL A   1      46.169  33.351  27.492  1.00  0.00     0.173 A 
ATOM     85  F   UNL A   1      46.780  31.788  30.720  1.00  0.00    -0.203 F 
ATOM     86  C   UNL A   1      47.253  33.968  29.971  1.00  0.00     0.198 A 
ATOM     87  C   UNL A   1      46.703  34.614  27.725  1.00  0.00     0.198 A 
ATOM     88  F   UNL A   1      45.647  33.085  26.284  1.00  0.00    -0.203 F 
ATOM     89  F   UNL A   1      47.739  34.277  31.180  1.00  0.00    -0.200 F 
ATOM     90  C   UNL A   1      47.236  34.925  28.966  1.00  0.00     0.200 A 
ATOM     91  F   UNL A   1      46.703  35.531  26.748  1.00  0.00    -0.200 F 
ATOM     92  F   UNL A   1      47.728  36.149  29.198  1.00  0.00    -0.200 F 
ENDBRANCH  59  82
ENDBRANCH  33  34
ENDBRANCH  25  28
ENDBRANCH  23  24
ENDBRANCH  22  23
ENDBRANCH   1  22
TORSDOF 14
ENDMDL
MODEL 3
REMARK VINA RESULT:     -12.6      6.076     11.211
REMARK SMILES CC(C)(O)CC[C@@]1(C(=O)NCCCNC(=O)c2ccc(-c3c4nc(c(-c5c(F)c(F)c(F)c(F)c5F)c5ccc([nH]5)c(-c5c(F)c(F)c(F)c(F)c5F)c5nc(c(-c6c(F)c(F)c(F)c(F)c6F)c6ccc3[nH]6)C=C5)C=C4)cc2)CCc2ccccc21
REMARK SMILES IDX 11 1 10 2 8 3 9 4 7 6 80 7 87 8 81 9 82 10 86 11 83 12 85 13
REMARK SMILES IDX 84 14 6 15 5 16 2 17 1 18 3 19 4 20 12 22 13 23 14 24 15 25
REMARK SMILES IDX 16 27 17 28 18 29 79 30 19 31 78 32 20 33 21 34 22 35 72 36
REMARK SMILES IDX 23 37 77 38 71 39 73 40 24 41 76 42 70 43 69 44 25 46 57 47
REMARK SMILES IDX 37 48 56 49 38 50 41 51 55 52 74 53 39 54 40 55 54 57 75 58
REMARK SMILES IDX 42 59 26 60 27 61 35 62 28 63 29 64 33 65 36 66 30 67 31 68
REMARK SMILES IDX 34 69 32 70 58 71 59 72 67 73 60 74 61 75 65 76 68 77 62 78
REMARK SMILES IDX 63 79 66 80 64 81 43 82 44 83 52 84 45 85 46 86 50 87 53 88
REMARK SMILES IDX 47 89 48 90 51 91 49 92
REMARK H PARENT 10 5 4 21 14 26 73 45 41 56
REMARK Flexibility Score: inf
ROOT
ATOM      1  C   UNL A   1      37.243  21.004  24.265  1.00  0.00     0.117 C 
ENDROOT
BRANCH   1   2
ATOM      2  N   UNL A   1      37.312  22.294  24.926  1.00  0.00    -0.355 N 
ATOM      3  C   UNL A   1      36.383  23.037  25.584  1.00  0.00     0.230 C 
ATOM      4  O   UNL A   1      36.822  24.079  26.079  1.00  0.00    -0.274 OA
ATOM      5  H   UNL A   1      38.203  22.711  24.892  1.00  0.00     0.163 HD
BRANCH   3   6
ATOM      6  C   UNL A   1      34.896  22.641  25.678  1.00  0.00     0.075 C 
ATOM      7  C   UNL A   1      34.703  21.164  26.175  1.00  0.00     0.026 C 
ATOM      8  C   UNL A   1      34.210  22.545  24.326  1.00  0.00    -0.029 A 
ATOM      9  C   UNL A   1      33.414  20.632  25.526  1.00  0.00     0.037 C 
ATOM     10  C   UNL A   1      33.298  21.484  24.303  1.00  0.00    -0.044 A 
ATOM     11  C   UNL A   1      34.380  23.331  23.194  1.00  0.00     0.005 A 
ATOM     12  C   UNL A   1      32.422  21.306  23.243  1.00  0.00     0.004 A 
ATOM     13  C   UNL A   1      33.510  23.153  22.110  1.00  0.00     0.000 A 
ATOM     14  C   UNL A   1      32.512  22.171  22.152  1.00  0.00     0.000 A 
BRANCH   6  15
ATOM     15  C   UNL A   1      34.102  23.509  26.729  1.00  0.00     0.025 C 
BRANCH  15  16
ATOM     16  C   UNL A   1      33.230  24.725  26.355  1.00  0.00     0.036 C 
BRANCH  16  17
ATOM     17  C   UNL A   1      31.697  24.562  26.289  1.00  0.00     0.059 C 
ATOM     18  C   UNL A   1      31.210  23.270  26.926  1.00  0.00     0.042 C 
ATOM     19  C   UNL A   1      31.252  24.570  24.820  1.00  0.00     0.042 C 
BRANCH  17  20
ATOM     20  O   UNL A   1      31.069  25.684  26.914  1.00  0.00    -0.390 OA
ATOM     21  H   UNL A   1      31.086  26.442  26.309  1.00  0.00     0.211 HD
ENDBRANCH  17  20
ENDBRANCH  16  17
ENDBRANCH  15  16
ENDBRANCH   6  15
ENDBRANCH   3   6
ENDBRANCH   1   2
BRANCH   1  22
ATOM     22  C   UNL A   1      37.942  19.905  25.044  1.00  0.00     0.042 C 
BRANCH  22  23
ATOM     23  C   UNL A   1      39.235  20.338  25.714  1.00  0.00     0.118 C 
BRANCH  23  24
ATOM     24  N   UNL A   1      40.192  19.250  25.875  1.00  0.00    -0.352 N 
ATOM     25  C   UNL A   1      41.549  19.280  26.104  1.00  0.00     0.251 C 
ATOM     26  H   UNL A   1      39.806  18.346  25.810  1.00  0.00     0.163 HD
ATOM     27  O   UNL A   1      42.209  18.254  26.031  1.00  0.00    -0.269 OA
BRANCH  25  28
ATOM     28  C   UNL A   1      42.213  20.567  26.403  1.00  0.00     0.039 A 
ATOM     29  C   UNL A   1      42.741  21.320  25.353  1.00  0.00     0.014 A 
ATOM     30  C   UNL A   1      42.293  21.039  27.713  1.00  0.00     0.014 A 
ATOM     31  C   UNL A   1      43.264  22.589  25.611  1.00  0.00     0.010 A 
ATOM     32  C   UNL A   1      42.692  22.347  27.949  1.00  0.00     0.010 A 
ATOM     33  C   UNL A   1      43.194  23.134  26.905  1.00  0.00    -0.014 A 
BRANCH  33  34
ATOM     34  C   UNL A   1      43.648  24.518  27.190  1.00  0.00     0.031 A 
ATOM     35  C   UNL A   1      42.670  25.544  27.690  1.00  0.00     0.074 A 
ATOM     36  C   UNL A   1      44.919  24.873  26.918  1.00  0.00     0.049 A 
ATOM     37  N   UNL A   1      42.852  26.819  27.927  1.00  0.00    -0.248 NA
ATOM     38  C   UNL A   1      41.288  25.087  27.912  1.00  0.00     0.031 C 
ATOM     39  C   UNL A   1      45.943  23.989  26.360  1.00  0.00     0.029 A 
ATOM     40  N   UNL A   1      45.563  26.076  27.062  1.00  0.00    -0.354 N 
ATOM     41  C   UNL A   1      41.610  27.314  28.301  1.00  0.00     0.074 A 
ATOM     42  C   UNL A   1      40.668  26.223  28.188  1.00  0.00     0.031 C 
ATOM     43  C   UNL A   1      47.093  24.669  26.238  1.00  0.00     0.029 A 
ATOM     44  C   UNL A   1      46.877  26.048  26.668  1.00  0.00     0.049 A 
ATOM     45  H   UNL A   1      45.123  26.883  27.417  1.00  0.00     0.167 HD
ATOM     46  C   UNL A   1      41.288  28.557  28.730  1.00  0.00     0.037 A 
ATOM     47  C   UNL A   1      47.803  27.025  26.646  1.00  0.00     0.037 A 
ATOM     48  C   UNL A   1      42.237  29.631  28.864  1.00  0.00     0.049 A 
ATOM     49  C   UNL A   1      47.431  28.396  27.138  1.00  0.00     0.074 A 
ATOM     50  C   UNL A   1      42.037  30.903  29.366  1.00  0.00     0.029 A 
ATOM     51  N   UNL A   1      43.569  29.556  28.480  1.00  0.00    -0.354 N 
ATOM     52  N   UNL A   1      46.276  28.831  27.579  1.00  0.00    -0.248 NA
ATOM     53  C   UNL A   1      48.494  29.410  27.139  1.00  0.00     0.031 C 
ATOM     54  C   UNL A   1      43.231  31.619  29.227  1.00  0.00     0.029 A 
ATOM     55  C   UNL A   1      44.195  30.773  28.702  1.00  0.00     0.049 A 
ATOM     56  H   UNL A   1      44.006  28.757  28.106  1.00  0.00     0.167 HD
ATOM     57  C   UNL A   1      46.474  30.159  27.929  1.00  0.00     0.074 A 
ATOM     58  C   UNL A   1      47.868  30.453  27.665  1.00  0.00     0.031 C 
ATOM     59  C   UNL A   1      45.582  31.053  28.425  1.00  0.00     0.037 A 
BRANCH  46  60
ATOM     60  C   UNL A   1      39.847  28.818  29.073  1.00  0.00     0.064 A 
ATOM     61  C   UNL A   1      39.340  28.606  30.365  1.00  0.00     0.173 A 
ATOM     62  C   UNL A   1      38.956  29.281  28.091  1.00  0.00     0.173 A 
ATOM     63  F   UNL A   1      40.143  28.154  31.340  1.00  0.00    -0.203 F 
ATOM     64  C   UNL A   1      37.989  28.796  30.648  1.00  0.00     0.198 A 
ATOM     65  C   UNL A   1      37.615  29.508  28.388  1.00  0.00     0.198 A 
ATOM     66  F   UNL A   1      39.384  29.508  26.840  1.00  0.00    -0.203 F 
ATOM     67  F   UNL A   1      37.516  28.511  31.869  1.00  0.00    -0.200 F 
ATOM     68  C   UNL A   1      37.129  29.251  29.661  1.00  0.00     0.200 A 
ATOM     69  F   UNL A   1      36.788  29.963  27.437  1.00  0.00    -0.200 F 
ATOM     70  F   UNL A   1      35.830  29.431  29.933  1.00  0.00    -0.200 F 
ENDBRANCH  46  60
BRANCH  47  71
ATOM     71  C   UNL A   1      49.176  26.720  26.165  1.00  0.00     0.064 A 
ATOM     72  C   UNL A   1      50.124  26.130  27.014  1.00  0.00     0.173 A 
ATOM     73  C   UNL A   1      49.556  26.973  24.839  1.00  0.00     0.173 A 
ATOM     74  F   UNL A   1      49.813  25.885  28.295  1.00  0.00    -0.203 F 
ATOM     75  C   UNL A   1      51.402  25.813  26.556  1.00  0.00     0.198 A 
ATOM     76  C   UNL A   1      50.824  26.629  24.375  1.00  0.00     0.198 A 
ATOM     77  F   UNL A   1      48.685  27.528  23.985  1.00  0.00    -0.203 F 
ATOM     78  F   UNL A   1      52.298  25.279  27.397  1.00  0.00    -0.200 F 
ATOM     79  C   UNL A   1      51.748  26.054  25.236  1.00  0.00     0.200 A 
ATOM     80  F   UNL A   1      51.148  26.847  23.093  1.00  0.00    -0.200 F 
ATOM     81  F   UNL A   1      52.971  25.733  24.792  1.00  0.00    -0.200 F 
ENDBRANCH  47  71
BRANCH  59  82
ATOM     82  C   UNL A   1      46.092  32.432  28.738  1.00  0.00     0.064 A 
ATOM     83  C   UNL A   1      46.043  33.468  27.794  1.00  0.00     0.173 A 
ATOM     84  C   UNL A   1      46.595  32.729  30.014  1.00  0.00     0.173 A 
ATOM     85  F   UNL A   1      45.585  33.235  26.555  1.00  0.00    -0.203 F 
ATOM     86  C   UNL A   1      46.506  34.744  28.108  1.00  0.00     0.198 A 
ATOM     87  C   UNL A   1      47.023  34.013  30.335  1.00  0.00     0.198 A 
ATOM     88  F   UNL A   1      46.656  31.776  30.956  1.00  0.00    -0.203 F 
ATOM     89  F   UNL A   1      46.500  35.706  27.176  1.00  0.00    -0.200 F 
ATOM     90  C   UNL A   1      46.987  35.017  29.380  1.00  0.00     0.200 A 
ATOM     91  F   UNL A   1      47.471  34.279  31.570  1.00  0.00    -0.200 F 
ATOM     92  F   UNL A   1      47.423  36.248  29.684  1.00  0.00    -0.200 F 
ENDBRANCH  59  82
ENDBRANCH  33  34
ENDBRANCH  25  28
ENDBRANCH  23  24
ENDBRANCH  22  23
ENDBRANCH   1  22
TORSDOF 14
ENDMDL
