MODEL 1
REMARK VINA RESULT:     -12.3      0.000      0.000
REMARK SMILES O=C(C[C@H](C(=O)NCCCNC(=O)c1ccc(-c2c3nc(c(-c4c(F)c(F)c(F)c(F)c4F)c4ccc([nH]4)c(-c4c(F)c(F)c(F)c(F)c4F)c4nc(c(-c5c(F)c(F)c(F)c(F)c5F)c5ccc2[nH]5)C=C4)C=C3)cc1)c1ccccc1)Nc1ccc(Cl)cc1Cl
REMARK SMILES IDX 8 1 7 2 5 3 6 4 4 6 3 7 2 8 1 9 83 10 84 12 85 13 90 14
REMARK SMILES IDX 86 15 89 16 91 17 87 18 88 19 77 20 78 21 82 22 79 23 81 24
REMARK SMILES IDX 80 25 9 26 10 27 11 28 12 29 13 31 14 32 15 33 76 34 16 35
REMARK SMILES IDX 75 36 17 37 18 38 19 39 69 40 20 41 74 42 68 43 70 44 21 45
REMARK SMILES IDX 73 46 67 47 66 48 22 50 54 51 34 52 53 53 35 54 38 55 52 56
REMARK SMILES IDX 71 57 36 58 37 59 51 61 72 62 39 63 23 64 24 65 32 66 25 67
REMARK SMILES IDX 26 68 30 69 33 70 27 71 28 72 31 73 29 74 55 75 56 76 64 77
REMARK SMILES IDX 57 78 58 79 62 80 65 81 59 82 60 83 63 84 61 85 40 86 41 87
REMARK SMILES IDX 49 88 42 89 43 90 47 91 50 92 44 93 45 94 48 95 46 96
REMARK H PARENT 7 5 83 11 11 30 70 49 38 60
REMARK Flexibility Score: inf
ROOT
ATOM      1  C   UNL A   1      31.822  28.091  26.981  1.00  0.00     0.117 C 
ENDROOT
BRANCH   1   2
ATOM      2  N   UNL A   1      31.052  26.867  27.100  1.00  0.00    -0.355 N 
ATOM      3  C   UNL A   1      30.516  26.072  26.133  1.00  0.00     0.228 C 
ATOM      4  O   UNL A   1      29.723  25.197  26.481  1.00  0.00    -0.274 OA
ATOM      5  H   UNL A   1      30.891  26.565  28.024  1.00  0.00     0.163 HD
BRANCH   3   6
ATOM      6  C   UNL A   1      30.945  26.265  24.678  1.00  0.00     0.118 C 
BRANCH   6   7
ATOM      7  C   UNL A   1      31.009  24.907  23.967  1.00  0.00     0.118 C 
BRANCH   7   8
ATOM      8  C   UNL A   1      32.424  24.334  23.859  1.00  0.00     0.225 C 
ATOM      9  O   UNL A   1      32.998  24.299  22.774  1.00  0.00    -0.275 OA
ATOM     10  N   UNL A   1      32.962  23.859  25.050  1.00  0.00    -0.325 N 
ATOM     11  H   UNL A   1      32.393  23.885  25.853  1.00  0.00     0.169 HD
BRANCH  10  12
ATOM     12  C   UNL A   1      34.273  23.339  25.186  1.00  0.00     0.060 A 
ATOM     13  C   UNL A   1      35.277  24.269  25.506  1.00  0.00     0.029 A 
ATOM     14  C   UNL A   1      34.637  21.992  25.004  1.00  0.00     0.066 A 
ATOM     15  C   UNL A   1      36.592  23.853  25.732  1.00  0.00     0.023 A 
ATOM     16  C   UNL A   1      35.955  21.578  25.234  1.00  0.00     0.043 A 
ATOM     17  Cl  UNL A   1      33.583  20.819  24.287  1.00  0.00    -0.082 Cl
ATOM     18  C   UNL A   1      36.920  22.506  25.612  1.00  0.00     0.042 A 
ATOM     19  Cl  UNL A   1      38.538  21.993  25.895  1.00  0.00    -0.084 Cl
ENDBRANCH  10  12
ENDBRANCH   7   8
ENDBRANCH   6   7
BRANCH   6  20
ATOM     20  C   UNL A   1      30.087  27.317  23.995  1.00  0.00    -0.035 A 
ATOM     21  C   UNL A   1      30.617  28.593  23.738  1.00  0.00     0.004 A 
ATOM     22  C   UNL A   1      28.740  27.076  23.682  1.00  0.00     0.004 A 
ATOM     23  C   UNL A   1      29.815  29.605  23.203  1.00  0.00     0.000 A 
ATOM     24  C   UNL A   1      27.941  28.091  23.150  1.00  0.00     0.000 A 
ATOM     25  C   UNL A   1      28.477  29.355  22.915  1.00  0.00     0.000 A 
ENDBRANCH   6  20
ENDBRANCH   3   6
ENDBRANCH   1   2
BRANCH   1  26
ATOM     26  C   UNL A   1      33.304  27.802  26.797  1.00  0.00     0.042 C 
BRANCH  26  27
ATOM     27  C   UNL A   1      34.051  28.930  26.095  1.00  0.00     0.118 C 
BRANCH  27  28
ATOM     28  N   UNL A   1      33.893  30.208  26.782  1.00  0.00    -0.352 N 
ATOM     29  C   UNL A   1      34.615  30.754  27.810  1.00  0.00     0.251 C 
ATOM     30  H   UNL A   1      33.150  30.764  26.456  1.00  0.00     0.163 HD
ATOM     31  O   UNL A   1      34.158  31.714  28.431  1.00  0.00    -0.269 OA
BRANCH  29  32
ATOM     32  C   UNL A   1      35.927  30.191  28.180  1.00  0.00     0.039 A 
ATOM     33  C   UNL A   1      36.991  30.284  27.279  1.00  0.00     0.014 A 
ATOM     34  C   UNL A   1      36.104  29.554  29.411  1.00  0.00     0.014 A 
ATOM     35  C   UNL A   1      38.249  29.804  27.646  1.00  0.00     0.010 A 
ATOM     36  C   UNL A   1      37.376  29.166  29.812  1.00  0.00     0.010 A 
ATOM     37  C   UNL A   1      38.462  29.281  28.932  1.00  0.00    -0.014 A 
BRANCH  37  38
ATOM     38  C   UNL A   1      39.809  28.853  29.382  1.00  0.00     0.031 A 
ATOM     39  C   UNL A   1      40.617  29.736  30.293  1.00  0.00     0.074 A 
ATOM     40  C   UNL A   1      40.333  27.707  28.905  1.00  0.00     0.049 A 
ATOM     41  N   UNL A   1      41.843  29.577  30.724  1.00  0.00    -0.248 NA
ATOM     42  C   UNL A   1      39.975  30.976  30.754  1.00  0.00     0.031 C 
ATOM     43  C   UNL A   1      39.666  26.796  27.973  1.00  0.00     0.029 A 
ATOM     44  N   UNL A   1      41.553  27.120  29.127  1.00  0.00    -0.354 N 
ATOM     45  C   UNL A   1      42.120  30.701  31.491  1.00  0.00     0.074 A 
ATOM     46  C   UNL A   1      40.959  31.561  31.419  1.00  0.00     0.031 C 
ATOM     47  C   UNL A   1      40.473  25.753  27.723  1.00  0.00     0.029 A 
ATOM     48  C   UNL A   1      41.730  25.944  28.440  1.00  0.00     0.049 A 
ATOM     49  H   UNL A   1      42.236  27.505  29.722  1.00  0.00     0.167 HD
ATOM     50  C   UNL A   1      43.233  30.978  32.212  1.00  0.00     0.037 A 
ATOM     51  C   UNL A   1      42.792  25.118  28.387  1.00  0.00     0.037 A 
ATOM     52  C   UNL A   1      44.374  30.106  32.298  1.00  0.00     0.049 A 
ATOM     53  C   UNL A   1      44.020  25.453  29.191  1.00  0.00     0.074 A 
ATOM     54  C   UNL A   1      45.527  30.264  33.049  1.00  0.00     0.029 A 
ATOM     55  N   UNL A   1      44.510  28.912  31.604  1.00  0.00    -0.354 N 
ATOM     56  N   UNL A   1      44.242  26.483  29.972  1.00  0.00    -0.248 NA
ATOM     57  C   UNL A   1      45.141  24.507  29.111  1.00  0.00     0.031 C 
ATOM     58  C   UNL A   1      46.381  29.193  32.769  1.00  0.00     0.029 A 
ATOM     59  C   UNL A   1      45.737  28.335  31.891  1.00  0.00     0.049 A 
ATOM     60  H   UNL A   1      43.834  28.530  30.999  1.00  0.00     0.167 HD
ATOM     61  C   UNL A   1      45.512  26.293  30.500  1.00  0.00     0.074 A 
ATOM     62  C   UNL A   1      46.004  25.042  29.962  1.00  0.00     0.031 C 
ATOM     63  C   UNL A   1      46.207  27.084  31.355  1.00  0.00     0.037 A 
BRANCH  50  64
ATOM     64  C   UNL A   1      43.269  32.276  32.968  1.00  0.00     0.064 A 
ATOM     65  C   UNL A   1      42.809  32.372  34.291  1.00  0.00     0.173 A 
ATOM     66  C   UNL A   1      43.806  33.430  32.378  1.00  0.00     0.173 A 
ATOM     67  F   UNL A   1      42.276  31.301  34.899  1.00  0.00    -0.203 F 
ATOM     68  C   UNL A   1      42.858  33.580  34.982  1.00  0.00     0.198 A 
ATOM     69  C   UNL A   1      43.883  34.628  33.083  1.00  0.00     0.198 A 
ATOM     70  F   UNL A   1      44.265  33.395  31.118  1.00  0.00    -0.203 F 
ATOM     71  F   UNL A   1      42.364  33.657  36.226  1.00  0.00    -0.200 F 
ATOM     72  C   UNL A   1      43.402  34.704  34.381  1.00  0.00     0.200 A 
ATOM     73  F   UNL A   1      44.423  35.710  32.506  1.00  0.00    -0.200 F 
ATOM     74  F   UNL A   1      43.457  35.863  35.051  1.00  0.00    -0.200 F 
ENDBRANCH  50  64
BRANCH  51  75
ATOM     75  C   UNL A   1      42.734  23.884  27.560  1.00  0.00     0.064 A 
ATOM     76  C   UNL A   1      42.334  22.662  28.118  1.00  0.00     0.173 A 
ATOM     77  C   UNL A   1      43.078  23.897  26.200  1.00  0.00     0.173 A 
ATOM     78  F   UNL A   1      42.011  22.595  29.419  1.00  0.00    -0.203 F 
ATOM     79  C   UNL A   1      42.305  21.496  27.357  1.00  0.00     0.198 A 
ATOM     80  C   UNL A   1      43.018  22.736  25.431  1.00  0.00     0.198 A 
ATOM     81  F   UNL A   1      43.459  25.041  25.614  1.00  0.00    -0.203 F 
ATOM     82  F   UNL A   1      41.967  20.332  27.929  1.00  0.00    -0.200 F 
ATOM     83  C   UNL A   1      42.642  21.535  26.012  1.00  0.00     0.200 A 
ATOM     84  F   UNL A   1      43.327  22.782  24.128  1.00  0.00    -0.200 F 
ATOM     85  F   UNL A   1      42.608  20.414  25.278  1.00  0.00    -0.200 F 
ENDBRANCH  51  75
BRANCH  63  86
ATOM     86  C   UNL A   1      47.558  26.599  31.797  1.00  0.00     0.064 A 
ATOM     87  C   UNL A   1      47.712  25.741  32.896  1.00  0.00     0.173 A 
ATOM     88  C   UNL A   1      48.709  26.967  31.084  1.00  0.00     0.173 A 
ATOM     89  F   UNL A   1      46.645  25.372  33.620  1.00  0.00    -0.203 F 
ATOM     90  C   UNL A   1      48.973  25.292  33.281  1.00  0.00     0.198 A 
ATOM     91  C   UNL A   1      49.963  26.490  31.451  1.00  0.00     0.198 A 
ATOM     92  F   UNL A   1      48.616  27.780  30.020  1.00  0.00    -0.203 F 
ATOM     93  F   UNL A   1      49.103  24.516  34.366  1.00  0.00    -0.200 F 
ATOM     94  C   UNL A   1      50.095  25.660  32.555  1.00  0.00     0.200 A 
ATOM     95  F   UNL A   1      51.045  26.832  30.737  1.00  0.00    -0.200 F 
ATOM     96  F   UNL A   1      51.307  25.219  32.921  1.00  0.00    -0.200 F 
ENDBRANCH  63  86
ENDBRANCH  37  38
ENDBRANCH  29  32
ENDBRANCH  27  28
ENDBRANCH  26  27
ENDBRANCH   1  26
TORSDOF 14
ENDMDL
MODEL 2
REMARK VINA RESULT:     -12.2      3.369      8.736
REMARK SMILES O=C(C[C@H](C(=O)NCCCNC(=O)c1ccc(-c2c3nc(c(-c4c(F)c(F)c(F)c(F)c4F)c4ccc([nH]4)c(-c4c(F)c(F)c(F)c(F)c4F)c4nc(c(-c5c(F)c(F)c(F)c(F)c5F)c5ccc2[nH]5)C=C4)C=C3)cc1)c1ccccc1)Nc1ccc(Cl)cc1Cl
REMARK SMILES IDX 8 1 7 2 5 3 6 4 4 6 3 7 2 8 1 9 83 10 84 12 85 13 90 14
REMARK SMILES IDX 86 15 89 16 91 17 87 18 88 19 77 20 78 21 82 22 79 23 81 24
REMARK SMILES IDX 80 25 9 26 10 27 11 28 12 29 13 31 14 32 15 33 76 34 16 35
REMARK SMILES IDX 75 36 17 37 18 38 19 39 69 40 20 41 74 42 68 43 70 44 21 45
REMARK SMILES IDX 73 46 67 47 66 48 22 50 54 51 34 52 53 53 35 54 38 55 52 56
REMARK SMILES IDX 71 57 36 58 37 59 51 61 72 62 39 63 23 64 24 65 32 66 25 67
REMARK SMILES IDX 26 68 30 69 33 70 27 71 28 72 31 73 29 74 55 75 56 76 64 77
REMARK SMILES IDX 57 78 58 79 62 80 65 81 59 82 60 83 63 84 61 85 40 86 41 87
REMARK SMILES IDX 49 88 42 89 43 90 47 91 50 92 44 93 45 94 48 95 46 96
REMARK H PARENT 7 5 83 11 11 30 70 49 38 60
REMARK Flexibility Score: inf
ROOT
ATOM      1  C   UNL A   1      34.444  23.397  25.427  1.00  0.00     0.117 C 
ENDROOT
BRANCH   1   2
ATOM      2  N   UNL A   1      33.274  23.272  26.277  1.00  0.00    -0.355 N 
ATOM      3  C   UNL A   1      32.218  24.117  26.443  1.00  0.00     0.228 C 
ATOM      4  O   UNL A   1      31.447  23.897  27.376  1.00  0.00    -0.274 OA
ATOM      5  H   UNL A   1      33.237  22.449  26.815  1.00  0.00     0.163 HD
BRANCH   3   6
ATOM      6  C   UNL A   1      32.011  25.266  25.456  1.00  0.00     0.118 C 
BRANCH   6   7
ATOM      7  C   UNL A   1      30.587  25.219  24.889  1.00  0.00     0.118 C 
BRANCH   7   8
ATOM      8  C   UNL A   1      30.347  26.202  23.740  1.00  0.00     0.225 C 
ATOM      9  O   UNL A   1      30.662  25.902  22.592  1.00  0.00    -0.275 OA
ATOM     10  N   UNL A   1      29.786  27.419  24.111  1.00  0.00    -0.325 N 
ATOM     11  H   UNL A   1      29.624  27.577  25.069  1.00  0.00     0.169 HD
BRANCH  10  12
ATOM     12  C   UNL A   1      29.432  28.448  23.203  1.00  0.00     0.060 A 
ATOM     13  C   UNL A   1      28.059  28.595  22.941  1.00  0.00     0.029 A 
ATOM     14  C   UNL A   1      30.339  29.297  22.543  1.00  0.00     0.066 A 
ATOM     15  C   UNL A   1      27.596  29.624  22.115  1.00  0.00     0.023 A 
ATOM     16  C   UNL A   1      29.871  30.329  21.719  1.00  0.00     0.043 A 
ATOM     17  Cl  UNL A   1      32.047  29.010  22.510  1.00  0.00    -0.082 Cl
ATOM     18  C   UNL A   1      28.503  30.496  21.522  1.00  0.00     0.042 A 
ATOM     19  Cl  UNL A   1      27.932  31.764  20.510  1.00  0.00    -0.084 Cl
ENDBRANCH  10  12
ENDBRANCH   7   8
ENDBRANCH   6   7
BRANCH   6  20
ATOM     20  C   UNL A   1      32.423  26.593  26.073  1.00  0.00    -0.035 A 
ATOM     21  C   UNL A   1      33.691  27.130  25.795  1.00  0.00     0.004 A 
ATOM     22  C   UNL A   1      31.596  27.265  26.986  1.00  0.00     0.004 A 
ATOM     23  C   UNL A   1      34.126  28.296  26.430  1.00  0.00     0.000 A 
ATOM     24  C   UNL A   1      32.035  28.428  27.621  1.00  0.00     0.000 A 
ATOM     25  C   UNL A   1      33.302  28.942  27.347  1.00  0.00     0.000 A 
ENDBRANCH   6  20
ENDBRANCH   3   6
ENDBRANCH   1   2
BRANCH   1  26
ATOM     26  C   UNL A   1      35.721  23.066  26.184  1.00  0.00     0.042 C 
BRANCH  26  27
ATOM     27  C   UNL A   1      36.974  23.612  25.511  1.00  0.00     0.118 C 
BRANCH  27  28
ATOM     28  N   UNL A   1      38.135  22.754  25.727  1.00  0.00    -0.352 N 
ATOM     29  C   UNL A   1      39.385  23.060  26.197  1.00  0.00     0.251 C 
ATOM     30  H   UNL A   1      37.998  21.807  25.500  1.00  0.00     0.163 HD
ATOM     31  O   UNL A   1      40.304  22.254  26.048  1.00  0.00    -0.269 OA
BRANCH  29  32
ATOM     32  C   UNL A   1      39.635  24.351  26.866  1.00  0.00     0.039 A 
ATOM     33  C   UNL A   1      39.228  24.524  28.191  1.00  0.00     0.014 A 
ATOM     34  C   UNL A   1      40.254  25.398  26.180  1.00  0.00     0.014 A 
ATOM     35  C   UNL A   1      39.513  25.722  28.849  1.00  0.00     0.010 A 
ATOM     36  C   UNL A   1      40.622  26.550  26.861  1.00  0.00     0.010 A 
ATOM     37  C   UNL A   1      40.250  26.728  28.202  1.00  0.00    -0.014 A 
BRANCH  37  38
ATOM     38  C   UNL A   1      40.649  27.971  28.907  1.00  0.00     0.031 A 
ATOM     39  C   UNL A   1      42.038  28.110  29.465  1.00  0.00     0.074 A 
ATOM     40  C   UNL A   1      39.734  28.938  29.112  1.00  0.00     0.049 A 
ATOM     41  N   UNL A   1      42.548  29.079  30.184  1.00  0.00    -0.248 NA
ATOM     42  C   UNL A   1      42.969  27.001  29.208  1.00  0.00     0.031 C 
ATOM     43  C   UNL A   1      38.340  28.892  28.667  1.00  0.00     0.029 A 
ATOM     44  N   UNL A   1      39.835  30.143  29.761  1.00  0.00    -0.354 N 
ATOM     45  C   UNL A   1      43.848  28.687  30.476  1.00  0.00     0.074 A 
ATOM     46  C   UNL A   1      44.031  27.369  29.909  1.00  0.00     0.031 C 
ATOM     47  C   UNL A   1      37.723  30.026  29.031  1.00  0.00     0.029 A 
ATOM     48  C   UNL A   1      38.663  30.859  29.775  1.00  0.00     0.049 A 
ATOM     49  H   UNL A   1      40.667  30.463  30.176  1.00  0.00     0.167 HD
ATOM     50  C   UNL A   1      44.809  29.376  31.135  1.00  0.00     0.037 A 
ATOM     51  C   UNL A   1      38.377  32.050  30.335  1.00  0.00     0.037 A 
ATOM     52  C   UNL A   1      44.626  30.697  31.676  1.00  0.00     0.049 A 
ATOM     53  C   UNL A   1      39.461  32.792  31.069  1.00  0.00     0.074 A 
ATOM     54  C   UNL A   1      45.553  31.508  32.308  1.00  0.00     0.029 A 
ATOM     55  N   UNL A   1      43.430  31.401  31.653  1.00  0.00    -0.354 N 
ATOM     56  N   UNL A   1      40.708  32.444  31.275  1.00  0.00    -0.248 NA
ATOM     57  C   UNL A   1      39.099  34.095  31.642  1.00  0.00     0.031 C 
ATOM     58  C   UNL A   1      44.906  32.679  32.714  1.00  0.00     0.029 A 
ATOM     59  C   UNL A   1      43.590  32.626  32.281  1.00  0.00     0.049 A 
ATOM     60  H   UNL A   1      42.592  31.079  31.249  1.00  0.00     0.167 HD
ATOM     61  C   UNL A   1      41.287  33.496  31.971  1.00  0.00     0.074 A 
ATOM     62  C   UNL A   1      40.258  34.501  32.140  1.00  0.00     0.031 C 
ATOM     63  C   UNL A   1      42.558  33.619  32.430  1.00  0.00     0.037 A 
BRANCH  50  64
ATOM     64  C   UNL A   1      46.148  28.716  31.306  1.00  0.00     0.064 A 
ATOM     65  C   UNL A   1      46.443  27.926  32.428  1.00  0.00     0.173 A 
ATOM     66  C   UNL A   1      47.136  28.843  30.317  1.00  0.00     0.173 A 
ATOM     67  F   UNL A   1      45.538  27.781  33.408  1.00  0.00    -0.203 F 
ATOM     68  C   UNL A   1      47.686  27.313  32.568  1.00  0.00     0.198 A 
ATOM     69  C   UNL A   1      48.365  28.201  30.445  1.00  0.00     0.198 A 
ATOM     70  F   UNL A   1      46.906  29.581  29.222  1.00  0.00    -0.203 F 
ATOM     71  F   UNL A   1      47.961  26.607  33.673  1.00  0.00    -0.200 F 
ATOM     72  C   UNL A   1      48.642  27.444  31.573  1.00  0.00     0.200 A 
ATOM     73  F   UNL A   1      49.282  28.316  29.475  1.00  0.00    -0.200 F 
ATOM     74  F   UNL A   1      49.833  26.846  31.704  1.00  0.00    -0.200 F 
ENDBRANCH  50  64
BRANCH  51  75
ATOM     75  C   UNL A   1      37.012  32.625  30.204  1.00  0.00     0.064 A 
ATOM     76  C   UNL A   1      36.656  33.385  29.080  1.00  0.00     0.173 A 
ATOM     77  C   UNL A   1      36.038  32.432  31.194  1.00  0.00     0.173 A 
ATOM     78  F   UNL A   1      37.558  33.612  28.114  1.00  0.00    -0.203 F 
ATOM     79  C   UNL A   1      35.388  33.950  28.964  1.00  0.00     0.198 A 
ATOM     80  C   UNL A   1      34.760  32.972  31.062  1.00  0.00     0.198 A 
ATOM     81  F   UNL A   1      36.323  31.705  32.285  1.00  0.00    -0.203 F 
ATOM     82  F   UNL A   1      35.092  34.714  27.904  1.00  0.00    -0.200 F 
ATOM     83  C   UNL A   1      34.439  33.739  29.953  1.00  0.00     0.200 A 
ATOM     84  F   UNL A   1      33.840  32.749  32.012  1.00  0.00    -0.200 F 
ATOM     85  F   UNL A   1      33.218  34.279  29.839  1.00  0.00    -0.200 F 
ENDBRANCH  51  75
BRANCH  63  86
ATOM     86  C   UNL A   1      42.919  34.904  33.120  1.00  0.00     0.064 A 
ATOM     87  C   UNL A   1      42.843  35.041  34.514  1.00  0.00     0.173 A 
ATOM     88  C   UNL A   1      43.388  35.997  32.376  1.00  0.00     0.173 A 
ATOM     89  F   UNL A   1      42.387  34.030  35.268  1.00  0.00    -0.203 F 
ATOM     90  C   UNL A   1      43.196  36.236  35.134  1.00  0.00     0.198 A 
ATOM     91  C   UNL A   1      43.771  37.179  33.003  1.00  0.00     0.198 A 
ATOM     92  F   UNL A   1      43.486  35.915  31.041  1.00  0.00    -0.203 F 
ATOM     93  F   UNL A   1      43.065  36.364  36.462  1.00  0.00    -0.200 F 
ATOM     94  C   UNL A   1      43.667  37.301  34.380  1.00  0.00     0.200 A 
ATOM     95  F   UNL A   1      44.242  38.200  32.274  1.00  0.00    -0.200 F 
ATOM     96  F   UNL A   1      44.015  38.447  34.981  1.00  0.00    -0.200 F 
ENDBRANCH  63  86
ENDBRANCH  37  38
ENDBRANCH  29  32
ENDBRANCH  27  28
ENDBRANCH  26  27
ENDBRANCH   1  26
TORSDOF 14
ENDMDL
MODEL 3
REMARK VINA RESULT:     -12.0      3.843      7.321
REMARK SMILES O=C(C[C@H](C(=O)NCCCNC(=O)c1ccc(-c2c3nc(c(-c4c(F)c(F)c(F)c(F)c4F)c4ccc([nH]4)c(-c4c(F)c(F)c(F)c(F)c4F)c4nc(c(-c5c(F)c(F)c(F)c(F)c5F)c5ccc2[nH]5)C=C4)C=C3)cc1)c1ccccc1)Nc1ccc(Cl)cc1Cl
REMARK SMILES IDX 8 1 7 2 5 3 6 4 4 6 3 7 2 8 1 9 83 10 84 12 85 13 90 14
REMARK SMILES IDX 86 15 89 16 91 17 87 18 88 19 77 20 78 21 82 22 79 23 81 24
REMARK SMILES IDX 80 25 9 26 10 27 11 28 12 29 13 31 14 32 15 33 76 34 16 35
REMARK SMILES IDX 75 36 17 37 18 38 19 39 69 40 20 41 74 42 68 43 70 44 21 45
REMARK SMILES IDX 73 46 67 47 66 48 22 50 54 51 34 52 53 53 35 54 38 55 52 56
REMARK SMILES IDX 71 57 36 58 37 59 51 61 72 62 39 63 23 64 24 65 32 66 25 67
REMARK SMILES IDX 26 68 30 69 33 70 27 71 28 72 31 73 29 74 55 75 56 76 64 77
REMARK SMILES IDX 57 78 58 79 62 80 65 81 59 82 60 83 63 84 61 85 40 86 41 87
REMARK SMILES IDX 49 88 42 89 43 90 47 91 50 92 44 93 45 94 48 95 46 96
REMARK H PARENT 7 5 83 11 11 30 70 49 38 60
REMARK Flexibility Score: inf
ROOT
ATOM      1  C   UNL A   1      34.627  23.400  26.237  1.00  0.00     0.117 C 
ENDROOT
BRANCH   1   2
ATOM      2  N   UNL A   1      33.320  23.181  26.829  1.00  0.00    -0.355 N 
ATOM      3  C   UNL A   1      32.168  23.893  26.694  1.00  0.00     0.228 C 
ATOM      4  O   UNL A   1      31.239  23.636  27.460  1.00  0.00    -0.274 OA
ATOM      5  H   UNL A   1      33.258  22.395  27.419  1.00  0.00     0.163 HD
BRANCH   3   6
ATOM      6  C   UNL A   1      32.057  24.943  25.588  1.00  0.00     0.118 C 
BRANCH   6   7
ATOM      7  C   UNL A   1      30.700  24.819  24.883  1.00  0.00     0.118 C 
BRANCH   7   8
ATOM      8  C   UNL A   1      30.479  25.860  23.783  1.00  0.00     0.225 C 
ATOM      9  O   UNL A   1      30.854  25.636  22.635  1.00  0.00    -0.275 OA
ATOM     10  N   UNL A   1      29.864  27.036  24.195  1.00  0.00    -0.325 N 
ATOM     11  H   UNL A   1      29.655  27.133  25.152  1.00  0.00     0.169 HD
BRANCH  10  12
ATOM     12  C   UNL A   1      29.517  28.105  23.331  1.00  0.00     0.060 A 
ATOM     13  C   UNL A   1      28.150  28.245  23.039  1.00  0.00     0.029 A 
ATOM     14  C   UNL A   1      30.427  29.000  22.740  1.00  0.00     0.066 A 
ATOM     15  C   UNL A   1      27.691  29.307  22.254  1.00  0.00     0.023 A 
ATOM     16  C   UNL A   1      29.964  30.065  21.957  1.00  0.00     0.043 A 
ATOM     17  Cl  UNL A   1      32.140  28.741  22.739  1.00  0.00    -0.082 Cl
ATOM     18  C   UNL A   1      28.600  30.222  21.731  1.00  0.00     0.042 A 
ATOM     19  Cl  UNL A   1      28.035  31.532  20.770  1.00  0.00    -0.084 Cl
ENDBRANCH  10  12
ENDBRANCH   7   8
ENDBRANCH   6   7
BRANCH   6  20
ATOM     20  C   UNL A   1      32.391  26.328  26.118  1.00  0.00    -0.035 A 
ATOM     21  C   UNL A   1      33.606  26.938  25.764  1.00  0.00     0.004 A 
ATOM     22  C   UNL A   1      31.549  26.989  27.025  1.00  0.00     0.004 A 
ATOM     23  C   UNL A   1      33.977  28.165  26.320  1.00  0.00     0.000 A 
ATOM     24  C   UNL A   1      31.924  28.214  27.580  1.00  0.00     0.000 A 
ATOM     25  C   UNL A   1      33.140  28.800  27.231  1.00  0.00     0.000 A 
ENDBRANCH   6  20
ENDBRANCH   3   6
ENDBRANCH   1   2
BRANCH   1  26
ATOM     26  C   UNL A   1      35.397  22.097  26.086  1.00  0.00     0.042 C 
BRANCH  26  27
ATOM     27  C   UNL A   1      36.729  22.269  25.366  1.00  0.00     0.118 C 
BRANCH  27  28
ATOM     28  N   UNL A   1      37.660  21.184  25.661  1.00  0.00    -0.352 N 
ATOM     29  C   UNL A   1      38.974  21.227  26.047  1.00  0.00     0.251 C 
ATOM     30  H   UNL A   1      37.284  20.280  25.568  1.00  0.00     0.163 HD
ATOM     31  O   UNL A   1      39.660  20.206  25.981  1.00  0.00    -0.269 OA
BRANCH  29  32
ATOM     32  C   UNL A   1      39.569  22.488  26.528  1.00  0.00     0.039 A 
ATOM     33  C   UNL A   1      40.585  22.443  27.486  1.00  0.00     0.014 A 
ATOM     34  C   UNL A   1      39.111  23.717  26.048  1.00  0.00     0.014 A 
ATOM     35  C   UNL A   1      41.191  23.630  27.903  1.00  0.00     0.010 A 
ATOM     36  C   UNL A   1      39.778  24.886  26.390  1.00  0.00     0.010 A 
ATOM     37  C   UNL A   1      40.823  24.856  27.326  1.00  0.00    -0.014 A 
BRANCH  37  38
ATOM     38  C   UNL A   1      41.515  26.119  27.680  1.00  0.00     0.031 A 
ATOM     39  C   UNL A   1      40.774  27.210  28.402  1.00  0.00     0.074 A 
ATOM     40  C   UNL A   1      42.787  26.311  27.279  1.00  0.00     0.049 A 
ATOM     41  N   UNL A   1      41.179  28.414  28.721  1.00  0.00    -0.248 NA
ATOM     42  C   UNL A   1      39.385  26.923  28.790  1.00  0.00     0.031 C 
ATOM     43  C   UNL A   1      43.590  25.348  26.524  1.00  0.00     0.029 A 
ATOM     44  N   UNL A   1      43.623  27.388  27.438  1.00  0.00    -0.354 N 
ATOM     45  C   UNL A   1      40.092  29.028  29.329  1.00  0.00     0.074 A 
ATOM     46  C   UNL A   1      38.993  28.088  29.283  1.00  0.00     0.031 C 
ATOM     47  C   UNL A   1      44.810  25.865  26.307  1.00  0.00     0.029 A 
ATOM     48  C   UNL A   1      44.860  27.212  26.867  1.00  0.00     0.049 A 
ATOM     49  H   UNL A   1      43.361  28.208  27.915  1.00  0.00     0.167 HD
ATOM     50  C   UNL A   1      40.024  30.254  29.898  1.00  0.00     0.037 A 
ATOM     51  C   UNL A   1      45.913  28.048  26.796  1.00  0.00     0.037 A 
ATOM     52  C   UNL A   1      41.129  31.175  29.961  1.00  0.00     0.049 A 
ATOM     53  C   UNL A   1      45.809  29.410  27.429  1.00  0.00     0.074 A 
ATOM     54  C   UNL A   1      41.184  32.417  30.569  1.00  0.00     0.029 A 
ATOM     55  N   UNL A   1      42.375  30.953  29.391  1.00  0.00    -0.354 N 
ATOM     56  N   UNL A   1      44.799  29.951  28.067  1.00  0.00    -0.248 NA
ATOM     57  C   UNL A   1      46.994  30.273  27.338  1.00  0.00     0.031 C 
ATOM     58  C   UNL A   1      42.444  32.970  30.321  1.00  0.00     0.029 A 
ATOM     59  C   UNL A   1      43.197  32.047  29.612  1.00  0.00     0.049 A 
ATOM     60  H   UNL A   1      42.636  30.140  28.903  1.00  0.00     0.167 HD
ATOM     61  C   UNL A   1      45.237  31.202  28.481  1.00  0.00     0.074 A 
ATOM     62  C   UNL A   1      46.608  31.333  28.034  1.00  0.00     0.031 C 
ATOM     63  C   UNL A   1      44.563  32.157  29.169  1.00  0.00     0.037 A 
BRANCH  50  64
ATOM     64  C   UNL A   1      38.714  30.672  30.502  1.00  0.00     0.064 A 
ATOM     65  C   UNL A   1      38.476  30.584  31.883  1.00  0.00     0.173 A 
ATOM     66  C   UNL A   1      37.696  31.204  29.696  1.00  0.00     0.173 A 
ATOM     67  F   UNL A   1      39.411  30.073  32.697  1.00  0.00    -0.203 F 
ATOM     68  C   UNL A   1      37.259  30.985  32.429  1.00  0.00     0.198 A 
ATOM     69  C   UNL A   1      36.493  31.634  30.250  1.00  0.00     0.198 A 
ATOM     70  F   UNL A   1      37.870  31.316  28.371  1.00  0.00    -0.203 F 
ATOM     71  F   UNL A   1      37.038  30.842  33.743  1.00  0.00    -0.200 F 
ATOM     72  C   UNL A   1      36.272  31.516  31.613  1.00  0.00     0.200 A 
ATOM     73  F   UNL A   1      35.545  32.162  29.463  1.00  0.00    -0.200 F 
ATOM     74  F   UNL A   1      35.105  31.910  32.142  1.00  0.00    -0.200 F 
ENDBRANCH  50  64
BRANCH  51  75
ATOM     75  C   UNL A   1      47.163  27.615  26.117  1.00  0.00     0.064 A 
ATOM     76  C   UNL A   1      47.306  27.733  24.728  1.00  0.00     0.173 A 
ATOM     77  C   UNL A   1      48.237  27.073  26.839  1.00  0.00     0.173 A 
ATOM     78  F   UNL A   1      46.300  28.230  23.992  1.00  0.00    -0.203 F 
ATOM     79  C   UNL A   1      48.464  27.302  24.083  1.00  0.00     0.198 A 
ATOM     80  C   UNL A   1      49.406  26.672  26.196  1.00  0.00     0.198 A 
ATOM     81  F   UNL A   1      48.155  26.946  28.172  1.00  0.00    -0.203 F 
ATOM     82  F   UNL A   1      48.553  27.381  22.748  1.00  0.00    -0.200 F 
ATOM     83  C   UNL A   1      49.515  26.777  24.818  1.00  0.00     0.200 A 
ATOM     84  F   UNL A   1      50.427  26.181  26.913  1.00  0.00    -0.200 F 
ATOM     85  F   UNL A   1      50.631  26.368  24.198  1.00  0.00    -0.200 F 
ENDBRANCH  51  75
BRANCH  63  86
ATOM     86  C   UNL A   1      45.313  33.410  29.521  1.00  0.00     0.064 A 
ATOM     87  C   UNL A   1      45.299  34.538  28.687  1.00  0.00     0.173 A 
ATOM     88  C   UNL A   1      46.019  33.495  30.730  1.00  0.00     0.173 A 
ATOM     89  F   UNL A   1      44.651  34.502  27.514  1.00  0.00    -0.203 F 
ATOM     90  C   UNL A   1      45.990  35.694  29.039  1.00  0.00     0.198 A 
ATOM     91  C   UNL A   1      46.681  34.663  31.094  1.00  0.00     0.198 A 
ATOM     92  F   UNL A   1      46.057  32.446  31.567  1.00  0.00    -0.203 F 
ATOM     93  F   UNL A   1      46.008  36.742  28.203  1.00  0.00    -0.200 F 
ATOM     94  C   UNL A   1      46.673  35.759  30.244  1.00  0.00     0.200 A 
ATOM     95  F   UNL A   1      47.325  34.730  32.267  1.00  0.00    -0.200 F 
ATOM     96  F   UNL A   1      47.329  36.877  30.585  1.00  0.00    -0.200 F 
ENDBRANCH  63  86
ENDBRANCH  37  38
ENDBRANCH  29  32
ENDBRANCH  27  28
ENDBRANCH  26  27
ENDBRANCH   1  26
TORSDOF 14
ENDMDL
