MODEL 1
REMARK VINA RESULT:     -13.9      0.000      0.000
REMARK SMILES COc1cccc(C(=O)NNC(=O)[C@H]2CC(C)=C(C)C[C@@H]2C(=O)NCCCNC(=O)c2ccc(-c3c4nc(c(-c5c(F)c(F)c(F)c(F)c5F)c5ccc([nH]5)c(-c5c(F)c(F)c(F)c(F)c5F)c5nc(c(-c6c(F)c(F)c(F)c(F)c6F)c6ccc3[nH]6)C=C5)C=C4)cc2)c1
REMARK SMILES IDX 25 1 24 2 22 3 23 4 21 6 14 7 15 8 16 9 20 10 17 11 18 12
REMARK SMILES IDX 19 13 12 14 11 15 13 17 10 18 8 19 9 20 7 22 3 23 4 24 94 25
REMARK SMILES IDX 5 26 6 27 2 28 1 29 26 30 27 31 28 32 29 33 30 35 31 36
REMARK SMILES IDX 32 37 93 38 33 39 92 40 34 41 35 42 36 43 86 44 37 45 91 46
REMARK SMILES IDX 85 47 87 48 38 49 90 50 84 51 83 52 39 54 71 55 51 56 70 57
REMARK SMILES IDX 52 58 55 59 69 60 88 61 53 62 54 63 68 65 89 66 56 67 40 68
REMARK SMILES IDX 41 69 49 70 42 71 43 72 47 73 50 74 44 75 45 76 48 77 46 78
REMARK SMILES IDX 72 79 73 80 81 81 74 82 75 83 79 84 82 85 76 86 77 87 80 88
REMARK SMILES IDX 78 89 57 90 58 91 66 92 59 93 60 94 64 95 67 96 61 97 62 98
REMARK SMILES IDX 65 99 63 100
REMARK H PARENT 24 5 11 16 10 21 28 34 87 53 55 64
REMARK Flexibility Score: inf
ROOT
ATOM      1  C   UNL A   1      31.461  30.714  25.891  1.00  0.00     0.117 C 
ENDROOT
BRANCH   1   2
ATOM      2  N   UNL A   1      31.581  29.692  26.916  1.00  0.00    -0.356 N 
ATOM      3  C   UNL A   1      31.767  28.352  26.900  1.00  0.00     0.224 C 
ATOM      4  O   UNL A   1      31.642  27.798  28.002  1.00  0.00    -0.275 OA
ATOM      5  H   UNL A   1      31.511  30.056  27.828  1.00  0.00     0.163 HD
BRANCH   3   6
ATOM      6  C   UNL A   1      32.198  27.497  25.697  1.00  0.00     0.095 C 
ATOM      7  C   UNL A   1      30.939  27.096  24.907  1.00  0.00     0.097 C 
ATOM      8  C   UNL A   1      30.425  25.674  25.144  1.00  0.00     0.045 C 
ATOM      9  C   UNL A   1      31.417  24.648  25.629  1.00  0.00    -0.074 C 
ATOM     10  C   UNL A   1      33.210  26.380  25.947  1.00  0.00     0.045 C 
ATOM     11  C   UNL A   1      30.858  23.245  25.618  1.00  0.00     0.039 C 
ATOM     12  C   UNL A   1      32.671  24.967  26.009  1.00  0.00    -0.074 C 
ATOM     13  C   UNL A   1      33.653  23.946  26.531  1.00  0.00     0.039 C 
BRANCH   7  14
ATOM     14  C   UNL A   1      30.943  27.429  23.408  1.00  0.00     0.242 C 
ATOM     15  N   UNL A   1      29.858  27.972  22.776  1.00  0.00    -0.267 N 
ATOM     16  H   UNL A   1      30.013  28.422  21.914  1.00  0.00     0.191 HD
ATOM     17  O   UNL A   1      31.973  27.290  22.739  1.00  0.00    -0.273 OA
BRANCH  15  18
ATOM     18  N   UNL A   1      28.569  27.937  23.250  1.00  0.00    -0.263 N 
ATOM     19  C   UNL A   1      27.585  28.881  23.019  1.00  0.00     0.269 C 
ATOM     20  O   UNL A   1      26.442  28.656  23.417  1.00  0.00    -0.267 OA
ATOM     21  H   UNL A   1      28.321  27.166  23.809  1.00  0.00     0.191 HD
BRANCH  19  22
ATOM     22  C   UNL A   1      27.898  30.211  22.425  1.00  0.00     0.045 A 
ATOM     23  C   UNL A   1      28.322  32.593  22.531  1.00  0.00     0.119 A 
ATOM     24  C   UNL A   1      28.209  32.668  21.139  1.00  0.00     0.046 A 
ATOM     25  C   UNL A   1      28.215  31.354  23.169  1.00  0.00     0.060 A 
ATOM     26  C   UNL A   1      27.981  31.520  20.383  1.00  0.00     0.005 A 
ATOM     27  C   UNL A   1      27.820  30.296  21.026  1.00  0.00     0.014 A 
BRANCH  23  28
ATOM     28  O   UNL A   1      28.526  33.797  23.146  1.00  0.00    -0.497 OA
ATOM     29  C   UNL A   1      29.853  34.095  23.566  1.00  0.00     0.278 C 
ENDBRANCH  23  28
ENDBRANCH  19  22
ENDBRANCH  15  18
ENDBRANCH   7  14
ENDBRANCH   3   6
ENDBRANCH   1   2
BRANCH   1  30
ATOM     30  C   UNL A   1      31.341  32.114  26.498  1.00  0.00     0.042 C 
BRANCH  30  31
ATOM     31  C   UNL A   1      32.621  32.612  27.165  1.00  0.00     0.118 C 
BRANCH  31  32
ATOM     32  N   UNL A   1      32.517  34.002  27.584  1.00  0.00    -0.352 N 
ATOM     33  C   UNL A   1      33.148  34.668  28.602  1.00  0.00     0.251 C 
ATOM     34  H   UNL A   1      31.896  34.550  27.053  1.00  0.00     0.163 HD
ATOM     35  O   UNL A   1      32.745  35.787  28.930  1.00  0.00    -0.269 OA
BRANCH  33  36
ATOM     36  C   UNL A   1      34.297  34.074  29.317  1.00  0.00     0.039 A 
ATOM     37  C   UNL A   1      35.592  34.406  28.902  1.00  0.00     0.014 A 
ATOM     38  C   UNL A   1      34.116  33.140  30.342  1.00  0.00     0.014 A 
ATOM     39  C   UNL A   1      36.698  33.840  29.540  1.00  0.00     0.010 A 
ATOM     40  C   UNL A   1      35.220  32.626  31.021  1.00  0.00     0.010 A 
ATOM     41  C   UNL A   1      36.522  32.962  30.620  1.00  0.00    -0.014 A 
BRANCH  41  42
ATOM     42  C   UNL A   1      37.684  32.372  31.330  1.00  0.00     0.031 A 
ATOM     43  C   UNL A   1      38.449  31.233  30.713  1.00  0.00     0.074 A 
ATOM     44  C   UNL A   1      38.012  32.819  32.556  1.00  0.00     0.049 A 
ATOM     45  N   UNL A   1      39.437  30.531  31.210  1.00  0.00    -0.248 NA
ATOM     46  C   UNL A   1      38.031  30.810  29.367  1.00  0.00     0.031 C 
ATOM     47  C   UNL A   1      37.323  33.889  33.278  1.00  0.00     0.029 A 
ATOM     48  N   UNL A   1      39.001  32.419  33.421  1.00  0.00    -0.354 N 
ATOM     49  C   UNL A   1      39.741  29.574  30.251  1.00  0.00     0.074 A 
ATOM     50  C   UNL A   1      38.808  29.757  29.161  1.00  0.00     0.031 C 
ATOM     51  C   UNL A   1      37.917  34.071  34.467  1.00  0.00     0.029 A 
ATOM     52  C   UNL A   1      39.006  33.109  34.608  1.00  0.00     0.049 A 
ATOM     53  H   UNL A   1      39.646  31.705  33.209  1.00  0.00     0.167 HD
ATOM     54  C   UNL A   1      40.723  28.642  30.270  1.00  0.00     0.037 A 
ATOM     55  C   UNL A   1      39.795  32.974  35.691  1.00  0.00     0.037 A 
ATOM     56  C   UNL A   1      41.671  28.485  31.342  1.00  0.00     0.049 A 
ATOM     57  C   UNL A   1      40.884  31.936  35.683  1.00  0.00     0.074 A 
ATOM     58  C   UNL A   1      42.743  27.613  31.427  1.00  0.00     0.029 A 
ATOM     59  N   UNL A   1      41.660  29.220  32.518  1.00  0.00    -0.354 N 
ATOM     60  N   UNL A   1      41.201  31.078  34.745  1.00  0.00    -0.248 NA
ATOM     61  C   UNL A   1      41.728  31.854  36.883  1.00  0.00     0.031 C 
ATOM     62  C   UNL A   1      43.357  27.794  32.671  1.00  0.00     0.029 A 
ATOM     63  C   UNL A   1      42.695  28.810  33.342  1.00  0.00     0.049 A 
ATOM     64  H   UNL A   1      41.013  29.929  32.734  1.00  0.00     0.167 HD
ATOM     65  C   UNL A   1      42.293  30.371  35.227  1.00  0.00     0.074 A 
ATOM     66  C   UNL A   1      42.594  30.910  36.538  1.00  0.00     0.031 C 
ATOM     67  C   UNL A   1      42.985  29.364  34.640  1.00  0.00     0.037 A 
BRANCH  54  68
ATOM     68  C   UNL A   1      40.825  27.716  29.091  1.00  0.00     0.064 A 
ATOM     69  C   UNL A   1      39.961  26.621  28.940  1.00  0.00     0.173 A 
ATOM     70  C   UNL A   1      41.774  27.948  28.084  1.00  0.00     0.173 A 
ATOM     71  F   UNL A   1      39.044  26.349  29.880  1.00  0.00    -0.203 F 
ATOM     72  C   UNL A   1      40.063  25.775  27.839  1.00  0.00     0.198 A 
ATOM     73  C   UNL A   1      41.854  27.116  26.970  1.00  0.00     0.198 A 
ATOM     74  F   UNL A   1      42.619  28.985  28.176  1.00  0.00    -0.203 F 
ATOM     75  F   UNL A   1      39.259  24.708  27.740  1.00  0.00    -0.200 F 
ATOM     76  C   UNL A   1      41.004  26.026  26.852  1.00  0.00     0.200 A 
ATOM     77  F   UNL A   1      42.755  27.368  26.011  1.00  0.00    -0.200 F 
ATOM     78  F   UNL A   1      41.096  25.215  25.790  1.00  0.00    -0.200 F 
ENDBRANCH  54  68
BRANCH  55  79
ATOM     79  C   UNL A   1      39.599  33.864  36.864  1.00  0.00     0.064 A 
ATOM     80  C   UNL A   1      38.803  33.460  37.945  1.00  0.00     0.173 A 
ATOM     81  C   UNL A   1      40.201  35.128  36.932  1.00  0.00     0.173 A 
ATOM     82  F   UNL A   1      38.191  32.267  37.916  1.00  0.00    -0.203 F 
ATOM     83  C   UNL A   1      38.604  34.294  39.043  1.00  0.00     0.198 A 
ATOM     84  C   UNL A   1      40.022  35.952  38.042  1.00  0.00     0.198 A 
ATOM     85  F   UNL A   1      40.975  35.559  35.925  1.00  0.00    -0.203 F 
ATOM     86  F   UNL A   1      37.807  33.900  40.044  1.00  0.00    -0.200 F 
ATOM     87  C   UNL A   1      39.218  35.536  39.093  1.00  0.00     0.200 A 
ATOM     88  F   UNL A   1      40.628  37.146  38.093  1.00  0.00    -0.200 F 
ATOM     89  F   UNL A   1      39.031  36.336  40.151  1.00  0.00    -0.200 F 
ENDBRANCH  55  79
BRANCH  67  90
ATOM     90  C   UNL A   1      44.152  28.801  35.395  1.00  0.00     0.064 A 
ATOM     91  C   UNL A   1      45.445  29.324  35.247  1.00  0.00     0.173 A 
ATOM     92  C   UNL A   1      43.967  27.749  36.306  1.00  0.00     0.173 A 
ATOM     93  F   UNL A   1      45.674  30.318  34.375  1.00  0.00    -0.203 F 
ATOM     94  C   UNL A   1      46.514  28.800  35.968  1.00  0.00     0.198 A 
ATOM     95  C   UNL A   1      45.033  27.246  37.045  1.00  0.00     0.198 A 
ATOM     96  F   UNL A   1      42.748  27.219  36.487  1.00  0.00    -0.203 F 
ATOM     97  F   UNL A   1      47.748  29.286  35.779  1.00  0.00    -0.200 F 
ATOM     98  C   UNL A   1      46.307  27.768  36.871  1.00  0.00     0.200 A 
ATOM     99  F   UNL A   1      44.829  26.257  37.925  1.00  0.00    -0.200 F 
ATOM    100  F   UNL A   1      47.337  27.270  37.568  1.00  0.00    -0.200 F 
ENDBRANCH  67  90
ENDBRANCH  41  42
ENDBRANCH  33  36
ENDBRANCH  31  32
ENDBRANCH  30  31
ENDBRANCH   1  30
TORSDOF 14
ENDMDL
MODEL 2
REMARK VINA RESULT:     -13.9      0.063      1.963
REMARK SMILES COc1cccc(C(=O)NNC(=O)[C@H]2CC(C)=C(C)C[C@@H]2C(=O)NCCCNC(=O)c2ccc(-c3c4nc(c(-c5c(F)c(F)c(F)c(F)c5F)c5ccc([nH]5)c(-c5c(F)c(F)c(F)c(F)c5F)c5nc(c(-c6c(F)c(F)c(F)c(F)c6F)c6ccc3[nH]6)C=C5)C=C4)cc2)c1
REMARK SMILES IDX 25 1 24 2 22 3 23 4 21 6 14 7 15 8 16 9 20 10 17 11 18 12
REMARK SMILES IDX 19 13 12 14 11 15 13 17 10 18 8 19 9 20 7 22 3 23 4 24 94 25
REMARK SMILES IDX 5 26 6 27 2 28 1 29 26 30 27 31 28 32 29 33 30 35 31 36
REMARK SMILES IDX 32 37 93 38 33 39 92 40 34 41 35 42 36 43 86 44 37 45 91 46
REMARK SMILES IDX 85 47 87 48 38 49 90 50 84 51 83 52 39 54 71 55 51 56 70 57
REMARK SMILES IDX 52 58 55 59 69 60 88 61 53 62 54 63 68 65 89 66 56 67 40 68
REMARK SMILES IDX 41 69 49 70 42 71 43 72 47 73 50 74 44 75 45 76 48 77 46 78
REMARK SMILES IDX 72 79 73 80 81 81 74 82 75 83 79 84 82 85 76 86 77 87 80 88
REMARK SMILES IDX 78 89 57 90 58 91 66 92 59 93 60 94 64 95 67 96 61 97 62 98
REMARK SMILES IDX 65 99 63 100
REMARK H PARENT 24 5 11 16 10 21 28 34 87 53 55 64
REMARK Flexibility Score: inf
ROOT
ATOM      1  C   UNL A   1      31.426  30.687  25.869  1.00  0.00     0.117 C 
ENDROOT
BRANCH   1   2
ATOM      2  N   UNL A   1      31.574  29.675  26.900  1.00  0.00    -0.356 N 
ATOM      3  C   UNL A   1      31.773  28.337  26.891  1.00  0.00     0.224 C 
ATOM      4  O   UNL A   1      31.672  27.792  28.000  1.00  0.00    -0.275 OA
ATOM      5  H   UNL A   1      31.514  30.046  27.809  1.00  0.00     0.163 HD
BRANCH   3   6
ATOM      6  C   UNL A   1      32.193  27.476  25.689  1.00  0.00     0.095 C 
ATOM      7  C   UNL A   1      30.928  27.081  24.906  1.00  0.00     0.097 C 
ATOM      8  C   UNL A   1      30.406  25.662  25.150  1.00  0.00     0.045 C 
ATOM      9  C   UNL A   1      31.395  24.632  25.633  1.00  0.00    -0.074 C 
ATOM     10  C   UNL A   1      33.199  26.354  25.937  1.00  0.00     0.045 C 
ATOM     11  C   UNL A   1      30.827  23.232  25.629  1.00  0.00     0.039 C 
ATOM     12  C   UNL A   1      32.653  24.944  26.006  1.00  0.00    -0.074 C 
ATOM     13  C   UNL A   1      33.630  23.919  26.526  1.00  0.00     0.039 C 
BRANCH   7  14
ATOM     14  C   UNL A   1      30.927  27.410  23.406  1.00  0.00     0.242 C 
ATOM     15  N   UNL A   1      29.841  27.955  22.777  1.00  0.00    -0.267 N 
ATOM     16  H   UNL A   1      29.994  28.402  21.913  1.00  0.00     0.191 HD
ATOM     17  O   UNL A   1      31.953  27.265  22.733  1.00  0.00    -0.273 OA
BRANCH  15  18
ATOM     18  N   UNL A   1      28.554  27.927  23.258  1.00  0.00    -0.263 N 
ATOM     19  C   UNL A   1      27.573  28.874  23.028  1.00  0.00     0.269 C 
ATOM     20  O   UNL A   1      26.430  28.655  23.432  1.00  0.00    -0.267 OA
ATOM     21  H   UNL A   1      28.306  27.159  23.820  1.00  0.00     0.191 HD
BRANCH  19  22
ATOM     22  C   UNL A   1      27.889  30.201  22.428  1.00  0.00     0.045 A 
ATOM     23  C   UNL A   1      28.317  32.583  22.525  1.00  0.00     0.119 A 
ATOM     24  C   UNL A   1      28.205  32.653  21.134  1.00  0.00     0.046 A 
ATOM     25  C   UNL A   1      28.208  31.347  23.168  1.00  0.00     0.060 A 
ATOM     26  C   UNL A   1      27.975  31.502  20.382  1.00  0.00     0.005 A 
ATOM     27  C   UNL A   1      27.811  30.282  21.029  1.00  0.00     0.014 A 
BRANCH  23  28
ATOM     28  O   UNL A   1      28.523  33.789  23.136  1.00  0.00    -0.497 OA
ATOM     29  C   UNL A   1      29.850  34.083  23.562  1.00  0.00     0.278 C 
ENDBRANCH  23  28
ENDBRANCH  19  22
ENDBRANCH  15  18
ENDBRANCH   7  14
ENDBRANCH   3   6
ENDBRANCH   1   2
BRANCH   1  30
ATOM     30  C   UNL A   1      31.307  32.092  26.465  1.00  0.00     0.042 C 
BRANCH  30  31
ATOM     31  C   UNL A   1      32.562  32.563  27.195  1.00  0.00     0.118 C 
BRANCH  31  32
ATOM     32  N   UNL A   1      32.484  33.967  27.573  1.00  0.00    -0.352 N 
ATOM     33  C   UNL A   1      33.153  34.658  28.547  1.00  0.00     0.251 C 
ATOM     34  H   UNL A   1      31.850  34.503  27.044  1.00  0.00     0.163 HD
ATOM     35  O   UNL A   1      32.770  35.792  28.851  1.00  0.00    -0.269 OA
BRANCH  33  36
ATOM     36  C   UNL A   1      34.319  34.077  29.244  1.00  0.00     0.039 A 
ATOM     37  C   UNL A   1      34.096  33.190  30.303  1.00  0.00     0.014 A 
ATOM     38  C   UNL A   1      35.626  34.448  28.914  1.00  0.00     0.014 A 
ATOM     39  C   UNL A   1      35.178  32.645  30.999  1.00  0.00     0.010 A 
ATOM     40  C   UNL A   1      36.707  33.854  29.565  1.00  0.00     0.010 A 
ATOM     41  C   UNL A   1      36.493  32.955  30.621  1.00  0.00    -0.014 A 
BRANCH  41  42
ATOM     42  C   UNL A   1      37.657  32.364  31.329  1.00  0.00     0.031 A 
ATOM     43  C   UNL A   1      38.420  31.226  30.710  1.00  0.00     0.074 A 
ATOM     44  C   UNL A   1      37.988  32.811  32.555  1.00  0.00     0.049 A 
ATOM     45  N   UNL A   1      39.410  30.523  31.204  1.00  0.00    -0.248 NA
ATOM     46  C   UNL A   1      38.000  30.803  29.365  1.00  0.00     0.031 C 
ATOM     47  C   UNL A   1      37.301  33.881  33.278  1.00  0.00     0.029 A 
ATOM     48  N   UNL A   1      38.979  32.411  33.416  1.00  0.00    -0.354 N 
ATOM     49  C   UNL A   1      39.712  29.567  30.244  1.00  0.00     0.074 A 
ATOM     50  C   UNL A   1      38.776  29.750  29.156  1.00  0.00     0.031 C 
ATOM     51  C   UNL A   1      37.898  34.062  34.466  1.00  0.00     0.029 A 
ATOM     52  C   UNL A   1      38.987  33.101  34.604  1.00  0.00     0.049 A 
ATOM     53  H   UNL A   1      39.624  31.698  33.203  1.00  0.00     0.167 HD
ATOM     54  C   UNL A   1      40.694  28.635  30.260  1.00  0.00     0.037 A 
ATOM     55  C   UNL A   1      39.779  32.966  35.684  1.00  0.00     0.037 A 
ATOM     56  C   UNL A   1      41.644  28.478  31.330  1.00  0.00     0.049 A 
ATOM     57  C   UNL A   1      40.867  31.928  35.674  1.00  0.00     0.074 A 
ATOM     58  C   UNL A   1      42.716  27.606  31.412  1.00  0.00     0.029 A 
ATOM     59  N   UNL A   1      41.636  29.213  32.506  1.00  0.00    -0.354 N 
ATOM     60  N   UNL A   1      41.183  31.070  34.735  1.00  0.00    -0.248 NA
ATOM     61  C   UNL A   1      41.714  31.845  36.872  1.00  0.00     0.031 C 
ATOM     62  C   UNL A   1      43.334  27.786  32.654  1.00  0.00     0.029 A 
ATOM     63  C   UNL A   1      42.674  28.802  33.328  1.00  0.00     0.049 A 
ATOM     64  H   UNL A   1      40.989  29.922  32.724  1.00  0.00     0.167 HD
ATOM     65  C   UNL A   1      42.276  30.363  35.214  1.00  0.00     0.074 A 
ATOM     66  C   UNL A   1      42.580  30.902  36.524  1.00  0.00     0.031 C 
ATOM     67  C   UNL A   1      42.966  29.356  34.625  1.00  0.00     0.037 A 
BRANCH  54  68
ATOM     68  C   UNL A   1      40.793  27.709  29.081  1.00  0.00     0.064 A 
ATOM     69  C   UNL A   1      41.748  27.905  28.072  1.00  0.00     0.173 A 
ATOM     70  C   UNL A   1      39.947  26.595  28.977  1.00  0.00     0.173 A 
ATOM     71  F   UNL A   1      42.573  28.961  28.119  1.00  0.00    -0.203 F 
ATOM     72  C   UNL A   1      41.833  27.036  26.988  1.00  0.00     0.198 A 
ATOM     73  C   UNL A   1      40.054  25.711  27.906  1.00  0.00     0.198 A 
ATOM     74  F   UNL A   1      39.021  26.357  29.918  1.00  0.00    -0.203 F 
ATOM     75  F   UNL A   1      42.722  27.269  26.013  1.00  0.00    -0.200 F 
ATOM     76  C   UNL A   1      40.992  25.936  26.909  1.00  0.00     0.200 A 
ATOM     77  F   UNL A   1      39.249  24.643  27.838  1.00  0.00    -0.200 F 
ATOM     78  F   UNL A   1      41.079  25.097  25.868  1.00  0.00    -0.200 F 
ENDBRANCH  54  68
BRANCH  55  79
ATOM     79  C   UNL A   1      39.585  33.855  36.859  1.00  0.00     0.064 A 
ATOM     80  C   UNL A   1      40.180  35.124  36.903  1.00  0.00     0.173 A 
ATOM     81  C   UNL A   1      38.804  33.461  37.954  1.00  0.00     0.173 A 
ATOM     82  F   UNL A   1      40.953  35.536  35.888  1.00  0.00    -0.203 F 
ATOM     83  C   UNL A   1      40.014  35.958  38.006  1.00  0.00     0.198 A 
ATOM     84  C   UNL A   1      38.617  34.306  39.045  1.00  0.00     0.198 A 
ATOM     85  F   UNL A   1      38.210  32.259  37.956  1.00  0.00    -0.203 F 
ATOM     86  F   UNL A   1      40.627  37.148  38.041  1.00  0.00    -0.200 F 
ATOM     87  C   UNL A   1      39.228  35.551  39.074  1.00  0.00     0.200 A 
ATOM     88  F   UNL A   1      37.845  33.915  40.069  1.00  0.00    -0.200 F 
ATOM     89  F   UNL A   1      39.064  36.355  40.133  1.00  0.00    -0.200 F 
ENDBRANCH  55  79
BRANCH  67  90
ATOM     90  C   UNL A   1      44.135  28.793  35.377  1.00  0.00     0.064 A 
ATOM     91  C   UNL A   1      43.982  27.743  36.294  1.00  0.00     0.173 A 
ATOM     92  C   UNL A   1      45.429  29.285  35.150  1.00  0.00     0.173 A 
ATOM     93  F   UNL A   1      42.762  27.249  36.557  1.00  0.00    -0.203 F 
ATOM     94  C   UNL A   1      45.080  27.221  36.972  1.00  0.00     0.198 A 
ATOM     95  C   UNL A   1      46.528  28.743  35.809  1.00  0.00     0.198 A 
ATOM     96  F   UNL A   1      45.628  30.286  34.278  1.00  0.00    -0.203 F 
ATOM     97  F   UNL A   1      44.906  26.247  37.875  1.00  0.00    -0.200 F 
ATOM     98  C   UNL A   1      46.352  27.716  36.724  1.00  0.00     0.200 A 
ATOM     99  F   UNL A   1      47.757  29.215  35.560  1.00  0.00    -0.200 F 
ATOM    100  F   UNL A   1      47.408  27.207  37.373  1.00  0.00    -0.200 F 
ENDBRANCH  67  90
ENDBRANCH  41  42
ENDBRANCH  33  36
ENDBRANCH  31  32
ENDBRANCH  30  31
ENDBRANCH   1  30
TORSDOF 14
ENDMDL
MODEL 3
REMARK VINA RESULT:     -13.7      0.680      7.156
REMARK SMILES COc1cccc(C(=O)NNC(=O)[C@H]2CC(C)=C(C)C[C@@H]2C(=O)NCCCNC(=O)c2ccc(-c3c4nc(c(-c5c(F)c(F)c(F)c(F)c5F)c5ccc([nH]5)c(-c5c(F)c(F)c(F)c(F)c5F)c5nc(c(-c6c(F)c(F)c(F)c(F)c6F)c6ccc3[nH]6)C=C5)C=C4)cc2)c1
REMARK SMILES IDX 25 1 24 2 22 3 23 4 21 6 14 7 15 8 16 9 20 10 17 11 18 12
REMARK SMILES IDX 19 13 12 14 11 15 13 17 10 18 8 19 9 20 7 22 3 23 4 24 94 25
REMARK SMILES IDX 5 26 6 27 2 28 1 29 26 30 27 31 28 32 29 33 30 35 31 36
REMARK SMILES IDX 32 37 93 38 33 39 92 40 34 41 35 42 36 43 86 44 37 45 91 46
REMARK SMILES IDX 85 47 87 48 38 49 90 50 84 51 83 52 39 54 71 55 51 56 70 57
REMARK SMILES IDX 52 58 55 59 69 60 88 61 53 62 54 63 68 65 89 66 56 67 40 68
REMARK SMILES IDX 41 69 49 70 42 71 43 72 47 73 50 74 44 75 45 76 48 77 46 78
REMARK SMILES IDX 72 79 73 80 81 81 74 82 75 83 79 84 82 85 76 86 77 87 80 88
REMARK SMILES IDX 78 89 57 90 58 91 66 92 59 93 60 94 64 95 67 96 61 97 62 98
REMARK SMILES IDX 65 99 63 100
REMARK H PARENT 24 5 11 16 10 21 28 34 87 53 55 64
REMARK Flexibility Score: inf
ROOT
ATOM      1  C   UNL A   1      31.385  30.661  25.913  1.00  0.00     0.117 C 
ENDROOT
BRANCH   1   2
ATOM      2  N   UNL A   1      31.535  29.636  26.929  1.00  0.00    -0.356 N 
ATOM      3  C   UNL A   1      31.750  28.300  26.902  1.00  0.00     0.224 C 
ATOM      4  O   UNL A   1      31.646  27.736  28.001  1.00  0.00    -0.275 OA
ATOM      5  H   UNL A   1      31.464  29.991  27.844  1.00  0.00     0.163 HD
BRANCH   3   6
ATOM      6  C   UNL A   1      32.191  27.463  25.691  1.00  0.00     0.095 C 
ATOM      7  C   UNL A   1      30.936  27.059  24.895  1.00  0.00     0.097 C 
ATOM      8  C   UNL A   1      30.436  25.629  25.114  1.00  0.00     0.045 C 
ATOM      9  C   UNL A   1      31.438  24.608  25.589  1.00  0.00    -0.074 C 
ATOM     10  C   UNL A   1      33.213  26.353  25.928  1.00  0.00     0.045 C 
ATOM     11  C   UNL A   1      30.892  23.199  25.562  1.00  0.00     0.039 C 
ATOM     12  C   UNL A   1      32.689  24.934  25.974  1.00  0.00    -0.074 C 
ATOM     13  C   UNL A   1      33.680  23.917  26.485  1.00  0.00     0.039 C 
BRANCH   7  14
ATOM     14  C   UNL A   1      30.939  27.409  23.399  1.00  0.00     0.242 C 
ATOM     15  N   UNL A   1      29.856  27.966  22.776  1.00  0.00    -0.267 N 
ATOM     16  H   UNL A   1      30.011  28.425  21.919  1.00  0.00     0.191 HD
ATOM     17  O   UNL A   1      31.966  27.271  22.726  1.00  0.00    -0.273 OA
BRANCH  15  18
ATOM     18  N   UNL A   1      28.567  27.935  23.254  1.00  0.00    -0.263 N 
ATOM     19  C   UNL A   1      27.585  28.881  23.025  1.00  0.00     0.269 C 
ATOM     20  O   UNL A   1      26.442  28.658  23.425  1.00  0.00    -0.267 OA
ATOM     21  H   UNL A   1      28.320  27.164  23.814  1.00  0.00     0.191 HD
BRANCH  19  22
ATOM     22  C   UNL A   1      27.900  30.210  22.429  1.00  0.00     0.045 A 
ATOM     23  C   UNL A   1      28.328  32.591  22.533  1.00  0.00     0.119 A 
ATOM     24  C   UNL A   1      28.214  32.666  21.142  1.00  0.00     0.046 A 
ATOM     25  C   UNL A   1      28.220  31.353  23.172  1.00  0.00     0.060 A 
ATOM     26  C   UNL A   1      27.982  31.518  20.387  1.00  0.00     0.005 A 
ATOM     27  C   UNL A   1      27.820  30.295  21.030  1.00  0.00     0.014 A 
BRANCH  23  28
ATOM     28  O   UNL A   1      28.536  33.795  23.148  1.00  0.00    -0.497 OA
ATOM     29  C   UNL A   1      29.866  34.094  23.558  1.00  0.00     0.278 C 
ENDBRANCH  23  28
ENDBRANCH  19  22
ENDBRANCH  15  18
ENDBRANCH   7  14
ENDBRANCH   3   6
ENDBRANCH   1   2
BRANCH   1  30
ATOM     30  C   UNL A   1      31.309  32.062  26.527  1.00  0.00     0.042 C 
BRANCH  30  31
ATOM     31  C   UNL A   1      32.667  32.641  26.918  1.00  0.00     0.118 C 
BRANCH  31  32
ATOM     32  N   UNL A   1      32.548  33.963  27.515  1.00  0.00    -0.352 N 
ATOM     33  C   UNL A   1      33.189  34.504  28.598  1.00  0.00     0.251 C 
ATOM     34  H   UNL A   1      31.907  34.563  27.070  1.00  0.00     0.163 HD
ATOM     35  O   UNL A   1      32.774  35.565  29.074  1.00  0.00    -0.269 OA
BRANCH  33  36
ATOM     36  C   UNL A   1      34.362  33.845  29.209  1.00  0.00     0.039 A 
ATOM     37  C   UNL A   1      34.149  32.809  30.126  1.00  0.00     0.014 A 
ATOM     38  C   UNL A   1      35.664  34.282  28.947  1.00  0.00     0.014 A 
ATOM     39  C   UNL A   1      35.237  32.185  30.742  1.00  0.00     0.010 A 
ATOM     40  C   UNL A   1      36.751  33.616  29.511  1.00  0.00     0.010 A 
ATOM     41  C   UNL A   1      36.548  32.568  30.422  1.00  0.00    -0.014 A 
BRANCH  41  42
ATOM     42  C   UNL A   1      37.719  31.899  31.043  1.00  0.00     0.031 A 
ATOM     43  C   UNL A   1      38.177  32.298  32.418  1.00  0.00     0.074 A 
ATOM     44  C   UNL A   1      38.406  30.976  30.345  1.00  0.00     0.049 A 
ATOM     45  N   UNL A   1      39.223  31.893  33.096  1.00  0.00    -0.248 NA
ATOM     46  C   UNL A   1      37.366  33.308  33.117  1.00  0.00     0.031 C 
ATOM     47  C   UNL A   1      38.086  30.532  28.988  1.00  0.00     0.029 A 
ATOM     48  N   UNL A   1      39.526  30.254  30.675  1.00  0.00    -0.354 N 
ATOM     49  C   UNL A   1      39.206  32.611  34.284  1.00  0.00     0.074 A 
ATOM     50  C   UNL A   1      38.073  33.509  34.220  1.00  0.00     0.031 C 
ATOM     51  C   UNL A   1      38.979  29.605  28.607  1.00  0.00     0.029 A 
ATOM     52  C   UNL A   1      39.953  29.414  29.676  1.00  0.00     0.049 A 
ATOM     53  H   UNL A   1      39.980  30.331  31.545  1.00  0.00     0.167 HD
ATOM     54  C   UNL A   1      40.048  32.517  35.340  1.00  0.00     0.037 A 
ATOM     55  C   UNL A   1      41.016  28.589  29.626  1.00  0.00     0.037 A 
ATOM     56  C   UNL A   1      41.155  31.599  35.415  1.00  0.00     0.049 A 
ATOM     57  C   UNL A   1      41.931  28.496  30.816  1.00  0.00     0.074 A 
ATOM     58  C   UNL A   1      42.028  31.381  36.467  1.00  0.00     0.029 A 
ATOM     59  N   UNL A   1      41.540  30.745  34.392  1.00  0.00    -0.354 N 
ATOM     60  N   UNL A   1      41.871  29.136  31.958  1.00  0.00    -0.248 NA
ATOM     61  C   UNL A   1      43.060  27.561  30.712  1.00  0.00     0.031 C 
ATOM     62  C   UNL A   1      42.965  30.423  36.067  1.00  0.00     0.029 A 
ATOM     63  C   UNL A   1      42.649  30.011  34.782  1.00  0.00     0.049 A 
ATOM     64  H   UNL A   1      41.092  30.671  33.519  1.00  0.00     0.167 HD
ATOM     65  C   UNL A   1      42.933  28.666  32.717  1.00  0.00     0.074 A 
ATOM     66  C   UNL A   1      43.616  27.675  31.911  1.00  0.00     0.031 C 
ATOM     67  C   UNL A   1      43.311  29.023  33.969  1.00  0.00     0.037 A 
BRANCH  54  68
ATOM     68  C   UNL A   1      39.803  33.430  36.508  1.00  0.00     0.064 A 
ATOM     69  C   UNL A   1      38.920  33.081  37.541  1.00  0.00     0.173 A 
ATOM     70  C   UNL A   1      40.487  34.651  36.613  1.00  0.00     0.173 A 
ATOM     71  F   UNL A   1      38.234  31.930  37.483  1.00  0.00    -0.203 F 
ATOM     72  C   UNL A   1      38.708  33.933  38.621  1.00  0.00     0.198 A 
ATOM     73  C   UNL A   1      40.294  35.488  37.709  1.00  0.00     0.198 A 
ATOM     74  F   UNL A   1      41.348  35.028  35.657  1.00  0.00    -0.203 F 
ATOM     75  F   UNL A   1      37.824  33.601  39.571  1.00  0.00    -0.200 F 
ATOM     76  C   UNL A   1      39.399  35.132  38.708  1.00  0.00     0.200 A 
ATOM     77  F   UNL A   1      40.972  36.640  37.798  1.00  0.00    -0.200 F 
ATOM     78  F   UNL A   1      39.199  35.949  39.751  1.00  0.00    -0.200 F 
ENDBRANCH  54  68
BRANCH  55  79
ATOM     79  C   UNL A   1      41.258  27.767  28.413  1.00  0.00     0.064 A 
ATOM     80  C   UNL A   1      42.119  28.216  27.402  1.00  0.00     0.173 A 
ATOM     81  C   UNL A   1      40.640  26.520  28.240  1.00  0.00     0.173 A 
ATOM     82  F   UNL A   1      42.717  29.411  27.514  1.00  0.00    -0.203 F 
ATOM     83  C   UNL A   1      42.340  27.456  26.256  1.00  0.00     0.198 A 
ATOM     84  C   UNL A   1      40.882  25.749  27.105  1.00  0.00     0.198 A 
ATOM     85  F   UNL A   1      39.811  26.045  29.180  1.00  0.00    -0.203 F 
ATOM     86  F   UNL A   1      43.137  27.926  25.287  1.00  0.00    -0.200 F 
ATOM     87  C   UNL A   1      41.727  26.221  26.110  1.00  0.00     0.200 A 
ATOM     88  F   UNL A   1      40.297  24.550  26.974  1.00  0.00    -0.200 F 
ATOM     89  F   UNL A   1      41.943  25.487  25.010  1.00  0.00    -0.200 F 
ENDBRANCH  55  79
BRANCH  67  90
ATOM     90  C   UNL A   1      44.498  28.318  34.554  1.00  0.00     0.064 A 
ATOM     91  C   UNL A   1      45.794  28.842  34.439  1.00  0.00     0.173 A 
ATOM     92  C   UNL A   1      44.331  27.124  35.271  1.00  0.00     0.173 A 
ATOM     93  F   UNL A   1      46.006  29.972  33.749  1.00  0.00    -0.203 F 
ATOM     94  C   UNL A   1      46.883  28.182  35.003  1.00  0.00     0.198 A 
ATOM     95  C   UNL A   1      45.418  26.482  35.857  1.00  0.00     0.198 A 
ATOM     96  F   UNL A   1      43.110  26.586  35.414  1.00  0.00    -0.203 F 
ATOM     97  F   UNL A   1      48.118  28.677  34.844  1.00  0.00    -0.200 F 
ATOM     98  C   UNL A   1      46.694  27.008  35.717  1.00  0.00     0.200 A 
ATOM     99  F   UNL A   1      45.232  25.354  36.555  1.00  0.00    -0.200 F 
ATOM    100  F   UNL A   1      47.743  26.380  36.264  1.00  0.00    -0.200 F 
ENDBRANCH  67  90
ENDBRANCH  41  42
ENDBRANCH  33  36
ENDBRANCH  31  32
ENDBRANCH  30  31
ENDBRANCH   1  30
TORSDOF 14
ENDMDL
