MODEL 1
REMARK VINA RESULT:     -11.1      0.000      0.000
REMARK SMILES CCC[N@H+](CC)[C@H]1CC[C@]([NH2+]C)(C(=O)NCCCNC(=O)c2ccc(-c3c4nc(c(-c5c(F)c(F)c(F)c(F)c5F)c5ccc([nH]5)c(-c5c(F)c(F)c(F)c(F)c5F)c5nc(c(-c6c(F)c(F)c(F)c(F)c6F)c6ccc3[nH]6)C=C5)C=C4)cc2)C1
REMARK SMILES IDX 16 1 15 2 13 3 14 4 10 6 7 7 8 8 85 9 9 10 4 11 3 13 2 14
REMARK SMILES IDX 1 15 5 16 6 17 11 18 12 19 17 22 18 23 19 24 20 25 21 27
REMARK SMILES IDX 22 28 23 29 84 30 24 31 83 32 25 33 26 34 27 35 77 36 28 37
REMARK SMILES IDX 82 38 76 39 78 40 29 41 81 42 75 43 74 44 30 46 62 47 42 48
REMARK SMILES IDX 61 49 43 50 46 51 60 52 79 53 44 54 45 55 59 57 80 58 47 59
REMARK SMILES IDX 31 60 32 61 40 62 33 63 34 64 38 65 41 66 35 67 36 68 39 69
REMARK SMILES IDX 37 70 63 71 64 72 72 73 65 74 66 75 70 76 73 77 67 78 68 79
REMARK SMILES IDX 71 80 69 81 48 82 49 83 57 84 50 85 51 86 55 87 58 88 52 89
REMARK SMILES IDX 53 90 56 91 54 92
REMARK H PARENT 15 5 4 12 11 20 11 21 19 26 78 45 46 56
REMARK Flexibility Score: inf
ROOT
ATOM      1  C   UNL A   1      31.764  30.713  26.145  1.00  0.00     0.118 C 
ENDROOT
BRANCH   1   2
ATOM      2  N   UNL A   1      31.018  30.367  24.955  1.00  0.00    -0.351 N 
ATOM      3  C   UNL A   1      31.083  29.250  24.174  1.00  0.00     0.281 C 
ATOM      4  O   UNL A   1      30.364  29.245  23.171  1.00  0.00    -0.268 OA
ATOM      5  H   UNL A   1      30.362  31.042  24.664  1.00  0.00     0.163 HD
BRANCH   3   6
ATOM      6  C   UNL A   1      32.059  28.084  24.535  1.00  0.00     0.181 C 
ATOM      7  C   UNL A   1      32.168  25.608  24.315  1.00  0.00     0.191 C 
ATOM      8  C   UNL A   1      31.574  25.963  25.704  1.00  0.00     0.072 C 
ATOM      9  C   UNL A   1      31.758  26.900  23.584  1.00  0.00     0.144 C 
ATOM     10  C   UNL A   1      31.727  27.473  25.911  1.00  0.00     0.085 C 
BRANCH   7  11
ATOM     11  N   UNL A   1      33.621  25.259  24.244  1.00  0.00    -0.333 N 
ATOM     12  H   UNL A   1      34.105  26.117  23.978  1.00  0.00     0.348 HD
BRANCH  11  13
ATOM     13  C   UNL A   1      33.897  24.209  23.219  1.00  0.00     0.262 C 
BRANCH  13  14
ATOM     14  C   UNL A   1      32.744  23.394  22.615  1.00  0.00     0.058 C 
ATOM     15  C   UNL A   1      32.713  21.936  23.048  1.00  0.00     0.010 C 
ENDBRANCH  13  14
ENDBRANCH  11  13
BRANCH  11  16
ATOM     16  C   UNL A   1      34.122  24.778  25.557  1.00  0.00     0.258 C 
ATOM     17  C   UNL A   1      35.522  24.161  25.535  1.00  0.00     0.071 C 
ENDBRANCH  11  16
ENDBRANCH   7  11
BRANCH   6  18
ATOM     18  N   UNL A   1      33.438  28.545  24.276  1.00  0.00    -0.336 N 
ATOM     19  C   UNL A   1      33.871  28.778  22.917  1.00  0.00     0.331 C 
ATOM     20  H   UNL A   1      34.064  27.841  24.669  1.00  0.00     0.346 HD
ATOM     21  H   UNL A   1      33.462  29.474  24.695  1.00  0.00     0.346 HD
ENDBRANCH   6  18
ENDBRANCH   3   6
ENDBRANCH   1   2
BRANCH   1  22
ATOM     22  C   UNL A   1      31.493  32.144  26.589  1.00  0.00     0.042 C 
BRANCH  22  23
ATOM     23  C   UNL A   1      32.667  32.770  27.327  1.00  0.00     0.118 C 
BRANCH  23  24
ATOM     24  N   UNL A   1      32.440  34.180  27.623  1.00  0.00    -0.352 N 
ATOM     25  C   UNL A   1      32.992  34.966  28.604  1.00  0.00     0.251 C 
ATOM     26  H   UNL A   1      31.797  34.634  27.033  1.00  0.00     0.163 HD
ATOM     27  O   UNL A   1      32.515  36.062  28.864  1.00  0.00    -0.269 OA
BRANCH  25  28
ATOM     28  C   UNL A   1      34.167  34.470  29.346  1.00  0.00     0.039 A 
ATOM     29  C   UNL A   1      33.986  33.837  30.578  1.00  0.00     0.014 A 
ATOM     30  C   UNL A   1      35.448  34.629  28.812  1.00  0.00     0.014 A 
ATOM     31  C   UNL A   1      35.089  33.303  31.245  1.00  0.00     0.010 A 
ATOM     32  C   UNL A   1      36.528  34.017  29.429  1.00  0.00     0.010 A 
ATOM     33  C   UNL A   1      36.362  33.358  30.656  1.00  0.00    -0.014 A 
BRANCH  33  34
ATOM     34  C   UNL A   1      37.560  32.773  31.307  1.00  0.00     0.031 A 
ATOM     35  C   UNL A   1      38.275  31.634  30.636  1.00  0.00     0.074 A 
ATOM     36  C   UNL A   1      37.933  33.187  32.532  1.00  0.00     0.049 A 
ATOM     37  N   UNL A   1      39.221  30.858  31.100  1.00  0.00    -0.248 NA
ATOM     38  C   UNL A   1      37.838  31.297  29.271  1.00  0.00     0.031 C 
ATOM     39  C   UNL A   1      37.298  34.262  33.295  1.00  0.00     0.029 A 
ATOM     40  N   UNL A   1      38.927  32.733  33.363  1.00  0.00    -0.354 N 
ATOM     41  C   UNL A   1      39.468  29.928  30.098  1.00  0.00     0.074 A 
ATOM     42  C   UNL A   1      38.535  30.199  29.026  1.00  0.00     0.031 C 
ATOM     43  C   UNL A   1      37.923  34.391  34.476  1.00  0.00     0.029 A 
ATOM     44  C   UNL A   1      38.967  33.377  34.575  1.00  0.00     0.049 A 
ATOM     45  H   UNL A   1      39.551  32.014  33.112  1.00  0.00     0.167 HD
ATOM     46  C   UNL A   1      40.402  28.949  30.069  1.00  0.00     0.037 A 
ATOM     47  C   UNL A   1      39.746  33.156  35.651  1.00  0.00     0.037 A 
ATOM     48  C   UNL A   1      41.344  28.707  31.129  1.00  0.00     0.049 A 
ATOM     49  C   UNL A   1      40.769  32.051  35.600  1.00  0.00     0.074 A 
ATOM     50  C   UNL A   1      42.366  27.777  31.178  1.00  0.00     0.029 A 
ATOM     51  N   UNL A   1      41.377  29.405  32.327  1.00  0.00    -0.354 N 
ATOM     52  N   UNL A   1      41.030  31.208  34.629  1.00  0.00    -0.248 NA
ATOM     53  C   UNL A   1      41.609  31.869  36.791  1.00  0.00     0.031 C 
ATOM     54  C   UNL A   1      42.985  27.877  32.428  1.00  0.00     0.029 A 
ATOM     55  C   UNL A   1      42.392  28.914  33.131  1.00  0.00     0.049 A 
ATOM     56  H   UNL A   1      40.770  30.141  32.570  1.00  0.00     0.167 HD
ATOM     57  C   UNL A   1      42.089  30.428  35.074  1.00  0.00     0.074 A 
ATOM     58  C   UNL A   1      42.424  30.898  36.402  1.00  0.00     0.031 C 
ATOM     59  C   UNL A   1      42.729  29.416  34.439  1.00  0.00     0.037 A 
BRANCH  46  60
ATOM     60  C   UNL A   1      40.448  28.068  28.854  1.00  0.00     0.064 A 
ATOM     61  C   UNL A   1      41.222  28.398  27.730  1.00  0.00     0.173 A 
ATOM     62  C   UNL A   1      39.730  26.863  28.822  1.00  0.00     0.173 A 
ATOM     63  F   UNL A   1      41.919  29.544  27.703  1.00  0.00    -0.203 F 
ATOM     64  C   UNL A   1      41.249  27.573  26.610  1.00  0.00     0.198 A 
ATOM     65  C   UNL A   1      39.787  26.023  27.713  1.00  0.00     0.198 A 
ATOM     66  F   UNL A   1      38.977  26.495  29.869  1.00  0.00    -0.203 F 
ATOM     67  F   UNL A   1      41.949  27.939  25.527  1.00  0.00    -0.200 F 
ATOM     68  C   UNL A   1      40.538  26.382  26.604  1.00  0.00     0.200 A 
ATOM     69  F   UNL A   1      39.111  24.865  27.717  1.00  0.00    -0.200 F 
ATOM     70  F   UNL A   1      40.570  25.585  25.528  1.00  0.00    -0.200 F 
ENDBRANCH  46  60
BRANCH  47  71
ATOM     71  C   UNL A   1      39.604  34.006  36.862  1.00  0.00     0.064 A 
ATOM     72  C   UNL A   1      40.271  35.236  36.958  1.00  0.00     0.173 A 
ATOM     73  C   UNL A   1      38.811  33.609  37.949  1.00  0.00     0.173 A 
ATOM     74  F   UNL A   1      41.055  35.652  35.953  1.00  0.00    -0.203 F 
ATOM     75  C   UNL A   1      40.172  36.022  38.104  1.00  0.00     0.198 A 
ATOM     76  C   UNL A   1      38.689  34.411  39.082  1.00  0.00     0.198 A 
ATOM     77  F   UNL A   1      38.146  32.444  37.907  1.00  0.00    -0.203 F 
ATOM     78  F   UNL A   1      40.862  37.168  38.189  1.00  0.00    -0.200 F 
ATOM     79  C   UNL A   1      39.377  35.612  39.163  1.00  0.00     0.200 A 
ATOM     80  F   UNL A   1      37.906  34.019  40.097  1.00  0.00    -0.200 F 
ATOM     81  F   UNL A   1      39.281  36.369  40.264  1.00  0.00    -0.200 F 
ENDBRANCH  47  71
BRANCH  59  82
ATOM     82  C   UNL A   1      43.904  28.791  35.134  1.00  0.00     0.064 A 
ATOM     83  C   UNL A   1      43.764  27.684  35.982  1.00  0.00     0.173 A 
ATOM     84  C   UNL A   1      45.200  29.273  34.889  1.00  0.00     0.173 A 
ATOM     85  F   UNL A   1      42.546  27.195  36.259  1.00  0.00    -0.203 F 
ATOM     86  C   UNL A   1      44.877  27.093  36.575  1.00  0.00     0.198 A 
ATOM     87  C   UNL A   1      46.312  28.659  35.456  1.00  0.00     0.198 A 
ATOM     88  F   UNL A   1      45.389  30.325  34.079  1.00  0.00    -0.203 F 
ATOM     89  F   UNL A   1      44.717  26.062  37.414  1.00  0.00    -0.200 F 
ATOM     90  C   UNL A   1      46.150  27.574  36.303  1.00  0.00     0.200 A 
ATOM     91  F   UNL A   1      47.542  29.115  35.178  1.00  0.00    -0.200 F 
ATOM     92  F   UNL A   1      47.221  26.992  36.861  1.00  0.00    -0.200 F 
ENDBRANCH  59  82
ENDBRANCH  33  34
ENDBRANCH  25  28
ENDBRANCH  23  24
ENDBRANCH  22  23
ENDBRANCH   1  22
TORSDOF 15
ENDMDL
MODEL 2
REMARK VINA RESULT:     -11.1      1.073      2.593
REMARK SMILES CCC[N@H+](CC)[C@H]1CC[C@]([NH2+]C)(C(=O)NCCCNC(=O)c2ccc(-c3c4nc(c(-c5c(F)c(F)c(F)c(F)c5F)c5ccc([nH]5)c(-c5c(F)c(F)c(F)c(F)c5F)c5nc(c(-c6c(F)c(F)c(F)c(F)c6F)c6ccc3[nH]6)C=C5)C=C4)cc2)C1
REMARK SMILES IDX 16 1 15 2 13 3 14 4 10 6 7 7 8 8 85 9 9 10 4 11 3 13 2 14
REMARK SMILES IDX 1 15 5 16 6 17 11 18 12 19 17 22 18 23 19 24 20 25 21 27
REMARK SMILES IDX 22 28 23 29 84 30 24 31 83 32 25 33 26 34 27 35 77 36 28 37
REMARK SMILES IDX 82 38 76 39 78 40 29 41 81 42 75 43 74 44 30 46 62 47 42 48
REMARK SMILES IDX 61 49 43 50 46 51 60 52 79 53 44 54 45 55 59 57 80 58 47 59
REMARK SMILES IDX 31 60 32 61 40 62 33 63 34 64 38 65 41 66 35 67 36 68 39 69
REMARK SMILES IDX 37 70 63 71 64 72 72 73 65 74 66 75 70 76 73 77 67 78 68 79
REMARK SMILES IDX 71 80 69 81 48 82 49 83 57 84 50 85 51 86 55 87 58 88 52 89
REMARK SMILES IDX 53 90 56 91 54 92
REMARK H PARENT 15 5 4 12 11 20 11 21 19 26 78 45 46 56
REMARK Flexibility Score: inf
ROOT
ATOM      1  C   UNL A   1      31.748  30.715  26.576  1.00  0.00     0.118 C 
ENDROOT
BRANCH   1   2
ATOM      2  N   UNL A   1      33.048  30.278  27.037  1.00  0.00    -0.351 N 
ATOM      3  C   UNL A   1      33.778  29.181  26.686  1.00  0.00     0.281 C 
ATOM      4  O   UNL A   1      34.843  29.021  27.289  1.00  0.00    -0.268 OA
ATOM      5  H   UNL A   1      33.470  30.864  27.707  1.00  0.00     0.163 HD
BRANCH   3   6
ATOM      6  C   UNL A   1      33.243  28.180  25.612  1.00  0.00     0.181 C 
ATOM      7  C   UNL A   1      31.595  26.324  25.450  1.00  0.00     0.191 C 
ATOM      8  C   UNL A   1      32.992  25.728  25.767  1.00  0.00     0.072 C 
ATOM      9  C   UNL A   1      31.830  27.722  26.050  1.00  0.00     0.144 C 
ATOM     10  C   UNL A   1      34.025  26.852  25.636  1.00  0.00     0.085 C 
BRANCH   7  11
ATOM     11  N   UNL A   1      31.130  26.301  24.028  1.00  0.00    -0.333 N 
ATOM     12  H   UNL A   1      31.466  27.167  23.607  1.00  0.00     0.348 HD
BRANCH  11  13
ATOM     13  C   UNL A   1      29.642  26.257  23.924  1.00  0.00     0.262 C 
BRANCH  13  14
ATOM     14  C   UNL A   1      28.865  27.477  23.404  1.00  0.00     0.058 C 
ATOM     15  C   UNL A   1      29.743  28.626  22.934  1.00  0.00     0.010 C 
ENDBRANCH  13  14
ENDBRANCH  11  13
BRANCH  11  16
ATOM     16  C   UNL A   1      31.687  25.131  23.301  1.00  0.00     0.258 C 
ATOM     17  C   UNL A   1      32.295  25.442  21.932  1.00  0.00     0.071 C 
ENDBRANCH  11  16
ENDBRANCH   7  11
BRANCH   6  18
ATOM     18  N   UNL A   1      33.116  28.907  24.332  1.00  0.00    -0.336 N 
ATOM     19  C   UNL A   1      33.923  28.509  23.201  1.00  0.00     0.331 C 
ATOM     20  H   UNL A   1      33.338  29.885  24.524  1.00  0.00     0.346 HD
ATOM     21  H   UNL A   1      32.165  28.696  24.032  1.00  0.00     0.346 HD
ENDBRANCH   6  18
ENDBRANCH   3   6
ENDBRANCH   1   2
BRANCH   1  22
ATOM     22  C   UNL A   1      31.542  32.208  26.791  1.00  0.00     0.042 C 
BRANCH  22  23
ATOM     23  C   UNL A   1      32.791  32.914  27.299  1.00  0.00     0.118 C 
BRANCH  23  24
ATOM     24  N   UNL A   1      32.531  34.305  27.651  1.00  0.00    -0.352 N 
ATOM     25  C   UNL A   1      33.047  35.058  28.676  1.00  0.00     0.251 C 
ATOM     26  H   UNL A   1      31.890  34.772  27.068  1.00  0.00     0.163 HD
ATOM     27  O   UNL A   1      32.544  36.132  28.973  1.00  0.00    -0.269 OA
BRANCH  25  28
ATOM     28  C   UNL A   1      34.217  34.552  29.420  1.00  0.00     0.039 A 
ATOM     29  C   UNL A   1      34.030  33.947  30.666  1.00  0.00     0.014 A 
ATOM     30  C   UNL A   1      35.497  34.674  28.875  1.00  0.00     0.014 A 
ATOM     31  C   UNL A   1      35.127  33.403  31.336  1.00  0.00     0.010 A 
ATOM     32  C   UNL A   1      36.568  34.052  29.497  1.00  0.00     0.010 A 
ATOM     33  C   UNL A   1      36.397  33.420  30.739  1.00  0.00    -0.014 A 
BRANCH  33  34
ATOM     34  C   UNL A   1      37.587  32.823  31.394  1.00  0.00     0.031 A 
ATOM     35  C   UNL A   1      38.295  31.679  30.723  1.00  0.00     0.074 A 
ATOM     36  C   UNL A   1      37.959  33.232  32.621  1.00  0.00     0.049 A 
ATOM     37  N   UNL A   1      39.231  30.894  31.190  1.00  0.00    -0.248 NA
ATOM     38  C   UNL A   1      37.860  31.349  29.356  1.00  0.00     0.031 C 
ATOM     39  C   UNL A   1      37.330  34.312  33.383  1.00  0.00     0.029 A 
ATOM     40  N   UNL A   1      38.945  32.767  33.455  1.00  0.00    -0.354 N 
ATOM     41  C   UNL A   1      39.474  29.963  30.188  1.00  0.00     0.074 A 
ATOM     42  C   UNL A   1      38.548  30.245  29.113  1.00  0.00     0.031 C 
ATOM     43  C   UNL A   1      37.951  34.433  34.567  1.00  0.00     0.029 A 
ATOM     44  C   UNL A   1      38.986  33.409  34.668  1.00  0.00     0.049 A 
ATOM     45  H   UNL A   1      39.563  32.043  33.206  1.00  0.00     0.167 HD
ATOM     46  C   UNL A   1      40.399  28.976  30.161  1.00  0.00     0.037 A 
ATOM     47  C   UNL A   1      39.758  33.179  35.747  1.00  0.00     0.037 A 
ATOM     48  C   UNL A   1      41.335  28.724  31.224  1.00  0.00     0.049 A 
ATOM     49  C   UNL A   1      40.771  32.065  35.699  1.00  0.00     0.074 A 
ATOM     50  C   UNL A   1      42.348  27.784  31.276  1.00  0.00     0.029 A 
ATOM     51  N   UNL A   1      41.369  29.420  32.424  1.00  0.00    -0.354 N 
ATOM     52  N   UNL A   1      41.028  31.222  34.728  1.00  0.00    -0.248 NA
ATOM     53  C   UNL A   1      41.605  31.874  36.893  1.00  0.00     0.031 C 
ATOM     54  C   UNL A   1      42.963  27.877  32.529  1.00  0.00     0.029 A 
ATOM     55  C   UNL A   1      42.377  28.918  33.231  1.00  0.00     0.049 A 
ATOM     56  H   UNL A   1      40.767  30.161  32.666  1.00  0.00     0.167 HD
ATOM     57  C   UNL A   1      42.078  30.431  35.176  1.00  0.00     0.074 A 
ATOM     58  C   UNL A   1      42.412  30.896  36.505  1.00  0.00     0.031 C 
ATOM     59  C   UNL A   1      42.712  29.414  34.541  1.00  0.00     0.037 A 
BRANCH  46  60
ATOM     60  C   UNL A   1      40.443  28.097  28.945  1.00  0.00     0.064 A 
ATOM     61  C   UNL A   1      39.721  26.894  28.877  1.00  0.00     0.173 A 
ATOM     62  C   UNL A   1      41.193  28.473  27.821  1.00  0.00     0.173 A 
ATOM     63  F   UNL A   1      38.997  26.480  29.927  1.00  0.00    -0.203 F 
ATOM     64  C   UNL A   1      39.778  26.087  27.744  1.00  0.00     0.198 A 
ATOM     65  C   UNL A   1      41.218  27.681  26.676  1.00  0.00     0.198 A 
ATOM     66  F   UNL A   1      41.898  29.614  27.828  1.00  0.00    -0.203 F 
ATOM     67  F   UNL A   1      39.127  24.915  27.726  1.00  0.00    -0.200 F 
ATOM     68  C   UNL A   1      40.519  26.484  26.642  1.00  0.00     0.200 A 
ATOM     69  F   UNL A   1      41.924  28.074  25.606  1.00  0.00    -0.200 F 
ATOM     70  F   UNL A   1      40.566  25.710  25.549  1.00  0.00    -0.200 F 
ENDBRANCH  46  60
BRANCH  47  71
ATOM     71  C   UNL A   1      39.619  34.029  36.960  1.00  0.00     0.064 A 
ATOM     72  C   UNL A   1      38.817  33.620  38.035  1.00  0.00     0.173 A 
ATOM     73  C   UNL A   1      40.273  35.265  37.068  1.00  0.00     0.173 A 
ATOM     74  F   UNL A   1      38.158  32.454  37.971  1.00  0.00    -0.203 F 
ATOM     75  C   UNL A   1      38.652  34.426  39.158  1.00  0.00     0.198 A 
ATOM     76  C   UNL A   1      40.131  36.057  38.207  1.00  0.00     0.198 A 
ATOM     77  F   UNL A   1      41.058  35.701  36.071  1.00  0.00    -0.203 F 
ATOM     78  F   UNL A   1      37.838  34.034  40.148  1.00  0.00    -0.200 F 
ATOM     79  C   UNL A   1      39.314  35.641  39.246  1.00  0.00     0.200 A 
ATOM     80  F   UNL A   1      40.785  37.223  38.295  1.00  0.00    -0.200 F 
ATOM     81  F   UNL A   1      39.156  36.416  40.329  1.00  0.00    -0.200 F 
ENDBRANCH  47  71
BRANCH  59  82
ATOM     82  C   UNL A   1      43.879  28.778  35.240  1.00  0.00     0.064 A 
ATOM     83  C   UNL A   1      45.190  29.240  35.067  1.00  0.00     0.173 A 
ATOM     84  C   UNL A   1      43.664  27.730  36.150  1.00  0.00     0.173 A 
ATOM     85  F   UNL A   1      45.450  30.229  34.199  1.00  0.00    -0.203 F 
ATOM     86  C   UNL A   1      46.249  28.663  35.765  1.00  0.00     0.198 A 
ATOM     87  C   UNL A   1      44.718  27.180  36.871  1.00  0.00     0.198 A 
ATOM     88  F   UNL A   1      42.426  27.257  36.357  1.00  0.00    -0.203 F 
ATOM     89  F   UNL A   1      47.500  29.092  35.555  1.00  0.00    -0.200 F 
ATOM     90  C   UNL A   1      46.010  27.642  36.674  1.00  0.00     0.200 A 
ATOM     91  F   UNL A   1      44.483  26.205  37.761  1.00  0.00    -0.200 F 
ATOM     92  F   UNL A   1      47.028  27.100  37.358  1.00  0.00    -0.200 F 
ENDBRANCH  59  82
ENDBRANCH  33  34
ENDBRANCH  25  28
ENDBRANCH  23  24
ENDBRANCH  22  23
ENDBRANCH   1  22
TORSDOF 15
ENDMDL
MODEL 3
REMARK VINA RESULT:     -11.1      1.000      1.874
REMARK SMILES CCC[N@H+](CC)[C@H]1CC[C@]([NH2+]C)(C(=O)NCCCNC(=O)c2ccc(-c3c4nc(c(-c5c(F)c(F)c(F)c(F)c5F)c5ccc([nH]5)c(-c5c(F)c(F)c(F)c(F)c5F)c5nc(c(-c6c(F)c(F)c(F)c(F)c6F)c6ccc3[nH]6)C=C5)C=C4)cc2)C1
REMARK SMILES IDX 16 1 15 2 13 3 14 4 10 6 7 7 8 8 85 9 9 10 4 11 3 13 2 14
REMARK SMILES IDX 1 15 5 16 6 17 11 18 12 19 17 22 18 23 19 24 20 25 21 27
REMARK SMILES IDX 22 28 23 29 84 30 24 31 83 32 25 33 26 34 27 35 77 36 28 37
REMARK SMILES IDX 82 38 76 39 78 40 29 41 81 42 75 43 74 44 30 46 62 47 42 48
REMARK SMILES IDX 61 49 43 50 46 51 60 52 79 53 44 54 45 55 59 57 80 58 47 59
REMARK SMILES IDX 31 60 32 61 40 62 33 63 34 64 38 65 41 66 35 67 36 68 39 69
REMARK SMILES IDX 37 70 63 71 64 72 72 73 65 74 66 75 70 76 73 77 67 78 68 79
REMARK SMILES IDX 71 80 69 81 48 82 49 83 57 84 50 85 51 86 55 87 58 88 52 89
REMARK SMILES IDX 53 90 56 91 54 92
REMARK H PARENT 15 5 4 12 11 20 11 21 19 26 78 45 46 56
REMARK Flexibility Score: inf
ROOT
ATOM      1  C   UNL A   1      31.648  30.808  26.132  1.00  0.00     0.118 C 
ENDROOT
BRANCH   1   2
ATOM      2  N   UNL A   1      32.845  30.158  26.619  1.00  0.00    -0.351 N 
ATOM      3  C   UNL A   1      33.454  29.013  26.196  1.00  0.00     0.281 C 
ATOM      4  O   UNL A   1      34.443  28.653  26.840  1.00  0.00    -0.268 OA
ATOM      5  H   UNL A   1      33.288  30.612  27.373  1.00  0.00     0.163 HD
BRANCH   3   6
ATOM      6  C   UNL A   1      32.876  28.205  24.990  1.00  0.00     0.181 C 
ATOM      7  C   UNL A   1      33.642  26.496  23.352  1.00  0.00     0.191 C 
ATOM      8  C   UNL A   1      33.823  27.906  22.728  1.00  0.00     0.072 C 
ATOM      9  C   UNL A   1      33.722  26.917  24.830  1.00  0.00     0.144 C 
ATOM     10  C   UNL A   1      33.139  28.921  23.650  1.00  0.00     0.085 C 
BRANCH   7  11
ATOM     11  N   UNL A   1      32.428  25.712  22.968  1.00  0.00    -0.333 N 
ATOM     12  H   UNL A   1      31.741  25.876  23.704  1.00  0.00     0.348 HD
BRANCH  11  13
ATOM     13  C   UNL A   1      32.708  24.248  22.884  1.00  0.00     0.262 C 
BRANCH  13  14
ATOM     14  C   UNL A   1      31.650  23.229  23.335  1.00  0.00     0.058 C 
ATOM     15  C   UNL A   1      31.021  23.536  24.686  1.00  0.00     0.010 C 
ENDBRANCH  13  14
ENDBRANCH  11  13
BRANCH  11  16
ATOM     16  C   UNL A   1      31.890  26.163  21.659  1.00  0.00     0.258 C 
ATOM     17  C   UNL A   1      32.529  25.512  20.431  1.00  0.00     0.071 C 
ENDBRANCH  11  16
ENDBRANCH   7  11
BRANCH   6  18
ATOM     18  N   UNL A   1      31.493  27.809  25.325  1.00  0.00    -0.336 N 
ATOM     19  C   UNL A   1      31.260  26.835  26.367  1.00  0.00     0.331 C 
ATOM     20  H   UNL A   1      31.078  27.434  24.471  1.00  0.00     0.346 HD
ATOM     21  H   UNL A   1      31.086  28.664  25.703  1.00  0.00     0.346 HD
ENDBRANCH   6  18
ENDBRANCH   3   6
ENDBRANCH   1   2
BRANCH   1  22
ATOM     22  C   UNL A   1      31.384  32.123  26.852  1.00  0.00     0.042 C 
BRANCH  22  23
ATOM     23  C   UNL A   1      32.657  32.807  27.329  1.00  0.00     0.118 C 
BRANCH  23  24
ATOM     24  N   UNL A   1      32.446  34.221  27.615  1.00  0.00    -0.352 N 
ATOM     25  C   UNL A   1      33.009  35.008  28.590  1.00  0.00     0.251 C 
ATOM     26  H   UNL A   1      31.807  34.678  27.024  1.00  0.00     0.163 HD
ATOM     27  O   UNL A   1      32.545  36.110  28.843  1.00  0.00    -0.269 OA
BRANCH  25  28
ATOM     28  C   UNL A   1      34.181  34.504  29.332  1.00  0.00     0.039 A 
ATOM     29  C   UNL A   1      33.995  33.889  30.573  1.00  0.00     0.014 A 
ATOM     30  C   UNL A   1      35.460  34.638  28.791  1.00  0.00     0.014 A 
ATOM     31  C   UNL A   1      35.094  33.347  31.242  1.00  0.00     0.010 A 
ATOM     32  C   UNL A   1      36.535  34.018  29.411  1.00  0.00     0.010 A 
ATOM     33  C   UNL A   1      36.365  33.377  30.647  1.00  0.00    -0.014 A 
BRANCH  33  34
ATOM     34  C   UNL A   1      37.558  32.782  31.300  1.00  0.00     0.031 A 
ATOM     35  C   UNL A   1      38.267  31.639  30.629  1.00  0.00     0.074 A 
ATOM     36  C   UNL A   1      37.931  33.192  32.526  1.00  0.00     0.049 A 
ATOM     37  N   UNL A   1      39.206  30.856  31.094  1.00  0.00    -0.248 NA
ATOM     38  C   UNL A   1      37.830  31.308  29.262  1.00  0.00     0.031 C 
ATOM     39  C   UNL A   1      37.301  34.270  33.289  1.00  0.00     0.029 A 
ATOM     40  N   UNL A   1      38.919  32.730  33.359  1.00  0.00    -0.354 N 
ATOM     41  C   UNL A   1      39.448  29.926  30.091  1.00  0.00     0.074 A 
ATOM     42  C   UNL A   1      38.520  30.206  29.018  1.00  0.00     0.031 C 
ATOM     43  C   UNL A   1      37.923  34.393  34.472  1.00  0.00     0.029 A 
ATOM     44  C   UNL A   1      38.961  33.372  34.572  1.00  0.00     0.049 A 
ATOM     45  H   UNL A   1      39.539  32.007  33.109  1.00  0.00     0.167 HD
ATOM     46  C   UNL A   1      40.376  28.941  30.063  1.00  0.00     0.037 A 
ATOM     47  C   UNL A   1      39.736  33.143  35.649  1.00  0.00     0.037 A 
ATOM     48  C   UNL A   1      41.314  28.691  31.124  1.00  0.00     0.049 A 
ATOM     49  C   UNL A   1      40.751  32.032  35.599  1.00  0.00     0.074 A 
ATOM     50  C   UNL A   1      42.330  27.754  31.175  1.00  0.00     0.029 A 
ATOM     51  N   UNL A   1      41.349  29.387  32.324  1.00  0.00    -0.354 N 
ATOM     52  N   UNL A   1      41.008  31.189  34.628  1.00  0.00    -0.248 NA
ATOM     53  C   UNL A   1      41.588  31.843  36.792  1.00  0.00     0.031 C 
ATOM     54  C   UNL A   1      42.946  27.848  32.427  1.00  0.00     0.029 A 
ATOM     55  C   UNL A   1      42.359  28.888  33.129  1.00  0.00     0.049 A 
ATOM     56  H   UNL A   1      40.746  30.127  32.567  1.00  0.00     0.167 HD
ATOM     57  C   UNL A   1      42.061  30.401  35.074  1.00  0.00     0.074 A 
ATOM     58  C   UNL A   1      42.396  30.866  36.403  1.00  0.00     0.031 C 
ATOM     59  C   UNL A   1      42.696  29.385  34.439  1.00  0.00     0.037 A 
BRANCH  46  60
ATOM     60  C   UNL A   1      40.419  28.061  28.847  1.00  0.00     0.064 A 
ATOM     61  C   UNL A   1      41.178  28.401  27.715  1.00  0.00     0.173 A 
ATOM     62  C   UNL A   1      39.714  26.848  28.821  1.00  0.00     0.173 A 
ATOM     63  F   UNL A   1      41.861  29.555  27.682  1.00  0.00    -0.203 F 
ATOM     64  C   UNL A   1      41.201  27.577  26.593  1.00  0.00     0.198 A 
ATOM     65  C   UNL A   1      39.769  26.010  27.711  1.00  0.00     0.198 A 
ATOM     66  F   UNL A   1      38.977  26.471  29.876  1.00  0.00    -0.203 F 
ATOM     67  F   UNL A   1      41.886  27.951  25.504  1.00  0.00    -0.200 F 
ATOM     68  C   UNL A   1      40.504  26.378  26.595  1.00  0.00     0.200 A 
ATOM     69  F   UNL A   1      39.106  24.844  27.720  1.00  0.00    -0.200 F 
ATOM     70  F   UNL A   1      40.533  25.583  25.517  1.00  0.00    -0.200 F 
ENDBRANCH  46  60
BRANCH  47  71
ATOM     71  C   UNL A   1      39.597  33.993  36.862  1.00  0.00     0.064 A 
ATOM     72  C   UNL A   1      40.269  35.220  36.960  1.00  0.00     0.173 A 
ATOM     73  C   UNL A   1      38.801  33.598  37.948  1.00  0.00     0.173 A 
ATOM     74  F   UNL A   1      41.056  35.633  35.956  1.00  0.00    -0.203 F 
ATOM     75  C   UNL A   1      40.173  36.005  38.107  1.00  0.00     0.198 A 
ATOM     76  C   UNL A   1      38.682  34.399  39.082  1.00  0.00     0.198 A 
ATOM     77  F   UNL A   1      38.131  32.437  37.903  1.00  0.00    -0.203 F 
ATOM     78  F   UNL A   1      40.868  37.148  38.194  1.00  0.00    -0.200 F 
ATOM     79  C   UNL A   1      39.375  35.597  39.164  1.00  0.00     0.200 A 
ATOM     80  F   UNL A   1      37.897  34.009  40.095  1.00  0.00    -0.200 F 
ATOM     81  F   UNL A   1      39.282  36.354  40.267  1.00  0.00    -0.200 F 
ENDBRANCH  47  71
BRANCH  59  82
ATOM     82  C   UNL A   1      43.865  28.752  35.136  1.00  0.00     0.064 A 
ATOM     83  C   UNL A   1      45.170  29.243  34.994  1.00  0.00     0.173 A 
ATOM     84  C   UNL A   1      43.658  27.674  36.012  1.00  0.00     0.173 A 
ATOM     85  F   UNL A   1      45.421  30.262  34.159  1.00  0.00    -0.203 F 
ATOM     86  C   UNL A   1      46.229  28.667  35.691  1.00  0.00     0.198 A 
ATOM     87  C   UNL A   1      44.714  27.123  36.732  1.00  0.00     0.198 A 
ATOM     88  F   UNL A   1      42.427  27.171  36.188  1.00  0.00    -0.203 F 
ATOM     89  F   UNL A   1      47.475  29.126  35.511  1.00  0.00    -0.200 F 
ATOM     90  C   UNL A   1      45.999  27.616  36.567  1.00  0.00     0.200 A 
ATOM     91  F   UNL A   1      44.485  26.118  37.589  1.00  0.00    -0.200 F 
ATOM     92  F   UNL A   1      47.018  27.074  37.249  1.00  0.00    -0.200 F 
ENDBRANCH  59  82
ENDBRANCH  33  34
ENDBRANCH  25  28
ENDBRANCH  23  24
ENDBRANCH  22  23
ENDBRANCH   1  22
TORSDOF 15
ENDMDL
