MODEL 1
REMARK VINA RESULT:     -11.6      0.000      0.000
REMARK SMILES CC[C@H]1CC(=O)N(CCn2cc(C(=O)NCCCNC(=O)c3ccc(-c4c5nc(c(-c6c(F)c(F)c(F)c(F)c6F)c6ccc([nH]6)c(-c6c(F)c(F)c(F)c(F)c6F)c6nc(c(-c7c(F)c(F)c(F)c(F)c7F)c7ccc4[nH]7)C=C6)C=C5)cc3)nn2)C1
REMARK SMILES IDX 16 1 15 2 13 3 14 4 12 6 10 7 11 8 86 9 85 10 9 11 8 12 7 13
REMARK SMILES IDX 3 14 4 15 87 16 5 17 6 18 2 19 1 20 17 21 18 22 19 23 20 24
REMARK SMILES IDX 21 26 22 27 23 28 84 29 24 30 83 31 25 32 26 33 27 34 77 35
REMARK SMILES IDX 28 36 82 37 76 38 78 39 29 40 81 41 75 42 74 43 30 45 62 46
REMARK SMILES IDX 42 47 61 48 43 49 46 50 60 51 79 52 44 53 45 54 59 56 80 57
REMARK SMILES IDX 47 58 31 59 32 60 40 61 33 62 34 63 38 64 41 65 35 66 36 67
REMARK SMILES IDX 39 68 37 69 63 70 64 71 72 72 65 73 66 74 70 75 73 76 67 77
REMARK SMILES IDX 68 78 71 79 69 80 48 81 49 82 57 83 50 84 51 85 55 86 58 87
REMARK SMILES IDX 52 88 53 89 56 90 54 91
REMARK H PARENT 15 5 19 25 78 44 46 55
REMARK Flexibility Score: inf
ROOT
ATOM      1  C   UNL A   1      42.100  19.762  26.962  1.00  0.00     0.118 C 
ENDROOT
BRANCH   1   2
ATOM      2  N   UNL A   1      42.756  18.865  26.038  1.00  0.00    -0.351 N 
ATOM      3  C   UNL A   1      43.874  19.203  25.265  1.00  0.00     0.273 C 
ATOM      4  O   UNL A   1      44.541  18.284  24.793  1.00  0.00    -0.267 OA
ATOM      5  H   UNL A   1      42.392  17.955  25.947  1.00  0.00     0.163 HD
BRANCH   3   6
ATOM      6  C   UNL A   1      44.264  20.613  25.125  1.00  0.00     0.170 A 
ATOM      7  N   UNL A   1      45.367  22.444  24.742  1.00  0.00    -0.250 N 
ATOM      8  C   UNL A   1      45.475  21.239  25.379  1.00  0.00     0.145 A 
ATOM      9  N   UNL A   1      44.088  22.681  24.409  1.00  0.00    -0.067 NA
ATOM     10  N   UNL A   1      43.403  21.564  24.626  1.00  0.00    -0.125 NA
BRANCH   7  11
ATOM     11  C   UNL A   1      46.412  23.348  24.301  1.00  0.00     0.167 C 
BRANCH  11  12
ATOM     12  C   UNL A   1      47.025  24.265  25.379  1.00  0.00     0.143 C 
BRANCH  12  13
ATOM     13  N   UNL A   1      46.093  25.103  26.143  1.00  0.00    -0.341 N 
ATOM     14  C   UNL A   1      44.220  25.478  27.547  1.00  0.00     0.017 C 
ATOM     15  C   UNL A   1      44.470  26.718  26.685  1.00  0.00     0.105 C 
ATOM     16  C   UNL A   1      45.463  24.637  27.338  1.00  0.00     0.123 C 
ATOM     17  C   UNL A   1      45.499  26.262  25.672  1.00  0.00     0.222 C 
ATOM     18  O   UNL A   1      45.761  26.830  24.626  1.00  0.00    -0.275 OA
BRANCH  14  19
ATOM     19  C   UNL A   1      43.882  25.813  29.009  1.00  0.00     0.002 C 
ATOM     20  C   UNL A   1      45.064  26.007  29.955  1.00  0.00     0.004 C 
ENDBRANCH  14  19
ENDBRANCH  12  13
ENDBRANCH  11  12
ENDBRANCH   7  11
ENDBRANCH   3   6
ENDBRANCH   1   2
BRANCH   1  21
ATOM     21  C   UNL A   1      40.686  20.267  26.711  1.00  0.00     0.042 C 
BRANCH  21  22
ATOM     22  C   UNL A   1      40.489  21.742  26.999  1.00  0.00     0.118 C 
BRANCH  22  23
ATOM     23  N   UNL A   1      39.206  22.349  26.585  1.00  0.00    -0.352 N 
ATOM     24  C   UNL A   1      38.821  23.691  26.677  1.00  0.00     0.251 C 
ATOM     25  H   UNL A   1      38.542  21.735  26.197  1.00  0.00     0.163 HD
ATOM     26  O   UNL A   1      37.676  24.063  26.451  1.00  0.00    -0.269 OA
BRANCH  24  27
ATOM     27  C   UNL A   1      39.878  24.659  27.012  1.00  0.00     0.039 A 
ATOM     28  C   UNL A   1      40.404  25.578  26.097  1.00  0.00     0.014 A 
ATOM     29  C   UNL A   1      40.007  24.841  28.370  1.00  0.00     0.014 A 
ATOM     30  C   UNL A   1      40.897  26.790  26.591  1.00  0.00     0.010 A 
ATOM     31  C   UNL A   1      40.106  26.136  28.767  1.00  0.00     0.010 A 
ATOM     32  C   UNL A   1      40.671  27.093  27.939  1.00  0.00    -0.014 A 
BRANCH  32  33
ATOM     33  C   UNL A   1      40.889  28.403  28.546  1.00  0.00     0.031 A 
ATOM     34  C   UNL A   1      42.076  29.169  28.077  1.00  0.00     0.074 A 
ATOM     35  C   UNL A   1      39.925  29.007  29.282  1.00  0.00     0.049 A 
ATOM     36  N   UNL A   1      43.136  29.464  28.755  1.00  0.00    -0.248 NA
ATOM     37  C   UNL A   1      42.145  29.587  26.668  1.00  0.00     0.031 C 
ATOM     38  C   UNL A   1      38.556  28.560  29.602  1.00  0.00     0.029 A 
ATOM     39  N   UNL A   1      39.939  30.253  29.818  1.00  0.00    -0.354 N 
ATOM     40  C   UNL A   1      43.922  30.266  27.932  1.00  0.00     0.074 A 
ATOM     41  C   UNL A   1      43.350  30.164  26.613  1.00  0.00     0.031 C 
ATOM     42  C   UNL A   1      37.808  29.605  30.013  1.00  0.00     0.029 A 
ATOM     43  C   UNL A   1      38.699  30.721  30.228  1.00  0.00     0.049 A 
ATOM     44  H   UNL A   1      40.765  30.782  29.910  1.00  0.00     0.167 HD
ATOM     45  C   UNL A   1      44.841  31.128  28.456  1.00  0.00     0.037 A 
ATOM     46  C   UNL A   1      38.424  31.943  30.733  1.00  0.00     0.037 A 
ATOM     47  C   UNL A   1      45.088  30.842  29.848  1.00  0.00     0.049 A 
ATOM     48  C   UNL A   1      39.709  32.489  31.242  1.00  0.00     0.074 A 
ATOM     49  C   UNL A   1      45.532  29.732  30.543  1.00  0.00     0.029 A 
ATOM     50  N   UNL A   1      44.477  31.635  30.792  1.00  0.00    -0.354 N 
ATOM     51  N   UNL A   1      40.363  31.963  32.245  1.00  0.00    -0.248 NA
ATOM     52  C   UNL A   1      40.510  33.280  30.320  1.00  0.00     0.031 C 
ATOM     53  C   UNL A   1      44.695  29.671  31.698  1.00  0.00     0.029 A 
ATOM     54  C   UNL A   1      43.861  30.790  31.682  1.00  0.00     0.049 A 
ATOM     55  H   UNL A   1      44.479  32.620  30.823  1.00  0.00     0.167 HD
ATOM     56  C   UNL A   1      41.696  31.999  31.861  1.00  0.00     0.074 A 
ATOM     57  C   UNL A   1      41.731  32.887  30.697  1.00  0.00     0.031 C 
ATOM     58  C   UNL A   1      42.600  31.083  32.323  1.00  0.00     0.037 A 
BRANCH  45  59
ATOM     59  C   UNL A   1      45.257  32.438  27.834  1.00  0.00     0.064 A 
ATOM     60  C   UNL A   1      44.278  33.419  27.570  1.00  0.00     0.173 A 
ATOM     61  C   UNL A   1      46.508  32.649  27.219  1.00  0.00     0.173 A 
ATOM     62  F   UNL A   1      43.046  33.311  28.092  1.00  0.00    -0.203 F 
ATOM     63  C   UNL A   1      44.512  34.481  26.691  1.00  0.00     0.198 A 
ATOM     64  C   UNL A   1      46.756  33.740  26.387  1.00  0.00     0.198 A 
ATOM     65  F   UNL A   1      47.500  31.755  27.302  1.00  0.00    -0.203 F 
ATOM     66  F   UNL A   1      43.512  35.313  26.371  1.00  0.00    -0.200 F 
ATOM     67  C   UNL A   1      45.749  34.636  26.095  1.00  0.00     0.200 A 
ATOM     68  F   UNL A   1      47.957  33.863  25.804  1.00  0.00    -0.200 F 
ATOM     69  F   UNL A   1      45.959  35.613  25.203  1.00  0.00    -0.200 F 
ENDBRANCH  45  59
BRANCH  46  70
ATOM     70  C   UNL A   1      37.212  32.754  30.479  1.00  0.00     0.064 A 
ATOM     71  C   UNL A   1      36.879  33.174  29.184  1.00  0.00     0.173 A 
ATOM     72  C   UNL A   1      36.217  32.911  31.467  1.00  0.00     0.173 A 
ATOM     73  F   UNL A   1      37.757  33.020  28.183  1.00  0.00    -0.203 F 
ATOM     74  C   UNL A   1      35.616  33.696  28.888  1.00  0.00     0.198 A 
ATOM     75  C   UNL A   1      34.960  33.435  31.172  1.00  0.00     0.198 A 
ATOM     76  F   UNL A   1      36.416  32.470  32.720  1.00  0.00    -0.203 F 
ATOM     77  F   UNL A   1      35.311  34.031  27.627  1.00  0.00    -0.200 F 
ATOM     78  C   UNL A   1      34.654  33.815  29.879  1.00  0.00     0.200 A 
ATOM     79  F   UNL A   1      34.026  33.507  32.131  1.00  0.00    -0.200 F 
ATOM     80  F   UNL A   1      33.423  34.254  29.580  1.00  0.00    -0.200 F 
ENDBRANCH  46  70
BRANCH  58  81
ATOM     81  C   UNL A   1      42.167  30.146  33.424  1.00  0.00     0.064 A 
ATOM     82  C   UNL A   1      41.673  28.848  33.203  1.00  0.00     0.173 A 
ATOM     83  C   UNL A   1      42.419  30.509  34.752  1.00  0.00     0.173 A 
ATOM     84  F   UNL A   1      41.503  28.376  31.966  1.00  0.00    -0.203 F 
ATOM     85  C   UNL A   1      41.405  27.976  34.257  1.00  0.00     0.198 A 
ATOM     86  C   UNL A   1      42.183  29.626  35.804  1.00  0.00     0.198 A 
ATOM     87  F   UNL A   1      42.950  31.711  35.028  1.00  0.00    -0.203 F 
ATOM     88  F   UNL A   1      40.932  26.746  34.009  1.00  0.00    -0.200 F 
ATOM     89  C   UNL A   1      41.667  28.364  35.559  1.00  0.00     0.200 A 
ATOM     90  F   UNL A   1      42.485  29.989  37.058  1.00  0.00    -0.200 F 
ATOM     91  F   UNL A   1      41.449  27.514  36.571  1.00  0.00    -0.200 F 
ENDBRANCH  58  81
ENDBRANCH  32  33
ENDBRANCH  24  27
ENDBRANCH  22  23
ENDBRANCH  21  22
ENDBRANCH   1  21
TORSDOF 14
ENDMDL
MODEL 2
REMARK VINA RESULT:     -11.4      3.607      6.919
REMARK SMILES CC[C@H]1CC(=O)N(CCn2cc(C(=O)NCCCNC(=O)c3ccc(-c4c5nc(c(-c6c(F)c(F)c(F)c(F)c6F)c6ccc([nH]6)c(-c6c(F)c(F)c(F)c(F)c6F)c6nc(c(-c7c(F)c(F)c(F)c(F)c7F)c7ccc4[nH]7)C=C6)C=C5)cc3)nn2)C1
REMARK SMILES IDX 16 1 15 2 13 3 14 4 12 6 10 7 11 8 86 9 85 10 9 11 8 12 7 13
REMARK SMILES IDX 3 14 4 15 87 16 5 17 6 18 2 19 1 20 17 21 18 22 19 23 20 24
REMARK SMILES IDX 21 26 22 27 23 28 84 29 24 30 83 31 25 32 26 33 27 34 77 35
REMARK SMILES IDX 28 36 82 37 76 38 78 39 29 40 81 41 75 42 74 43 30 45 62 46
REMARK SMILES IDX 42 47 61 48 43 49 46 50 60 51 79 52 44 53 45 54 59 56 80 57
REMARK SMILES IDX 47 58 31 59 32 60 40 61 33 62 34 63 38 64 41 65 35 66 36 67
REMARK SMILES IDX 39 68 37 69 63 70 64 71 72 72 65 73 66 74 70 75 73 76 67 77
REMARK SMILES IDX 68 78 71 79 69 80 48 81 49 82 57 83 50 84 51 85 55 86 58 87
REMARK SMILES IDX 52 88 53 89 56 90 54 91
REMARK H PARENT 15 5 19 25 78 44 46 55
REMARK Flexibility Score: inf
ROOT
ATOM      1  C   UNL A   1      39.276  21.077  25.747  1.00  0.00     0.118 C 
ENDROOT
BRANCH   1   2
ATOM      2  N   UNL A   1      39.214  22.464  26.146  1.00  0.00    -0.351 N 
ATOM      3  C   UNL A   1      38.114  23.303  25.926  1.00  0.00     0.273 C 
ATOM      4  O   UNL A   1      38.035  24.330  26.598  1.00  0.00    -0.267 OA
ATOM      5  H   UNL A   1      39.997  22.844  26.605  1.00  0.00     0.163 HD
BRANCH   3   6
ATOM      6  C   UNL A   1      37.060  22.893  24.988  1.00  0.00     0.170 A 
ATOM      7  N   UNL A   1      35.147  22.412  24.081  1.00  0.00    -0.250 N 
ATOM      8  C   UNL A   1      35.886  22.187  25.208  1.00  0.00     0.145 A 
ATOM      9  N   UNL A   1      35.921  22.927  23.111  1.00  0.00    -0.067 NA
ATOM     10  N   UNL A   1      37.091  23.239  23.656  1.00  0.00    -0.125 NA
BRANCH   7  11
ATOM     11  C   UNL A   1      33.714  22.294  23.881  1.00  0.00     0.167 C 
BRANCH  11  12
ATOM     12  C   UNL A   1      32.991  21.223  24.724  1.00  0.00     0.143 C 
BRANCH  12  13
ATOM     13  N   UNL A   1      32.867  19.887  24.132  1.00  0.00    -0.341 N 
ATOM     14  C   UNL A   1      33.653  17.724  23.561  1.00  0.00     0.017 C 
ATOM     15  C   UNL A   1      32.572  18.154  22.567  1.00  0.00     0.105 C 
ATOM     16  C   UNL A   1      33.558  18.756  24.666  1.00  0.00     0.123 C 
ATOM     17  C   UNL A   1      32.349  19.620  22.875  1.00  0.00     0.222 C 
ATOM     18  O   UNL A   1      31.797  20.421  22.140  1.00  0.00    -0.275 OA
BRANCH  14  19
ATOM     19  C   UNL A   1      33.520  16.258  24.005  1.00  0.00     0.002 C 
ATOM     20  C   UNL A   1      33.544  15.997  25.509  1.00  0.00     0.004 C 
ENDBRANCH  14  19
ENDBRANCH  12  13
ENDBRANCH  11  12
ENDBRANCH   7  11
ENDBRANCH   3   6
ENDBRANCH   1   2
BRANCH   1  21
ATOM     21  C   UNL A   1      40.385  20.158  26.236  1.00  0.00     0.042 C 
BRANCH  21  22
ATOM     22  C   UNL A   1      41.770  20.776  26.201  1.00  0.00     0.118 C 
BRANCH  22  23
ATOM     23  N   UNL A   1      42.880  19.925  25.721  1.00  0.00    -0.352 N 
ATOM     24  C   UNL A   1      44.056  20.328  25.079  1.00  0.00     0.251 C 
ATOM     25  H   UNL A   1      42.780  18.957  25.871  1.00  0.00     0.163 HD
ATOM     26  O   UNL A   1      44.839  19.530  24.580  1.00  0.00    -0.269 OA
BRANCH  24  27
ATOM     27  C   UNL A   1      44.341  21.772  25.072  1.00  0.00     0.039 A 
ATOM     28  C   UNL A   1      43.535  22.717  24.427  1.00  0.00     0.014 A 
ATOM     29  C   UNL A   1      45.220  22.136  26.067  1.00  0.00     0.014 A 
ATOM     30  C   UNL A   1      43.497  24.014  24.946  1.00  0.00     0.010 A 
ATOM     31  C   UNL A   1      44.863  23.242  26.769  1.00  0.00     0.010 A 
ATOM     32  C   UNL A   1      44.116  24.250  26.180  1.00  0.00    -0.014 A 
BRANCH  32  33
ATOM     33  C   UNL A   1      43.956  25.463  26.974  1.00  0.00     0.031 A 
ATOM     34  C   UNL A   1      44.879  26.590  26.669  1.00  0.00     0.074 A 
ATOM     35  C   UNL A   1      42.859  25.660  27.746  1.00  0.00     0.049 A 
ATOM     36  N   UNL A   1      45.812  27.065  27.427  1.00  0.00    -0.248 NA
ATOM     37  C   UNL A   1      44.830  27.214  25.337  1.00  0.00     0.031 C 
ATOM     38  C   UNL A   1      41.671  24.807  27.941  1.00  0.00     0.029 A 
ATOM     39  N   UNL A   1      42.521  26.767  28.453  1.00  0.00    -0.354 N 
ATOM     40  C   UNL A   1      46.342  28.167  26.760  1.00  0.00     0.074 A 
ATOM     41  C   UNL A   1      45.823  28.105  25.416  1.00  0.00     0.031 C 
ATOM     42  C   UNL A   1      40.659  25.530  28.462  1.00  0.00     0.029 A 
ATOM     43  C   UNL A   1      41.199  26.806  28.871  1.00  0.00     0.049 A 
ATOM     44  H   UNL A   1      43.164  27.486  28.653  1.00  0.00     0.167 HD
ATOM     45  C   UNL A   1      46.980  29.163  27.438  1.00  0.00     0.037 A 
ATOM     46  C   UNL A   1      40.590  27.815  29.531  1.00  0.00     0.037 A 
ATOM     47  C   UNL A   1      47.295  28.756  28.786  1.00  0.00     0.049 A 
ATOM     48  C   UNL A   1      41.669  28.616  30.166  1.00  0.00     0.074 A 
ATOM     49  C   UNL A   1      48.033  27.724  29.335  1.00  0.00     0.029 A 
ATOM     50  N   UNL A   1      46.484  29.199  29.805  1.00  0.00    -0.354 N 
ATOM     51  N   UNL A   1      42.443  28.151  31.112  1.00  0.00    -0.248 NA
ATOM     52  C   UNL A   1      42.216  29.725  29.400  1.00  0.00     0.031 C 
ATOM     53  C   UNL A   1      47.246  27.262  30.434  1.00  0.00     0.029 A 
ATOM     54  C   UNL A   1      46.130  28.094  30.540  1.00  0.00     0.049 A 
ATOM     55  H   UNL A   1      46.209  30.129  29.975  1.00  0.00     0.167 HD
ATOM     56  C   UNL A   1      43.712  28.613  30.795  1.00  0.00     0.074 A 
ATOM     57  C   UNL A   1      43.498  29.636  29.770  1.00  0.00     0.031 C 
ATOM     58  C   UNL A   1      44.837  27.927  31.162  1.00  0.00     0.037 A 
BRANCH  45  59
ATOM     59  C   UNL A   1      47.011  30.614  27.026  1.00  0.00     0.064 A 
ATOM     60  C   UNL A   1      48.236  31.313  27.051  1.00  0.00     0.173 A 
ATOM     61  C   UNL A   1      45.858  31.416  26.902  1.00  0.00     0.173 A 
ATOM     62  F   UNL A   1      49.396  30.651  27.180  1.00  0.00    -0.203 F 
ATOM     63  C   UNL A   1      48.292  32.710  27.036  1.00  0.00     0.198 A 
ATOM     64  C   UNL A   1      45.920  32.807  26.831  1.00  0.00     0.198 A 
ATOM     65  F   UNL A   1      44.624  30.900  26.960  1.00  0.00    -0.203 F 
ATOM     66  F   UNL A   1      49.469  33.331  27.191  1.00  0.00    -0.200 F 
ATOM     67  C   UNL A   1      47.133  33.456  26.933  1.00  0.00     0.200 A 
ATOM     68  F   UNL A   1      44.783  33.514  26.750  1.00  0.00    -0.200 F 
ATOM     69  F   UNL A   1      47.175  34.794  26.984  1.00  0.00    -0.200 F 
ENDBRANCH  45  59
BRANCH  46  70
ATOM     70  C   UNL A   1      39.200  28.285  29.342  1.00  0.00     0.064 A 
ATOM     71  C   UNL A   1      38.328  28.426  30.430  1.00  0.00     0.173 A 
ATOM     72  C   UNL A   1      38.779  28.853  28.121  1.00  0.00     0.173 A 
ATOM     73  F   UNL A   1      38.675  27.948  31.634  1.00  0.00    -0.203 F 
ATOM     74  C   UNL A   1      37.119  29.119  30.313  1.00  0.00     0.198 A 
ATOM     75  C   UNL A   1      37.572  29.540  28.003  1.00  0.00     0.198 A 
ATOM     76  F   UNL A   1      39.578  28.834  27.041  1.00  0.00    -0.203 F 
ATOM     77  F   UNL A   1      36.339  29.287  31.389  1.00  0.00    -0.200 F 
ATOM     78  C   UNL A   1      36.747  29.685  29.103  1.00  0.00     0.200 A 
ATOM     79  F   UNL A   1      37.244  30.116  26.838  1.00  0.00    -0.200 F 
ATOM     80  F   UNL A   1      35.620  30.404  29.008  1.00  0.00    -0.200 F 
ENDBRANCH  46  70
BRANCH  58  81
ATOM     81  C   UNL A   1      44.684  26.755  32.099  1.00  0.00     0.064 A 
ATOM     82  C   UNL A   1      44.564  25.419  31.677  1.00  0.00     0.173 A 
ATOM     83  C   UNL A   1      44.835  26.971  33.474  1.00  0.00     0.173 A 
ATOM     84  F   UNL A   1      44.523  25.108  30.379  1.00  0.00    -0.203 F 
ATOM     85  C   UNL A   1      44.551  24.360  32.583  1.00  0.00     0.198 A 
ATOM     86  C   UNL A   1      44.855  25.911  34.379  1.00  0.00     0.198 A 
ATOM     87  F   UNL A   1      45.017  28.217  33.940  1.00  0.00    -0.203 F 
ATOM     88  F   UNL A   1      44.432  23.099  32.143  1.00  0.00    -0.200 F 
ATOM     89  C   UNL A   1      44.704  24.608  33.936  1.00  0.00     0.200 A 
ATOM     90  F   UNL A   1      45.053  26.153  35.681  1.00  0.00    -0.200 F 
ATOM     91  F   UNL A   1      44.733  23.590  34.807  1.00  0.00    -0.200 F 
ENDBRANCH  58  81
ENDBRANCH  32  33
ENDBRANCH  24  27
ENDBRANCH  22  23
ENDBRANCH  21  22
ENDBRANCH   1  21
TORSDOF 14
ENDMDL
MODEL 3
REMARK VINA RESULT:     -11.2      3.632      6.777
REMARK SMILES CC[C@H]1CC(=O)N(CCn2cc(C(=O)NCCCNC(=O)c3ccc(-c4c5nc(c(-c6c(F)c(F)c(F)c(F)c6F)c6ccc([nH]6)c(-c6c(F)c(F)c(F)c(F)c6F)c6nc(c(-c7c(F)c(F)c(F)c(F)c7F)c7ccc4[nH]7)C=C6)C=C5)cc3)nn2)C1
REMARK SMILES IDX 16 1 15 2 13 3 14 4 12 6 10 7 11 8 86 9 85 10 9 11 8 12 7 13
REMARK SMILES IDX 3 14 4 15 87 16 5 17 6 18 2 19 1 20 17 21 18 22 19 23 20 24
REMARK SMILES IDX 21 26 22 27 23 28 84 29 24 30 83 31 25 32 26 33 27 34 77 35
REMARK SMILES IDX 28 36 82 37 76 38 78 39 29 40 81 41 75 42 74 43 30 45 62 46
REMARK SMILES IDX 42 47 61 48 43 49 46 50 60 51 79 52 44 53 45 54 59 56 80 57
REMARK SMILES IDX 47 58 31 59 32 60 40 61 33 62 34 63 38 64 41 65 35 66 36 67
REMARK SMILES IDX 39 68 37 69 63 70 64 71 72 72 65 73 66 74 70 75 73 76 67 77
REMARK SMILES IDX 68 78 71 79 69 80 48 81 49 82 57 83 50 84 51 85 55 86 58 87
REMARK SMILES IDX 52 88 53 89 56 90 54 91
REMARK H PARENT 15 5 19 25 78 44 46 55
REMARK Flexibility Score: inf
ROOT
ATOM      1  C   UNL A   1      39.496  21.030  25.807  1.00  0.00     0.118 C 
ENDROOT
BRANCH   1   2
ATOM      2  N   UNL A   1      39.367  22.421  26.172  1.00  0.00    -0.351 N 
ATOM      3  C   UNL A   1      38.199  23.177  26.016  1.00  0.00     0.273 C 
ATOM      4  O   UNL A   1      38.100  24.217  26.663  1.00  0.00    -0.267 OA
ATOM      5  H   UNL A   1      40.155  22.869  26.557  1.00  0.00     0.163 HD
BRANCH   3   6
ATOM      6  C   UNL A   1      37.108  22.666  25.174  1.00  0.00     0.170 A 
ATOM      7  N   UNL A   1      35.171  22.019  24.435  1.00  0.00    -0.250 N 
ATOM      8  C   UNL A   1      36.014  21.877  25.501  1.00  0.00     0.145 A 
ATOM      9  N   UNL A   1      35.820  22.571  23.397  1.00  0.00    -0.067 NA
ATOM     10  N   UNL A   1      37.003  22.983  23.838  1.00  0.00    -0.125 NA
BRANCH   7  11
ATOM     11  C   UNL A   1      33.740  21.786  24.356  1.00  0.00     0.167 C 
BRANCH  11  12
ATOM     12  C   UNL A   1      33.015  22.388  23.135  1.00  0.00     0.143 C 
BRANCH  12  13
ATOM     13  N   UNL A   1      32.407  23.711  23.312  1.00  0.00    -0.341 N 
ATOM     14  C   UNL A   1      30.591  25.232  23.403  1.00  0.00     0.017 C 
ATOM     15  C   UNL A   1      31.865  25.981  23.007  1.00  0.00     0.105 C 
ATOM     16  C   UNL A   1      31.094  23.875  23.852  1.00  0.00     0.123 C 
ATOM     17  C   UNL A   1      32.870  24.881  22.732  1.00  0.00     0.222 C 
ATOM     18  O   UNL A   1      33.910  25.013  22.111  1.00  0.00    -0.275 OA
BRANCH  14  19
ATOM     19  C   UNL A   1      29.732  25.995  24.425  1.00  0.00     0.002 C 
ATOM     20  C   UNL A   1      28.437  26.612  23.903  1.00  0.00     0.004 C 
ENDBRANCH  14  19
ENDBRANCH  12  13
ENDBRANCH  11  12
ENDBRANCH   7  11
ENDBRANCH   3   6
ENDBRANCH   1   2
BRANCH   1  21
ATOM     21  C   UNL A   1      40.498  20.116  26.496  1.00  0.00     0.042 C 
BRANCH  21  22
ATOM     22  C   UNL A   1      41.901  20.685  26.592  1.00  0.00     0.118 C 
BRANCH  22  23
ATOM     23  N   UNL A   1      43.002  19.873  26.033  1.00  0.00    -0.352 N 
ATOM     24  C   UNL A   1      44.094  20.311  25.277  1.00  0.00     0.251 C 
ATOM     25  H   UNL A   1      42.963  18.906  26.216  1.00  0.00     0.163 HD
ATOM     26  O   UNL A   1      44.867  19.535  24.728  1.00  0.00    -0.269 OA
BRANCH  24  27
ATOM     27  C   UNL A   1      44.308  21.765  25.208  1.00  0.00     0.039 A 
ATOM     28  C   UNL A   1      43.411  22.651  24.601  1.00  0.00     0.014 A 
ATOM     29  C   UNL A   1      45.241  22.199  26.123  1.00  0.00     0.014 A 
ATOM     30  C   UNL A   1      43.350  23.961  25.086  1.00  0.00     0.010 A 
ATOM     31  C   UNL A   1      44.885  23.309  26.820  1.00  0.00     0.010 A 
ATOM     32  C   UNL A   1      44.048  24.263  26.262  1.00  0.00    -0.014 A 
BRANCH  32  33
ATOM     33  C   UNL A   1      43.890  25.492  27.033  1.00  0.00     0.031 A 
ATOM     34  C   UNL A   1      44.811  26.613  26.702  1.00  0.00     0.074 A 
ATOM     35  C   UNL A   1      42.796  25.703  27.805  1.00  0.00     0.049 A 
ATOM     36  N   UNL A   1      45.747  27.104  27.447  1.00  0.00    -0.248 NA
ATOM     37  C   UNL A   1      44.756  27.211  25.358  1.00  0.00     0.031 C 
ATOM     38  C   UNL A   1      41.610  24.853  28.021  1.00  0.00     0.029 A 
ATOM     39  N   UNL A   1      42.460  26.824  28.491  1.00  0.00    -0.354 N 
ATOM     40  C   UNL A   1      46.272  28.193  26.755  1.00  0.00     0.074 A 
ATOM     41  C   UNL A   1      45.749  28.104  25.416  1.00  0.00     0.031 C 
ATOM     42  C   UNL A   1      40.599  25.586  28.532  1.00  0.00     0.029 A 
ATOM     43  C   UNL A   1      41.139  26.870  28.913  1.00  0.00     0.049 A 
ATOM     44  H   UNL A   1      43.103  27.547  28.674  1.00  0.00     0.167 HD
ATOM     45  C   UNL A   1      46.912  29.203  27.412  1.00  0.00     0.037 A 
ATOM     46  C   UNL A   1      40.532  27.891  29.556  1.00  0.00     0.037 A 
ATOM     47  C   UNL A   1      47.233  28.823  28.766  1.00  0.00     0.049 A 
ATOM     48  C   UNL A   1      41.613  28.705  30.171  1.00  0.00     0.074 A 
ATOM     49  C   UNL A   1      47.974  27.802  29.333  1.00  0.00     0.029 A 
ATOM     50  N   UNL A   1      46.426  29.285  29.779  1.00  0.00    -0.354 N 
ATOM     51  N   UNL A   1      42.390  28.260  31.123  1.00  0.00    -0.248 NA
ATOM     52  C   UNL A   1      42.156  29.800  29.381  1.00  0.00     0.031 C 
ATOM     53  C   UNL A   1      47.191  27.361  30.443  1.00  0.00     0.029 A 
ATOM     54  C   UNL A   1      46.076  28.195  30.537  1.00  0.00     0.049 A 
ATOM     55  H   UNL A   1      46.151  30.218  29.932  1.00  0.00     0.167 HD
ATOM     56  C   UNL A   1      43.658  28.716  30.791  1.00  0.00     0.074 A 
ATOM     57  C   UNL A   1      43.439  29.719  29.747  1.00  0.00     0.031 C 
ATOM     58  C   UNL A   1      44.785  28.038  31.167  1.00  0.00     0.037 A 
BRANCH  45  59
ATOM     59  C   UNL A   1      46.940  30.645  26.971  1.00  0.00     0.064 A 
ATOM     60  C   UNL A   1      48.158  31.356  27.011  1.00  0.00     0.173 A 
ATOM     61  C   UNL A   1      45.783  31.434  26.801  1.00  0.00     0.173 A 
ATOM     62  F   UNL A   1      49.320  30.708  27.182  1.00  0.00    -0.203 F 
ATOM     63  C   UNL A   1      48.201  32.753  26.969  1.00  0.00     0.198 A 
ATOM     64  C   UNL A   1      45.835  32.824  26.704  1.00  0.00     0.198 A 
ATOM     65  F   UNL A   1      44.553  30.907  26.840  1.00  0.00    -0.203 F 
ATOM     66  F   UNL A   1      49.369  33.388  27.140  1.00  0.00    -0.200 F 
ATOM     67  C   UNL A   1      47.039  33.486  26.822  1.00  0.00     0.200 A 
ATOM     68  F   UNL A   1      44.694  33.518  26.580  1.00  0.00    -0.200 F 
ATOM     69  F   UNL A   1      47.068  34.825  26.847  1.00  0.00    -0.200 F 
ENDBRANCH  45  59
BRANCH  46  70
ATOM     70  C   UNL A   1      39.140  28.356  29.363  1.00  0.00     0.064 A 
ATOM     71  C   UNL A   1      38.272  28.514  30.451  1.00  0.00     0.173 A 
ATOM     72  C   UNL A   1      38.716  28.904  28.134  1.00  0.00     0.173 A 
ATOM     73  F   UNL A   1      38.623  28.056  31.661  1.00  0.00    -0.203 F 
ATOM     74  C   UNL A   1      37.061  29.203  30.326  1.00  0.00     0.198 A 
ATOM     75  C   UNL A   1      37.507  29.586  28.008  1.00  0.00     0.198 A 
ATOM     76  F   UNL A   1      39.511  28.867  27.053  1.00  0.00    -0.203 F 
ATOM     77  F   UNL A   1      36.284  29.388  31.401  1.00  0.00    -0.200 F 
ATOM     78  C   UNL A   1      36.685  29.749  29.107  1.00  0.00     0.200 A 
ATOM     79  F   UNL A   1      37.175  30.143  26.835  1.00  0.00    -0.200 F 
ATOM     80  F   UNL A   1      35.557  30.465  29.004  1.00  0.00    -0.200 F 
ENDBRANCH  46  70
BRANCH  58  81
ATOM     81  C   UNL A   1      44.637  26.885  32.128  1.00  0.00     0.064 A 
ATOM     82  C   UNL A   1      44.509  25.542  31.733  1.00  0.00     0.173 A 
ATOM     83  C   UNL A   1      44.801  27.127  33.497  1.00  0.00     0.173 A 
ATOM     84  F   UNL A   1      44.454  25.207  30.442  1.00  0.00    -0.203 F 
ATOM     85  C   UNL A   1      44.500  24.501  32.659  1.00  0.00     0.198 A 
ATOM     86  C   UNL A   1      44.826  26.085  34.422  1.00  0.00     0.198 A 
ATOM     87  F   UNL A   1      44.991  28.381  33.937  1.00  0.00    -0.203 F 
ATOM     88  F   UNL A   1      44.373  23.232  32.245  1.00  0.00    -0.200 F 
ATOM     89  C   UNL A   1      44.666  24.774  34.005  1.00  0.00     0.200 A 
ATOM     90  F   UNL A   1      45.037  26.351  35.718  1.00  0.00    -0.200 F 
ATOM     91  F   UNL A   1      44.700  23.773  34.895  1.00  0.00    -0.200 F 
ENDBRANCH  58  81
ENDBRANCH  32  33
ENDBRANCH  24  27
ENDBRANCH  22  23
ENDBRANCH  21  22
ENDBRANCH   1  21
TORSDOF 14
ENDMDL
