MODEL 1
REMARK VINA RESULT:      -9.8      0.000      0.000
REMARK SMILES C/C=C/c1cncc(-c2ccc([C@@H](C)C(=O)NCCCNC(=O)c3ccc(-c4c5nc(c(-c6c(F)c(F)c(F)c(F)c6F)c6ccc([nH]6)c(-c6c(F)c(F)c(F)c(F)c6F)c6nc(c(-c7c(F)c(F)c(F)c(F)c7F)c7ccc4[nH]7)C=C6)C=C5)cc3)cc2)c1
REMARK SMILES IDX 18 1 17 2 15 3 16 4 13 6 14 7 12 8 9 9 10 10 88 11 11 12
REMARK SMILES IDX 87 13 8 14 4 15 5 16 89 17 6 18 7 19 3 20 1 21 2 22 19 23
REMARK SMILES IDX 20 24 21 25 22 26 23 28 24 29 25 30 86 31 26 32 85 33 27 34
REMARK SMILES IDX 28 35 29 36 79 37 30 38 84 39 78 40 80 41 31 42 83 43 77 44
REMARK SMILES IDX 76 45 32 47 64 48 44 49 63 50 45 51 48 52 62 53 81 54 46 55
REMARK SMILES IDX 47 56 61 58 82 59 49 60 33 61 34 62 42 63 35 64 36 65 40 66
REMARK SMILES IDX 43 67 37 68 38 69 41 70 39 71 65 72 66 73 74 74 67 75 68 76
REMARK SMILES IDX 72 77 75 78 69 79 70 80 73 81 71 82 50 83 51 84 59 85 52 86
REMARK SMILES IDX 53 87 57 88 60 89 54 90 55 91 58 92 56 93
REMARK H PARENT 17 5 21 27 80 46 48 57
REMARK Flexibility Score: inf
ROOT
ATOM      1  C   UNL A   1      36.840  33.415  29.602  1.00  0.00     0.117 C 
ENDROOT
BRANCH   1   2
ATOM      2  N   UNL A   1      36.905  34.359  30.700  1.00  0.00    -0.356 N 
ATOM      3  C   UNL A   1      36.558  34.255  32.013  1.00  0.00     0.227 C 
ATOM      4  O   UNL A   1      36.670  35.285  32.689  1.00  0.00    -0.274 OA
ATOM      5  H   UNL A   1      37.267  35.240  30.451  1.00  0.00     0.163 HD
BRANCH   3   6
ATOM      6  C   UNL A   1      36.047  32.962  32.666  1.00  0.00     0.105 C 
ATOM      7  C   UNL A   1      34.784  33.132  33.510  1.00  0.00     0.023 C 
BRANCH   6   8
ATOM      8  C   UNL A   1      37.159  32.125  33.280  1.00  0.00    -0.036 A 
ATOM      9  C   UNL A   1      39.311  30.503  34.239  1.00  0.00    -0.017 A 
ATOM     10  C   UNL A   1      39.233  31.875  34.531  1.00  0.00     0.009 A 
ATOM     11  C   UNL A   1      38.261  29.955  33.487  1.00  0.00     0.009 A 
ATOM     12  C   UNL A   1      38.165  32.666  34.083  1.00  0.00     0.005 A 
ATOM     13  C   UNL A   1      37.215  30.753  33.002  1.00  0.00     0.005 A 
BRANCH   9  14
ATOM     14  C   UNL A   1      40.457  29.685  34.692  1.00  0.00     0.001 A 
ATOM     15  C   UNL A   1      42.243  28.065  34.278  1.00  0.00    -0.007 A 
ATOM     16  C   UNL A   1      42.612  28.216  35.610  1.00  0.00     0.119 A 
ATOM     17  C   UNL A   1      41.148  28.814  33.830  1.00  0.00     0.020 A 
ATOM     18  N   UNL A   1      41.989  29.035  36.485  1.00  0.00    -0.263 NA
ATOM     19  C   UNL A   1      40.933  29.736  36.006  1.00  0.00     0.119 A 
BRANCH  15  20
ATOM     20  C   UNL A   1      42.954  27.102  33.428  1.00  0.00     0.005 C 
ATOM     21  C   UNL A   1      44.275  25.024  33.000  1.00  0.00     0.035 C 
ATOM     22  C   UNL A   1      43.566  25.999  33.885  1.00  0.00    -0.030 C 
ENDBRANCH  15  20
ENDBRANCH   9  14
ENDBRANCH   6   8
ENDBRANCH   3   6
ENDBRANCH   1   2
BRANCH   1  23
ATOM     23  C   UNL A   1      35.489  33.439  28.890  1.00  0.00     0.042 C 
BRANCH  23  24
ATOM     24  C   UNL A   1      34.444  32.516  29.504  1.00  0.00     0.118 C 
BRANCH  24  25
ATOM     25  N   UNL A   1      33.991  31.494  28.571  1.00  0.00    -0.352 N 
ATOM     26  C   UNL A   1      34.667  30.472  27.953  1.00  0.00     0.251 C 
ATOM     27  H   UNL A   1      33.035  31.545  28.345  1.00  0.00     0.163 HD
ATOM     28  O   UNL A   1      34.107  29.856  27.048  1.00  0.00    -0.269 OA
BRANCH  26  29
ATOM     29  C   UNL A   1      36.048  30.095  28.340  1.00  0.00     0.039 A 
ATOM     30  C   UNL A   1      37.078  30.310  27.415  1.00  0.00     0.014 A 
ATOM     31  C   UNL A   1      36.337  29.463  29.552  1.00  0.00     0.014 A 
ATOM     32  C   UNL A   1      38.390  29.935  27.722  1.00  0.00     0.010 A 
ATOM     33  C   UNL A   1      37.657  29.158  29.889  1.00  0.00     0.010 A 
ATOM     34  C   UNL A   1      38.695  29.376  28.972  1.00  0.00    -0.014 A 
BRANCH  34  35
ATOM     35  C   UNL A   1      40.088  28.993  29.321  1.00  0.00     0.031 A 
ATOM     36  C   UNL A   1      40.937  29.900  30.170  1.00  0.00     0.074 A 
ATOM     37  C   UNL A   1      40.607  27.850  28.834  1.00  0.00     0.049 A 
ATOM     38  N   UNL A   1      42.187  29.762  30.537  1.00  0.00    -0.248 NA
ATOM     39  C   UNL A   1      40.305  31.138  30.651  1.00  0.00     0.031 C 
ATOM     40  C   UNL A   1      39.907  26.908  27.960  1.00  0.00     0.029 A 
ATOM     41  N   UNL A   1      41.850  27.289  29.000  1.00  0.00    -0.354 N 
ATOM     42  C   UNL A   1      42.495  30.902  31.269  1.00  0.00     0.074 A 
ATOM     43  C   UNL A   1      41.316  31.741  31.259  1.00  0.00     0.031 C 
ATOM     44  C   UNL A   1      40.720  25.875  27.686  1.00  0.00     0.029 A 
ATOM     45  C   UNL A   1      42.007  26.095  28.340  1.00  0.00     0.049 A 
ATOM     46  H   UNL A   1      42.560  27.704  29.541  1.00  0.00     0.167 HD
ATOM     47  C   UNL A   1      43.647  31.212  31.910  1.00  0.00     0.037 A 
ATOM     48  C   UNL A   1      43.069  25.271  28.270  1.00  0.00     0.037 A 
ATOM     49  C   UNL A   1      44.809  30.361  31.952  1.00  0.00     0.049 A 
ATOM     50  C   UNL A   1      44.327  25.624  29.016  1.00  0.00     0.074 A 
ATOM     51  C   UNL A   1      46.003  30.561  32.623  1.00  0.00     0.029 A 
ATOM     52  N   UNL A   1      44.917  29.143  31.298  1.00  0.00    -0.354 N 
ATOM     53  N   UNL A   1      44.586  26.676  29.752  1.00  0.00    -0.248 NA
ATOM     54  C   UNL A   1      45.437  24.666  28.928  1.00  0.00     0.031 C 
ATOM     55  C   UNL A   1      46.846  29.478  32.350  1.00  0.00     0.029 A 
ATOM     56  C   UNL A   1      46.162  28.586  31.540  1.00  0.00     0.049 A 
ATOM     57  H   UNL A   1      44.213  28.735  30.744  1.00  0.00     0.167 HD
ATOM     58  C   UNL A   1      45.875  26.499  30.232  1.00  0.00     0.074 A 
ATOM     59  C   UNL A   1      46.342  25.228  29.717  1.00  0.00     0.031 C 
ATOM     60  C   UNL A   1      46.608  27.317  31.026  1.00  0.00     0.037 A 
BRANCH  47  61
ATOM     61  C   UNL A   1      43.708  32.529  32.628  1.00  0.00     0.064 A 
ATOM     62  C   UNL A   1      44.011  33.720  31.950  1.00  0.00     0.173 A 
ATOM     63  C   UNL A   1      43.431  32.607  34.000  1.00  0.00     0.173 A 
ATOM     64  F   UNL A   1      44.295  33.698  30.639  1.00  0.00    -0.203 F 
ATOM     65  C   UNL A   1      44.060  34.936  32.627  1.00  0.00     0.198 A 
ATOM     66  C   UNL A   1      43.455  33.828  34.668  1.00  0.00     0.198 A 
ATOM     67  F   UNL A   1      43.130  31.498  34.694  1.00  0.00    -0.203 F 
ATOM     68  F   UNL A   1      44.398  36.054  31.969  1.00  0.00    -0.200 F 
ATOM     69  C   UNL A   1      43.777  34.990  33.983  1.00  0.00     0.200 A 
ATOM     70  F   UNL A   1      43.170  33.880  35.977  1.00  0.00    -0.200 F 
ATOM     71  F   UNL A   1      43.821  36.162  34.632  1.00  0.00    -0.200 F 
ENDBRANCH  47  61
BRANCH  48  72
ATOM     72  C   UNL A   1      42.974  24.009  27.495  1.00  0.00     0.064 A 
ATOM     73  C   UNL A   1      42.527  22.827  28.102  1.00  0.00     0.173 A 
ATOM     74  C   UNL A   1      43.326  23.955  26.139  1.00  0.00     0.173 A 
ATOM     75  F   UNL A   1      42.203  22.826  29.403  1.00  0.00    -0.203 F 
ATOM     76  C   UNL A   1      42.451  21.635  27.386  1.00  0.00     0.198 A 
ATOM     77  C   UNL A   1      43.227  22.768  25.418  1.00  0.00     0.198 A 
ATOM     78  F   UNL A   1      43.759  25.061  25.515  1.00  0.00    -0.203 F 
ATOM     79  F   UNL A   1      42.058  20.511  28.000  1.00  0.00    -0.200 F 
ATOM     80  C   UNL A   1      42.795  21.608  26.043  1.00  0.00     0.200 A 
ATOM     81  F   UNL A   1      43.553  22.747  24.118  1.00  0.00    -0.200 F 
ATOM     82  F   UNL A   1      42.719  20.461  25.353  1.00  0.00    -0.200 F 
ENDBRANCH  48  72
BRANCH  60  83
ATOM     83  C   UNL A   1      47.980  26.847  31.410  1.00  0.00     0.064 A 
ATOM     84  C   UNL A   1      49.091  27.082  30.588  1.00  0.00     0.173 A 
ATOM     85  C   UNL A   1      48.187  26.181  32.626  1.00  0.00     0.173 A 
ATOM     86  F   UNL A   1      48.940  27.701  29.408  1.00  0.00    -0.203 F 
ATOM     87  C   UNL A   1      50.359  26.641  30.959  1.00  0.00     0.198 A 
ATOM     88  C   UNL A   1      49.461  25.765  33.006  1.00  0.00     0.198 A 
ATOM     89  F   UNL A   1      47.157  25.937  33.449  1.00  0.00    -0.203 F 
ATOM     90  F   UNL A   1      51.400  26.836  30.137  1.00  0.00    -0.200 F 
ATOM     91  C   UNL A   1      50.543  25.989  32.169  1.00  0.00     0.200 A 
ATOM     92  F   UNL A   1      49.639  25.143  34.180  1.00  0.00    -0.200 F 
ATOM     93  F   UNL A   1      51.766  25.569  32.525  1.00  0.00    -0.200 F 
ENDBRANCH  60  83
ENDBRANCH  34  35
ENDBRANCH  26  29
ENDBRANCH  24  25
ENDBRANCH  23  24
ENDBRANCH   1  23
TORSDOF 13
ENDMDL
MODEL 2
REMARK VINA RESULT:      -9.7      0.664      1.818
REMARK SMILES C/C=C/c1cncc(-c2ccc([C@@H](C)C(=O)NCCCNC(=O)c3ccc(-c4c5nc(c(-c6c(F)c(F)c(F)c(F)c6F)c6ccc([nH]6)c(-c6c(F)c(F)c(F)c(F)c6F)c6nc(c(-c7c(F)c(F)c(F)c(F)c7F)c7ccc4[nH]7)C=C6)C=C5)cc3)cc2)c1
REMARK SMILES IDX 18 1 17 2 15 3 16 4 13 6 14 7 12 8 9 9 10 10 88 11 11 12
REMARK SMILES IDX 87 13 8 14 4 15 5 16 89 17 6 18 7 19 3 20 1 21 2 22 19 23
REMARK SMILES IDX 20 24 21 25 22 26 23 28 24 29 25 30 86 31 26 32 85 33 27 34
REMARK SMILES IDX 28 35 29 36 79 37 30 38 84 39 78 40 80 41 31 42 83 43 77 44
REMARK SMILES IDX 76 45 32 47 64 48 44 49 63 50 45 51 48 52 62 53 81 54 46 55
REMARK SMILES IDX 47 56 61 58 82 59 49 60 33 61 34 62 42 63 35 64 36 65 40 66
REMARK SMILES IDX 43 67 37 68 38 69 41 70 39 71 65 72 66 73 74 74 67 75 68 76
REMARK SMILES IDX 72 77 75 78 69 79 70 80 73 81 71 82 50 83 51 84 59 85 52 86
REMARK SMILES IDX 53 87 57 88 60 89 54 90 55 91 58 92 56 93
REMARK H PARENT 17 5 21 27 80 46 48 57
REMARK Flexibility Score: inf
ROOT
ATOM      1  C   UNL A   1      34.994  34.063  31.155  1.00  0.00     0.117 C 
ENDROOT
BRANCH   1   2
ATOM      2  N   UNL A   1      36.426  34.289  31.150  1.00  0.00    -0.356 N 
ATOM      3  C   UNL A   1      37.403  33.951  32.036  1.00  0.00     0.227 C 
ATOM      4  O   UNL A   1      38.541  34.362  31.774  1.00  0.00    -0.274 OA
ATOM      5  H   UNL A   1      36.752  34.776  30.360  1.00  0.00     0.163 HD
BRANCH   3   6
ATOM      6  C   UNL A   1      37.164  33.118  33.304  1.00  0.00     0.105 C 
ATOM      7  C   UNL A   1      36.665  33.919  34.507  1.00  0.00     0.023 C 
BRANCH   6   8
ATOM      8  C   UNL A   1      38.275  32.116  33.577  1.00  0.00    -0.036 A 
ATOM      9  C   UNL A   1      40.330  30.261  34.297  1.00  0.00    -0.017 A 
ATOM     10  C   UNL A   1      39.209  29.868  33.546  1.00  0.00     0.009 A 
ATOM     11  C   UNL A   1      40.414  31.618  34.645  1.00  0.00     0.009 A 
ATOM     12  C   UNL A   1      38.214  30.782  33.170  1.00  0.00     0.005 A 
ATOM     13  C   UNL A   1      39.400  32.523  34.307  1.00  0.00     0.005 A 
BRANCH   9  14
ATOM     14  C   UNL A   1      41.359  29.283  34.712  1.00  0.00     0.001 A 
ATOM     15  C   UNL A   1      42.989  27.528  34.210  1.00  0.00    -0.007 A 
ATOM     16  C   UNL A   1      43.297  27.505  35.565  1.00  0.00     0.119 A 
ATOM     17  C   UNL A   1      42.002  28.432  33.795  1.00  0.00     0.020 A 
ATOM     18  N   UNL A   1      42.715  28.297  36.492  1.00  0.00    -0.263 NA
ATOM     19  C   UNL A   1      41.765  29.152  36.043  1.00  0.00     0.119 A 
BRANCH  15  20
ATOM     20  C   UNL A   1      43.641  26.582  33.297  1.00  0.00     0.005 C 
ATOM     21  C   UNL A   1      44.540  24.346  32.638  1.00  0.00     0.035 C 
ATOM     22  C   UNL A   1      43.884  25.296  33.589  1.00  0.00    -0.030 C 
ENDBRANCH  15  20
ENDBRANCH   9  14
ENDBRANCH   6   8
ENDBRANCH   3   6
ENDBRANCH   1   2
BRANCH   1  23
ATOM     23  C   UNL A   1      34.613  32.722  30.531  1.00  0.00     0.042 C 
BRANCH  23  24
ATOM     24  C   UNL A   1      34.701  32.694  29.010  1.00  0.00     0.118 C 
BRANCH  24  25
ATOM     25  N   UNL A   1      34.103  31.495  28.442  1.00  0.00    -0.352 N 
ATOM     26  C   UNL A   1      34.660  30.299  28.064  1.00  0.00     0.251 C 
ATOM     27  H   UNL A   1      33.130  31.552  28.305  1.00  0.00     0.163 HD
ATOM     28  O   UNL A   1      33.976  29.505  27.421  1.00  0.00    -0.269 OA
BRANCH  26  29
ATOM     29  C   UNL A   1      36.058  29.941  28.404  1.00  0.00     0.039 A 
ATOM     30  C   UNL A   1      37.042  30.103  27.420  1.00  0.00     0.014 A 
ATOM     31  C   UNL A   1      36.406  29.376  29.633  1.00  0.00     0.014 A 
ATOM     32  C   UNL A   1      38.368  29.744  27.682  1.00  0.00     0.010 A 
ATOM     33  C   UNL A   1      37.742  29.088  29.921  1.00  0.00     0.010 A 
ATOM     34  C   UNL A   1      38.734  29.254  28.945  1.00  0.00    -0.014 A 
BRANCH  34  35
ATOM     35  C   UNL A   1      40.142  28.888  29.245  1.00  0.00     0.031 A 
ATOM     36  C   UNL A   1      41.017  29.819  30.041  1.00  0.00     0.074 A 
ATOM     37  C   UNL A   1      40.651  27.738  28.762  1.00  0.00     0.049 A 
ATOM     38  N   UNL A   1      42.282  29.697  30.360  1.00  0.00    -0.248 NA
ATOM     39  C   UNL A   1      40.395  31.062  30.520  1.00  0.00     0.031 C 
ATOM     40  C   UNL A   1      39.924  26.773  27.937  1.00  0.00     0.029 A 
ATOM     41  N   UNL A   1      41.904  27.190  28.890  1.00  0.00    -0.354 N 
ATOM     42  C   UNL A   1      42.610  30.855  31.056  1.00  0.00     0.074 A 
ATOM     43  C   UNL A   1      41.425  31.685  31.075  1.00  0.00     0.031 C 
ATOM     44  C   UNL A   1      40.733  25.741  27.652  1.00  0.00     0.029 A 
ATOM     45  C   UNL A   1      42.043  25.983  28.249  1.00  0.00     0.049 A 
ATOM     46  H   UNL A   1      42.631  27.621  29.393  1.00  0.00     0.167 HD
ATOM     47  C   UNL A   1      43.784  31.186  31.643  1.00  0.00     0.037 A 
ATOM     48  C   UNL A   1      43.109  25.166  28.155  1.00  0.00     0.037 A 
ATOM     49  C   UNL A   1      44.953  30.345  31.657  1.00  0.00     0.049 A 
ATOM     50  C   UNL A   1      44.392  25.542  28.842  1.00  0.00     0.074 A 
ATOM     51  C   UNL A   1      46.171  30.566  32.275  1.00  0.00     0.029 A 
ATOM     52  N   UNL A   1      45.045  29.113  31.024  1.00  0.00    -0.354 N 
ATOM     53  N   UNL A   1      44.672  26.612  29.545  1.00  0.00    -0.248 NA
ATOM     54  C   UNL A   1      45.506  24.591  28.730  1.00  0.00     0.031 C 
ATOM     55  C   UNL A   1      47.011  29.484  31.992  1.00  0.00     0.029 A 
ATOM     56  C   UNL A   1      46.303  28.570  31.229  1.00  0.00     0.049 A 
ATOM     57  H   UNL A   1      44.322  28.689  30.508  1.00  0.00     0.167 HD
ATOM     58  C   UNL A   1      45.981  26.455  29.977  1.00  0.00     0.074 A 
ATOM     59  C   UNL A   1      46.437  25.176  29.471  1.00  0.00     0.031 C 
ATOM     60  C   UNL A   1      46.738  27.294  30.724  1.00  0.00     0.037 A 
BRANCH  47  61
ATOM     61  C   UNL A   1      43.863  32.518  32.330  1.00  0.00     0.064 A 
ATOM     62  C   UNL A   1      43.764  32.631  33.726  1.00  0.00     0.173 A 
ATOM     63  C   UNL A   1      44.072  33.691  31.591  1.00  0.00     0.173 A 
ATOM     64  F   UNL A   1      43.552  31.540  34.478  1.00  0.00    -0.203 F 
ATOM     65  C   UNL A   1      43.843  33.871  34.351  1.00  0.00     0.198 A 
ATOM     66  C   UNL A   1      44.178  34.928  32.223  1.00  0.00     0.198 A 
ATOM     67  F   UNL A   1      44.180  33.638  30.254  1.00  0.00    -0.203 F 
ATOM     68  F   UNL A   1      43.699  33.960  35.681  1.00  0.00    -0.200 F 
ATOM     69  C   UNL A   1      44.056  35.018  33.601  1.00  0.00     0.200 A 
ATOM     70  F   UNL A   1      44.394  36.034  31.496  1.00  0.00    -0.200 F 
ATOM     71  F   UNL A   1      44.136  36.211  34.206  1.00  0.00    -0.200 F 
ENDBRANCH  47  61
BRANCH  48  72
ATOM     72  C   UNL A   1      42.993  23.886  27.410  1.00  0.00     0.064 A 
ATOM     73  C   UNL A   1      42.525  22.728  28.046  1.00  0.00     0.173 A 
ATOM     74  C   UNL A   1      43.345  23.794  26.057  1.00  0.00     0.173 A 
ATOM     75  F   UNL A   1      42.200  22.763  29.346  1.00  0.00    -0.203 F 
ATOM     76  C   UNL A   1      42.429  21.520  27.359  1.00  0.00     0.198 A 
ATOM     77  C   UNL A   1      43.226  22.591  25.364  1.00  0.00     0.198 A 
ATOM     78  F   UNL A   1      43.797  24.876  25.406  1.00  0.00    -0.203 F 
ATOM     79  F   UNL A   1      42.017  20.418  28.000  1.00  0.00    -0.200 F 
ATOM     80  C   UNL A   1      42.774  21.454  26.017  1.00  0.00     0.200 A 
ATOM     81  F   UNL A   1      43.553  22.532  24.066  1.00  0.00    -0.200 F 
ATOM     82  F   UNL A   1      42.679  20.292  25.356  1.00  0.00    -0.200 F 
ENDBRANCH  48  72
BRANCH  60  83
ATOM     83  C   UNL A   1      48.128  26.842  31.062  1.00  0.00     0.064 A 
ATOM     84  C   UNL A   1      48.402  26.138  32.243  1.00  0.00     0.173 A 
ATOM     85  C   UNL A   1      49.190  27.093  30.181  1.00  0.00     0.173 A 
ATOM     86  F   UNL A   1      47.422  25.889  33.124  1.00  0.00    -0.203 F 
ATOM     87  C   UNL A   1      49.698  25.723  32.542  1.00  0.00     0.198 A 
ATOM     88  C   UNL A   1      50.479  26.654  30.472  1.00  0.00     0.198 A 
ATOM     89  F   UNL A   1      48.977  27.759  29.036  1.00  0.00    -0.203 F 
ATOM     90  F   UNL A   1      49.946  25.092  33.698  1.00  0.00    -0.200 F 
ATOM     91  C   UNL A   1      50.733  25.977  31.654  1.00  0.00     0.200 A 
ATOM     92  F   UNL A   1      51.476  26.891  29.608  1.00  0.00    -0.200 F 
ATOM     93  F   UNL A   1      51.978  25.574  31.943  1.00  0.00    -0.200 F 
ENDBRANCH  60  83
ENDBRANCH  34  35
ENDBRANCH  26  29
ENDBRANCH  24  25
ENDBRANCH  23  24
ENDBRANCH   1  23
TORSDOF 13
ENDMDL
MODEL 3
REMARK VINA RESULT:      -9.6      3.624      9.571
REMARK SMILES C/C=C/c1cncc(-c2ccc([C@@H](C)C(=O)NCCCNC(=O)c3ccc(-c4c5nc(c(-c6c(F)c(F)c(F)c(F)c6F)c6ccc([nH]6)c(-c6c(F)c(F)c(F)c(F)c6F)c6nc(c(-c7c(F)c(F)c(F)c(F)c7F)c7ccc4[nH]7)C=C6)C=C5)cc3)cc2)c1
REMARK SMILES IDX 18 1 17 2 15 3 16 4 13 6 14 7 12 8 9 9 10 10 88 11 11 12
REMARK SMILES IDX 87 13 8 14 4 15 5 16 89 17 6 18 7 19 3 20 1 21 2 22 19 23
REMARK SMILES IDX 20 24 21 25 22 26 23 28 24 29 25 30 86 31 26 32 85 33 27 34
REMARK SMILES IDX 28 35 29 36 79 37 30 38 84 39 78 40 80 41 31 42 83 43 77 44
REMARK SMILES IDX 76 45 32 47 64 48 44 49 63 50 45 51 48 52 62 53 81 54 46 55
REMARK SMILES IDX 47 56 61 58 82 59 49 60 33 61 34 62 42 63 35 64 36 65 40 66
REMARK SMILES IDX 43 67 37 68 38 69 41 70 39 71 65 72 66 73 74 74 67 75 68 76
REMARK SMILES IDX 72 77 75 78 69 79 70 80 73 81 71 82 50 83 51 84 59 85 52 86
REMARK SMILES IDX 53 87 57 88 60 89 54 90 55 91 58 92 56 93
REMARK H PARENT 17 5 21 27 80 46 48 57
REMARK Flexibility Score: inf
ROOT
ATOM      1  C   UNL A   1      32.362  26.930  24.674  1.00  0.00     0.117 C 
ENDROOT
BRANCH   1   2
ATOM      2  N   UNL A   1      32.835  26.861  23.305  1.00  0.00    -0.356 N 
ATOM      3  C   UNL A   1      33.224  25.812  22.529  1.00  0.00     0.227 C 
ATOM      4  O   UNL A   1      33.653  26.097  21.404  1.00  0.00    -0.274 OA
ATOM      5  H   UNL A   1      32.883  27.733  22.853  1.00  0.00     0.163 HD
BRANCH   3   6
ATOM      6  C   UNL A   1      33.162  24.343  22.975  1.00  0.00     0.105 C 
ATOM      7  C   UNL A   1      31.805  23.900  23.521  1.00  0.00     0.023 C 
BRANCH   6   8
ATOM      8  C   UNL A   1      34.382  23.911  23.774  1.00  0.00    -0.036 A 
ATOM      9  C   UNL A   1      36.791  23.232  25.159  1.00  0.00    -0.017 A 
ATOM     10  C   UNL A   1      35.692  23.801  25.823  1.00  0.00     0.009 A 
ATOM     11  C   UNL A   1      36.638  22.975  23.788  1.00  0.00     0.009 A 
ATOM     12  C   UNL A   1      34.501  24.111  25.150  1.00  0.00     0.005 A 
ATOM     13  C   UNL A   1      35.465  23.323  23.105  1.00  0.00     0.005 A 
BRANCH   9  14
ATOM     14  C   UNL A   1      38.052  22.936  25.873  1.00  0.00     0.001 A 
ATOM     15  C   UNL A   1      39.918  21.452  26.423  1.00  0.00    -0.007 A 
ATOM     16  C   UNL A   1      40.426  22.476  27.215  1.00  0.00     0.119 A 
ATOM     17  C   UNL A   1      38.713  21.700  25.753  1.00  0.00     0.020 A 
ATOM     18  N   UNL A   1      39.837  23.683  27.369  1.00  0.00    -0.263 NA
ATOM     19  C   UNL A   1      38.673  23.874  26.703  1.00  0.00     0.119 A 
BRANCH  15  20
ATOM     20  C   UNL A   1      40.609  20.158  26.372  1.00  0.00     0.005 C 
ATOM     21  C   UNL A   1      42.609  18.683  26.110  1.00  0.00     0.035 C 
ATOM     22  C   UNL A   1      41.923  20.011  26.146  1.00  0.00    -0.030 C 
ENDBRANCH  15  20
ENDBRANCH   9  14
ENDBRANCH   6   8
ENDBRANCH   3   6
ENDBRANCH   1   2
BRANCH   1  23
ATOM     23  C   UNL A   1      33.405  27.516  25.623  1.00  0.00     0.042 C 
BRANCH  23  24
ATOM     24  C   UNL A   1      33.984  28.850  25.167  1.00  0.00     0.118 C 
BRANCH  24  25
ATOM     25  N   UNL A   1      33.277  29.986  25.741  1.00  0.00    -0.352 N 
ATOM     26  C   UNL A   1      33.537  30.743  26.856  1.00  0.00     0.251 C 
ATOM     27  H   UNL A   1      32.473  30.259  25.242  1.00  0.00     0.163 HD
ATOM     28  O   UNL A   1      32.678  31.530  27.249  1.00  0.00    -0.269 OA
BRANCH  26  29
ATOM     29  C   UNL A   1      34.815  30.633  27.599  1.00  0.00     0.039 A 
ATOM     30  C   UNL A   1      35.081  29.445  28.291  1.00  0.00     0.014 A 
ATOM     31  C   UNL A   1      35.714  31.698  27.697  1.00  0.00     0.014 A 
ATOM     32  C   UNL A   1      36.257  29.311  29.037  1.00  0.00     0.010 A 
ATOM     33  C   UNL A   1      36.922  31.538  28.379  1.00  0.00     0.010 A 
ATOM     34  C   UNL A   1      37.199  30.349  29.068  1.00  0.00    -0.014 A 
BRANCH  34  35
ATOM     35  C   UNL A   1      38.463  30.213  29.838  1.00  0.00     0.031 A 
ATOM     36  C   UNL A   1      39.623  29.443  29.268  1.00  0.00     0.074 A 
ATOM     37  C   UNL A   1      38.552  30.743  31.074  1.00  0.00     0.049 A 
ATOM     38  N   UNL A   1      40.785  29.173  29.809  1.00  0.00    -0.248 NA
ATOM     39  C   UNL A   1      39.444  28.881  27.921  1.00  0.00     0.031 C 
ATOM     40  C   UNL A   1      37.485  31.470  31.761  1.00  0.00     0.029 A 
ATOM     41  N   UNL A   1      39.589  30.745  31.974  1.00  0.00    -0.354 N 
ATOM     42  C   UNL A   1      41.464  28.393  28.879  1.00  0.00     0.074 A 
ATOM     43  C   UNL A   1      40.568  28.197  27.760  1.00  0.00     0.031 C 
ATOM     44  C   UNL A   1      37.928  31.868  32.964  1.00  0.00     0.029 A 
ATOM     45  C   UNL A   1      39.299  31.401  33.145  1.00  0.00     0.049 A 
ATOM     46  H   UNL A   1      40.457  30.316  31.797  1.00  0.00     0.167 HD
ATOM     47  C   UNL A   1      42.724  27.904  28.943  1.00  0.00     0.037 A 
ATOM     48  C   UNL A   1      40.055  31.602  34.241  1.00  0.00     0.037 A 
ATOM     49  C   UNL A   1      43.630  28.129  30.041  1.00  0.00     0.049 A 
ATOM     50  C   UNL A   1      41.462  31.075  34.274  1.00  0.00     0.074 A 
ATOM     51  C   UNL A   1      44.947  27.725  30.172  1.00  0.00     0.029 A 
ATOM     52  N   UNL A   1      43.310  28.828  31.195  1.00  0.00    -0.354 N 
ATOM     53  N   UNL A   1      42.111  30.389  33.366  1.00  0.00    -0.248 NA
ATOM     54  C   UNL A   1      42.246  31.359  35.484  1.00  0.00     0.031 C 
ATOM     55  C   UNL A   1      45.415  28.152  31.420  1.00  0.00     0.029 A 
ATOM     56  C   UNL A   1      44.401  28.856  32.049  1.00  0.00     0.049 A 
ATOM     57  H   UNL A   1      42.437  29.243  31.380  1.00  0.00     0.167 HD
ATOM     58  C   UNL A   1      43.382  30.178  33.881  1.00  0.00     0.074 A 
ATOM     59  C   UNL A   1      43.420  30.824  35.177  1.00  0.00     0.031 C 
ATOM     60  C   UNL A   1      44.424  29.509  33.331  1.00  0.00     0.037 A 
BRANCH  47  61
ATOM     61  C   UNL A   1      43.207  27.078  27.787  1.00  0.00     0.064 A 
ATOM     62  C   UNL A   1      43.911  27.653  26.718  1.00  0.00     0.173 A 
ATOM     63  C   UNL A   1      42.990  25.693  27.760  1.00  0.00     0.173 A 
ATOM     64  F   UNL A   1      44.134  28.976  26.690  1.00  0.00    -0.203 F 
ATOM     65  C   UNL A   1      44.357  26.875  25.653  1.00  0.00     0.198 A 
ATOM     66  C   UNL A   1      43.461  24.913  26.706  1.00  0.00     0.198 A 
ATOM     67  F   UNL A   1      42.327  25.092  28.760  1.00  0.00    -0.203 F 
ATOM     68  F   UNL A   1      44.987  27.453  24.621  1.00  0.00    -0.200 F 
ATOM     69  C   UNL A   1      44.137  25.506  25.650  1.00  0.00     0.200 A 
ATOM     70  F   UNL A   1      43.257  23.589  26.710  1.00  0.00    -0.200 F 
ATOM     71  F   UNL A   1      44.571  24.758  24.626  1.00  0.00    -0.200 F 
ENDBRANCH  47  61
BRANCH  48  72
ATOM     72  C   UNL A   1      39.506  32.376  35.383  1.00  0.00     0.064 A 
ATOM     73  C   UNL A   1      39.759  33.749  35.506  1.00  0.00     0.173 A 
ATOM     74  C   UNL A   1      38.722  31.764  36.371  1.00  0.00     0.173 A 
ATOM     75  F   UNL A   1      40.524  34.372  34.597  1.00  0.00    -0.203 F 
ATOM     76  C   UNL A   1      39.262  34.478  36.583  1.00  0.00     0.198 A 
ATOM     77  C   UNL A   1      38.205  32.499  37.435  1.00  0.00     0.198 A 
ATOM     78  F   UNL A   1      38.452  30.452  36.296  1.00  0.00    -0.203 F 
ATOM     79  F   UNL A   1      39.552  35.781  36.698  1.00  0.00    -0.200 F 
ATOM     80  C   UNL A   1      38.480  33.854  37.544  1.00  0.00     0.200 A 
ATOM     81  F   UNL A   1      37.444  31.895  38.358  1.00  0.00    -0.200 F 
ATOM     82  F   UNL A   1      38.000  34.557  38.579  1.00  0.00    -0.200 F 
ENDBRANCH  48  72
BRANCH  60  83
ATOM     83  C   UNL A   1      45.700  29.466  34.118  1.00  0.00     0.064 A 
ATOM     84  C   UNL A   1      45.967  28.432  35.026  1.00  0.00     0.173 A 
ATOM     85  C   UNL A   1      46.678  30.456  33.939  1.00  0.00     0.173 A 
ATOM     86  F   UNL A   1      45.056  27.472  35.243  1.00  0.00    -0.203 F 
ATOM     87  C   UNL A   1      47.158  28.405  35.747  1.00  0.00     0.198 A 
ATOM     88  C   UNL A   1      47.878  30.411  34.643  1.00  0.00     0.198 A 
ATOM     89  F   UNL A   1      46.472  31.463  33.077  1.00  0.00    -0.203 F 
ATOM     90  F   UNL A   1      47.373  27.432  36.645  1.00  0.00    -0.200 F 
ATOM     91  C   UNL A   1      48.114  29.391  35.551  1.00  0.00     0.200 A 
ATOM     92  F   UNL A   1      48.805  31.358  34.445  1.00  0.00    -0.200 F 
ATOM     93  F   UNL A   1      49.261  29.360  36.245  1.00  0.00    -0.200 F 
ENDBRANCH  60  83
ENDBRANCH  34  35
ENDBRANCH  26  29
ENDBRANCH  24  25
ENDBRANCH  23  24
ENDBRANCH   1  23
TORSDOF 13
ENDMDL
