MODEL 1
REMARK VINA RESULT:     -13.1      0.000      0.000
REMARK SMILES O=C(Cn1c(SCCc2ccccc2)nc2ccccc21)NCCCNC(=O)c1ccc(-c2c3nc(c(-c4c(F)c(F)c(F)c(F)c4F)c4ccc([nH]4)c(-c4c(F)c(F)c(F)c(F)c4F)c4nc(c(-c5c(F)c(F)c(F)c(F)c5F)c5ccc2[nH]5)C=C4)C=C3)cc1
REMARK SMILES IDX 1 1 2 2 22 3 3 5 4 6 5 7 21 8 15 9 16 10 20 11 17 12 19 13
REMARK SMILES IDX 18 14 6 15 7 16 8 17 9 18 10 19 14 20 11 21 13 22 12 23
REMARK SMILES IDX 23 24 24 25 25 26 26 27 27 28 28 30 29 31 30 32 91 33 31 34
REMARK SMILES IDX 90 35 32 36 33 37 34 38 84 39 35 40 89 41 83 42 85 43 36 44
REMARK SMILES IDX 88 45 82 46 81 47 37 49 69 50 49 51 68 52 50 53 53 54 67 55
REMARK SMILES IDX 86 56 51 57 52 58 66 60 87 61 54 62 38 63 39 64 47 65 40 66
REMARK SMILES IDX 41 67 45 68 48 69 42 70 43 71 46 72 44 73 70 74 71 75 79 76
REMARK SMILES IDX 72 77 73 78 77 79 80 80 74 81 75 82 78 83 76 84 55 85 56 86
REMARK SMILES IDX 64 87 57 88 58 89 62 90 65 91 59 92 60 93 63 94 61 95
REMARK H PARENT 22 4 26 29 85 48 53 59
REMARK Flexibility Score: inf
ROOT
ATOM      1  O   UNL A   1      33.326  27.512  26.230  1.00  0.00    -0.273 OA
ATOM      2  C   UNL A   1      33.554  28.292  25.323  1.00  0.00     0.240 C 
ATOM      3  N   UNL A   1      33.665  29.661  25.501  1.00  0.00    -0.354 N 
ATOM      4  H   UNL A   1      33.944  30.229  24.747  1.00  0.00     0.163 HD
ENDROOT
BRANCH   2   5
ATOM      5  C   UNL A   1      33.824  27.849  23.909  1.00  0.00     0.224 C 
BRANCH   5   6
ATOM      6  N   UNL A   1      33.091  26.697  23.424  1.00  0.00    -0.309 N 
ATOM      7  C   UNL A   1      31.843  26.723  22.836  1.00  0.00     0.169 A 
ATOM      8  C   UNL A   1      33.438  25.360  23.570  1.00  0.00     0.069 A 
ATOM      9  N   UNL A   1      31.523  25.538  22.359  1.00  0.00    -0.222 NA
ATOM     10  C   UNL A   1      32.480  24.679  22.821  1.00  0.00     0.090 A 
ATOM     11  C   UNL A   1      34.442  24.666  24.261  1.00  0.00     0.028 A 
ATOM     12  C   UNL A   1      32.564  23.284  22.675  1.00  0.00     0.030 A 
ATOM     13  C   UNL A   1      34.482  23.271  24.152  1.00  0.00     0.002 A 
ATOM     14  C   UNL A   1      33.570  22.588  23.354  1.00  0.00     0.002 A 
BRANCH   7  15
ATOM     15  S   UNL A   1      30.757  28.061  22.622  1.00  0.00    -0.088 SA
BRANCH  15  16
ATOM     16  C   UNL A   1      29.130  27.743  23.357  1.00  0.00     0.083 C 
BRANCH  16  17
ATOM     17  C   UNL A   1      27.892  28.546  22.926  1.00  0.00     0.047 C 
BRANCH  17  18
ATOM     18  C   UNL A   1      28.111  29.994  22.571  1.00  0.00    -0.047 A 
ATOM     19  C   UNL A   1      28.094  30.386  21.228  1.00  0.00     0.004 A 
ATOM     20  C   UNL A   1      28.307  30.974  23.559  1.00  0.00     0.004 A 
ATOM     21  C   UNL A   1      28.193  31.734  20.881  1.00  0.00     0.000 A 
ATOM     22  C   UNL A   1      28.409  32.325  23.208  1.00  0.00     0.000 A 
ATOM     23  C   UNL A   1      28.335  32.704  21.868  1.00  0.00     0.000 A 
ENDBRANCH  17  18
ENDBRANCH  16  17
ENDBRANCH  15  16
ENDBRANCH   7  15
ENDBRANCH   5   6
ENDBRANCH   2   5
BRANCH   3  24
ATOM     24  C   UNL A   1      33.375  30.267  26.780  1.00  0.00     0.117 C 
BRANCH  24  25
ATOM     25  C   UNL A   1      34.618  30.433  27.646  1.00  0.00     0.042 C 
BRANCH  25  26
ATOM     26  C   UNL A   1      34.876  31.858  28.145  1.00  0.00     0.118 C 
BRANCH  26  27
ATOM     27  N   UNL A   1      34.650  32.082  29.559  1.00  0.00    -0.352 N 
ATOM     28  C   UNL A   1      35.432  32.003  30.678  1.00  0.00     0.251 C 
ATOM     29  H   UNL A   1      33.725  32.351  29.760  1.00  0.00     0.163 HD
ATOM     30  O   UNL A   1      34.999  32.563  31.688  1.00  0.00    -0.269 OA
BRANCH  28  31
ATOM     31  C   UNL A   1      36.687  31.215  30.779  1.00  0.00     0.039 A 
ATOM     32  C   UNL A   1      37.971  31.748  30.730  1.00  0.00     0.014 A 
ATOM     33  C   UNL A   1      36.542  29.813  30.823  1.00  0.00     0.014 A 
ATOM     34  C   UNL A   1      39.064  30.910  30.561  1.00  0.00     0.010 A 
ATOM     35  C   UNL A   1      37.639  28.966  30.700  1.00  0.00     0.010 A 
ATOM     36  C   UNL A   1      38.895  29.521  30.506  1.00  0.00    -0.014 A 
BRANCH  36  37
ATOM     37  C   UNL A   1      40.108  28.715  30.378  1.00  0.00     0.031 A 
ATOM     38  C   UNL A   1      40.827  28.545  31.667  1.00  0.00     0.074 A 
ATOM     39  C   UNL A   1      40.551  28.142  29.240  1.00  0.00     0.049 A 
ATOM     40  N   UNL A   1      41.978  29.039  31.984  1.00  0.00    -0.248 NA
ATOM     41  C   UNL A   1      40.130  27.887  32.782  1.00  0.00     0.031 C 
ATOM     42  C   UNL A   1      39.827  27.989  27.976  1.00  0.00     0.029 A 
ATOM     43  N   UNL A   1      41.736  27.499  28.991  1.00  0.00    -0.354 N 
ATOM     44  C   UNL A   1      42.247  28.578  33.269  1.00  0.00     0.074 A 
ATOM     45  C   UNL A   1      41.023  28.010  33.767  1.00  0.00     0.031 C 
ATOM     46  C   UNL A   1      40.481  27.106  27.186  1.00  0.00     0.029 A 
ATOM     47  C   UNL A   1      41.746  26.760  27.813  1.00  0.00     0.049 A 
ATOM     48  H   UNL A   1      42.513  27.557  29.593  1.00  0.00     0.167 HD
ATOM     49  C   UNL A   1      43.534  28.454  33.691  1.00  0.00     0.037 A 
ATOM     50  C   UNL A   1      42.714  25.907  27.395  1.00  0.00     0.037 A 
ATOM     51  C   UNL A   1      44.432  29.205  32.854  1.00  0.00     0.049 A 
ATOM     52  C   UNL A   1      43.981  26.303  28.046  1.00  0.00     0.074 A 
ATOM     53  C   UNL A   1      44.869  30.505  32.748  1.00  0.00     0.029 A 
ATOM     54  N   UNL A   1      44.735  28.577  31.679  1.00  0.00    -0.354 N 
ATOM     55  N   UNL A   1      44.609  27.415  27.786  1.00  0.00    -0.248 NA
ATOM     56  C   UNL A   1      44.435  25.586  29.235  1.00  0.00     0.031 C 
ATOM     57  C   UNL A   1      45.365  30.660  31.417  1.00  0.00     0.029 A 
ATOM     58  C   UNL A   1      45.251  29.442  30.755  1.00  0.00     0.049 A 
ATOM     59  H   UNL A   1      44.597  27.616  31.517  1.00  0.00     0.167 HD
ATOM     60  C   UNL A   1      45.214  27.741  28.978  1.00  0.00     0.074 A 
ATOM     61  C   UNL A   1      45.234  26.516  29.762  1.00  0.00     0.031 C 
ATOM     62  C   UNL A   1      45.317  29.040  29.372  1.00  0.00     0.037 A 
BRANCH  49  63
ATOM     63  C   UNL A   1      44.042  27.286  34.508  1.00  0.00     0.064 A 
ATOM     64  C   UNL A   1      44.006  25.989  33.958  1.00  0.00     0.173 A 
ATOM     65  C   UNL A   1      44.251  27.347  35.904  1.00  0.00     0.173 A 
ATOM     66  F   UNL A   1      43.769  25.808  32.649  1.00  0.00    -0.203 F 
ATOM     67  C   UNL A   1      44.129  24.844  34.753  1.00  0.00     0.198 A 
ATOM     68  C   UNL A   1      44.423  26.206  36.685  1.00  0.00     0.198 A 
ATOM     69  F   UNL A   1      44.177  28.498  36.582  1.00  0.00    -0.203 F 
ATOM     70  F   UNL A   1      43.983  23.630  34.203  1.00  0.00    -0.200 F 
ATOM     71  C   UNL A   1      44.339  24.954  36.116  1.00  0.00     0.200 A 
ATOM     72  F   UNL A   1      44.591  26.335  38.009  1.00  0.00    -0.200 F 
ATOM     73  F   UNL A   1      44.410  23.861  36.887  1.00  0.00    -0.200 F 
ENDBRANCH  49  63
BRANCH  50  74
ATOM     74  C   UNL A   1      42.583  24.598  26.707  1.00  0.00     0.064 A 
ATOM     75  C   UNL A   1      43.173  24.392  25.445  1.00  0.00     0.173 A 
ATOM     76  C   UNL A   1      42.192  23.444  27.409  1.00  0.00     0.173 A 
ATOM     77  F   UNL A   1      43.595  25.437  24.718  1.00  0.00    -0.203 F 
ATOM     78  C   UNL A   1      43.427  23.108  24.954  1.00  0.00     0.198 A 
ATOM     79  C   UNL A   1      42.442  22.162  26.914  1.00  0.00     0.198 A 
ATOM     80  F   UNL A   1      41.660  23.534  28.637  1.00  0.00    -0.203 F 
ATOM     81  F   UNL A   1      44.080  22.954  23.792  1.00  0.00    -0.200 F 
ATOM     82  C   UNL A   1      43.082  21.994  25.699  1.00  0.00     0.200 A 
ATOM     83  F   UNL A   1      42.130  21.092  27.657  1.00  0.00    -0.200 F 
ATOM     84  F   UNL A   1      43.406  20.767  25.272  1.00  0.00    -0.200 F 
ENDBRANCH  50  74
BRANCH  62  85
ATOM     85  C   UNL A   1      45.331  30.090  28.312  1.00  0.00     0.064 A 
ATOM     86  C   UNL A   1      44.185  30.691  27.768  1.00  0.00     0.173 A 
ATOM     87  C   UNL A   1      46.581  30.551  27.876  1.00  0.00     0.173 A 
ATOM     88  F   UNL A   1      42.960  30.342  28.184  1.00  0.00    -0.203 F 
ATOM     89  C   UNL A   1      44.295  31.697  26.810  1.00  0.00     0.198 A 
ATOM     90  C   UNL A   1      46.687  31.577  26.946  1.00  0.00     0.198 A 
ATOM     91  F   UNL A   1      47.705  30.025  28.388  1.00  0.00    -0.203 F 
ATOM     92  F   UNL A   1      43.190  32.257  26.292  1.00  0.00    -0.200 F 
ATOM     93  C   UNL A   1      45.544  32.145  26.407  1.00  0.00     0.200 A 
ATOM     94  F   UNL A   1      47.897  32.030  26.591  1.00  0.00    -0.200 F 
ATOM     95  F   UNL A   1      45.649  33.141  25.516  1.00  0.00    -0.200 F 
ENDBRANCH  62  85
ENDBRANCH  36  37
ENDBRANCH  28  31
ENDBRANCH  26  27
ENDBRANCH  25  26
ENDBRANCH  24  25
ENDBRANCH   3  24
TORSDOF 15
ENDMDL
MODEL 2
REMARK VINA RESULT:     -13.0      3.629      9.368
REMARK SMILES O=C(Cn1c(SCCc2ccccc2)nc2ccccc21)NCCCNC(=O)c1ccc(-c2c3nc(c(-c4c(F)c(F)c(F)c(F)c4F)c4ccc([nH]4)c(-c4c(F)c(F)c(F)c(F)c4F)c4nc(c(-c5c(F)c(F)c(F)c(F)c5F)c5ccc2[nH]5)C=C4)C=C3)cc1
REMARK SMILES IDX 1 1 2 2 22 3 3 5 4 6 5 7 21 8 15 9 16 10 20 11 17 12 19 13
REMARK SMILES IDX 18 14 6 15 7 16 8 17 9 18 10 19 14 20 11 21 13 22 12 23
REMARK SMILES IDX 23 24 24 25 25 26 26 27 27 28 28 30 29 31 30 32 91 33 31 34
REMARK SMILES IDX 90 35 32 36 33 37 34 38 84 39 35 40 89 41 83 42 85 43 36 44
REMARK SMILES IDX 88 45 82 46 81 47 37 49 69 50 49 51 68 52 50 53 53 54 67 55
REMARK SMILES IDX 86 56 51 57 52 58 66 60 87 61 54 62 38 63 39 64 47 65 40 66
REMARK SMILES IDX 41 67 45 68 48 69 42 70 43 71 46 72 44 73 70 74 71 75 79 76
REMARK SMILES IDX 72 77 73 78 77 79 80 80 74 81 75 82 78 83 76 84 55 85 56 86
REMARK SMILES IDX 64 87 57 88 58 89 62 90 65 91 59 92 60 93 63 94 61 95
REMARK H PARENT 22 4 26 29 85 48 53 59
REMARK Flexibility Score: inf
ROOT
ATOM      1  O   UNL A   1      34.494  23.911  22.863  1.00  0.00    -0.273 OA
ATOM      2  C   UNL A   1      34.957  24.119  23.970  1.00  0.00     0.240 C 
ATOM      3  N   UNL A   1      36.081  23.477  24.463  1.00  0.00    -0.354 N 
ATOM      4  H   UNL A   1      36.462  23.757  25.327  1.00  0.00     0.163 HD
ENDROOT
BRANCH   2   5
ATOM      5  C   UNL A   1      34.407  25.164  24.905  1.00  0.00     0.224 C 
BRANCH   5   6
ATOM      6  N   UNL A   1      33.066  24.957  25.414  1.00  0.00    -0.309 N 
ATOM      7  C   UNL A   1      32.707  24.071  26.409  1.00  0.00     0.169 A 
ATOM      8  C   UNL A   1      31.889  25.506  24.923  1.00  0.00     0.069 A 
ATOM      9  N   UNL A   1      31.448  24.237  26.755  1.00  0.00    -0.222 NA
ATOM     10  C   UNL A   1      30.919  25.099  25.836  1.00  0.00     0.090 A 
ATOM     11  C   UNL A   1      31.548  26.282  23.805  1.00  0.00     0.028 A 
ATOM     12  C   UNL A   1      29.592  25.541  25.697  1.00  0.00     0.030 A 
ATOM     13  C   UNL A   1      30.212  26.671  23.648  1.00  0.00     0.002 A 
ATOM     14  C   UNL A   1      29.249  26.324  24.590  1.00  0.00     0.002 A 
BRANCH   7  15
ATOM     15  S   UNL A   1      33.680  22.890  27.232  1.00  0.00    -0.088 SA
BRANCH  15  16
ATOM     16  C   UNL A   1      33.690  21.296  26.367  1.00  0.00     0.083 C 
BRANCH  16  17
ATOM     17  C   UNL A   1      33.022  21.133  24.993  1.00  0.00     0.047 C 
BRANCH  17  18
ATOM     18  C   UNL A   1      33.230  19.817  24.287  1.00  0.00    -0.047 A 
ATOM     19  C   UNL A   1      34.301  18.996  24.657  1.00  0.00     0.004 A 
ATOM     20  C   UNL A   1      32.358  19.376  23.277  1.00  0.00     0.004 A 
ATOM     21  C   UNL A   1      34.455  17.731  24.090  1.00  0.00     0.000 A 
ATOM     22  C   UNL A   1      32.516  18.107  22.708  1.00  0.00     0.000 A 
ATOM     23  C   UNL A   1      33.556  17.280  23.128  1.00  0.00     0.000 A 
ENDBRANCH  17  18
ENDBRANCH  16  17
ENDBRANCH  15  16
ENDBRANCH   7  15
ENDBRANCH   5   6
ENDBRANCH   2   5
BRANCH   3  24
ATOM     24  C   UNL A   1      36.702  22.400  23.726  1.00  0.00     0.117 C 
BRANCH  24  25
ATOM     25  C   UNL A   1      37.287  21.327  24.635  1.00  0.00     0.042 C 
BRANCH  25  26
ATOM     26  C   UNL A   1      38.061  21.854  25.846  1.00  0.00     0.118 C 
BRANCH  26  27
ATOM     27  N   UNL A   1      39.506  21.791  25.748  1.00  0.00    -0.352 N 
ATOM     28  C   UNL A   1      40.537  22.431  26.380  1.00  0.00     0.251 C 
ATOM     29  H   UNL A   1      39.815  21.143  25.076  1.00  0.00     0.163 HD
ATOM     30  O   UNL A   1      41.650  21.911  26.272  1.00  0.00    -0.269 OA
BRANCH  28  31
ATOM     31  C   UNL A   1      40.421  23.735  27.081  1.00  0.00     0.039 A 
ATOM     32  C   UNL A   1      39.443  24.692  26.832  1.00  0.00     0.014 A 
ATOM     33  C   UNL A   1      41.454  24.050  27.988  1.00  0.00     0.014 A 
ATOM     34  C   UNL A   1      39.581  25.975  27.341  1.00  0.00     0.010 A 
ATOM     35  C   UNL A   1      41.573  25.322  28.538  1.00  0.00     0.010 A 
ATOM     36  C   UNL A   1      40.668  26.303  28.162  1.00  0.00    -0.014 A 
BRANCH  36  37
ATOM     37  C   UNL A   1      40.705  27.663  28.693  1.00  0.00     0.031 A 
ATOM     38  C   UNL A   1      41.829  28.467  28.148  1.00  0.00     0.074 A 
ATOM     39  C   UNL A   1      39.819  28.188  29.565  1.00  0.00     0.049 A 
ATOM     40  N   UNL A   1      42.866  28.889  28.793  1.00  0.00    -0.248 NA
ATOM     41  C   UNL A   1      41.893  28.696  26.697  1.00  0.00     0.031 C 
ATOM     42  C   UNL A   1      38.529  27.627  29.974  1.00  0.00     0.029 A 
ATOM     43  N   UNL A   1      39.852  29.389  30.225  1.00  0.00    -0.354 N 
ATOM     44  C   UNL A   1      43.612  29.620  27.874  1.00  0.00     0.074 A 
ATOM     45  C   UNL A   1      43.056  29.342  26.577  1.00  0.00     0.031 C 
ATOM     46  C   UNL A   1      37.807  28.577  30.613  1.00  0.00     0.029 A 
ATOM     47  C   UNL A   1      38.640  29.752  30.805  1.00  0.00     0.049 A 
ATOM     48  H   UNL A   1      40.662  29.945  30.285  1.00  0.00     0.167 HD
ATOM     49  C   UNL A   1      44.440  30.610  28.305  1.00  0.00     0.037 A 
ATOM     50  C   UNL A   1      38.338  30.943  31.379  1.00  0.00     0.037 A 
ATOM     51  C   UNL A   1      44.712  30.487  29.711  1.00  0.00     0.049 A 
ATOM     52  C   UNL A   1      39.602  31.569  31.821  1.00  0.00     0.074 A 
ATOM     53  C   UNL A   1      45.572  29.778  30.518  1.00  0.00     0.029 A 
ATOM     54  N   UNL A   1      43.704  30.956  30.505  1.00  0.00    -0.354 N 
ATOM     55  N   UNL A   1      40.341  31.098  32.785  1.00  0.00    -0.248 NA
ATOM     56  C   UNL A   1      40.227  32.595  30.990  1.00  0.00     0.031 C 
ATOM     57  C   UNL A   1      44.986  29.760  31.821  1.00  0.00     0.029 A 
ATOM     58  C   UNL A   1      43.801  30.487  31.785  1.00  0.00     0.049 A 
ATOM     59  H   UNL A   1      42.992  31.559  30.192  1.00  0.00     0.167 HD
ATOM     60  C   UNL A   1      41.623  31.441  32.417  1.00  0.00     0.074 A 
ATOM     61  C   UNL A   1      41.484  32.501  31.430  1.00  0.00     0.031 C 
ATOM     62  C   UNL A   1      42.665  30.601  32.667  1.00  0.00     0.037 A 
BRANCH  49  63
ATOM     63  C   UNL A   1      44.585  31.946  27.608  1.00  0.00     0.064 A 
ATOM     64  C   UNL A   1      45.755  32.219  26.871  1.00  0.00     0.173 A 
ATOM     65  C   UNL A   1      43.780  33.068  27.905  1.00  0.00     0.173 A 
ATOM     66  F   UNL A   1      46.617  31.236  26.570  1.00  0.00    -0.203 F 
ATOM     67  C   UNL A   1      46.108  33.521  26.498  1.00  0.00     0.198 A 
ATOM     68  C   UNL A   1      44.109  34.357  27.488  1.00  0.00     0.198 A 
ATOM     69  F   UNL A   1      42.712  32.983  28.707  1.00  0.00    -0.203 F 
ATOM     70  F   UNL A   1      47.281  33.746  25.890  1.00  0.00    -0.200 F 
ATOM     71  C   UNL A   1      45.284  34.588  26.806  1.00  0.00     0.200 A 
ATOM     72  F   UNL A   1      43.314  35.381  27.827  1.00  0.00    -0.200 F 
ATOM     73  F   UNL A   1      45.641  35.840  26.492  1.00  0.00    -0.200 F 
ENDBRANCH  49  63
BRANCH  50  74
ATOM     74  C   UNL A   1      37.076  31.724  31.319  1.00  0.00     0.064 A 
ATOM     75  C   UNL A   1      36.369  32.030  32.498  1.00  0.00     0.173 A 
ATOM     76  C   UNL A   1      36.736  32.469  30.175  1.00  0.00     0.173 A 
ATOM     77  F   UNL A   1      36.646  31.383  33.639  1.00  0.00    -0.203 F 
ATOM     78  C   UNL A   1      35.437  33.071  32.546  1.00  0.00     0.198 A 
ATOM     79  C   UNL A   1      35.800  33.505  30.225  1.00  0.00     0.198 A 
ATOM     80  F   UNL A   1      37.383  32.281  29.016  1.00  0.00    -0.203 F 
ATOM     81  F   UNL A   1      34.857  33.396  33.711  1.00  0.00    -0.200 F 
ATOM     82  C   UNL A   1      35.171  33.822  31.415  1.00  0.00     0.200 A 
ATOM     83  F   UNL A   1      35.572  34.244  29.131  1.00  0.00    -0.200 F 
ATOM     84  F   UNL A   1      34.347  34.877  31.480  1.00  0.00    -0.200 F 
ENDBRANCH  50  74
BRANCH  62  85
ATOM     85  C   UNL A   1      42.534  29.649  33.807  1.00  0.00     0.064 A 
ATOM     86  C   UNL A   1      41.927  28.386  33.728  1.00  0.00     0.173 A 
ATOM     87  C   UNL A   1      43.116  30.020  35.027  1.00  0.00     0.173 A 
ATOM     88  F   UNL A   1      41.406  27.942  32.576  1.00  0.00    -0.203 F 
ATOM     89  C   UNL A   1      41.889  27.542  34.837  1.00  0.00     0.198 A 
ATOM     90  C   UNL A   1      43.105  29.163  36.121  1.00  0.00     0.198 A 
ATOM     91  F   UNL A   1      43.731  31.207  35.143  1.00  0.00    -0.203 F 
ATOM     92  F   UNL A   1      41.298  26.341  34.749  1.00  0.00    -0.200 F 
ATOM     93  C   UNL A   1      42.485  27.928  36.028  1.00  0.00     0.200 A 
ATOM     94  F   UNL A   1      43.717  29.527  37.256  1.00  0.00    -0.200 F 
ATOM     95  F   UNL A   1      42.484  27.100  37.083  1.00  0.00    -0.200 F 
ENDBRANCH  62  85
ENDBRANCH  36  37
ENDBRANCH  28  31
ENDBRANCH  26  27
ENDBRANCH  25  26
ENDBRANCH  24  25
ENDBRANCH   3  24
TORSDOF 15
ENDMDL
MODEL 3
REMARK VINA RESULT:     -12.9      1.991      3.385
REMARK SMILES O=C(Cn1c(SCCc2ccccc2)nc2ccccc21)NCCCNC(=O)c1ccc(-c2c3nc(c(-c4c(F)c(F)c(F)c(F)c4F)c4ccc([nH]4)c(-c4c(F)c(F)c(F)c(F)c4F)c4nc(c(-c5c(F)c(F)c(F)c(F)c5F)c5ccc2[nH]5)C=C4)C=C3)cc1
REMARK SMILES IDX 1 1 2 2 22 3 3 5 4 6 5 7 21 8 15 9 16 10 20 11 17 12 19 13
REMARK SMILES IDX 18 14 6 15 7 16 8 17 9 18 10 19 14 20 11 21 13 22 12 23
REMARK SMILES IDX 23 24 24 25 25 26 26 27 27 28 28 30 29 31 30 32 91 33 31 34
REMARK SMILES IDX 90 35 32 36 33 37 34 38 84 39 35 40 89 41 83 42 85 43 36 44
REMARK SMILES IDX 88 45 82 46 81 47 37 49 69 50 49 51 68 52 50 53 53 54 67 55
REMARK SMILES IDX 86 56 51 57 52 58 66 60 87 61 54 62 38 63 39 64 47 65 40 66
REMARK SMILES IDX 41 67 45 68 48 69 42 70 43 71 46 72 44 73 70 74 71 75 79 76
REMARK SMILES IDX 72 77 73 78 77 79 80 80 74 81 75 82 78 83 76 84 55 85 56 86
REMARK SMILES IDX 64 87 57 88 58 89 62 90 65 91 59 92 60 93 63 94 61 95
REMARK H PARENT 22 4 26 29 85 48 53 59
REMARK Flexibility Score: inf
ROOT
ATOM      1  O   UNL A   1      34.035  27.750  23.906  1.00  0.00    -0.273 OA
ATOM      2  C   UNL A   1      33.588  27.421  24.989  1.00  0.00     0.240 C 
ATOM      3  N   UNL A   1      32.966  28.301  25.860  1.00  0.00    -0.354 N 
ATOM      4  H   UNL A   1      32.540  27.956  26.678  1.00  0.00     0.163 HD
ENDROOT
BRANCH   2   5
ATOM      5  C   UNL A   1      33.586  25.996  25.476  1.00  0.00     0.224 C 
BRANCH   5   6
ATOM      6  N   UNL A   1      34.133  24.991  24.587  1.00  0.00    -0.309 N 
ATOM      7  C   UNL A   1      33.560  24.555  23.410  1.00  0.00     0.169 A 
ATOM      8  C   UNL A   1      35.251  24.197  24.806  1.00  0.00     0.069 A 
ATOM      9  N   UNL A   1      34.379  23.760  22.754  1.00  0.00    -0.222 NA
ATOM     10  C   UNL A   1      35.416  23.506  23.607  1.00  0.00     0.090 A 
ATOM     11  C   UNL A   1      36.119  23.984  25.887  1.00  0.00     0.028 A 
ATOM     12  C   UNL A   1      36.517  22.650  23.435  1.00  0.00     0.030 A 
ATOM     13  C   UNL A   1      37.181  23.086  25.721  1.00  0.00     0.002 A 
ATOM     14  C   UNL A   1      37.391  22.442  24.506  1.00  0.00     0.002 A 
BRANCH   7  15
ATOM     15  S   UNL A   1      32.016  24.959  22.725  1.00  0.00    -0.088 SA
BRANCH  15  16
ATOM     16  C   UNL A   1      30.676  23.964  23.433  1.00  0.00     0.083 C 
BRANCH  16  17
ATOM     17  C   UNL A   1      30.820  23.304  24.814  1.00  0.00     0.047 C 
BRANCH  17  18
ATOM     18  C   UNL A   1      31.891  22.252  24.955  1.00  0.00    -0.047 A 
ATOM     19  C   UNL A   1      32.635  22.178  26.138  1.00  0.00     0.004 A 
ATOM     20  C   UNL A   1      32.147  21.319  23.936  1.00  0.00     0.004 A 
ATOM     21  C   UNL A   1      33.559  21.151  26.332  1.00  0.00     0.000 A 
ATOM     22  C   UNL A   1      33.077  20.292  24.132  1.00  0.00     0.000 A 
ATOM     23  C   UNL A   1      33.770  20.200  25.338  1.00  0.00     0.000 A 
ENDBRANCH  17  18
ENDBRANCH  16  17
ENDBRANCH  15  16
ENDBRANCH   7  15
ENDBRANCH   5   6
ENDBRANCH   2   5
BRANCH   3  24
ATOM     24  C   UNL A   1      32.933  29.718  25.582  1.00  0.00     0.117 C 
BRANCH  24  25
ATOM     25  C   UNL A   1      32.915  30.564  26.849  1.00  0.00     0.042 C 
BRANCH  25  26
ATOM     26  C   UNL A   1      34.280  30.765  27.514  1.00  0.00     0.118 C 
BRANCH  26  27
ATOM     27  N   UNL A   1      34.286  31.583  28.710  1.00  0.00    -0.352 N 
ATOM     28  C   UNL A   1      35.248  31.968  29.602  1.00  0.00     0.251 C 
ATOM     29  H   UNL A   1      33.397  31.942  28.930  1.00  0.00     0.163 HD
ATOM     30  O   UNL A   1      34.967  32.922  30.331  1.00  0.00    -0.269 OA
BRANCH  28  31
ATOM     31  C   UNL A   1      36.537  31.260  29.815  1.00  0.00     0.039 A 
ATOM     32  C   UNL A   1      37.796  31.819  29.627  1.00  0.00     0.014 A 
ATOM     33  C   UNL A   1      36.450  29.889  30.130  1.00  0.00     0.014 A 
ATOM     34  C   UNL A   1      38.919  31.005  29.589  1.00  0.00     0.010 A 
ATOM     35  C   UNL A   1      37.578  29.074  30.140  1.00  0.00     0.010 A 
ATOM     36  C   UNL A   1      38.806  29.626  29.806  1.00  0.00    -0.014 A 
BRANCH  36  37
ATOM     37  C   UNL A   1      40.047  28.855  29.799  1.00  0.00     0.031 A 
ATOM     38  C   UNL A   1      40.634  28.692  31.155  1.00  0.00     0.074 A 
ATOM     39  C   UNL A   1      40.623  28.306  28.709  1.00  0.00     0.049 A 
ATOM     40  N   UNL A   1      41.731  29.215  31.594  1.00  0.00    -0.248 NA
ATOM     41  C   UNL A   1      39.844  28.004  32.187  1.00  0.00     0.031 C 
ATOM     42  C   UNL A   1      40.038  28.146  27.376  1.00  0.00     0.029 A 
ATOM     43  N   UNL A   1      41.845  27.699  28.581  1.00  0.00    -0.354 N 
ATOM     44  C   UNL A   1      41.878  28.748  32.896  1.00  0.00     0.074 A 
ATOM     45  C   UNL A   1      40.626  28.142  33.261  1.00  0.00     0.031 C 
ATOM     46  C   UNL A   1      40.795  27.289  26.653  1.00  0.00     0.029 A 
ATOM     47  C   UNL A   1      41.997  26.972  27.404  1.00  0.00     0.049 A 
ATOM     48  H   UNL A   1      42.553  27.772  29.261  1.00  0.00     0.167 HD
ATOM     49  C   UNL A   1      43.118  28.656  33.448  1.00  0.00     0.037 A 
ATOM     50  C   UNL A   1      43.028  26.150  27.084  1.00  0.00     0.037 A 
ATOM     51  C   UNL A   1      44.076  29.439  32.715  1.00  0.00     0.049 A 
ATOM     52  C   UNL A   1      44.208  26.574  27.866  1.00  0.00     0.074 A 
ATOM     53  C   UNL A   1      44.485  30.751  32.664  1.00  0.00     0.029 A 
ATOM     54  N   UNL A   1      44.517  28.831  31.574  1.00  0.00    -0.354 N 
ATOM     55  N   UNL A   1      44.829  27.705  27.680  1.00  0.00    -0.248 NA
ATOM     56  C   UNL A   1      44.557  25.858  29.090  1.00  0.00     0.031 C 
ATOM     57  C   UNL A   1      45.112  30.934  31.393  1.00  0.00     0.029 A 
ATOM     58  C   UNL A   1      45.101  29.720  30.715  1.00  0.00     0.049 A 
ATOM     59  H   UNL A   1      44.423  27.869  31.391  1.00  0.00     0.167 HD
ATOM     60  C   UNL A   1      45.297  28.036  28.931  1.00  0.00     0.074 A 
ATOM     61  C   UNL A   1      45.270  26.804  29.705  1.00  0.00     0.031 C 
ATOM     62  C   UNL A   1      45.322  29.334  29.343  1.00  0.00     0.037 A 
BRANCH  49  63
ATOM     63  C   UNL A   1      43.571  27.494  34.306  1.00  0.00     0.064 A 
ATOM     64  C   UNL A   1      43.736  26.223  33.718  1.00  0.00     0.173 A 
ATOM     65  C   UNL A   1      43.531  27.508  35.718  1.00  0.00     0.173 A 
ATOM     66  F   UNL A   1      43.744  26.083  32.384  1.00  0.00    -0.203 F 
ATOM     67  C   UNL A   1      43.814  25.057  34.488  1.00  0.00     0.198 A 
ATOM     68  C   UNL A   1      43.658  26.350  36.482  1.00  0.00     0.198 A 
ATOM     69  F   UNL A   1      43.248  28.619  36.408  1.00  0.00    -0.203 F 
ATOM     70  F   UNL A   1      43.864  23.861  33.884  1.00  0.00    -0.200 F 
ATOM     71  C   UNL A   1      43.776  25.122  35.869  1.00  0.00     0.200 A 
ATOM     72  F   UNL A   1      43.585  26.432  37.818  1.00  0.00    -0.200 F 
ATOM     73  F   UNL A   1      43.802  24.004  36.606  1.00  0.00    -0.200 F 
ENDBRANCH  49  63
BRANCH  50  74
ATOM     74  C   UNL A   1      43.006  24.844  26.377  1.00  0.00     0.064 A 
ATOM     75  C   UNL A   1      43.847  24.617  25.271  1.00  0.00     0.173 A 
ATOM     76  C   UNL A   1      42.435  23.705  26.971  1.00  0.00     0.173 A 
ATOM     77  F   UNL A   1      44.451  25.646  24.658  1.00  0.00    -0.203 F 
ATOM     78  C   UNL A   1      44.160  23.324  24.839  1.00  0.00     0.198 A 
ATOM     79  C   UNL A   1      42.744  22.415  26.535  1.00  0.00     0.198 A 
ATOM     80  F   UNL A   1      41.653  23.815  28.056  1.00  0.00    -0.203 F 
ATOM     81  F   UNL A   1      45.043  23.147  23.845  1.00  0.00    -0.200 F 
ATOM     82  C   UNL A   1      43.626  22.224  25.487  1.00  0.00     0.200 A 
ATOM     83  F   UNL A   1      42.244  21.357  27.187  1.00  0.00    -0.200 F 
ATOM     84  F   UNL A   1      43.994  20.986  25.133  1.00  0.00    -0.200 F 
ENDBRANCH  50  74
BRANCH  62  85
ATOM     85  C   UNL A   1      45.416  30.393  28.298  1.00  0.00     0.064 A 
ATOM     86  C   UNL A   1      44.315  30.986  27.660  1.00  0.00     0.173 A 
ATOM     87  C   UNL A   1      46.693  30.873  27.978  1.00  0.00     0.173 A 
ATOM     88  F   UNL A   1      43.063  30.619  27.963  1.00  0.00    -0.203 F 
ATOM     89  C   UNL A   1      44.496  32.004  26.724  1.00  0.00     0.198 A 
ATOM     90  C   UNL A   1      46.868  31.910  27.069  1.00  0.00     0.198 A 
ATOM     91  F   UNL A   1      47.774  30.355  28.582  1.00  0.00    -0.203 F 
ATOM     92  F   UNL A   1      43.434  32.555  26.115  1.00  0.00    -0.200 F 
ATOM     93  C   UNL A   1      45.770  32.469  26.437  1.00  0.00     0.200 A 
ATOM     94  F   UNL A   1      48.099  32.380  26.826  1.00  0.00    -0.200 F 
ATOM     95  F   UNL A   1      45.941  33.476  25.567  1.00  0.00    -0.200 F 
ENDBRANCH  62  85
ENDBRANCH  36  37
ENDBRANCH  28  31
ENDBRANCH  26  27
ENDBRANCH  25  26
ENDBRANCH  24  25
ENDBRANCH   3  24
TORSDOF 15
ENDMDL
