MODEL 1
REMARK VINA RESULT:     -12.1      0.000      0.000
REMARK SMILES CC(C)[C@@H]([NH3+])C(=O)N[C@@H](Cc1ccccc1)C(=O)NCCCNC(=O)c1ccc(-c2c3nc(c(-c4c(F)c(F)c(F)c(F)c4F)c4ccc([nH]4)c(-c4c(F)c(F)c(F)c(F)c4F)c4nc(c(-c5c(F)c(F)c(F)c(F)c5F)c5ccc2[nH]5)C=C4)C=C3)cc1
REMARK SMILES IDX 20 1 19 2 17 3 18 4 9 6 8 7 6 8 7 9 4 11 2 12 1 13 3 14 5 15
REMARK SMILES IDX 10 19 11 20 12 21 16 22 13 23 15 24 14 25 21 26 22 27 23 28
REMARK SMILES IDX 24 29 25 31 26 32 27 33 88 34 28 35 87 36 29 37 30 38 31 39
REMARK SMILES IDX 81 40 32 41 86 42 80 43 82 44 33 45 85 46 79 47 78 48 34 50
REMARK SMILES IDX 66 51 46 52 65 53 47 54 50 55 64 56 83 57 48 58 49 59 63 61
REMARK SMILES IDX 84 62 51 63 35 64 36 65 44 66 37 67 38 68 42 69 45 70 39 71
REMARK SMILES IDX 40 72 43 73 41 74 67 75 68 76 76 77 69 78 70 79 74 80 77 81
REMARK SMILES IDX 71 82 72 83 75 84 73 85 52 86 53 87 61 88 54 89 55 90 59 91
REMARK SMILES IDX 62 92 56 93 57 94 60 95 58 96
REMARK H PARENT 19 5 8 10 5 16 5 17 5 18 23 30 82 49 50 60
REMARK Flexibility Score: inf
ROOT
ATOM      1  C   UNL A   1      32.033  27.662  26.436  1.00  0.00     0.117 C 
ENDROOT
BRANCH   1   2
ATOM      2  N   UNL A   1      30.962  26.762  26.794  1.00  0.00    -0.354 N 
ATOM      3  C   UNL A   1      30.335  25.848  25.996  1.00  0.00     0.242 C 
ATOM      4  O   UNL A   1      29.898  24.839  26.560  1.00  0.00    -0.273 OA
ATOM      5  H   UNL A   1      30.646  26.814  27.724  1.00  0.00     0.163 HD
BRANCH   3   6
ATOM      6  C   UNL A   1      30.271  25.980  24.454  1.00  0.00     0.175 C 
BRANCH   6   7
ATOM      7  N   UNL A   1      30.814  24.820  23.732  1.00  0.00    -0.339 N 
ATOM      8  C   UNL A   1      31.715  24.761  22.714  1.00  0.00     0.279 C 
ATOM      9  O   UNL A   1      32.142  23.645  22.402  1.00  0.00    -0.268 OA
ATOM     10  H   UNL A   1      30.471  23.947  24.033  1.00  0.00     0.164 HD
BRANCH   8  11
ATOM     11  C   UNL A   1      32.185  26.023  21.956  1.00  0.00     0.273 C 
BRANCH  11  12
ATOM     12  C   UNL A   1      33.573  26.526  22.425  1.00  0.00     0.051 C 
ATOM     13  C   UNL A   1      33.659  28.055  22.460  1.00  0.00     0.014 C 
ATOM     14  C   UNL A   1      33.921  25.967  23.811  1.00  0.00     0.014 C 
ENDBRANCH  11  12
BRANCH  11  15
ATOM     15  N   UNL A   1      32.107  25.761  20.505  1.00  0.00    -0.347 N 
ATOM     16  H   UNL A   1      31.441  25.009  20.330  1.00  0.00     0.345 HD
ATOM     17  H   UNL A   1      33.028  25.487  20.159  1.00  0.00     0.345 HD
ATOM     18  H   UNL A   1      31.801  26.605  20.022  1.00  0.00     0.345 HD
ENDBRANCH  11  15
ENDBRANCH   8  11
ENDBRANCH   6   7
BRANCH   6  19
ATOM     19  C   UNL A   1      28.905  26.461  23.906  1.00  0.00     0.070 C 
BRANCH  19  20
ATOM     20  C   UNL A   1      28.842  27.825  23.255  1.00  0.00    -0.045 A 
ATOM     21  C   UNL A   1      30.012  28.430  22.773  1.00  0.00     0.004 A 
ATOM     22  C   UNL A   1      27.631  28.532  23.171  1.00  0.00     0.004 A 
ATOM     23  C   UNL A   1      29.987  29.741  22.288  1.00  0.00     0.000 A 
ATOM     24  C   UNL A   1      27.613  29.851  22.703  1.00  0.00     0.000 A 
ATOM     25  C   UNL A   1      28.792  30.457  22.275  1.00  0.00     0.000 A 
ENDBRANCH  19  20
ENDBRANCH   6  19
ENDBRANCH   3   6
ENDBRANCH   1   2
BRANCH   1  26
ATOM     26  C   UNL A   1      31.597  29.073  26.116  1.00  0.00     0.042 C 
BRANCH  26  27
ATOM     27  C   UNL A   1      32.764  29.987  25.791  1.00  0.00     0.118 C 
BRANCH  27  28
ATOM     28  N   UNL A   1      32.595  31.344  26.309  1.00  0.00    -0.352 N 
ATOM     29  C   UNL A   1      33.313  32.062  27.239  1.00  0.00     0.251 C 
ATOM     30  H   UNL A   1      31.831  31.832  25.924  1.00  0.00     0.163 HD
ATOM     31  O   UNL A   1      32.883  33.133  27.648  1.00  0.00    -0.269 OA
BRANCH  29  32
ATOM     32  C   UNL A   1      34.583  31.526  27.773  1.00  0.00     0.039 A 
ATOM     33  C   UNL A   1      35.658  32.393  27.988  1.00  0.00     0.014 A 
ATOM     34  C   UNL A   1      34.711  30.174  28.079  1.00  0.00     0.014 A 
ATOM     35  C   UNL A   1      36.817  31.917  28.607  1.00  0.00     0.010 A 
ATOM     36  C   UNL A   1      35.795  29.735  28.820  1.00  0.00     0.010 A 
ATOM     37  C   UNL A   1      36.869  30.597  29.082  1.00  0.00    -0.014 A 
BRANCH  37  38
ATOM     38  C   UNL A   1      38.037  30.068  29.830  1.00  0.00     0.031 A 
ATOM     39  C   UNL A   1      38.281  30.520  31.244  1.00  0.00     0.074 A 
ATOM     40  C   UNL A   1      38.928  29.273  29.209  1.00  0.00     0.049 A 
ATOM     41  N   UNL A   1      39.312  30.303  32.020  1.00  0.00    -0.248 NA
ATOM     42  C   UNL A   1      37.248  31.378  31.849  1.00  0.00     0.031 C 
ATOM     43  C   UNL A   1      38.837  28.812  27.823  1.00  0.00     0.029 A 
ATOM     44  N   UNL A   1      40.097  28.718  29.665  1.00  0.00    -0.354 N 
ATOM     45  C   UNL A   1      39.067  31.027  33.180  1.00  0.00     0.074 A 
ATOM     46  C   UNL A   1      37.828  31.745  32.980  1.00  0.00     0.031 C 
ATOM     47  C   UNL A   1      39.877  28.007  27.556  1.00  0.00     0.029 A 
ATOM     48  C   UNL A   1      40.733  27.934  28.735  1.00  0.00     0.049 A 
ATOM     49  H   UNL A   1      40.446  28.867  30.574  1.00  0.00     0.167 HD
ATOM     50  C   UNL A   1      39.789  31.064  34.324  1.00  0.00     0.037 A 
ATOM     51  C   UNL A   1      41.880  27.234  28.827  1.00  0.00     0.037 A 
ATOM     52  C   UNL A   1      40.991  30.303  34.538  1.00  0.00     0.049 A 
ATOM     53  C   UNL A   1      42.657  27.275  30.114  1.00  0.00     0.074 A 
ATOM     54  C   UNL A   1      41.761  30.206  35.682  1.00  0.00     0.029 A 
ATOM     55  N   UNL A   1      41.589  29.498  33.580  1.00  0.00    -0.354 N 
ATOM     56  N   UNL A   1      42.388  27.915  31.224  1.00  0.00    -0.248 NA
ATOM     57  C   UNL A   1      43.902  26.493  30.156  1.00  0.00     0.031 C 
ATOM     58  C   UNL A   1      42.846  29.366  35.406  1.00  0.00     0.029 A 
ATOM     59  C   UNL A   1      42.728  28.909  34.102  1.00  0.00     0.049 A 
ATOM     60  H   UNL A   1      41.254  29.365  32.664  1.00  0.00     0.167 HD
ATOM     61  C   UNL A   1      43.408  27.592  32.108  1.00  0.00     0.074 A 
ATOM     62  C   UNL A   1      44.298  26.690  31.405  1.00  0.00     0.031 C 
ATOM     63  C   UNL A   1      43.592  28.004  33.387  1.00  0.00     0.037 A 
BRANCH  50  64
ATOM     64  C   UNL A   1      39.283  31.949  35.428  1.00  0.00     0.064 A 
ATOM     65  C   UNL A   1      39.655  33.300  35.518  1.00  0.00     0.173 A 
ATOM     66  C   UNL A   1      38.431  31.438  36.418  1.00  0.00     0.173 A 
ATOM     67  F   UNL A   1      40.482  33.834  34.606  1.00  0.00    -0.203 F 
ATOM     68  C   UNL A   1      39.232  34.092  36.581  1.00  0.00     0.198 A 
ATOM     69  C   UNL A   1      37.981  32.244  37.461  1.00  0.00     0.198 A 
ATOM     70  F   UNL A   1      38.040  30.156  36.378  1.00  0.00    -0.203 F 
ATOM     71  F   UNL A   1      39.662  35.357  36.683  1.00  0.00    -0.200 F 
ATOM     72  C   UNL A   1      38.392  33.564  37.549  1.00  0.00     0.200 A 
ATOM     73  F   UNL A   1      37.160  31.736  38.391  1.00  0.00    -0.200 F 
ATOM     74  F   UNL A   1      37.991  34.326  38.576  1.00  0.00    -0.200 F 
ENDBRANCH  50  64
BRANCH  51  75
ATOM     75  C   UNL A   1      42.325  26.388  27.690  1.00  0.00     0.064 A 
ATOM     76  C   UNL A   1      43.298  26.859  26.798  1.00  0.00     0.173 A 
ATOM     77  C   UNL A   1      41.810  25.102  27.478  1.00  0.00     0.173 A 
ATOM     78  F   UNL A   1      43.806  28.091  26.950  1.00  0.00    -0.203 F 
ATOM     79  C   UNL A   1      43.732  26.079  25.728  1.00  0.00     0.198 A 
ATOM     80  C   UNL A   1      42.262  24.314  26.421  1.00  0.00     0.198 A 
ATOM     81  F   UNL A   1      40.881  24.605  28.307  1.00  0.00    -0.203 F 
ATOM     82  F   UNL A   1      44.639  26.566  24.871  1.00  0.00    -0.200 F 
ATOM     83  C   UNL A   1      43.218  24.805  25.544  1.00  0.00     0.200 A 
ATOM     84  F   UNL A   1      41.771  23.078  26.253  1.00  0.00    -0.200 F 
ATOM     85  F   UNL A   1      43.640  24.052  24.519  1.00  0.00    -0.200 F 
ENDBRANCH  51  75
BRANCH  63  86
ATOM     86  C   UNL A   1      44.775  27.450  34.121  1.00  0.00     0.064 A 
ATOM     87  C   UNL A   1      46.008  28.120  34.139  1.00  0.00     0.173 A 
ATOM     88  C   UNL A   1      44.661  26.256  34.850  1.00  0.00     0.173 A 
ATOM     89  F   UNL A   1      46.169  29.255  33.443  1.00  0.00    -0.203 F 
ATOM     90  C   UNL A   1      47.090  27.602  34.845  1.00  0.00     0.198 A 
ATOM     91  C   UNL A   1      45.738  25.757  35.576  1.00  0.00     0.198 A 
ATOM     92  F   UNL A   1      43.501  25.583  34.867  1.00  0.00    -0.203 F 
ATOM     93  F   UNL A   1      48.271  28.235  34.815  1.00  0.00    -0.200 F 
ATOM     94  C   UNL A   1      46.952  26.427  35.568  1.00  0.00     0.200 A 
ATOM     95  F   UNL A   1      45.600  24.628  36.284  1.00  0.00    -0.200 F 
ATOM     96  F   UNL A   1      47.993  25.935  36.253  1.00  0.00    -0.200 F 
ENDBRANCH  63  86
ENDBRANCH  37  38
ENDBRANCH  29  32
ENDBRANCH  27  28
ENDBRANCH  26  27
ENDBRANCH   1  26
TORSDOF 16
ENDMDL
MODEL 2
REMARK VINA RESULT:     -12.1      0.148      1.608
REMARK SMILES CC(C)[C@@H]([NH3+])C(=O)N[C@@H](Cc1ccccc1)C(=O)NCCCNC(=O)c1ccc(-c2c3nc(c(-c4c(F)c(F)c(F)c(F)c4F)c4ccc([nH]4)c(-c4c(F)c(F)c(F)c(F)c4F)c4nc(c(-c5c(F)c(F)c(F)c(F)c5F)c5ccc2[nH]5)C=C4)C=C3)cc1
REMARK SMILES IDX 20 1 19 2 17 3 18 4 9 6 8 7 6 8 7 9 4 11 2 12 1 13 3 14 5 15
REMARK SMILES IDX 10 19 11 20 12 21 16 22 13 23 15 24 14 25 21 26 22 27 23 28
REMARK SMILES IDX 24 29 25 31 26 32 27 33 88 34 28 35 87 36 29 37 30 38 31 39
REMARK SMILES IDX 81 40 32 41 86 42 80 43 82 44 33 45 85 46 79 47 78 48 34 50
REMARK SMILES IDX 66 51 46 52 65 53 47 54 50 55 64 56 83 57 48 58 49 59 63 61
REMARK SMILES IDX 84 62 51 63 35 64 36 65 44 66 37 67 38 68 42 69 45 70 39 71
REMARK SMILES IDX 40 72 43 73 41 74 67 75 68 76 76 77 69 78 70 79 74 80 77 81
REMARK SMILES IDX 71 82 72 83 75 84 73 85 52 86 53 87 61 88 54 89 55 90 59 91
REMARK SMILES IDX 62 92 56 93 57 94 60 95 58 96
REMARK H PARENT 19 5 8 10 5 16 5 17 5 18 23 30 82 49 50 60
REMARK Flexibility Score: inf
ROOT
ATOM      1  C   UNL A   1      31.812  27.666  26.633  1.00  0.00     0.117 C 
ENDROOT
BRANCH   1   2
ATOM      2  N   UNL A   1      30.680  26.809  26.898  1.00  0.00    -0.354 N 
ATOM      3  C   UNL A   1      30.092  25.913  26.050  1.00  0.00     0.242 C 
ATOM      4  O   UNL A   1      29.569  24.925  26.577  1.00  0.00    -0.273 OA
ATOM      5  H   UNL A   1      30.286  26.878  27.796  1.00  0.00     0.163 HD
BRANCH   3   6
ATOM      6  C   UNL A   1      30.168  26.037  24.509  1.00  0.00     0.175 C 
BRANCH   6   7
ATOM      7  N   UNL A   1      30.804  24.888  23.848  1.00  0.00    -0.339 N 
ATOM      8  C   UNL A   1      31.741  24.848  22.861  1.00  0.00     0.279 C 
ATOM      9  O   UNL A   1      32.244  23.750  22.604  1.00  0.00    -0.268 OA
ATOM     10  H   UNL A   1      30.503  24.007  24.169  1.00  0.00     0.164 HD
BRANCH   8  11
ATOM     11  C   UNL A   1      32.161  26.110  22.073  1.00  0.00     0.273 C 
BRANCH  11  12
ATOM     12  C   UNL A   1      33.552  26.647  22.493  1.00  0.00     0.051 C 
ATOM     13  C   UNL A   1      33.679  28.160  22.287  1.00  0.00     0.014 C 
ATOM     14  C   UNL A   1      33.853  26.309  23.959  1.00  0.00     0.014 C 
ENDBRANCH  11  12
BRANCH  11  15
ATOM     15  N   UNL A   1      32.045  25.827  20.628  1.00  0.00    -0.347 N 
ATOM     16  H   UNL A   1      31.274  26.368  20.236  1.00  0.00     0.345 HD
ATOM     17  H   UNL A   1      31.865  24.831  20.490  1.00  0.00     0.345 HD
ATOM     18  H   UNL A   1      32.913  26.084  20.160  1.00  0.00     0.345 HD
ENDBRANCH  11  15
ENDBRANCH   8  11
ENDBRANCH   6   7
BRANCH   6  19
ATOM     19  C   UNL A   1      28.849  26.484  23.833  1.00  0.00     0.070 C 
BRANCH  19  20
ATOM     20  C   UNL A   1      28.794  27.870  23.229  1.00  0.00    -0.045 A 
ATOM     21  C   UNL A   1      29.952  28.449  22.688  1.00  0.00     0.004 A 
ATOM     22  C   UNL A   1      27.608  28.621  23.246  1.00  0.00     0.004 A 
ATOM     23  C   UNL A   1      29.944  29.774  22.245  1.00  0.00     0.000 A 
ATOM     24  C   UNL A   1      27.607  29.954  22.820  1.00  0.00     0.000 A 
ATOM     25  C   UNL A   1      28.778  30.532  22.332  1.00  0.00     0.000 A 
ENDBRANCH  19  20
ENDBRANCH   6  19
ENDBRANCH   3   6
ENDBRANCH   1   2
BRANCH   1  26
ATOM     26  C   UNL A   1      31.468  28.994  26.002  1.00  0.00     0.042 C 
BRANCH  26  27
ATOM     27  C   UNL A   1      32.686  29.872  25.783  1.00  0.00     0.118 C 
BRANCH  27  28
ATOM     28  N   UNL A   1      32.510  31.237  26.276  1.00  0.00    -0.352 N 
ATOM     29  C   UNL A   1      33.226  31.977  27.190  1.00  0.00     0.251 C 
ATOM     30  H   UNL A   1      31.741  31.713  25.886  1.00  0.00     0.163 HD
ATOM     31  O   UNL A   1      32.791  33.052  27.581  1.00  0.00    -0.269 OA
BRANCH  29  32
ATOM     32  C   UNL A   1      34.503  31.460  27.729  1.00  0.00     0.039 A 
ATOM     33  C   UNL A   1      35.569  32.340  27.932  1.00  0.00     0.014 A 
ATOM     34  C   UNL A   1      34.644  30.113  28.050  1.00  0.00     0.014 A 
ATOM     35  C   UNL A   1      36.733  31.883  28.556  1.00  0.00     0.010 A 
ATOM     36  C   UNL A   1      35.734  29.693  28.795  1.00  0.00     0.010 A 
ATOM     37  C   UNL A   1      36.799  30.569  29.046  1.00  0.00    -0.014 A 
BRANCH  37  38
ATOM     38  C   UNL A   1      37.973  30.060  29.798  1.00  0.00     0.031 A 
ATOM     39  C   UNL A   1      38.216  30.534  31.205  1.00  0.00     0.074 A 
ATOM     40  C   UNL A   1      38.869  29.264  29.186  1.00  0.00     0.049 A 
ATOM     41  N   UNL A   1      39.250  30.336  31.982  1.00  0.00    -0.248 NA
ATOM     42  C   UNL A   1      37.177  31.391  31.801  1.00  0.00     0.031 C 
ATOM     43  C   UNL A   1      38.779  28.783  27.807  1.00  0.00     0.029 A 
ATOM     44  N   UNL A   1      40.044  28.725  29.648  1.00  0.00    -0.354 N 
ATOM     45  C   UNL A   1      39.001  31.074  33.132  1.00  0.00     0.074 A 
ATOM     46  C   UNL A   1      37.756  31.778  32.925  1.00  0.00     0.031 C 
ATOM     47  C   UNL A   1      39.826  27.983  27.549  1.00  0.00     0.029 A 
ATOM     48  C   UNL A   1      40.685  27.933  28.727  1.00  0.00     0.049 A 
ATOM     49  H   UNL A   1      40.394  28.890  30.553  1.00  0.00     0.167 HD
ATOM     50  C   UNL A   1      39.726  31.133  34.274  1.00  0.00     0.037 A 
ATOM     51  C   UNL A   1      41.837  27.244  28.827  1.00  0.00     0.037 A 
ATOM     52  C   UNL A   1      40.934  30.385  34.496  1.00  0.00     0.049 A 
ATOM     53  C   UNL A   1      42.617  27.310  30.110  1.00  0.00     0.074 A 
ATOM     54  C   UNL A   1      41.708  30.310  35.639  1.00  0.00     0.029 A 
ATOM     55  N   UNL A   1      41.538  29.572  33.548  1.00  0.00    -0.354 N 
ATOM     56  N   UNL A   1      42.345  27.963  31.213  1.00  0.00    -0.248 NA
ATOM     57  C   UNL A   1      43.868  26.539  30.161  1.00  0.00     0.031 C 
ATOM     58  C   UNL A   1      42.799  29.476  35.373  1.00  0.00     0.029 A 
ATOM     59  C   UNL A   1      42.682  28.999  34.076  1.00  0.00     0.049 A 
ATOM     60  H   UNL A   1      41.201  29.423  32.635  1.00  0.00     0.167 HD
ATOM     61  C   UNL A   1      43.370  27.661  32.099  1.00  0.00     0.074 A 
ATOM     62  C   UNL A   1      44.266  26.757  31.406  1.00  0.00     0.031 C 
ATOM     63  C   UNL A   1      43.552  28.092  33.371  1.00  0.00     0.037 A 
BRANCH  50  64
ATOM     64  C   UNL A   1      39.215  32.028  35.367  1.00  0.00     0.064 A 
ATOM     65  C   UNL A   1      39.544  33.392  35.416  1.00  0.00     0.173 A 
ATOM     66  C   UNL A   1      38.400  31.516  36.387  1.00  0.00     0.173 A 
ATOM     67  F   UNL A   1      40.335  33.929  34.473  1.00  0.00    -0.203 F 
ATOM     68  C   UNL A   1      39.119  34.197  36.469  1.00  0.00     0.198 A 
ATOM     69  C   UNL A   1      37.947  32.333  37.420  1.00  0.00     0.198 A 
ATOM     70  F   UNL A   1      38.050  30.221  36.387  1.00  0.00    -0.203 F 
ATOM     71  F   UNL A   1      39.510  35.477  36.530  1.00  0.00    -0.200 F 
ATOM     72  C   UNL A   1      38.317  33.668  37.467  1.00  0.00     0.200 A 
ATOM     73  F   UNL A   1      37.162  31.822  38.380  1.00  0.00    -0.200 F 
ATOM     74  F   UNL A   1      37.913  34.442  38.484  1.00  0.00    -0.200 F 
ENDBRANCH  50  64
BRANCH  51  75
ATOM     75  C   UNL A   1      42.287  26.387  27.700  1.00  0.00     0.064 A 
ATOM     76  C   UNL A   1      41.740  25.108  27.523  1.00  0.00     0.173 A 
ATOM     77  C   UNL A   1      43.247  26.821  26.777  1.00  0.00     0.173 A 
ATOM     78  F   UNL A   1      40.832  24.642  28.393  1.00  0.00    -0.203 F 
ATOM     79  C   UNL A   1      42.146  24.291  26.471  1.00  0.00     0.198 A 
ATOM     80  C   UNL A   1      43.635  26.011  25.710  1.00  0.00     0.198 A 
ATOM     81  F   UNL A   1      43.795  28.038  26.900  1.00  0.00    -0.203 F 
ATOM     82  F   UNL A   1      41.631  23.060  26.344  1.00  0.00    -0.200 F 
ATOM     83  C   UNL A   1      43.089  24.745  25.561  1.00  0.00     0.200 A 
ATOM     84  F   UNL A   1      44.538  26.459  24.827  1.00  0.00    -0.200 F 
ATOM     85  F   UNL A   1      43.474  23.962  24.545  1.00  0.00    -0.200 F 
ENDBRANCH  51  75
BRANCH  63  86
ATOM     86  C   UNL A   1      44.742  27.558  34.110  1.00  0.00     0.064 A 
ATOM     87  C   UNL A   1      44.683  26.352  34.825  1.00  0.00     0.173 A 
ATOM     88  C   UNL A   1      45.967  28.240  34.065  1.00  0.00     0.173 A 
ATOM     89  F   UNL A   1      43.529  25.674  34.910  1.00  0.00    -0.203 F 
ATOM     90  C   UNL A   1      45.804  25.860  35.486  1.00  0.00     0.198 A 
ATOM     91  C   UNL A   1      47.093  27.730  34.704  1.00  0.00     0.198 A 
ATOM     92  F   UNL A   1      46.074  29.393  33.389  1.00  0.00    -0.203 F 
ATOM     93  F   UNL A   1      45.716  24.729  36.199  1.00  0.00    -0.200 F 
ATOM     94  C   UNL A   1      47.009  26.545  35.419  1.00  0.00     0.200 A 
ATOM     95  F   UNL A   1      48.259  28.387  34.629  1.00  0.00    -0.200 F 
ATOM     96  F   UNL A   1      48.089  26.065  36.049  1.00  0.00    -0.200 F 
ENDBRANCH  63  86
ENDBRANCH  37  38
ENDBRANCH  29  32
ENDBRANCH  27  28
ENDBRANCH  26  27
ENDBRANCH   1  26
TORSDOF 16
ENDMDL
MODEL 3
REMARK VINA RESULT:     -11.7      5.196      8.691
REMARK SMILES CC(C)[C@@H]([NH3+])C(=O)N[C@@H](Cc1ccccc1)C(=O)NCCCNC(=O)c1ccc(-c2c3nc(c(-c4c(F)c(F)c(F)c(F)c4F)c4ccc([nH]4)c(-c4c(F)c(F)c(F)c(F)c4F)c4nc(c(-c5c(F)c(F)c(F)c(F)c5F)c5ccc2[nH]5)C=C4)C=C3)cc1
REMARK SMILES IDX 20 1 19 2 17 3 18 4 9 6 8 7 6 8 7 9 4 11 2 12 1 13 3 14 5 15
REMARK SMILES IDX 10 19 11 20 12 21 16 22 13 23 15 24 14 25 21 26 22 27 23 28
REMARK SMILES IDX 24 29 25 31 26 32 27 33 88 34 28 35 87 36 29 37 30 38 31 39
REMARK SMILES IDX 81 40 32 41 86 42 80 43 82 44 33 45 85 46 79 47 78 48 34 50
REMARK SMILES IDX 66 51 46 52 65 53 47 54 50 55 64 56 83 57 48 58 49 59 63 61
REMARK SMILES IDX 84 62 51 63 35 64 36 65 44 66 37 67 38 68 42 69 45 70 39 71
REMARK SMILES IDX 40 72 43 73 41 74 67 75 68 76 76 77 69 78 70 79 74 80 77 81
REMARK SMILES IDX 71 82 72 83 75 84 73 85 52 86 53 87 61 88 54 89 55 90 59 91
REMARK SMILES IDX 62 92 56 93 57 94 60 95 58 96
REMARK H PARENT 19 5 8 10 5 16 5 17 5 18 23 30 82 49 50 60
REMARK Flexibility Score: inf
ROOT
ATOM      1  C   UNL A   1      37.256  21.045  24.549  1.00  0.00     0.117 C 
ENDROOT
BRANCH   1   2
ATOM      2  N   UNL A   1      37.773  22.341  24.923  1.00  0.00    -0.354 N 
ATOM      3  C   UNL A   1      37.134  23.329  25.618  1.00  0.00     0.242 C 
ATOM      4  O   UNL A   1      37.850  24.062  26.309  1.00  0.00    -0.273 OA
ATOM      5  H   UNL A   1      38.697  22.535  24.645  1.00  0.00     0.163 HD
BRANCH   3   6
ATOM      6  C   UNL A   1      35.593  23.469  25.656  1.00  0.00     0.175 C 
BRANCH   6   7
ATOM      7  N   UNL A   1      34.952  22.722  26.748  1.00  0.00    -0.339 N 
ATOM      8  C   UNL A   1      33.802  21.994  26.759  1.00  0.00     0.279 C 
ATOM      9  O   UNL A   1      33.575  21.313  27.764  1.00  0.00    -0.268 OA
ATOM     10  H   UNL A   1      35.431  22.754  27.608  1.00  0.00     0.164 HD
BRANCH   8  11
ATOM     11  C   UNL A   1      32.800  22.018  25.582  1.00  0.00     0.273 C 
BRANCH  11  12
ATOM     12  C   UNL A   1      33.138  20.980  24.483  1.00  0.00     0.051 C 
ATOM     13  C   UNL A   1      32.695  19.563  24.864  1.00  0.00     0.014 C 
ATOM     14  C   UNL A   1      32.498  21.367  23.144  1.00  0.00     0.014 C 
ENDBRANCH  11  12
BRANCH  11  15
ATOM     15  N   UNL A   1      31.432  21.889  26.121  1.00  0.00    -0.347 N 
ATOM     16  H   UNL A   1      30.925  21.177  25.596  1.00  0.00     0.345 HD
ATOM     17  H   UNL A   1      30.947  22.784  26.035  1.00  0.00     0.345 HD
ATOM     18  H   UNL A   1      31.476  21.619  27.103  1.00  0.00     0.345 HD
ENDBRANCH  11  15
ENDBRANCH   8  11
ENDBRANCH   6   7
BRANCH   6  19
ATOM     19  C   UNL A   1      35.075  24.922  25.517  1.00  0.00     0.070 C 
BRANCH  19  20
ATOM     20  C   UNL A   1      33.929  25.180  24.565  1.00  0.00    -0.045 A 
ATOM     21  C   UNL A   1      32.720  25.707  25.044  1.00  0.00     0.004 A 
ATOM     22  C   UNL A   1      34.029  24.848  23.204  1.00  0.00     0.004 A 
ATOM     23  C   UNL A   1      31.613  25.828  24.199  1.00  0.00     0.000 A 
ATOM     24  C   UNL A   1      32.914  24.952  22.366  1.00  0.00     0.000 A 
ATOM     25  C   UNL A   1      31.704  25.429  22.868  1.00  0.00     0.000 A 
ENDBRANCH  19  20
ENDBRANCH   6  19
ENDBRANCH   3   6
ENDBRANCH   1   2
BRANCH   1  26
ATOM     26  C   UNL A   1      38.092  19.872  25.005  1.00  0.00     0.042 C 
BRANCH  26  27
ATOM     27  C   UNL A   1      39.311  20.296  25.803  1.00  0.00     0.118 C 
BRANCH  27  28
ATOM     28  N   UNL A   1      40.294  19.226  25.967  1.00  0.00    -0.352 N 
ATOM     29  C   UNL A   1      41.654  19.261  26.175  1.00  0.00     0.251 C 
ATOM     30  H   UNL A   1      39.916  18.318  25.920  1.00  0.00     0.163 HD
ATOM     31  O   UNL A   1      42.308  18.228  26.110  1.00  0.00    -0.269 OA
BRANCH  29  32
ATOM     32  C   UNL A   1      42.334  20.547  26.439  1.00  0.00     0.039 A 
ATOM     33  C   UNL A   1      42.887  21.263  25.375  1.00  0.00     0.014 A 
ATOM     34  C   UNL A   1      42.411  21.056  27.732  1.00  0.00     0.014 A 
ATOM     35  C   UNL A   1      43.419  22.535  25.600  1.00  0.00     0.010 A 
ATOM     36  C   UNL A   1      42.804  22.369  27.933  1.00  0.00     0.010 A 
ATOM     37  C   UNL A   1      43.327  23.121  26.873  1.00  0.00    -0.014 A 
BRANCH  37  38
ATOM     38  C   UNL A   1      43.791  24.504  27.145  1.00  0.00     0.031 A 
ATOM     39  C   UNL A   1      42.817  25.526  27.666  1.00  0.00     0.074 A 
ATOM     40  C   UNL A   1      45.048  24.866  26.827  1.00  0.00     0.049 A 
ATOM     41  N   UNL A   1      42.971  26.815  27.828  1.00  0.00    -0.248 NA
ATOM     42  C   UNL A   1      41.468  25.039  28.001  1.00  0.00     0.031 C 
ATOM     43  C   UNL A   1      46.070  23.986  26.260  1.00  0.00     0.029 A 
ATOM     44  N   UNL A   1      45.678  26.082  26.928  1.00  0.00    -0.354 N 
ATOM     45  C   UNL A   1      41.734  27.291  28.242  1.00  0.00     0.074 A 
ATOM     46  C   UNL A   1      40.823  26.169  28.239  1.00  0.00     0.031 C 
ATOM     47  C   UNL A   1      47.212  24.675  26.107  1.00  0.00     0.029 A 
ATOM     48  C   UNL A   1      46.989  26.057  26.520  1.00  0.00     0.049 A 
ATOM     49  H   UNL A   1      45.232  26.894  27.261  1.00  0.00     0.167 HD
ATOM     50  C   UNL A   1      41.394  28.544  28.625  1.00  0.00     0.037 A 
ATOM     51  C   UNL A   1      47.906  27.041  26.486  1.00  0.00     0.037 A 
ATOM     52  C   UNL A   1      42.318  29.644  28.682  1.00  0.00     0.049 A 
ATOM     53  C   UNL A   1      47.512  28.422  26.933  1.00  0.00     0.074 A 
ATOM     54  C   UNL A   1      42.101  30.935  29.126  1.00  0.00     0.029 A 
ATOM     55  N   UNL A   1      43.646  29.573  28.286  1.00  0.00    -0.354 N 
ATOM     56  N   UNL A   1      46.356  28.850  27.378  1.00  0.00    -0.248 NA
ATOM     57  C   UNL A   1      48.554  29.457  26.872  1.00  0.00     0.031 C 
ATOM     58  C   UNL A   1      43.290  31.655  28.968  1.00  0.00     0.029 A 
ATOM     59  C   UNL A   1      44.259  30.801  28.464  1.00  0.00     0.049 A 
ATOM     60  H   UNL A   1      44.087  28.767  27.932  1.00  0.00     0.167 HD
ATOM     61  C   UNL A   1      46.536  30.193  27.679  1.00  0.00     0.074 A 
ATOM     62  C   UNL A   1      47.918  30.506  27.373  1.00  0.00     0.031 C 
ATOM     63  C   UNL A   1      45.640  31.086  28.165  1.00  0.00     0.037 A 
BRANCH  50  64
ATOM     64  C   UNL A   1      39.963  28.776  29.024  1.00  0.00     0.064 A 
ATOM     65  C   UNL A   1      39.521  28.559  30.339  1.00  0.00     0.173 A 
ATOM     66  C   UNL A   1      39.019  29.204  28.079  1.00  0.00     0.173 A 
ATOM     67  F   UNL A   1      40.381  28.134  31.278  1.00  0.00    -0.203 F 
ATOM     68  C   UNL A   1      38.181  28.715  30.681  1.00  0.00     0.198 A 
ATOM     69  C   UNL A   1      37.686  29.392  28.434  1.00  0.00     0.198 A 
ATOM     70  F   UNL A   1      39.387  29.431  26.810  1.00  0.00    -0.203 F 
ATOM     71  F   UNL A   1      37.773  28.429  31.925  1.00  0.00    -0.200 F 
ATOM     72  C   UNL A   1      37.266  29.135  29.730  1.00  0.00     0.200 A 
ATOM     73  F   UNL A   1      36.803  29.809  27.515  1.00  0.00    -0.200 F 
ATOM     74  F   UNL A   1      35.974  29.278  30.059  1.00  0.00    -0.200 F 
ENDBRANCH  50  64
BRANCH  51  75
ATOM     75  C   UNL A   1      49.300  26.741  26.070  1.00  0.00     0.064 A 
ATOM     76  C   UNL A   1      49.702  26.947  24.742  1.00  0.00     0.173 A 
ATOM     77  C   UNL A   1      50.256  26.262  26.976  1.00  0.00     0.173 A 
ATOM     78  F   UNL A   1      48.816  27.386  23.836  1.00  0.00    -0.203 F 
ATOM     79  C   UNL A   1      51.006  26.676  24.334  1.00  0.00     0.198 A 
ATOM     80  C   UNL A   1      51.566  26.013  26.571  1.00  0.00     0.198 A 
ATOM     81  F   UNL A   1      49.922  26.054  28.258  1.00  0.00    -0.203 F 
ATOM     82  F   UNL A   1      51.354  26.850  23.053  1.00  0.00    -0.200 F 
ATOM     83  C   UNL A   1      51.939  26.214  25.250  1.00  0.00     0.200 A 
ATOM     84  F   UNL A   1      52.468  25.579  27.462  1.00  0.00    -0.200 F 
ATOM     85  F   UNL A   1      53.194  25.959  24.859  1.00  0.00    -0.200 F 
ENDBRANCH  51  75
BRANCH  63  86
ATOM     86  C   UNL A   1      46.136  32.473  28.437  1.00  0.00     0.064 A 
ATOM     87  C   UNL A   1      46.702  32.823  29.672  1.00  0.00     0.173 A 
ATOM     88  C   UNL A   1      46.083  33.453  27.434  1.00  0.00     0.173 A 
ATOM     89  F   UNL A   1      46.759  31.925  30.666  1.00  0.00    -0.203 F 
ATOM     90  C   UNL A   1      47.179  34.111  29.899  1.00  0.00     0.198 A 
ATOM     91  C   UNL A   1      46.585  34.732  27.656  1.00  0.00     0.198 A 
ATOM     92  F   UNL A   1      45.556  33.164  26.235  1.00  0.00    -0.203 F 
ATOM     93  F   UNL A   1      47.677  34.436  31.100  1.00  0.00    -0.200 F 
ATOM     94  C   UNL A   1      47.127  35.061  28.890  1.00  0.00     0.200 A 
ATOM     95  F   UNL A   1      46.545  35.645  26.676  1.00  0.00    -0.200 F 
ATOM     96  F   UNL A   1      47.593  36.298  29.107  1.00  0.00    -0.200 F 
ENDBRANCH  63  86
ENDBRANCH  37  38
ENDBRANCH  29  32
ENDBRANCH  27  28
ENDBRANCH  26  27
ENDBRANCH   1  26
TORSDOF 16
ENDMDL
