MODEL 1
REMARK VINA RESULT:     -12.3      0.000      0.000
REMARK SMILES C[NH2+][C@@H](C)c1ccc(SCc2ccc(C(=O)NCCCNC(=O)c3ccc(-c4c5nc(c(-c6c(F)c(F)c(F)c(F)c6F)c6ccc([nH]6)c(-c6c(F)c(F)c(F)c(F)c6F)c6nc(c(-c7c(F)c(F)c(F)c(F)c7F)c7ccc4[nH]7)C=C6)C=C5)cc3)cc2)cc1
REMARK SMILES IDX 15 1 16 2 17 3 14 5 11 6 12 7 88 8 13 9 87 10 10 11 9 12
REMARK SMILES IDX 8 13 5 14 6 15 90 16 7 17 89 18 3 19 4 20 2 21 1 22 18 25
REMARK SMILES IDX 19 26 20 27 21 28 22 29 23 31 24 32 25 33 86 34 26 35 85 36
REMARK SMILES IDX 27 37 28 38 29 39 79 40 30 41 84 42 78 43 80 44 31 45 83 46
REMARK SMILES IDX 77 47 76 48 32 50 64 51 44 52 63 53 45 54 48 55 62 56 81 57
REMARK SMILES IDX 46 58 47 59 61 61 82 62 49 63 33 64 34 65 42 66 35 67 36 68
REMARK SMILES IDX 40 69 43 70 37 71 38 72 41 73 39 74 65 75 66 76 74 77 67 78
REMARK SMILES IDX 68 79 72 80 75 81 69 82 70 83 73 84 71 85 50 86 51 87 59 88
REMARK SMILES IDX 52 89 53 90 57 91 60 92 54 93 55 94 58 95 56 96
REMARK H PARENT 17 4 2 23 2 24 21 30 80 49 48 60
REMARK Flexibility Score: inf
ROOT
ATOM      1  C   UNL A   1      33.745  29.263  27.146  1.00  0.00     0.251 C 
ATOM      2  O   UNL A   1      34.920  29.256  27.512  1.00  0.00    -0.269 OA
ATOM      3  N   UNL A   1      33.123  30.481  27.045  1.00  0.00    -0.352 N 
ATOM      4  H   UNL A   1      33.688  31.241  27.316  1.00  0.00     0.163 HD
ENDROOT
BRANCH   1   5
ATOM      5  C   UNL A   1      33.091  27.979  26.780  1.00  0.00     0.039 A 
ATOM      6  C   UNL A   1      31.972  25.533  25.881  1.00  0.00    -0.038 A 
ATOM      7  C   UNL A   1      33.313  25.845  25.626  1.00  0.00     0.005 A 
ATOM      8  C   UNL A   1      31.235  26.421  26.681  1.00  0.00     0.005 A 
ATOM      9  C   UNL A   1      33.857  27.061  26.051  1.00  0.00     0.014 A 
ATOM     10  C   UNL A   1      31.793  27.618  27.142  1.00  0.00     0.014 A 
BRANCH   6  11
ATOM     11  C   UNL A   1      31.263  24.300  25.363  1.00  0.00     0.110 C 
BRANCH  11  12
ATOM     12  S   UNL A   1      30.701  24.267  23.633  1.00  0.00    -0.121 SA
BRANCH  12  13
ATOM     13  C   UNL A   1      30.156  25.939  23.294  1.00  0.00     0.008 A 
ATOM     14  C   UNL A   1      29.530  28.647  22.724  1.00  0.00     0.009 A 
ATOM     15  C   UNL A   1      30.739  28.083  22.296  1.00  0.00     0.011 A 
ATOM     16  C   UNL A   1      28.627  27.826  23.416  1.00  0.00     0.011 A 
ATOM     17  C   UNL A   1      31.048  26.751  22.582  1.00  0.00     0.015 A 
ATOM     18  C   UNL A   1      28.934  26.485  23.689  1.00  0.00     0.015 A 
BRANCH  14  19
ATOM     19  C   UNL A   1      29.211  30.098  22.381  1.00  0.00     0.210 C 
ATOM     20  C   UNL A   1      29.046  30.959  23.640  1.00  0.00     0.081 C 
BRANCH  19  21
ATOM     21  N   UNL A   1      28.038  30.125  21.498  1.00  0.00    -0.343 N 
ATOM     22  C   UNL A   1      27.902  31.356  20.739  1.00  0.00     0.331 C 
ATOM     23  H   UNL A   1      28.112  29.349  20.840  1.00  0.00     0.346 HD
ATOM     24  H   UNL A   1      27.215  30.054  22.097  1.00  0.00     0.346 HD
ENDBRANCH  19  21
ENDBRANCH  14  19
ENDBRANCH  12  13
ENDBRANCH  11  12
ENDBRANCH   6  11
ENDBRANCH   1   5
BRANCH   3  25
ATOM     25  C   UNL A   1      31.792  30.867  26.614  1.00  0.00     0.118 C 
BRANCH  25  26
ATOM     26  C   UNL A   1      31.559  32.363  26.823  1.00  0.00     0.042 C 
BRANCH  26  27
ATOM     27  C   UNL A   1      32.829  33.135  27.170  1.00  0.00     0.118 C 
BRANCH  27  28
ATOM     28  N   UNL A   1      32.537  34.449  27.717  1.00  0.00    -0.352 N 
ATOM     29  C   UNL A   1      33.016  35.061  28.846  1.00  0.00     0.251 C 
ATOM     30  H   UNL A   1      31.894  34.983  27.195  1.00  0.00     0.163 HD
ATOM     31  O   UNL A   1      32.488  36.099  29.237  1.00  0.00    -0.269 OA
BRANCH  29  32
ATOM     32  C   UNL A   1      34.156  34.493  29.603  1.00  0.00     0.039 A 
ATOM     33  C   UNL A   1      35.441  34.620  29.062  1.00  0.00     0.014 A 
ATOM     34  C   UNL A   1      33.969  33.769  30.784  1.00  0.00     0.014 A 
ATOM     35  C   UNL A   1      36.534  34.041  29.711  1.00  0.00     0.010 A 
ATOM     36  C   UNL A   1      35.068  33.244  31.464  1.00  0.00     0.010 A 
ATOM     37  C   UNL A   1      36.358  33.355  30.921  1.00  0.00    -0.014 A 
BRANCH  37  38
ATOM     38  C   UNL A   1      37.502  32.696  31.599  1.00  0.00     0.031 A 
ATOM     39  C   UNL A   1      38.217  31.557  30.926  1.00  0.00     0.074 A 
ATOM     40  C   UNL A   1      37.873  33.092  32.832  1.00  0.00     0.049 A 
ATOM     41  N   UNL A   1      39.197  30.811  31.373  1.00  0.00    -0.248 NA
ATOM     42  C   UNL A   1      37.752  31.190  29.579  1.00  0.00     0.031 C 
ATOM     43  C   UNL A   1      37.236  34.160  33.603  1.00  0.00     0.029 A 
ATOM     44  N   UNL A   1      38.871  32.634  33.655  1.00  0.00    -0.354 N 
ATOM     45  C   UNL A   1      39.446  29.878  30.375  1.00  0.00     0.074 A 
ATOM     46  C   UNL A   1      38.490  30.122  29.318  1.00  0.00     0.031 C 
ATOM     47  C   UNL A   1      37.870  34.287  34.780  1.00  0.00     0.029 A 
ATOM     48  C   UNL A   1      38.937  33.292  34.858  1.00  0.00     0.049 A 
ATOM     49  H   UNL A   1      39.482  31.903  33.406  1.00  0.00     0.167 HD
ATOM     50  C   UNL A   1      40.400  28.915  30.336  1.00  0.00     0.037 A 
ATOM     51  C   UNL A   1      39.767  33.113  35.903  1.00  0.00     0.037 A 
ATOM     52  C   UNL A   1      41.375  28.698  31.372  1.00  0.00     0.049 A 
ATOM     53  C   UNL A   1      40.837  32.059  35.822  1.00  0.00     0.074 A 
ATOM     54  C   UNL A   1      42.410  27.779  31.407  1.00  0.00     0.029 A 
ATOM     55  N   UNL A   1      41.436  29.416  32.557  1.00  0.00    -0.354 N 
ATOM     56  N   UNL A   1      41.095  31.215  34.852  1.00  0.00    -0.248 NA
ATOM     57  C   UNL A   1      41.742  31.942  36.974  1.00  0.00     0.031 C 
ATOM     58  C   UNL A   1      43.082  27.924  32.626  1.00  0.00     0.029 A 
ATOM     59  C   UNL A   1      42.491  28.960  33.332  1.00  0.00     0.049 A 
ATOM     60  H   UNL A   1      40.823  30.144  32.809  1.00  0.00     0.167 HD
ATOM     61  C   UNL A   1      42.206  30.492  35.261  1.00  0.00     0.074 A 
ATOM     62  C   UNL A   1      42.580  31.002  36.564  1.00  0.00     0.031 C 
ATOM     63  C   UNL A   1      42.860  29.495  34.616  1.00  0.00     0.037 A 
BRANCH  50  64
ATOM     64  C   UNL A   1      40.436  28.026  29.127  1.00  0.00     0.064 A 
ATOM     65  C   UNL A   1      39.679  26.846  29.060  1.00  0.00     0.173 A 
ATOM     66  C   UNL A   1      41.213  28.371  28.012  1.00  0.00     0.173 A 
ATOM     67  F   UNL A   1      38.929  26.465  30.105  1.00  0.00    -0.203 F 
ATOM     68  C   UNL A   1      39.723  26.030  27.933  1.00  0.00     0.198 A 
ATOM     69  C   UNL A   1      41.232  27.566  26.875  1.00  0.00     0.198 A 
ATOM     70  F   UNL A   1      41.950  29.491  28.021  1.00  0.00    -0.203 F 
ATOM     71  F   UNL A   1      39.030  24.883  27.912  1.00  0.00    -0.200 F 
ATOM     72  C   UNL A   1      40.494  26.393  26.840  1.00  0.00     0.200 A 
ATOM     73  F   UNL A   1      41.969  27.925  25.815  1.00  0.00    -0.200 F 
ATOM     74  F   UNL A   1      40.532  25.608  25.754  1.00  0.00    -0.200 F 
ENDBRANCH  50  64
BRANCH  51  75
ATOM     75  C   UNL A   1      39.642  33.979  37.102  1.00  0.00     0.064 A 
ATOM     76  C   UNL A   1      38.880  33.571  38.206  1.00  0.00     0.173 A 
ATOM     77  C   UNL A   1      40.278  35.226  37.172  1.00  0.00     0.173 A 
ATOM     78  F   UNL A   1      38.238  32.394  38.176  1.00  0.00    -0.203 F 
ATOM     79  C   UNL A   1      38.744  34.385  39.328  1.00  0.00     0.198 A 
ATOM     80  C   UNL A   1      40.161  36.030  38.305  1.00  0.00     0.198 A 
ATOM     81  F   UNL A   1      41.022  35.660  36.144  1.00  0.00    -0.203 F 
ATOM     82  F   UNL A   1      37.978  33.988  40.353  1.00  0.00    -0.200 F 
ATOM     83  C   UNL A   1      39.389  35.612  39.379  1.00  0.00     0.200 A 
ATOM     84  F   UNL A   1      40.796  37.209  38.355  1.00  0.00    -0.200 F 
ATOM     85  F   UNL A   1      39.262  36.394  40.459  1.00  0.00    -0.200 F 
ENDBRANCH  51  75
BRANCH  63  86
ATOM     86  C   UNL A   1      44.076  28.925  35.283  1.00  0.00     0.064 A 
ATOM     87  C   UNL A   1      45.359  29.431  35.031  1.00  0.00     0.173 A 
ATOM     88  C   UNL A   1      43.948  27.883  36.214  1.00  0.00     0.173 A 
ATOM     89  F   UNL A   1      45.533  30.417  34.139  1.00  0.00    -0.203 F 
ATOM     90  C   UNL A   1      46.475  28.897  35.671  1.00  0.00     0.198 A 
ATOM     91  C   UNL A   1      45.062  27.369  36.870  1.00  0.00     0.198 A 
ATOM     92  F   UNL A   1      42.740  27.370  36.492  1.00  0.00    -0.203 F 
ATOM     93  F   UNL A   1      47.697  29.365  35.384  1.00  0.00    -0.200 F 
ATOM     94  C   UNL A   1      46.325  27.872  36.593  1.00  0.00     0.200 A 
ATOM     95  F   UNL A   1      44.915  26.385  37.768  1.00  0.00    -0.200 F 
ATOM     96  F   UNL A   1      47.400  27.362  37.211  1.00  0.00    -0.200 F 
ENDBRANCH  63  86
ENDBRANCH  37  38
ENDBRANCH  29  32
ENDBRANCH  27  28
ENDBRANCH  26  27
ENDBRANCH  25  26
ENDBRANCH   3  25
TORSDOF 15
ENDMDL
MODEL 2
REMARK VINA RESULT:     -12.3      6.393     11.528
REMARK SMILES C[NH2+][C@@H](C)c1ccc(SCc2ccc(C(=O)NCCCNC(=O)c3ccc(-c4c5nc(c(-c6c(F)c(F)c(F)c(F)c6F)c6ccc([nH]6)c(-c6c(F)c(F)c(F)c(F)c6F)c6nc(c(-c7c(F)c(F)c(F)c(F)c7F)c7ccc4[nH]7)C=C6)C=C5)cc3)cc2)cc1
REMARK SMILES IDX 15 1 16 2 17 3 14 5 11 6 12 7 88 8 13 9 87 10 10 11 9 12
REMARK SMILES IDX 8 13 5 14 6 15 90 16 7 17 89 18 3 19 4 20 2 21 1 22 18 25
REMARK SMILES IDX 19 26 20 27 21 28 22 29 23 31 24 32 25 33 86 34 26 35 85 36
REMARK SMILES IDX 27 37 28 38 29 39 79 40 30 41 84 42 78 43 80 44 31 45 83 46
REMARK SMILES IDX 77 47 76 48 32 50 64 51 44 52 63 53 45 54 48 55 62 56 81 57
REMARK SMILES IDX 46 58 47 59 61 61 82 62 49 63 33 64 34 65 42 66 35 67 36 68
REMARK SMILES IDX 40 69 43 70 37 71 38 72 41 73 39 74 65 75 66 76 74 77 67 78
REMARK SMILES IDX 68 79 72 80 75 81 69 82 70 83 73 84 71 85 50 86 51 87 59 88
REMARK SMILES IDX 52 89 53 90 57 91 60 92 54 93 55 94 58 95 56 96
REMARK H PARENT 17 4 2 23 2 24 21 30 80 49 48 60
REMARK Flexibility Score: inf
ROOT
ATOM      1  C   UNL A   1      37.638  23.234  25.500  1.00  0.00     0.251 C 
ATOM      2  O   UNL A   1      38.294  24.059  26.136  1.00  0.00    -0.269 OA
ATOM      3  N   UNL A   1      38.122  21.952  25.442  1.00  0.00    -0.352 N 
ATOM      4  H   UNL A   1      38.986  21.831  25.900  1.00  0.00     0.163 HD
ENDROOT
BRANCH   1   5
ATOM      5  C   UNL A   1      36.347  23.648  24.890  1.00  0.00     0.039 A 
ATOM      6  C   UNL A   1      33.785  24.413  23.944  1.00  0.00    -0.038 A 
ATOM      7  C   UNL A   1      34.216  24.781  25.224  1.00  0.00     0.005 A 
ATOM      8  C   UNL A   1      34.699  23.745  23.113  1.00  0.00     0.005 A 
ATOM      9  C   UNL A   1      35.471  24.384  25.697  1.00  0.00     0.014 A 
ATOM     10  C   UNL A   1      35.971  23.386  23.573  1.00  0.00     0.014 A 
BRANCH   6  11
ATOM     11  C   UNL A   1      32.405  24.692  23.388  1.00  0.00     0.110 C 
BRANCH  11  12
ATOM     12  S   UNL A   1      31.030  23.592  23.847  1.00  0.00    -0.121 SA
BRANCH  12  13
ATOM     13  C   UNL A   1      31.764  21.963  23.966  1.00  0.00     0.008 A 
ATOM     14  C   UNL A   1      33.018  19.451  24.373  1.00  0.00     0.009 A 
ATOM     15  C   UNL A   1      32.729  20.294  25.454  1.00  0.00     0.011 A 
ATOM     16  C   UNL A   1      32.641  19.872  23.089  1.00  0.00     0.011 A 
ATOM     17  C   UNL A   1      32.116  21.534  25.251  1.00  0.00     0.015 A 
ATOM     18  C   UNL A   1      32.014  21.110  22.891  1.00  0.00     0.015 A 
BRANCH  14  19
ATOM     19  C   UNL A   1      33.669  18.096  24.627  1.00  0.00     0.210 C 
ATOM     20  C   UNL A   1      33.521  17.158  23.421  1.00  0.00     0.081 C 
BRANCH  19  21
ATOM     21  N   UNL A   1      33.125  17.538  25.870  1.00  0.00    -0.343 N 
ATOM     22  C   UNL A   1      32.676  16.161  25.750  1.00  0.00     0.331 C 
ATOM     23  H   UNL A   1      33.852  17.576  26.585  1.00  0.00     0.346 HD
ATOM     24  H   UNL A   1      32.307  18.097  26.113  1.00  0.00     0.346 HD
ENDBRANCH  19  21
ENDBRANCH  14  19
ENDBRANCH  12  13
ENDBRANCH  11  12
ENDBRANCH   6  11
ENDBRANCH   1   5
BRANCH   3  25
ATOM     25  C   UNL A   1      37.607  20.739  24.836  1.00  0.00     0.118 C 
BRANCH  25  26
ATOM     26  C   UNL A   1      38.574  19.572  25.033  1.00  0.00     0.042 C 
BRANCH  26  27
ATOM     27  C   UNL A   1      39.597  19.809  26.141  1.00  0.00     0.118 C 
BRANCH  27  28
ATOM     28  N   UNL A   1      40.723  18.895  26.050  1.00  0.00    -0.352 N 
ATOM     29  C   UNL A   1      42.068  19.154  26.002  1.00  0.00     0.251 C 
ATOM     30  H   UNL A   1      40.481  17.940  26.016  1.00  0.00     0.163 HD
ATOM     31  O   UNL A   1      42.845  18.246  25.723  1.00  0.00    -0.269 OA
BRANCH  29  32
ATOM     32  C   UNL A   1      42.599  20.509  26.278  1.00  0.00     0.039 A 
ATOM     33  C   UNL A   1      42.544  20.989  27.592  1.00  0.00     0.014 A 
ATOM     34  C   UNL A   1      43.069  21.340  25.256  1.00  0.00     0.014 A 
ATOM     35  C   UNL A   1      42.972  22.286  27.883  1.00  0.00     0.010 A 
ATOM     36  C   UNL A   1      43.555  22.612  25.557  1.00  0.00     0.010 A 
ATOM     37  C   UNL A   1      43.489  23.106  26.868  1.00  0.00    -0.014 A 
BRANCH  37  38
ATOM     38  C   UNL A   1      43.908  24.501  27.154  1.00  0.00     0.031 A 
ATOM     39  C   UNL A   1      42.891  25.508  27.619  1.00  0.00     0.074 A 
ATOM     40  C   UNL A   1      45.186  24.874  26.956  1.00  0.00     0.049 A 
ATOM     41  N   UNL A   1      43.040  26.787  27.862  1.00  0.00    -0.248 NA
ATOM     42  C   UNL A   1      41.518  25.017  27.813  1.00  0.00     0.031 C 
ATOM     43  C   UNL A   1      46.256  24.001  26.474  1.00  0.00     0.029 A 
ATOM     44  N   UNL A   1      45.799  26.089  27.130  1.00  0.00    -0.354 N 
ATOM     45  C   UNL A   1      41.780  27.253  28.213  1.00  0.00     0.074 A 
ATOM     46  C   UNL A   1      40.870  26.133  28.112  1.00  0.00     0.031 C 
ATOM     47  C   UNL A   1      47.398  24.703  26.406  1.00  0.00     0.029 A 
ATOM     48  C   UNL A   1      47.135  26.082  26.813  1.00  0.00     0.049 A 
ATOM     49  H   UNL A   1      45.327  26.891  27.452  1.00  0.00     0.167 HD
ATOM     50  C   UNL A   1      41.418  28.499  28.604  1.00  0.00     0.037 A 
ATOM     51  C   UNL A   1      48.043  27.075  26.848  1.00  0.00     0.037 A 
ATOM     52  C   UNL A   1      42.330  29.603  28.742  1.00  0.00     0.049 A 
ATOM     53  C   UNL A   1      47.622  28.442  27.315  1.00  0.00     0.074 A 
ATOM     54  C   UNL A   1      42.071  30.892  29.174  1.00  0.00     0.029 A 
ATOM     55  N   UNL A   1      43.686  29.542  28.453  1.00  0.00    -0.354 N 
ATOM     56  N   UNL A   1      46.438  28.859  27.692  1.00  0.00    -0.248 NA
ATOM     57  C   UNL A   1      48.668  29.472  27.377  1.00  0.00     0.031 C 
ATOM     58  C   UNL A   1      43.265  31.620  29.121  1.00  0.00     0.029 A 
ATOM     59  C   UNL A   1      44.276  30.773  28.695  1.00  0.00     0.049 A 
ATOM     60  H   UNL A   1      44.159  28.743  28.126  1.00  0.00     0.167 HD
ATOM     61  C   UNL A   1      46.602  30.185  28.065  1.00  0.00     0.074 A 
ATOM     62  C   UNL A   1      48.002  30.502  27.878  1.00  0.00     0.031 C 
ATOM     63  C   UNL A   1      45.675  31.063  28.523  1.00  0.00     0.037 A 
BRANCH  50  64
ATOM     64  C   UNL A   1      39.968  28.732  28.916  1.00  0.00     0.064 A 
ATOM     65  C   UNL A   1      39.449  28.518  30.202  1.00  0.00     0.173 A 
ATOM     66  C   UNL A   1      39.093  29.201  27.925  1.00  0.00     0.173 A 
ATOM     67  F   UNL A   1      40.242  28.057  31.181  1.00  0.00    -0.203 F 
ATOM     68  C   UNL A   1      38.102  28.736  30.476  1.00  0.00     0.198 A 
ATOM     69  C   UNL A   1      37.752  29.446  28.211  1.00  0.00     0.198 A 
ATOM     70  F   UNL A   1      39.538  29.428  26.681  1.00  0.00    -0.203 F 
ATOM     71  F   UNL A   1      37.619  28.478  31.700  1.00  0.00    -0.200 F 
ATOM     72  C   UNL A   1      37.256  29.206  29.483  1.00  0.00     0.200 A 
ATOM     73  F   UNL A   1      36.938  29.911  27.253  1.00  0.00    -0.200 F 
ATOM     74  F   UNL A   1      35.960  29.420  29.751  1.00  0.00    -0.200 F 
ENDBRANCH  50  64
BRANCH  51  75
ATOM     75  C   UNL A   1      49.451  26.803  26.464  1.00  0.00     0.064 A 
ATOM     76  C   UNL A   1      49.887  27.001  25.146  1.00  0.00     0.173 A 
ATOM     77  C   UNL A   1      50.387  26.342  27.400  1.00  0.00     0.173 A 
ATOM     78  F   UNL A   1      49.021  27.422  24.213  1.00  0.00    -0.203 F 
ATOM     79  C   UNL A   1      51.202  26.731  24.775  1.00  0.00     0.198 A 
ATOM     80  C   UNL A   1      51.709  26.096  27.033  1.00  0.00     0.198 A 
ATOM     81  F   UNL A   1      50.021  26.141  28.674  1.00  0.00    -0.203 F 
ATOM     82  F   UNL A   1      51.582  26.891  23.500  1.00  0.00    -0.200 F 
ATOM     83  C   UNL A   1      52.114  26.284  25.719  1.00  0.00     0.200 A 
ATOM     84  F   UNL A   1      52.591  25.676  27.951  1.00  0.00    -0.200 F 
ATOM     85  F   UNL A   1      53.380  26.028  25.363  1.00  0.00    -0.200 F 
ENDBRANCH  51  75
BRANCH  63  86
ATOM     86  C   UNL A   1      46.154  32.432  28.902  1.00  0.00     0.064 A 
ATOM     87  C   UNL A   1      46.173  33.487  27.979  1.00  0.00     0.173 A 
ATOM     88  C   UNL A   1      46.565  32.698  30.218  1.00  0.00     0.173 A 
ATOM     89  F   UNL A   1      45.803  33.279  26.707  1.00  0.00    -0.203 F 
ATOM     90  C   UNL A   1      46.608  34.756  28.354  1.00  0.00     0.198 A 
ATOM     91  C   UNL A   1      46.976  33.972  30.595  1.00  0.00     0.198 A 
ATOM     92  F   UNL A   1      46.560  31.721  31.137  1.00  0.00    -0.203 F 
ATOM     93  F   UNL A   1      46.660  35.740  27.447  1.00  0.00    -0.200 F 
ATOM     94  C   UNL A   1      47.004  34.998  29.662  1.00  0.00     0.200 A 
ATOM     95  F   UNL A   1      47.348  34.208  31.861  1.00  0.00    -0.200 F 
ATOM     96  F   UNL A   1      47.419  36.221  30.021  1.00  0.00    -0.200 F 
ENDBRANCH  63  86
ENDBRANCH  37  38
ENDBRANCH  29  32
ENDBRANCH  27  28
ENDBRANCH  26  27
ENDBRANCH  25  26
ENDBRANCH   3  25
TORSDOF 15
ENDMDL
MODEL 3
REMARK VINA RESULT:     -12.3      0.883      7.229
REMARK SMILES C[NH2+][C@@H](C)c1ccc(SCc2ccc(C(=O)NCCCNC(=O)c3ccc(-c4c5nc(c(-c6c(F)c(F)c(F)c(F)c6F)c6ccc([nH]6)c(-c6c(F)c(F)c(F)c(F)c6F)c6nc(c(-c7c(F)c(F)c(F)c(F)c7F)c7ccc4[nH]7)C=C6)C=C5)cc3)cc2)cc1
REMARK SMILES IDX 15 1 16 2 17 3 14 5 11 6 12 7 88 8 13 9 87 10 10 11 9 12
REMARK SMILES IDX 8 13 5 14 6 15 90 16 7 17 89 18 3 19 4 20 2 21 1 22 18 25
REMARK SMILES IDX 19 26 20 27 21 28 22 29 23 31 24 32 25 33 86 34 26 35 85 36
REMARK SMILES IDX 27 37 28 38 29 39 79 40 30 41 84 42 78 43 80 44 31 45 83 46
REMARK SMILES IDX 77 47 76 48 32 50 64 51 44 52 63 53 45 54 48 55 62 56 81 57
REMARK SMILES IDX 46 58 47 59 61 61 82 62 49 63 33 64 34 65 42 66 35 67 36 68
REMARK SMILES IDX 40 69 43 70 37 71 38 72 41 73 39 74 65 75 66 76 74 77 67 78
REMARK SMILES IDX 68 79 72 80 75 81 69 82 70 83 73 84 71 85 50 86 51 87 59 88
REMARK SMILES IDX 52 89 53 90 57 91 60 92 54 93 55 94 58 95 56 96
REMARK H PARENT 17 4 2 23 2 24 21 30 80 49 48 60
REMARK Flexibility Score: inf
ROOT
ATOM      1  C   UNL A   1      33.658  29.501  27.283  1.00  0.00     0.251 C 
ATOM      2  O   UNL A   1      34.782  29.461  27.781  1.00  0.00    -0.269 OA
ATOM      3  N   UNL A   1      33.050  30.727  27.195  1.00  0.00    -0.352 N 
ATOM      4  H   UNL A   1      33.579  31.462  27.582  1.00  0.00     0.163 HD
ENDROOT
BRANCH   1   5
ATOM      5  C   UNL A   1      33.051  28.250  26.756  1.00  0.00     0.039 A 
ATOM      6  C   UNL A   1      32.019  25.900  25.550  1.00  0.00    -0.038 A 
ATOM      7  C   UNL A   1      33.336  26.309  25.311  1.00  0.00     0.005 A 
ATOM      8  C   UNL A   1      31.265  26.632  26.482  1.00  0.00     0.005 A 
ATOM      9  C   UNL A   1      33.837  27.479  25.890  1.00  0.00     0.014 A 
ATOM     10  C   UNL A   1      31.782  27.779  27.093  1.00  0.00     0.014 A 
BRANCH   6  11
ATOM     11  C   UNL A   1      31.352  24.717  24.880  1.00  0.00     0.110 C 
BRANCH  11  12
ATOM     12  S   UNL A   1      30.653  24.926  23.213  1.00  0.00    -0.121 SA
BRANCH  12  13
ATOM     13  C   UNL A   1      30.096  26.627  23.157  1.00  0.00     0.008 A 
ATOM     14  C   UNL A   1      29.450  29.388  23.076  1.00  0.00     0.009 A 
ATOM     15  C   UNL A   1      30.720  28.935  22.694  1.00  0.00     0.011 A 
ATOM     16  C   UNL A   1      28.500  28.434  23.470  1.00  0.00     0.011 A 
ATOM     17  C   UNL A   1      31.038  27.575  22.739  1.00  0.00     0.015 A 
ATOM     18  C   UNL A   1      28.818  27.069  23.501  1.00  0.00     0.015 A 
BRANCH  14  19
ATOM     19  C   UNL A   1      29.125  30.876  22.997  1.00  0.00     0.210 C 
ATOM     20  C   UNL A   1      27.706  31.176  23.500  1.00  0.00     0.081 C 
BRANCH  19  21
ATOM     21  N   UNL A   1      29.368  31.338  21.626  1.00  0.00    -0.343 N 
ATOM     22  C   UNL A   1      28.178  31.363  20.793  1.00  0.00     0.331 C 
ATOM     23  H   UNL A   1      29.749  32.284  21.668  1.00  0.00     0.346 HD
ATOM     24  H   UNL A   1      30.015  30.674  21.199  1.00  0.00     0.346 HD
ENDBRANCH  19  21
ENDBRANCH  14  19
ENDBRANCH  12  13
ENDBRANCH  11  12
ENDBRANCH   6  11
ENDBRANCH   1   5
BRANCH   3  25
ATOM     25  C   UNL A   1      31.778  31.150  26.641  1.00  0.00     0.118 C 
BRANCH  25  26
ATOM     26  C   UNL A   1      31.545  32.643  26.876  1.00  0.00     0.042 C 
BRANCH  26  27
ATOM     27  C   UNL A   1      32.820  33.412  27.213  1.00  0.00     0.118 C 
BRANCH  27  28
ATOM     28  N   UNL A   1      32.545  34.613  27.985  1.00  0.00    -0.352 N 
ATOM     29  C   UNL A   1      33.048  35.019  29.193  1.00  0.00     0.251 C 
ATOM     30  H   UNL A   1      31.895  35.230  27.575  1.00  0.00     0.163 HD
ATOM     31  O   UNL A   1      32.533  35.974  29.768  1.00  0.00    -0.269 OA
BRANCH  29  32
ATOM     32  C   UNL A   1      34.198  34.325  29.818  1.00  0.00     0.039 A 
ATOM     33  C   UNL A   1      35.475  34.553  29.293  1.00  0.00     0.014 A 
ATOM     34  C   UNL A   1      34.028  33.397  30.850  1.00  0.00     0.014 A 
ATOM     35  C   UNL A   1      36.578  33.868  29.810  1.00  0.00     0.010 A 
ATOM     36  C   UNL A   1      35.136  32.760  31.408  1.00  0.00     0.010 A 
ATOM     37  C   UNL A   1      36.418  32.972  30.878  1.00  0.00    -0.014 A 
BRANCH  37  38
ATOM     38  C   UNL A   1      37.572  32.204  31.409  1.00  0.00     0.031 A 
ATOM     39  C   UNL A   1      38.098  32.498  32.787  1.00  0.00     0.074 A 
ATOM     40  C   UNL A   1      38.173  31.274  30.641  1.00  0.00     0.049 A 
ATOM     41  N   UNL A   1      39.130  31.985  33.410  1.00  0.00    -0.248 NA
ATOM     42  C   UNL A   1      37.382  33.525  33.560  1.00  0.00     0.031 C 
ATOM     43  C   UNL A   1      37.779  30.923  29.277  1.00  0.00     0.029 A 
ATOM     44  N   UNL A   1      39.247  30.461  30.900  1.00  0.00    -0.354 N 
ATOM     45  C   UNL A   1      39.198  32.641  34.631  1.00  0.00     0.074 A 
ATOM     46  C   UNL A   1      38.132  33.619  34.648  1.00  0.00     0.031 C 
ATOM     47  C   UNL A   1      38.590  29.954  28.823  1.00  0.00     0.029 A 
ATOM     48  C   UNL A   1      39.576  29.636  29.853  1.00  0.00     0.049 A 
ATOM     49  H   UNL A   1      39.735  30.467  31.755  1.00  0.00     0.167 HD
ATOM     50  C   UNL A   1      40.061  32.435  35.656  1.00  0.00     0.037 A 
ATOM     51  C   UNL A   1      40.562  28.725  29.739  1.00  0.00     0.037 A 
ATOM     52  C   UNL A   1      41.097  31.436  35.654  1.00  0.00     0.049 A 
ATOM     53  C   UNL A   1      41.487  28.493  30.903  1.00  0.00     0.074 A 
ATOM     54  C   UNL A   1      41.994  31.117  36.659  1.00  0.00     0.029 A 
ATOM     55  N   UNL A   1      41.370  30.589  34.590  1.00  0.00    -0.354 N 
ATOM     56  N   UNL A   1      41.512  29.086  32.072  1.00  0.00    -0.248 NA
ATOM     57  C   UNL A   1      42.513  27.453  30.736  1.00  0.00     0.031 C 
ATOM     58  C   UNL A   1      42.828  30.094  36.193  1.00  0.00     0.029 A 
ATOM     59  C   UNL A   1      42.424  29.749  34.913  1.00  0.00     0.049 A 
ATOM     60  H   UNL A   1      40.886  30.584  33.733  1.00  0.00     0.167 HD
ATOM     61  C   UNL A   1      42.529  28.472  32.790  1.00  0.00     0.074 A 
ATOM     62  C   UNL A   1      43.092  27.454  31.928  1.00  0.00     0.031 C 
ATOM     63  C   UNL A   1      42.957  28.727  34.050  1.00  0.00     0.037 A 
BRANCH  50  64
ATOM     64  C   UNL A   1      39.916  33.306  36.869  1.00  0.00     0.064 A 
ATOM     65  C   UNL A   1      38.994  33.006  37.884  1.00  0.00     0.173 A 
ATOM     66  C   UNL A   1      40.726  34.439  37.034  1.00  0.00     0.173 A 
ATOM     67  F   UNL A   1      38.186  31.941  37.768  1.00  0.00    -0.203 F 
ATOM     68  C   UNL A   1      38.869  33.824  39.003  1.00  0.00     0.198 A 
ATOM     69  C   UNL A   1      40.618  35.239  38.169  1.00  0.00     0.198 A 
ATOM     70  F   UNL A   1      41.628  34.768  36.097  1.00  0.00    -0.203 F 
ATOM     71  F   UNL A   1      37.947  33.544  39.935  1.00  0.00    -0.200 F 
ATOM     72  C   UNL A   1      39.684  34.936  39.148  1.00  0.00     0.200 A 
ATOM     73  F   UNL A   1      41.415  36.307  38.313  1.00  0.00    -0.200 F 
ATOM     74  F   UNL A   1      39.565  35.720  40.229  1.00  0.00    -0.200 F 
ENDBRANCH  50  64
BRANCH  51  75
ATOM     75  C   UNL A   1      40.700  27.938  28.489  1.00  0.00     0.064 A 
ATOM     76  C   UNL A   1      40.062  26.697  28.349  1.00  0.00     0.173 A 
ATOM     77  C   UNL A   1      41.466  28.404  27.412  1.00  0.00     0.173 A 
ATOM     78  F   UNL A   1      39.335  26.202  29.360  1.00  0.00    -0.203 F 
ATOM     79  C   UNL A   1      40.201  25.944  27.185  1.00  0.00     0.198 A 
ATOM     80  C   UNL A   1      41.584  27.662  26.238  1.00  0.00     0.198 A 
ATOM     81  F   UNL A   1      42.092  29.588  27.495  1.00  0.00    -0.203 F 
ATOM     82  F   UNL A   1      39.614  24.743  27.093  1.00  0.00    -0.200 F 
ATOM     83  C   UNL A   1      40.957  26.429  26.128  1.00  0.00     0.200 A 
ATOM     84  F   UNL A   1      42.306  28.139  25.215  1.00  0.00    -0.200 F 
ATOM     85  F   UNL A   1      41.088  25.707  25.007  1.00  0.00    -0.200 F 
ENDBRANCH  51  75
BRANCH  63  86
ATOM     86  C   UNL A   1      44.053  27.861  34.592  1.00  0.00     0.064 A 
ATOM     87  C   UNL A   1      45.398  28.254  34.537  1.00  0.00     0.173 A 
ATOM     88  C   UNL A   1      43.748  26.637  35.207  1.00  0.00     0.173 A 
ATOM     89  F   UNL A   1      45.741  29.408  33.946  1.00  0.00    -0.203 F 
ATOM     90  C   UNL A   1      46.401  27.441  35.058  1.00  0.00     0.198 A 
ATOM     91  C   UNL A   1      44.750  25.839  35.749  1.00  0.00     0.198 A 
ATOM     92  F   UNL A   1      42.475  26.221  35.289  1.00  0.00    -0.203 F 
ATOM     93  F   UNL A   1      47.684  27.814  34.957  1.00  0.00    -0.200 F 
ATOM     94  C   UNL A   1      46.076  26.237  35.669  1.00  0.00     0.200 A 
ATOM     95  F   UNL A   1      44.434  24.682  36.347  1.00  0.00    -0.200 F 
ATOM     96  F   UNL A   1      47.043  25.458  36.173  1.00  0.00    -0.200 F 
ENDBRANCH  63  86
ENDBRANCH  37  38
ENDBRANCH  29  32
ENDBRANCH  27  28
ENDBRANCH  26  27
ENDBRANCH  25  26
ENDBRANCH   3  25
TORSDOF 15
ENDMDL
