MODEL 1
REMARK VINA RESULT:     -12.0      0.000      0.000
REMARK SMILES COc1ccc(NC(=O)[C@H](CC(=O)NCCCNC(=O)c2ccc(-c3c4nc(c(-c5c(F)c(F)c(F)c(F)c5F)c5ccc([nH]5)c(-c5c(F)c(F)c(F)c(F)c5F)c5nc(c(-c6c(F)c(F)c(F)c(F)c6F)c6ccc3[nH]6)C=C5)C=C4)cc2)Cc2ccccc2)cc1
REMARK SMILES IDX 15 1 14 2 12 3 13 4 11 6 10 7 8 8 7 9 9 11 6 12 3 13 4 14
REMARK SMILES IDX 92 15 5 16 91 17 2 18 1 19 84 20 85 21 86 22 90 23 87 24
REMARK SMILES IDX 89 25 88 26 16 27 17 28 18 29 19 30 20 32 21 33 22 34 83 35
REMARK SMILES IDX 23 36 82 37 24 38 25 39 26 40 76 41 27 42 81 43 75 44 77 45
REMARK SMILES IDX 28 46 80 47 74 48 73 49 29 51 61 52 41 53 60 54 42 55 45 56
REMARK SMILES IDX 59 57 78 58 43 59 44 60 58 62 79 63 46 64 30 65 31 66 39 67
REMARK SMILES IDX 32 68 33 69 37 70 40 71 34 72 35 73 38 74 36 75 62 76 63 77
REMARK SMILES IDX 71 78 64 79 65 80 69 81 72 82 66 83 67 84 70 85 68 86 47 87
REMARK SMILES IDX 48 88 56 89 49 90 50 91 54 92 57 93 51 94 52 95 55 96 53 97
REMARK H PARENT 14 5 7 10 18 31 77 50 45 61
REMARK Flexibility Score: inf
ROOT
ATOM      1  C   UNL A   1      36.741  20.854  25.363  1.00  0.00     0.117 C 
ENDROOT
BRANCH   1   2
ATOM      2  N   UNL A   1      37.152  22.034  26.090  1.00  0.00    -0.356 N 
ATOM      3  C   UNL A   1      37.053  23.344  25.734  1.00  0.00     0.220 C 
ATOM      4  O   UNL A   1      37.448  24.197  26.529  1.00  0.00    -0.275 OA
ATOM      5  H   UNL A   1      37.562  21.867  26.969  1.00  0.00     0.163 HD
BRANCH   3   6
ATOM      6  C   UNL A   1      36.357  23.739  24.443  1.00  0.00     0.113 C 
BRANCH   6   7
ATOM      7  C   UNL A   1      34.956  24.372  24.486  1.00  0.00     0.092 C 
BRANCH   7   8
ATOM      8  C   UNL A   1      34.086  23.650  23.467  1.00  0.00     0.228 C 
ATOM      9  N   UNL A   1      33.207  24.272  22.638  1.00  0.00    -0.326 N 
ATOM     10  H   UNL A   1      32.807  23.661  21.978  1.00  0.00     0.169 HD
ATOM     11  O   UNL A   1      34.082  22.413  23.437  1.00  0.00    -0.274 OA
BRANCH   9  12
ATOM     12  C   UNL A   1      32.738  25.590  22.511  1.00  0.00     0.041 A 
ATOM     13  C   UNL A   1      31.571  28.143  22.683  1.00  0.00     0.119 A 
ATOM     14  C   UNL A   1      32.945  28.002  22.527  1.00  0.00     0.048 A 
ATOM     15  C   UNL A   1      30.763  27.013  22.622  1.00  0.00     0.048 A 
ATOM     16  C   UNL A   1      33.521  26.734  22.410  1.00  0.00     0.030 A 
ATOM     17  C   UNL A   1      31.345  25.744  22.534  1.00  0.00     0.030 A 
BRANCH  13  18
ATOM     18  O   UNL A   1      31.126  29.423  22.855  1.00  0.00    -0.497 OA
ATOM     19  C   UNL A   1      29.746  29.539  23.184  1.00  0.00     0.278 C 
ENDBRANCH  13  18
ENDBRANCH   9  12
ENDBRANCH   7   8
BRANCH   7  20
ATOM     20  C   UNL A   1      34.138  24.467  25.788  1.00  0.00     0.049 C 
BRANCH  20  21
ATOM     21  C   UNL A   1      33.230  25.657  26.061  1.00  0.00    -0.047 A 
ATOM     22  C   UNL A   1      31.838  25.585  26.178  1.00  0.00     0.004 A 
ATOM     23  C   UNL A   1      33.815  26.936  26.106  1.00  0.00     0.004 A 
ATOM     24  C   UNL A   1      31.052  26.738  26.269  1.00  0.00     0.000 A 
ATOM     25  C   UNL A   1      33.034  28.090  26.234  1.00  0.00     0.000 A 
ATOM     26  C   UNL A   1      31.649  27.992  26.295  1.00  0.00     0.000 A 
ENDBRANCH  20  21
ENDBRANCH   7  20
ENDBRANCH   6   7
ENDBRANCH   3   6
ENDBRANCH   1   2
BRANCH   1  27
ATOM     27  C   UNL A   1      37.936  19.978  25.027  1.00  0.00     0.042 C 
BRANCH  27  28
ATOM     28  C   UNL A   1      39.179  20.367  25.795  1.00  0.00     0.118 C 
BRANCH  28  29
ATOM     29  N   UNL A   1      40.153  19.285  25.856  1.00  0.00    -0.352 N 
ATOM     30  C   UNL A   1      41.505  19.345  26.098  1.00  0.00     0.251 C 
ATOM     31  H   UNL A   1      39.792  18.382  25.703  1.00  0.00     0.163 HD
ATOM     32  O   UNL A   1      42.203  18.346  25.953  1.00  0.00    -0.269 OA
BRANCH  30  33
ATOM     33  C   UNL A   1      42.124  20.628  26.500  1.00  0.00     0.039 A 
ATOM     34  C   UNL A   1      42.545  21.524  25.514  1.00  0.00     0.014 A 
ATOM     35  C   UNL A   1      42.259  20.961  27.848  1.00  0.00     0.014 A 
ATOM     36  C   UNL A   1      43.035  22.780  25.882  1.00  0.00     0.010 A 
ATOM     37  C   UNL A   1      42.623  22.251  28.206  1.00  0.00     0.010 A 
ATOM     38  C   UNL A   1      43.038  23.168  27.231  1.00  0.00    -0.014 A 
BRANCH  38  39
ATOM     39  C   UNL A   1      43.518  24.502  27.675  1.00  0.00     0.031 A 
ATOM     40  C   UNL A   1      42.511  25.553  28.057  1.00  0.00     0.074 A 
ATOM     41  C   UNL A   1      44.830  24.801  27.634  1.00  0.00     0.049 A 
ATOM     42  N   UNL A   1      42.686  26.827  28.296  1.00  0.00    -0.248 NA
ATOM     43  C   UNL A   1      41.105  25.120  28.128  1.00  0.00     0.031 C 
ATOM     44  C   UNL A   1      45.899  23.887  27.231  1.00  0.00     0.029 A 
ATOM     45  N   UNL A   1      45.485  25.974  27.916  1.00  0.00    -0.354 N 
ATOM     46  C   UNL A   1      41.414  27.350  28.496  1.00  0.00     0.074 A 
ATOM     47  C   UNL A   1      40.474  26.273  28.290  1.00  0.00     0.031 C 
ATOM     48  C   UNL A   1      47.078  24.525  27.314  1.00  0.00     0.029 A 
ATOM     49  C   UNL A   1      46.844  25.904  27.730  1.00  0.00     0.049 A 
ATOM     50  H   UNL A   1      45.024  26.788  28.223  1.00  0.00     0.167 HD
ATOM     51  C   UNL A   1      41.064  28.610  28.848  1.00  0.00     0.037 A 
ATOM     52  C   UNL A   1      47.790  26.852  27.869  1.00  0.00     0.037 A 
ATOM     53  C   UNL A   1      42.010  29.660  29.111  1.00  0.00     0.049 A 
ATOM     54  C   UNL A   1      47.382  28.236  28.297  1.00  0.00     0.074 A 
ATOM     55  C   UNL A   1      41.771  30.948  29.551  1.00  0.00     0.029 A 
ATOM     56  N   UNL A   1      43.385  29.532  28.968  1.00  0.00    -0.354 N 
ATOM     57  N   UNL A   1      46.182  28.707  28.539  1.00  0.00    -0.248 NA
ATOM     58  C   UNL A   1      48.459  29.219  28.477  1.00  0.00     0.031 C 
ATOM     59  C   UNL A   1      42.997  31.614  29.636  1.00  0.00     0.029 A 
ATOM     60  C   UNL A   1      44.005  30.725  29.299  1.00  0.00     0.049 A 
ATOM     61  H   UNL A   1      43.849  28.716  28.673  1.00  0.00     0.167 HD
ATOM     62  C   UNL A   1      46.361  30.026  28.930  1.00  0.00     0.074 A 
ATOM     63  C   UNL A   1      47.786  30.280  28.901  1.00  0.00     0.031 C 
ATOM     64  C   UNL A   1      45.429  30.947  29.281  1.00  0.00     0.037 A 
BRANCH  51  65
ATOM     65  C   UNL A   1      39.598  28.910  28.978  1.00  0.00     0.064 A 
ATOM     66  C   UNL A   1      38.925  28.795  30.205  1.00  0.00     0.173 A 
ATOM     67  C   UNL A   1      38.856  29.328  27.863  1.00  0.00     0.173 A 
ATOM     68  F   UNL A   1      39.583  28.386  31.300  1.00  0.00    -0.203 F 
ATOM     69  C   UNL A   1      37.559  29.046  30.301  1.00  0.00     0.198 A 
ATOM     70  C   UNL A   1      37.497  29.614  27.970  1.00  0.00     0.198 A 
ATOM     71  F   UNL A   1      39.449  29.461  26.666  1.00  0.00    -0.203 F 
ATOM     72  F   UNL A   1      36.927  28.865  31.469  1.00  0.00    -0.200 F 
ATOM     73  C   UNL A   1      36.848  29.461  29.186  1.00  0.00     0.200 A 
ATOM     74  F   UNL A   1      36.814  30.028  26.895  1.00  0.00    -0.200 F 
ATOM     75  F   UNL A   1      35.533  29.705  29.280  1.00  0.00    -0.200 F 
ENDBRANCH  51  65
BRANCH  52  76
ATOM     76  C   UNL A   1      49.219  26.514  27.636  1.00  0.00     0.064 A 
ATOM     77  C   UNL A   1      50.090  26.299  28.713  1.00  0.00     0.173 A 
ATOM     78  C   UNL A   1      49.742  26.390  26.340  1.00  0.00     0.173 A 
ATOM     79  F   UNL A   1      49.641  26.425  29.971  1.00  0.00    -0.203 F 
ATOM     80  C   UNL A   1      51.432  25.991  28.505  1.00  0.00     0.198 A 
ATOM     81  C   UNL A   1      51.079  26.054  26.133  1.00  0.00     0.198 A 
ATOM     82  F   UNL A   1      48.950  26.579  25.275  1.00  0.00    -0.203 F 
ATOM     83  F   UNL A   1      52.251  25.831  29.555  1.00  0.00    -0.200 F 
ATOM     84  C   UNL A   1      51.925  25.862  27.216  1.00  0.00     0.200 A 
ATOM     85  F   UNL A   1      51.547  25.916  24.886  1.00  0.00    -0.200 F 
ATOM     86  F   UNL A   1      53.214  25.559  27.016  1.00  0.00    -0.200 F 
ENDBRANCH  52  76
BRANCH  64  87
ATOM     87  C   UNL A   1      45.921  32.297  29.713  1.00  0.00     0.064 A 
ATOM     88  C   UNL A   1      46.064  33.355  28.805  1.00  0.00     0.173 A 
ATOM     89  C   UNL A   1      46.197  32.546  31.066  1.00  0.00     0.173 A 
ATOM     90  F   UNL A   1      45.825  33.161  27.499  1.00  0.00    -0.203 F 
ATOM     91  C   UNL A   1      46.486  34.610  29.234  1.00  0.00     0.198 A 
ATOM     92  C   UNL A   1      46.590  33.811  31.495  1.00  0.00     0.198 A 
ATOM     93  F   UNL A   1      46.068  31.567  31.975  1.00  0.00    -0.203 F 
ATOM     94  F   UNL A   1      46.657  35.597  28.343  1.00  0.00    -0.200 F 
ATOM     95  C   UNL A   1      46.740  34.840  30.578  1.00  0.00     0.200 A 
ATOM     96  F   UNL A   1      46.820  34.034  32.796  1.00  0.00    -0.200 F 
ATOM     97  F   UNL A   1      47.135  36.052  30.989  1.00  0.00    -0.200 F 
ENDBRANCH  64  87
ENDBRANCH  38  39
ENDBRANCH  30  33
ENDBRANCH  28  29
ENDBRANCH  27  28
ENDBRANCH   1  27
TORSDOF 16
ENDMDL
MODEL 2
REMARK VINA RESULT:     -11.9      0.889      2.149
REMARK SMILES COc1ccc(NC(=O)[C@H](CC(=O)NCCCNC(=O)c2ccc(-c3c4nc(c(-c5c(F)c(F)c(F)c(F)c5F)c5ccc([nH]5)c(-c5c(F)c(F)c(F)c(F)c5F)c5nc(c(-c6c(F)c(F)c(F)c(F)c6F)c6ccc3[nH]6)C=C5)C=C4)cc2)Cc2ccccc2)cc1
REMARK SMILES IDX 15 1 14 2 12 3 13 4 11 6 10 7 8 8 7 9 9 11 6 12 3 13 4 14
REMARK SMILES IDX 92 15 5 16 91 17 2 18 1 19 84 20 85 21 86 22 90 23 87 24
REMARK SMILES IDX 89 25 88 26 16 27 17 28 18 29 19 30 20 32 21 33 22 34 83 35
REMARK SMILES IDX 23 36 82 37 24 38 25 39 26 40 76 41 27 42 81 43 75 44 77 45
REMARK SMILES IDX 28 46 80 47 74 48 73 49 29 51 61 52 41 53 60 54 42 55 45 56
REMARK SMILES IDX 59 57 78 58 43 59 44 60 58 62 79 63 46 64 30 65 31 66 39 67
REMARK SMILES IDX 32 68 33 69 37 70 40 71 34 72 35 73 38 74 36 75 62 76 63 77
REMARK SMILES IDX 71 78 64 79 65 80 69 81 72 82 66 83 67 84 70 85 68 86 47 87
REMARK SMILES IDX 48 88 56 89 49 90 50 91 54 92 57 93 51 94 52 95 55 96 53 97
REMARK H PARENT 14 5 7 10 18 31 77 50 45 61
REMARK Flexibility Score: inf
ROOT
ATOM      1  C   UNL A   1      36.893  20.774  25.172  1.00  0.00     0.117 C 
ENDROOT
BRANCH   1   2
ATOM      2  N   UNL A   1      37.291  21.941  25.928  1.00  0.00    -0.356 N 
ATOM      3  C   UNL A   1      37.154  23.258  25.615  1.00  0.00     0.220 C 
ATOM      4  O   UNL A   1      37.546  24.096  26.429  1.00  0.00    -0.275 OA
ATOM      5  H   UNL A   1      37.723  21.756  26.792  1.00  0.00     0.163 HD
BRANCH   3   6
ATOM      6  C   UNL A   1      36.423  23.676  24.352  1.00  0.00     0.113 C 
BRANCH   6   7
ATOM      7  C   UNL A   1      34.993  24.236  24.439  1.00  0.00     0.092 C 
BRANCH   7   8
ATOM      8  C   UNL A   1      34.149  23.528  23.390  1.00  0.00     0.228 C 
ATOM      9  N   UNL A   1      33.260  24.155  22.575  1.00  0.00    -0.326 N 
ATOM     10  H   UNL A   1      32.881  23.556  21.891  1.00  0.00     0.169 HD
ATOM     11  O   UNL A   1      34.177  22.292  23.318  1.00  0.00    -0.274 OA
BRANCH   9  12
ATOM     12  C   UNL A   1      32.759  25.463  22.488  1.00  0.00     0.041 A 
ATOM     13  C   UNL A   1      31.553  27.991  22.751  1.00  0.00     0.119 A 
ATOM     14  C   UNL A   1      32.919  27.880  22.519  1.00  0.00     0.048 A 
ATOM     15  C   UNL A   1      30.766  26.845  22.721  1.00  0.00     0.048 A 
ATOM     16  C   UNL A   1      33.513  26.625  22.357  1.00  0.00     0.030 A 
ATOM     17  C   UNL A   1      31.367  25.589  22.587  1.00  0.00     0.030 A 
BRANCH  13  18
ATOM     18  O   UNL A   1      31.093  29.260  22.960  1.00  0.00    -0.497 OA
ATOM     19  C   UNL A   1      30.116  29.705  22.025  1.00  0.00     0.278 C 
ENDBRANCH  13  18
ENDBRANCH   9  12
ENDBRANCH   7   8
BRANCH   7  20
ATOM     20  C   UNL A   1      34.184  24.221  25.751  1.00  0.00     0.049 C 
BRANCH  20  21
ATOM     21  C   UNL A   1      33.184  25.323  26.070  1.00  0.00    -0.047 A 
ATOM     22  C   UNL A   1      31.811  25.123  26.247  1.00  0.00     0.004 A 
ATOM     23  C   UNL A   1      33.651  26.650  26.098  1.00  0.00     0.004 A 
ATOM     24  C   UNL A   1      30.928  26.199  26.379  1.00  0.00     0.000 A 
ATOM     25  C   UNL A   1      32.774  27.727  26.268  1.00  0.00     0.000 A 
ATOM     26  C   UNL A   1      31.408  27.502  26.387  1.00  0.00     0.000 A 
ENDBRANCH  20  21
ENDBRANCH   7  20
ENDBRANCH   6   7
ENDBRANCH   3   6
ENDBRANCH   1   2
BRANCH   1  27
ATOM     27  C   UNL A   1      38.057  19.814  25.000  1.00  0.00     0.042 C 
BRANCH  27  28
ATOM     28  C   UNL A   1      39.281  20.234  25.782  1.00  0.00     0.118 C 
BRANCH  28  29
ATOM     29  N   UNL A   1      40.253  19.157  25.912  1.00  0.00    -0.352 N 
ATOM     30  C   UNL A   1      41.610  19.230  26.123  1.00  0.00     0.251 C 
ATOM     31  H   UNL A   1      39.886  18.246  25.838  1.00  0.00     0.163 HD
ATOM     32  O   UNL A   1      42.301  18.219  26.045  1.00  0.00    -0.269 OA
BRANCH  30  33
ATOM     33  C   UNL A   1      42.239  20.538  26.409  1.00  0.00     0.039 A 
ATOM     34  C   UNL A   1      42.744  21.300  25.353  1.00  0.00     0.014 A 
ATOM     35  C   UNL A   1      42.304  21.026  27.715  1.00  0.00     0.014 A 
ATOM     36  C   UNL A   1      43.247  22.580  25.601  1.00  0.00     0.010 A 
ATOM     37  C   UNL A   1      42.682  22.341  27.941  1.00  0.00     0.010 A 
ATOM     38  C   UNL A   1      43.181  23.126  26.892  1.00  0.00    -0.014 A 
BRANCH  38  39
ATOM     39  C   UNL A   1      43.671  24.493  27.206  1.00  0.00     0.031 A 
ATOM     40  C   UNL A   1      42.704  25.513  27.745  1.00  0.00     0.074 A 
ATOM     41  C   UNL A   1      44.937  24.846  26.912  1.00  0.00     0.049 A 
ATOM     42  N   UNL A   1      42.861  26.801  27.915  1.00  0.00    -0.248 NA
ATOM     43  C   UNL A   1      41.358  25.024  28.088  1.00  0.00     0.031 C 
ATOM     44  C   UNL A   1      45.954  23.965  26.338  1.00  0.00     0.029 A 
ATOM     45  N   UNL A   1      45.577  26.054  27.038  1.00  0.00    -0.354 N 
ATOM     46  C   UNL A   1      41.625  27.276  28.337  1.00  0.00     0.074 A 
ATOM     47  C   UNL A   1      40.715  26.154  28.337  1.00  0.00     0.031 C 
ATOM     48  C   UNL A   1      47.097  24.654  26.183  1.00  0.00     0.029 A 
ATOM     49  C   UNL A   1      46.879  26.034  26.601  1.00  0.00     0.049 A 
ATOM     50  H   UNL A   1      45.144  26.857  27.405  1.00  0.00     0.167 HD
ATOM     51  C   UNL A   1      41.287  28.531  28.717  1.00  0.00     0.037 A 
ATOM     52  C   UNL A   1      47.789  27.025  26.537  1.00  0.00     0.037 A 
ATOM     53  C   UNL A   1      42.216  29.628  28.772  1.00  0.00     0.049 A 
ATOM     54  C   UNL A   1      47.402  28.404  27.000  1.00  0.00     0.074 A 
ATOM     55  C   UNL A   1      42.001  30.918  29.217  1.00  0.00     0.029 A 
ATOM     56  N   UNL A   1      43.544  29.553  28.377  1.00  0.00    -0.354 N 
ATOM     57  N   UNL A   1      46.248  28.832  27.451  1.00  0.00    -0.248 NA
ATOM     58  C   UNL A   1      48.446  29.437  26.950  1.00  0.00     0.031 C 
ATOM     59  C   UNL A   1      43.189  31.638  29.055  1.00  0.00     0.029 A 
ATOM     60  C   UNL A   1      44.158  30.781  28.556  1.00  0.00     0.049 A 
ATOM     61  H   UNL A   1      43.983  28.748  28.020  1.00  0.00     0.167 HD
ATOM     62  C   UNL A   1      46.433  30.170  27.769  1.00  0.00     0.074 A 
ATOM     63  C   UNL A   1      47.815  30.483  27.467  1.00  0.00     0.031 C 
ATOM     64  C   UNL A   1      45.541  31.062  28.267  1.00  0.00     0.037 A 
BRANCH  51  65
ATOM     65  C   UNL A   1      39.859  28.774  29.113  1.00  0.00     0.064 A 
ATOM     66  C   UNL A   1      38.891  29.175  28.179  1.00  0.00     0.173 A 
ATOM     67  C   UNL A   1      39.449  28.595  30.443  1.00  0.00     0.173 A 
ATOM     68  F   UNL A   1      39.231  29.374  26.897  1.00  0.00    -0.203 F 
ATOM     69  C   UNL A   1      37.578  29.428  28.569  1.00  0.00     0.198 A 
ATOM     70  C   UNL A   1      38.127  28.814  30.823  1.00  0.00     0.198 A 
ATOM     71  F   UNL A   1      40.332  28.207  31.377  1.00  0.00    -0.203 F 
ATOM     72  F   UNL A   1      36.689  29.874  27.671  1.00  0.00    -0.200 F 
ATOM     73  C   UNL A   1      37.196  29.241  29.889  1.00  0.00     0.200 A 
ATOM     74  F   UNL A   1      37.757  28.619  32.095  1.00  0.00    -0.200 F 
ATOM     75  F   UNL A   1      35.932  29.482  30.262  1.00  0.00    -0.200 F 
ENDBRANCH  51  65
BRANCH  52  76
ATOM     76  C   UNL A   1      49.163  26.740  26.048  1.00  0.00     0.064 A 
ATOM     77  C   UNL A   1      49.511  26.972  24.710  1.00  0.00     0.173 A 
ATOM     78  C   UNL A   1      50.157  26.240  26.903  1.00  0.00     0.173 A 
ATOM     79  F   UNL A   1      48.589  27.432  23.850  1.00  0.00    -0.203 F 
ATOM     80  C   UNL A   1      50.794  26.700  24.240  1.00  0.00     0.198 A 
ATOM     81  C   UNL A   1      51.448  25.994  26.437  1.00  0.00     0.198 A 
ATOM     82  F   UNL A   1      49.879  26.006  28.193  1.00  0.00    -0.203 F 
ATOM     83  F   UNL A   1      51.086  26.893  22.946  1.00  0.00    -0.200 F 
ATOM     84  C   UNL A   1      51.763  26.217  25.105  1.00  0.00     0.200 A 
ATOM     85  F   UNL A   1      52.386  25.541  27.280  1.00  0.00    -0.200 F 
ATOM     86  F   UNL A   1      52.998  25.961  24.655  1.00  0.00    -0.200 F 
ENDBRANCH  52  76
BRANCH  64  87
ATOM     87  C   UNL A   1      46.041  32.445  28.565  1.00  0.00     0.064 A 
ATOM     88  C   UNL A   1      46.615  32.771  29.802  1.00  0.00     0.173 A 
ATOM     89  C   UNL A   1      45.996  33.439  27.576  1.00  0.00     0.173 A 
ATOM     90  F   UNL A   1      46.668  31.857  30.784  1.00  0.00    -0.203 F 
ATOM     91  C   UNL A   1      47.108  34.049  30.044  1.00  0.00     0.198 A 
ATOM     92  C   UNL A   1      46.517  34.708  27.813  1.00  0.00     0.198 A 
ATOM     93  F   UNL A   1      45.463  33.174  26.373  1.00  0.00    -0.203 F 
ATOM     94  F   UNL A   1      47.614  34.352  31.248  1.00  0.00    -0.200 F 
ATOM     95  C   UNL A   1      47.066  35.014  29.049  1.00  0.00     0.200 A 
ATOM     96  F   UNL A   1      46.489  35.633  26.844  1.00  0.00    -0.200 F 
ATOM     97  F   UNL A   1      47.551  36.241  29.282  1.00  0.00    -0.200 F 
ENDBRANCH  64  87
ENDBRANCH  38  39
ENDBRANCH  30  33
ENDBRANCH  28  29
ENDBRANCH  27  28
ENDBRANCH   1  27
TORSDOF 16
ENDMDL
MODEL 3
REMARK VINA RESULT:     -11.9      5.452     10.651
REMARK SMILES COc1ccc(NC(=O)[C@H](CC(=O)NCCCNC(=O)c2ccc(-c3c4nc(c(-c5c(F)c(F)c(F)c(F)c5F)c5ccc([nH]5)c(-c5c(F)c(F)c(F)c(F)c5F)c5nc(c(-c6c(F)c(F)c(F)c(F)c6F)c6ccc3[nH]6)C=C5)C=C4)cc2)Cc2ccccc2)cc1
REMARK SMILES IDX 15 1 14 2 12 3 13 4 11 6 10 7 8 8 7 9 9 11 6 12 3 13 4 14
REMARK SMILES IDX 92 15 5 16 91 17 2 18 1 19 84 20 85 21 86 22 90 23 87 24
REMARK SMILES IDX 89 25 88 26 16 27 17 28 18 29 19 30 20 32 21 33 22 34 83 35
REMARK SMILES IDX 23 36 82 37 24 38 25 39 26 40 76 41 27 42 81 43 75 44 77 45
REMARK SMILES IDX 28 46 80 47 74 48 73 49 29 51 61 52 41 53 60 54 42 55 45 56
REMARK SMILES IDX 59 57 78 58 43 59 44 60 58 62 79 63 46 64 30 65 31 66 39 67
REMARK SMILES IDX 32 68 33 69 37 70 40 71 34 72 35 73 38 74 36 75 62 76 63 77
REMARK SMILES IDX 71 78 64 79 65 80 69 81 72 82 66 83 67 84 70 85 68 86 47 87
REMARK SMILES IDX 48 88 56 89 49 90 50 91 54 92 57 93 51 94 52 95 55 96 53 97
REMARK H PARENT 14 5 7 10 18 31 77 50 45 61
REMARK Flexibility Score: inf
ROOT
ATOM      1  C   UNL A   1      31.834  30.740  26.169  1.00  0.00     0.117 C 
ENDROOT
BRANCH   1   2
ATOM      2  N   UNL A   1      33.180  30.326  26.498  1.00  0.00    -0.356 N 
ATOM      3  C   UNL A   1      33.622  29.130  26.975  1.00  0.00     0.220 C 
ATOM      4  O   UNL A   1      34.831  28.986  27.162  1.00  0.00    -0.275 OA
ATOM      5  H   UNL A   1      33.877  31.006  26.357  1.00  0.00     0.163 HD
BRANCH   3   6
ATOM      6  C   UNL A   1      32.659  27.969  27.149  1.00  0.00     0.113 C 
BRANCH   6   7
ATOM      7  C   UNL A   1      32.740  26.754  26.211  1.00  0.00     0.092 C 
BRANCH   7   8
ATOM      8  C   UNL A   1      31.318  26.343  25.853  1.00  0.00     0.228 C 
ATOM      9  N   UNL A   1      30.865  25.062  25.880  1.00  0.00    -0.326 N 
ATOM     10  H   UNL A   1      29.896  24.997  25.719  1.00  0.00     0.169 HD
ATOM     11  O   UNL A   1      30.532  27.192  25.411  1.00  0.00    -0.274 OA
BRANCH   9  12
ATOM     12  C   UNL A   1      31.466  23.810  26.085  1.00  0.00     0.041 A 
ATOM     13  C   UNL A   1      32.862  21.369  26.047  1.00  0.00     0.119 A 
ATOM     14  C   UNL A   1      33.047  22.273  27.086  1.00  0.00     0.048 A 
ATOM     15  C   UNL A   1      31.883  21.624  25.094  1.00  0.00     0.048 A 
ATOM     16  C   UNL A   1      32.330  23.472  27.121  1.00  0.00     0.030 A 
ATOM     17  C   UNL A   1      31.187  22.837  25.115  1.00  0.00     0.030 A 
BRANCH  13  18
ATOM     18  O   UNL A   1      33.664  20.263  26.080  1.00  0.00    -0.497 OA
ATOM     19  C   UNL A   1      34.041  19.757  24.804  1.00  0.00     0.278 C 
ENDBRANCH  13  18
ENDBRANCH   9  12
ENDBRANCH   7   8
BRANCH   7  20
ATOM     20  C   UNL A   1      33.542  26.784  24.895  1.00  0.00     0.049 C 
BRANCH  20  21
ATOM     21  C   UNL A   1      34.017  25.499  24.234  1.00  0.00    -0.047 A 
ATOM     22  C   UNL A   1      33.492  24.975  23.048  1.00  0.00     0.004 A 
ATOM     23  C   UNL A   1      34.986  24.731  24.905  1.00  0.00     0.004 A 
ATOM     24  C   UNL A   1      33.863  23.710  22.582  1.00  0.00     0.000 A 
ATOM     25  C   UNL A   1      35.387  23.481  24.421  1.00  0.00     0.000 A 
ATOM     26  C   UNL A   1      34.809  22.960  23.269  1.00  0.00     0.000 A 
ENDBRANCH  20  21
ENDBRANCH   7  20
ENDBRANCH   6   7
ENDBRANCH   3   6
ENDBRANCH   1   2
BRANCH   1  27
ATOM     27  C   UNL A   1      31.483  32.048  26.858  1.00  0.00     0.042 C 
BRANCH  27  28
ATOM     28  C   UNL A   1      32.704  32.807  27.325  1.00  0.00     0.118 C 
BRANCH  28  29
ATOM     29  N   UNL A   1      32.403  34.196  27.647  1.00  0.00    -0.352 N 
ATOM     30  C   UNL A   1      32.960  35.007  28.607  1.00  0.00     0.251 C 
ATOM     31  H   UNL A   1      31.701  34.613  27.098  1.00  0.00     0.163 HD
ATOM     32  O   UNL A   1      32.470  36.107  28.846  1.00  0.00    -0.269 OA
BRANCH  30  33
ATOM     33  C   UNL A   1      34.132  34.535  29.378  1.00  0.00     0.039 A 
ATOM     34  C   UNL A   1      33.939  33.973  30.642  1.00  0.00     0.014 A 
ATOM     35  C   UNL A   1      35.417  34.618  28.841  1.00  0.00     0.014 A 
ATOM     36  C   UNL A   1      35.026  33.431  31.334  1.00  0.00     0.010 A 
ATOM     37  C   UNL A   1      36.469  33.967  29.468  1.00  0.00     0.010 A 
ATOM     38  C   UNL A   1      36.293  33.387  30.732  1.00  0.00    -0.014 A 
BRANCH  38  39
ATOM     39  C   UNL A   1      37.476  32.795  31.408  1.00  0.00     0.031 A 
ATOM     40  C   UNL A   1      38.205  31.656  30.745  1.00  0.00     0.074 A 
ATOM     41  C   UNL A   1      37.826  33.198  32.643  1.00  0.00     0.049 A 
ATOM     42  N   UNL A   1      39.137  30.873  31.224  1.00  0.00    -0.248 NA
ATOM     43  C   UNL A   1      37.789  31.320  29.373  1.00  0.00     0.031 C 
ATOM     44  C   UNL A   1      37.167  34.254  33.413  1.00  0.00     0.029 A 
ATOM     45  N   UNL A   1      38.817  32.748  33.480  1.00  0.00    -0.354 N 
ATOM     46  C   UNL A   1      39.379  29.930  30.233  1.00  0.00     0.074 A 
ATOM     47  C   UNL A   1      38.457  30.199  29.154  1.00  0.00     0.031 C 
ATOM     48  C   UNL A   1      37.785  34.386  34.598  1.00  0.00     0.029 A 
ATOM     49  C   UNL A   1      38.851  33.395  34.691  1.00  0.00     0.049 A 
ATOM     50  H   UNL A   1      39.443  32.028  33.236  1.00  0.00     0.167 HD
ATOM     51  C   UNL A   1      40.309  28.945  30.213  1.00  0.00     0.037 A 
ATOM     52  C   UNL A   1      39.648  33.199  35.759  1.00  0.00     0.037 A 
ATOM     53  C   UNL A   1      41.263  28.724  31.265  1.00  0.00     0.049 A 
ATOM     54  C   UNL A   1      40.698  32.123  35.700  1.00  0.00     0.074 A 
ATOM     55  C   UNL A   1      42.298  27.808  31.314  1.00  0.00     0.029 A 
ATOM     56  N   UNL A   1      41.303  29.440  32.453  1.00  0.00    -0.354 N 
ATOM     57  N   UNL A   1      40.959  31.272  34.736  1.00  0.00    -0.248 NA
ATOM     58  C   UNL A   1      41.570  31.982  36.875  1.00  0.00     0.031 C 
ATOM     59  C   UNL A   1      42.941  27.943  32.548  1.00  0.00     0.029 A 
ATOM     60  C   UNL A   1      42.339  28.978  33.247  1.00  0.00     0.049 A 
ATOM     61  H   UNL A   1      40.686  30.168  32.695  1.00  0.00     0.167 HD
ATOM     62  C   UNL A   1      42.040  30.520  35.172  1.00  0.00     0.074 A 
ATOM     63  C   UNL A   1      42.394  31.019  36.484  1.00  0.00     0.031 C 
ATOM     64  C   UNL A   1      42.684  29.505  34.543  1.00  0.00     0.037 A 
BRANCH  51  65
ATOM     65  C   UNL A   1      40.339  28.045  29.010  1.00  0.00     0.064 A 
ATOM     66  C   UNL A   1      41.077  28.372  27.861  1.00  0.00     0.173 A 
ATOM     67  C   UNL A   1      39.628  26.836  29.008  1.00  0.00     0.173 A 
ATOM     68  F   UNL A   1      41.764  29.522  27.804  1.00  0.00    -0.203 F 
ATOM     69  C   UNL A   1      41.067  27.543  26.743  1.00  0.00     0.198 A 
ATOM     70  C   UNL A   1      39.650  25.991  27.902  1.00  0.00     0.198 A 
ATOM     71  F   UNL A   1      38.910  26.471  30.083  1.00  0.00    -0.203 F 
ATOM     72  F   UNL A   1      41.726  27.908  25.634  1.00  0.00    -0.200 F 
ATOM     73  C   UNL A   1      40.360  26.350  26.766  1.00  0.00     0.200 A 
ATOM     74  F   UNL A   1      38.977  24.833  27.931  1.00  0.00    -0.200 F 
ATOM     75  F   UNL A   1      40.354  25.552  25.690  1.00  0.00    -0.200 F 
ENDBRANCH  51  65
BRANCH  52  76
ATOM     76  C   UNL A   1      39.507  34.065  36.958  1.00  0.00     0.064 A 
ATOM     77  C   UNL A   1      38.807  33.617  38.087  1.00  0.00     0.173 A 
ATOM     78  C   UNL A   1      40.071  35.349  37.008  1.00  0.00     0.173 A 
ATOM     79  F   UNL A   1      38.233  32.404  38.081  1.00  0.00    -0.203 F 
ATOM     80  C   UNL A   1      38.661  34.425  39.214  1.00  0.00     0.198 A 
ATOM     81  C   UNL A   1      39.948  36.145  38.146  1.00  0.00     0.198 A 
ATOM     82  F   UNL A   1      40.756  35.823  35.958  1.00  0.00    -0.203 F 
ATOM     83  F   UNL A   1      37.952  33.985  40.263  1.00  0.00    -0.200 F 
ATOM     84  C   UNL A   1      39.237  35.685  39.245  1.00  0.00     0.200 A 
ATOM     85  F   UNL A   1      40.519  37.356  38.178  1.00  0.00    -0.200 F 
ATOM     86  F   UNL A   1      39.103  36.459  40.329  1.00  0.00    -0.200 F 
ENDBRANCH  52  76
BRANCH  64  87
ATOM     87  C   UNL A   1      43.867  28.902  35.240  1.00  0.00     0.064 A 
ATOM     88  C   UNL A   1      45.170  29.372  35.023  1.00  0.00     0.173 A 
ATOM     89  C   UNL A   1      43.684  27.878  36.181  1.00  0.00     0.173 A 
ATOM     90  F   UNL A   1      45.397  30.341  34.121  1.00  0.00    -0.203 F 
ATOM     91  C   UNL A   1      46.250  28.824  35.708  1.00  0.00     0.198 A 
ATOM     92  C   UNL A   1      44.763  27.353  36.887  1.00  0.00     0.198 A 
ATOM     93  F   UNL A   1      42.455  27.399  36.430  1.00  0.00    -0.203 F 
ATOM     94  F   UNL A   1      47.492  29.259  35.455  1.00  0.00    -0.200 F 
ATOM     95  C   UNL A   1      46.045  27.822  36.645  1.00  0.00     0.200 A 
ATOM     96  F   UNL A   1      44.561  26.396  37.802  1.00  0.00    -0.200 F 
ATOM     97  F   UNL A   1      47.086  27.304  37.312  1.00  0.00    -0.200 F 
ENDBRANCH  64  87
ENDBRANCH  38  39
ENDBRANCH  30  33
ENDBRANCH  28  29
ENDBRANCH  27  28
ENDBRANCH   1  27
TORSDOF 16
ENDMDL
