MODEL 1
REMARK VINA RESULT:     -11.9      0.000      0.000
REMARK SMILES CC(C)[NH2+][C@@]1(C(=O)NCCCNC(=O)c2ccc(-c3c4nc(c(-c5c(F)c(F)c(F)c(F)c5F)c5ccc([nH]5)c(-c5c(F)c(F)c(F)c(F)c5F)c5nc(c(-c6c(F)c(F)c(F)c(F)c6F)c6ccc3[nH]6)C=C5)C=C4)cc2)CCC[C@H](SC2CCCCC2)C1
REMARK SMILES IDX 10 1 9 2 8 3 6 4 7 5 5 7 78 8 89 9 79 10 81 11 80 12 4 13
REMARK SMILES IDX 2 16 1 17 3 18 82 19 83 20 84 21 88 22 85 23 87 24 86 25
REMARK SMILES IDX 11 26 12 27 13 28 14 30 15 31 16 32 77 33 17 34 76 35 18 36
REMARK SMILES IDX 19 37 20 38 70 39 21 40 75 41 69 42 71 43 22 44 74 45 68 46
REMARK SMILES IDX 67 47 23 49 55 50 35 51 54 52 36 53 39 54 53 55 72 56 37 57
REMARK SMILES IDX 38 58 52 60 73 61 40 62 24 63 25 64 33 65 26 66 27 67 31 68
REMARK SMILES IDX 34 69 28 70 29 71 32 72 30 73 56 74 57 75 65 76 58 77 59 78
REMARK SMILES IDX 63 79 66 80 60 81 61 82 64 83 62 84 41 85 42 86 50 87 43 88
REMARK SMILES IDX 44 89 48 90 51 91 45 92 46 93 49 94 47 95
REMARK H PARENT 8 6 4 14 4 15 12 29 71 48 39 59
REMARK Flexibility Score: inf
ROOT
ATOM      1  C   UNL A   1      37.690  19.428  25.012  1.00  0.00     0.042 C 
ENDROOT
BRANCH   1   2
ATOM      2  C   UNL A   1      36.470  20.277  24.756  1.00  0.00     0.118 C 
BRANCH   2   3
ATOM      3  N   UNL A   1      36.802  21.629  24.371  1.00  0.00    -0.351 N 
ATOM      4  C   UNL A   1      36.373  22.844  24.765  1.00  0.00     0.281 C 
ATOM      5  O   UNL A   1      37.293  23.686  24.724  1.00  0.00    -0.268 OA
ATOM      6  H   UNL A   1      37.489  21.672  23.668  1.00  0.00     0.163 HD
BRANCH   4   7
ATOM      7  C   UNL A   1      34.933  23.321  25.289  1.00  0.00     0.176 C 
ATOM      8  C   UNL A   1      34.886  23.267  26.826  1.00  0.00     0.079 C 
ATOM      9  C   UNL A   1      33.613  22.789  24.698  1.00  0.00     0.093 C 
ATOM     10  C   UNL A   1      34.408  21.956  27.425  1.00  0.00     0.008 C 
ATOM     11  C   UNL A   1      32.830  21.620  25.347  1.00  0.00     0.053 C 
ATOM     12  C   UNL A   1      33.155  21.343  26.811  1.00  0.00     0.015 C 
BRANCH   7  13
ATOM     13  N   UNL A   1      34.963  24.824  24.984  1.00  0.00    -0.332 N 
ATOM     14  H   UNL A   1      35.397  25.284  25.784  1.00  0.00     0.347 HD
ATOM     15  H   UNL A   1      35.463  24.887  24.098  1.00  0.00     0.347 HD
BRANCH  13  16
ATOM     16  C   UNL A   1      33.683  25.522  24.722  1.00  0.00     0.176 C 
ATOM     17  C   UNL A   1      33.524  26.600  25.803  1.00  0.00     0.075 C 
ATOM     18  C   UNL A   1      33.511  26.189  23.352  1.00  0.00     0.075 C 
ENDBRANCH  13  16
ENDBRANCH   7  13
BRANCH  11  19
ATOM     19  S   UNL A   1      32.580  20.392  23.990  1.00  0.00    -0.155 SA
BRANCH  19  20
ATOM     20  C   UNL A   1      33.122  18.696  24.410  1.00  0.00     0.047 C 
ATOM     21  C   UNL A   1      32.531  17.874  25.551  1.00  0.00     0.014 C 
ATOM     22  C   UNL A   1      33.144  17.885  23.109  1.00  0.00     0.014 C 
ATOM     23  C   UNL A   1      33.313  16.572  25.749  1.00  0.00     0.001 C 
ATOM     24  C   UNL A   1      33.935  16.600  23.308  1.00  0.00     0.001 C 
ATOM     25  C   UNL A   1      33.395  15.763  24.461  1.00  0.00     0.000 C 
ENDBRANCH  19  20
ENDBRANCH  11  19
ENDBRANCH   4   7
ENDBRANCH   2   3
ENDBRANCH   1   2
BRANCH   1  26
ATOM     26  C   UNL A   1      38.845  20.070  25.762  1.00  0.00     0.118 C 
BRANCH  26  27
ATOM     27  N   UNL A   1      40.038  19.236  25.794  1.00  0.00    -0.352 N 
ATOM     28  C   UNL A   1      41.371  19.475  26.018  1.00  0.00     0.251 C 
ATOM     29  H   UNL A   1      39.845  18.287  25.615  1.00  0.00     0.163 HD
ATOM     30  O   UNL A   1      42.134  18.515  25.866  1.00  0.00    -0.269 OA
BRANCH  28  31
ATOM     31  C   UNL A   1      41.965  20.793  26.400  1.00  0.00     0.039 A 
ATOM     32  C   UNL A   1      42.030  21.101  27.774  1.00  0.00     0.014 A 
ATOM     33  C   UNL A   1      42.390  21.769  25.502  1.00  0.00     0.014 A 
ATOM     34  C   UNL A   1      42.537  22.327  28.231  1.00  0.00     0.010 A 
ATOM     35  C   UNL A   1      42.976  22.960  25.956  1.00  0.00     0.010 A 
ATOM     36  C   UNL A   1      43.034  23.269  27.325  1.00  0.00    -0.014 A 
BRANCH  36  37
ATOM     37  C   UNL A   1      43.520  24.612  27.759  1.00  0.00     0.031 A 
ATOM     38  C   UNL A   1      42.520  25.706  28.034  1.00  0.00     0.074 A 
ATOM     39  C   UNL A   1      44.836  24.885  27.869  1.00  0.00     0.049 A 
ATOM     40  N   UNL A   1      42.726  26.970  28.307  1.00  0.00    -0.248 NA
ATOM     41  C   UNL A   1      41.099  25.324  28.005  1.00  0.00     0.031 C 
ATOM     42  C   UNL A   1      45.916  23.919  27.698  1.00  0.00     0.029 A 
ATOM     43  N   UNL A   1      45.495  26.065  28.124  1.00  0.00    -0.354 N 
ATOM     44  C   UNL A   1      41.468  27.526  28.495  1.00  0.00     0.074 A 
ATOM     45  C   UNL A   1      40.500  26.483  28.233  1.00  0.00     0.031 C 
ATOM     46  C   UNL A   1      47.099  24.548  27.781  1.00  0.00     0.029 A 
ATOM     47  C   UNL A   1      46.864  25.966  28.026  1.00  0.00     0.049 A 
ATOM     48  H   UNL A   1      45.031  26.902  28.353  1.00  0.00     0.167 HD
ATOM     49  C   UNL A   1      41.145  28.779  28.893  1.00  0.00     0.037 A 
ATOM     50  C   UNL A   1      47.822  26.908  28.121  1.00  0.00     0.037 A 
ATOM     51  C   UNL A   1      42.101  29.819  29.166  1.00  0.00     0.049 A 
ATOM     52  C   UNL A   1      47.430  28.324  28.455  1.00  0.00     0.074 A 
ATOM     53  C   UNL A   1      41.866  31.118  29.581  1.00  0.00     0.029 A 
ATOM     54  N   UNL A   1      43.476  29.679  29.050  1.00  0.00    -0.354 N 
ATOM     55  N   UNL A   1      46.239  28.821  28.678  1.00  0.00    -0.248 NA
ATOM     56  C   UNL A   1      48.519  29.303  28.585  1.00  0.00     0.031 C 
ATOM     57  C   UNL A   1      43.094  31.779  29.674  1.00  0.00     0.029 A 
ATOM     58  C   UNL A   1      44.099  30.875  29.370  1.00  0.00     0.049 A 
ATOM     59  H   UNL A   1      43.939  28.854  28.781  1.00  0.00     0.167 HD
ATOM     60  C   UNL A   1      46.441  30.148  29.033  1.00  0.00     0.074 A 
ATOM     61  C   UNL A   1      47.867  30.380  28.997  1.00  0.00     0.031 C 
ATOM     62  C   UNL A   1      45.523  31.087  29.366  1.00  0.00     0.037 A 
BRANCH  49  63
ATOM     63  C   UNL A   1      39.690  29.094  29.081  1.00  0.00     0.064 A 
ATOM     64  C   UNL A   1      38.879  29.463  27.997  1.00  0.00     0.173 A 
ATOM     65  C   UNL A   1      39.087  28.970  30.341  1.00  0.00     0.173 A 
ATOM     66  F   UNL A   1      39.411  29.609  26.774  1.00  0.00    -0.203 F 
ATOM     67  C   UNL A   1      37.521  29.714  28.172  1.00  0.00     0.198 A 
ATOM     68  C   UNL A   1      37.723  29.192  30.507  1.00  0.00     0.198 A 
ATOM     69  F   UNL A   1      39.818  28.616  31.409  1.00  0.00    -0.203 F 
ATOM     70  F   UNL A   1      36.773  30.104  27.129  1.00  0.00    -0.200 F 
ATOM     71  C   UNL A   1      36.943  29.569  29.423  1.00  0.00     0.200 A 
ATOM     72  F   UNL A   1      37.162  29.038  31.714  1.00  0.00    -0.200 F 
ATOM     73  F   UNL A   1      35.631  29.795  29.587  1.00  0.00    -0.200 F 
ENDBRANCH  49  63
BRANCH  50  74
ATOM     74  C   UNL A   1      49.257  26.558  27.922  1.00  0.00     0.064 A 
ATOM     75  C   UNL A   1      50.103  26.330  29.016  1.00  0.00     0.173 A 
ATOM     76  C   UNL A   1      49.825  26.516  26.640  1.00  0.00     0.173 A 
ATOM     77  F   UNL A   1      49.612  26.378  30.263  1.00  0.00    -0.203 F 
ATOM     78  C   UNL A   1      51.470  26.121  28.840  1.00  0.00     0.198 A 
ATOM     79  C   UNL A   1      51.188  26.276  26.464  1.00  0.00     0.198 A 
ATOM     80  F   UNL A   1      49.061  26.723  25.558  1.00  0.00    -0.203 F 
ATOM     81  F   UNL A   1      52.266  25.982  29.909  1.00  0.00    -0.200 F 
ATOM     82  C   UNL A   1      52.011  26.094  27.565  1.00  0.00     0.200 A 
ATOM     83  F   UNL A   1      51.705  26.240  25.229  1.00  0.00    -0.200 F 
ATOM     84  F   UNL A   1      53.328  25.911  27.397  1.00  0.00    -0.200 F 
ENDBRANCH  50  74
BRANCH  62  85
ATOM     85  C   UNL A   1      46.030  32.435  29.792  1.00  0.00     0.064 A 
ATOM     86  C   UNL A   1      46.357  32.718  31.125  1.00  0.00     0.173 A 
ATOM     87  C   UNL A   1      46.231  33.446  28.838  1.00  0.00     0.173 A 
ATOM     88  F   UNL A   1      46.169  31.792  32.078  1.00  0.00    -0.203 F 
ATOM     89  C   UNL A   1      46.842  33.971  31.493  1.00  0.00     0.198 A 
ATOM     90  C   UNL A   1      46.748  34.685  29.204  1.00  0.00     0.198 A 
ATOM     91  F   UNL A   1      45.940  33.225  27.547  1.00  0.00    -0.203 F 
ATOM     92  F   UNL A   1      47.100  34.235  32.782  1.00  0.00    -0.200 F 
ATOM     93  C   UNL A   1      47.045  34.949  30.532  1.00  0.00     0.200 A 
ATOM     94  F   UNL A   1      46.960  35.623  28.271  1.00  0.00    -0.200 F 
ATOM     95  F   UNL A   1      47.523  36.150  30.887  1.00  0.00    -0.200 F 
ENDBRANCH  62  85
ENDBRANCH  36  37
ENDBRANCH  28  31
ENDBRANCH  26  27
ENDBRANCH   1  26
TORSDOF 14
ENDMDL
MODEL 2
REMARK VINA RESULT:     -11.9      1.733      7.390
REMARK SMILES CC(C)[NH2+][C@@]1(C(=O)NCCCNC(=O)c2ccc(-c3c4nc(c(-c5c(F)c(F)c(F)c(F)c5F)c5ccc([nH]5)c(-c5c(F)c(F)c(F)c(F)c5F)c5nc(c(-c6c(F)c(F)c(F)c(F)c6F)c6ccc3[nH]6)C=C5)C=C4)cc2)CCC[C@H](SC2CCCCC2)C1
REMARK SMILES IDX 10 1 9 2 8 3 6 4 7 5 5 7 78 8 89 9 79 10 81 11 80 12 4 13
REMARK SMILES IDX 2 16 1 17 3 18 82 19 83 20 84 21 88 22 85 23 87 24 86 25
REMARK SMILES IDX 11 26 12 27 13 28 14 30 15 31 16 32 77 33 17 34 76 35 18 36
REMARK SMILES IDX 19 37 20 38 70 39 21 40 75 41 69 42 71 43 22 44 74 45 68 46
REMARK SMILES IDX 67 47 23 49 55 50 35 51 54 52 36 53 39 54 53 55 72 56 37 57
REMARK SMILES IDX 38 58 52 60 73 61 40 62 24 63 25 64 33 65 26 66 27 67 31 68
REMARK SMILES IDX 34 69 28 70 29 71 32 72 30 73 56 74 57 75 65 76 58 77 59 78
REMARK SMILES IDX 63 79 66 80 60 81 61 82 64 83 62 84 41 85 42 86 50 87 43 88
REMARK SMILES IDX 44 89 48 90 51 91 45 92 46 93 49 94 47 95
REMARK H PARENT 8 6 4 14 4 15 12 29 71 48 39 59
REMARK Flexibility Score: inf
ROOT
ATOM      1  C   UNL A   1      37.832  19.443  25.057  1.00  0.00     0.042 C 
ENDROOT
BRANCH   1   2
ATOM      2  C   UNL A   1      36.598  20.309  25.049  1.00  0.00     0.118 C 
BRANCH   2   3
ATOM      3  N   UNL A   1      36.815  21.586  24.410  1.00  0.00    -0.351 N 
ATOM      4  C   UNL A   1      36.349  22.831  24.628  1.00  0.00     0.281 C 
ATOM      5  O   UNL A   1      37.212  23.693  24.359  1.00  0.00    -0.268 OA
ATOM      6  H   UNL A   1      37.439  21.535  23.649  1.00  0.00     0.163 HD
BRANCH   4   7
ATOM      7  C   UNL A   1      34.932  23.329  25.193  1.00  0.00     0.176 C 
ATOM      8  C   UNL A   1      34.935  23.296  26.731  1.00  0.00     0.079 C 
ATOM      9  C   UNL A   1      33.588  22.801  24.652  1.00  0.00     0.093 C 
ATOM     10  C   UNL A   1      34.466  21.997  27.363  1.00  0.00     0.008 C 
ATOM     11  C   UNL A   1      32.817  21.649  25.343  1.00  0.00     0.053 C 
ATOM     12  C   UNL A   1      33.187  21.389  26.800  1.00  0.00     0.015 C 
BRANCH   7  13
ATOM     13  N   UNL A   1      34.965  24.827  24.867  1.00  0.00    -0.332 N 
ATOM     14  H   UNL A   1      35.433  25.293  25.644  1.00  0.00     0.347 HD
ATOM     15  H   UNL A   1      35.433  24.873  23.962  1.00  0.00     0.347 HD
BRANCH  13  16
ATOM     16  C   UNL A   1      33.684  25.535  24.642  1.00  0.00     0.176 C 
ATOM     17  C   UNL A   1      33.542  26.580  25.757  1.00  0.00     0.075 C 
ATOM     18  C   UNL A   1      33.495  26.243  23.295  1.00  0.00     0.075 C 
ENDBRANCH  13  16
ENDBRANCH   7  13
BRANCH  11  19
ATOM     19  S   UNL A   1      32.511  20.405  24.012  1.00  0.00    -0.155 SA
BRANCH  19  20
ATOM     20  C   UNL A   1      33.106  18.723  24.413  1.00  0.00     0.047 C 
ATOM     21  C   UNL A   1      32.547  17.873  25.550  1.00  0.00     0.014 C 
ATOM     22  C   UNL A   1      33.143  17.925  23.104  1.00  0.00     0.014 C 
ATOM     23  C   UNL A   1      33.369  16.593  25.730  1.00  0.00     0.001 C 
ATOM     24  C   UNL A   1      33.973  16.661  23.286  1.00  0.00     0.001 C 
ATOM     25  C   UNL A   1      33.467  15.799  24.434  1.00  0.00     0.000 C 
ENDBRANCH  19  20
ENDBRANCH  11  19
ENDBRANCH   4   7
ENDBRANCH   2   3
ENDBRANCH   1   2
BRANCH   1  26
ATOM     26  C   UNL A   1      39.173  20.136  25.229  1.00  0.00     0.118 C 
BRANCH  26  27
ATOM     27  N   UNL A   1      40.003  19.526  26.257  1.00  0.00    -0.352 N 
ATOM     28  C   UNL A   1      40.910  20.006  27.169  1.00  0.00     0.251 C 
ATOM     29  H   UNL A   1      39.888  18.550  26.310  1.00  0.00     0.163 HD
ATOM     30  O   UNL A   1      41.515  19.162  27.839  1.00  0.00    -0.269 OA
BRANCH  28  31
ATOM     31  C   UNL A   1      41.239  21.448  27.392  1.00  0.00     0.039 A 
ATOM     32  C   UNL A   1      40.787  22.371  26.427  1.00  0.00     0.014 A 
ATOM     33  C   UNL A   1      42.018  21.938  28.436  1.00  0.00     0.014 A 
ATOM     34  C   UNL A   1      41.076  23.741  26.528  1.00  0.00     0.010 A 
ATOM     35  C   UNL A   1      42.236  23.316  28.587  1.00  0.00     0.010 A 
ATOM     36  C   UNL A   1      41.792  24.235  27.623  1.00  0.00    -0.014 A 
BRANCH  36  37
ATOM     37  C   UNL A   1      42.179  25.672  27.739  1.00  0.00     0.031 A 
ATOM     38  C   UNL A   1      43.527  26.117  27.231  1.00  0.00     0.074 A 
ATOM     39  C   UNL A   1      41.370  26.576  28.327  1.00  0.00     0.049 A 
ATOM     40  N   UNL A   1      44.110  27.285  27.335  1.00  0.00    -0.248 NA
ATOM     41  C   UNL A   1      44.321  25.114  26.502  1.00  0.00     0.031 C 
ATOM     42  C   UNL A   1      40.018  26.313  28.808  1.00  0.00     0.029 A 
ATOM     43  N   UNL A   1      41.576  27.898  28.648  1.00  0.00    -0.354 N 
ATOM     44  C   UNL A   1      45.325  27.161  26.676  1.00  0.00     0.074 A 
ATOM     45  C   UNL A   1      45.432  25.786  26.239  1.00  0.00     0.031 C 
ATOM     46  C   UNL A   1      39.539  27.406  29.424  1.00  0.00     0.029 A 
ATOM     47  C   UNL A   1      40.547  28.458  29.370  1.00  0.00     0.049 A 
ATOM     48  H   UNL A   1      42.385  28.395  28.388  1.00  0.00     0.167 HD
ATOM     49  C   UNL A   1      46.251  28.114  26.418  1.00  0.00     0.037 A 
ATOM     50  C   UNL A   1      40.427  29.679  29.926  1.00  0.00     0.037 A 
ATOM     51  C   UNL A   1      46.148  29.486  26.839  1.00  0.00     0.049 A 
ATOM     52  C   UNL A   1      41.524  30.692  29.720  1.00  0.00     0.074 A 
ATOM     53  C   UNL A   1      47.035  30.524  26.617  1.00  0.00     0.029 A 
ATOM     54  N   UNL A   1      45.094  30.011  27.571  1.00  0.00    -0.354 N 
ATOM     55  N   UNL A   1      42.644  30.572  29.052  1.00  0.00    -0.248 NA
ATOM     56  C   UNL A   1      41.323  32.020  30.316  1.00  0.00     0.031 C 
ATOM     57  C   UNL A   1      46.541  31.668  27.251  1.00  0.00     0.029 A 
ATOM     58  C   UNL A   1      45.318  31.354  27.822  1.00  0.00     0.049 A 
ATOM     59  H   UNL A   1      44.304  29.504  27.868  1.00  0.00     0.167 HD
ATOM     60  C   UNL A   1      43.248  31.821  29.096  1.00  0.00     0.074 A 
ATOM     61  C   UNL A   1      42.372  32.686  29.854  1.00  0.00     0.031 C 
ATOM     62  C   UNL A   1      44.423  32.217  28.548  1.00  0.00     0.037 A 
BRANCH  49  63
ATOM     63  C   UNL A   1      47.456  27.712  25.618  1.00  0.00     0.064 A 
ATOM     64  C   UNL A   1      47.438  27.728  24.215  1.00  0.00     0.173 A 
ATOM     65  C   UNL A   1      48.657  27.367  26.256  1.00  0.00     0.173 A 
ATOM     66  F   UNL A   1      46.310  28.038  23.557  1.00  0.00    -0.203 F 
ATOM     67  C   UNL A   1      48.571  27.394  23.481  1.00  0.00     0.198 A 
ATOM     68  C   UNL A   1      49.797  27.064  25.518  1.00  0.00     0.198 A 
ATOM     69  F   UNL A   1      48.728  27.342  27.595  1.00  0.00    -0.203 F 
ATOM     70  F   UNL A   1      48.520  27.377  22.141  1.00  0.00    -0.200 F 
ATOM     71  C   UNL A   1      49.752  27.072  24.132  1.00  0.00     0.200 A 
ATOM     72  F   UNL A   1      50.942  26.766  26.149  1.00  0.00    -0.200 F 
ATOM     73  F   UNL A   1      50.848  26.766  23.423  1.00  0.00    -0.200 F 
ENDBRANCH  49  63
BRANCH  50  74
ATOM     74  C   UNL A   1      39.218  30.040  30.717  1.00  0.00     0.064 A 
ATOM     75  C   UNL A   1      38.129  30.688  30.118  1.00  0.00     0.173 A 
ATOM     76  C   UNL A   1      39.157  29.809  32.100  1.00  0.00     0.173 A 
ATOM     77  F   UNL A   1      38.147  30.949  28.803  1.00  0.00    -0.203 F 
ATOM     78  C   UNL A   1      37.048  31.135  30.877  1.00  0.00     0.198 A 
ATOM     79  C   UNL A   1      38.060  30.228  32.853  1.00  0.00     0.198 A 
ATOM     80  F   UNL A   1      40.168  29.188  32.724  1.00  0.00    -0.203 F 
ATOM     81  F   UNL A   1      36.058  31.819  30.288  1.00  0.00    -0.200 F 
ATOM     82  C   UNL A   1      37.014  30.905  32.243  1.00  0.00     0.200 A 
ATOM     83  F   UNL A   1      38.026  29.994  34.172  1.00  0.00    -0.200 F 
ATOM     84  F   UNL A   1      35.983  31.350  32.974  1.00  0.00    -0.200 F 
ENDBRANCH  50  74
BRANCH  62  85
ATOM     85  C   UNL A   1      44.800  33.664  28.681  1.00  0.00     0.064 A 
ATOM     86  C   UNL A   1      44.384  34.628  27.753  1.00  0.00     0.173 A 
ATOM     87  C   UNL A   1      45.556  34.096  29.783  1.00  0.00     0.173 A 
ATOM     88  F   UNL A   1      43.673  34.265  26.674  1.00  0.00    -0.203 F 
ATOM     89  C   UNL A   1      44.733  35.968  27.907  1.00  0.00     0.198 A 
ATOM     90  C   UNL A   1      45.873  35.441  29.952  1.00  0.00     0.198 A 
ATOM     91  F   UNL A   1      45.974  33.215  30.704  1.00  0.00    -0.203 F 
ATOM     92  F   UNL A   1      44.368  36.865  26.981  1.00  0.00    -0.200 F 
ATOM     93  C   UNL A   1      45.469  36.374  29.010  1.00  0.00     0.200 A 
ATOM     94  F   UNL A   1      46.569  35.833  31.028  1.00  0.00    -0.200 F 
ATOM     95  F   UNL A   1      45.793  37.666  29.163  1.00  0.00    -0.200 F 
ENDBRANCH  62  85
ENDBRANCH  36  37
ENDBRANCH  28  31
ENDBRANCH  26  27
ENDBRANCH   1  26
TORSDOF 14
ENDMDL
MODEL 3
REMARK VINA RESULT:     -11.7      3.350      9.244
REMARK SMILES CC(C)[NH2+][C@@]1(C(=O)NCCCNC(=O)c2ccc(-c3c4nc(c(-c5c(F)c(F)c(F)c(F)c5F)c5ccc([nH]5)c(-c5c(F)c(F)c(F)c(F)c5F)c5nc(c(-c6c(F)c(F)c(F)c(F)c6F)c6ccc3[nH]6)C=C5)C=C4)cc2)CCC[C@H](SC2CCCCC2)C1
REMARK SMILES IDX 10 1 9 2 8 3 6 4 7 5 5 7 78 8 89 9 79 10 81 11 80 12 4 13
REMARK SMILES IDX 2 16 1 17 3 18 82 19 83 20 84 21 88 22 85 23 87 24 86 25
REMARK SMILES IDX 11 26 12 27 13 28 14 30 15 31 16 32 77 33 17 34 76 35 18 36
REMARK SMILES IDX 19 37 20 38 70 39 21 40 75 41 69 42 71 43 22 44 74 45 68 46
REMARK SMILES IDX 67 47 23 49 55 50 35 51 54 52 36 53 39 54 53 55 72 56 37 57
REMARK SMILES IDX 38 58 52 60 73 61 40 62 24 63 25 64 33 65 26 66 27 67 31 68
REMARK SMILES IDX 34 69 28 70 29 71 32 72 30 73 56 74 57 75 65 76 58 77 59 78
REMARK SMILES IDX 63 79 66 80 60 81 61 82 64 83 62 84 41 85 42 86 50 87 43 88
REMARK SMILES IDX 44 89 48 90 51 91 45 92 46 93 49 94 47 95
REMARK H PARENT 8 6 4 14 4 15 12 29 71 48 39 59
REMARK Flexibility Score: inf
ROOT
ATOM      1  C   UNL A   1      36.204  23.810  26.093  1.00  0.00     0.042 C 
ENDROOT
BRANCH   1   2
ATOM      2  C   UNL A   1      35.171  22.801  26.528  1.00  0.00     0.118 C 
BRANCH   2   3
ATOM      3  N   UNL A   1      33.885  23.400  26.799  1.00  0.00    -0.351 N 
ATOM      4  C   UNL A   1      32.657  23.260  26.262  1.00  0.00     0.281 C 
ATOM      5  O   UNL A   1      31.766  23.390  27.126  1.00  0.00    -0.268 OA
ATOM      6  H   UNL A   1      33.912  24.052  27.536  1.00  0.00     0.163 HD
BRANCH   4   7
ATOM      7  C   UNL A   1      32.211  22.925  24.758  1.00  0.00     0.176 C 
ATOM      8  C   UNL A   1      33.445  22.856  23.843  1.00  0.00     0.079 C 
ATOM      9  C   UNL A   1      31.062  23.668  24.046  1.00  0.00     0.093 C 
ATOM     10  C   UNL A   1      33.851  24.161  23.182  1.00  0.00     0.008 C 
ATOM     11  C   UNL A   1      31.317  24.866  23.098  1.00  0.00     0.053 C 
ATOM     12  C   UNL A   1      32.734  24.976  22.542  1.00  0.00     0.015 C 
BRANCH   7  13
ATOM     13  N   UNL A   1      31.767  21.462  24.873  1.00  0.00    -0.332 N 
ATOM     14  H   UNL A   1      31.569  21.285  25.858  1.00  0.00     0.347 HD
ATOM     15  H   UNL A   1      30.976  21.392  24.233  1.00  0.00     0.347 HD
BRANCH  13  16
ATOM     16  C   UNL A   1      32.692  20.399  24.417  1.00  0.00     0.176 C 
ATOM     17  C   UNL A   1      33.020  19.528  25.637  1.00  0.00     0.075 C 
ATOM     18  C   UNL A   1      32.210  19.480  23.288  1.00  0.00     0.075 C 
ENDBRANCH  13  16
ENDBRANCH   7  13
BRANCH  11  19
ATOM     19  S   UNL A   1      30.243  26.226  23.739  1.00  0.00    -0.155 SA
BRANCH  19  20
ATOM     20  C   UNL A   1      31.124  27.445  24.779  1.00  0.00     0.047 C 
ATOM     21  C   UNL A   1      30.933  28.954  24.667  1.00  0.00     0.014 C 
ATOM     22  C   UNL A   1      30.991  26.986  26.237  1.00  0.00     0.014 C 
ATOM     23  C   UNL A   1      31.935  29.700  25.553  1.00  0.00     0.001 C 
ATOM     24  C   UNL A   1      31.999  27.721  27.110  1.00  0.00     0.001 C 
ATOM     25  C   UNL A   1      31.862  29.234  27.001  1.00  0.00     0.000 C 
ENDBRANCH  19  20
ENDBRANCH  11  19
ENDBRANCH   4   7
ENDBRANCH   2   3
ENDBRANCH   1   2
BRANCH   1  26
ATOM     26  C   UNL A   1      37.123  23.422  24.948  1.00  0.00     0.118 C 
BRANCH  26  27
ATOM     27  N   UNL A   1      38.286  22.661  25.382  1.00  0.00    -0.352 N 
ATOM     28  C   UNL A   1      39.391  22.946  26.146  1.00  0.00     0.251 C 
ATOM     29  H   UNL A   1      38.278  21.733  25.054  1.00  0.00     0.163 HD
ATOM     30  O   UNL A   1      40.247  22.058  26.227  1.00  0.00    -0.269 OA
BRANCH  28  31
ATOM     31  C   UNL A   1      39.648  24.238  26.854  1.00  0.00     0.039 A 
ATOM     32  C   UNL A   1      40.333  25.242  26.140  1.00  0.00     0.014 A 
ATOM     33  C   UNL A   1      39.332  24.497  28.185  1.00  0.00     0.014 A 
ATOM     34  C   UNL A   1      40.654  26.475  26.729  1.00  0.00     0.010 A 
ATOM     35  C   UNL A   1      39.574  25.758  28.750  1.00  0.00     0.010 A 
ATOM     36  C   UNL A   1      40.261  26.757  28.041  1.00  0.00    -0.014 A 
BRANCH  36  37
ATOM     37  C   UNL A   1      40.638  28.026  28.730  1.00  0.00     0.031 A 
ATOM     38  C   UNL A   1      42.025  28.174  29.300  1.00  0.00     0.074 A 
ATOM     39  C   UNL A   1      39.752  29.029  28.894  1.00  0.00     0.049 A 
ATOM     40  N   UNL A   1      42.524  29.137  30.034  1.00  0.00    -0.248 NA
ATOM     41  C   UNL A   1      42.981  27.095  28.998  1.00  0.00     0.031 C 
ATOM     42  C   UNL A   1      38.400  29.061  28.348  1.00  0.00     0.029 A 
ATOM     43  N   UNL A   1      39.845  30.210  29.595  1.00  0.00    -0.354 N 
ATOM     44  C   UNL A   1      43.848  28.788  30.266  1.00  0.00     0.074 A 
ATOM     45  C   UNL A   1      44.057  27.491  29.660  1.00  0.00     0.031 C 
ATOM     46  C   UNL A   1      37.764  30.159  28.785  1.00  0.00     0.029 A 
ATOM     47  C   UNL A   1      38.669  30.923  29.635  1.00  0.00     0.049 A 
ATOM     48  H   UNL A   1      40.675  30.515  30.028  1.00  0.00     0.167 HD
ATOM     49  C   UNL A   1      44.815  29.501  30.889  1.00  0.00     0.037 A 
ATOM     50  C   UNL A   1      38.353  32.061  30.283  1.00  0.00     0.037 A 
ATOM     51  C   UNL A   1      44.618  30.796  31.485  1.00  0.00     0.049 A 
ATOM     52  C   UNL A   1      39.420  32.782  31.065  1.00  0.00     0.074 A 
ATOM     53  C   UNL A   1      45.544  31.596  32.132  1.00  0.00     0.029 A 
ATOM     54  N   UNL A   1      43.413  31.480  31.508  1.00  0.00    -0.354 N 
ATOM     55  N   UNL A   1      40.680  32.463  31.232  1.00  0.00    -0.248 NA
ATOM     56  C   UNL A   1      39.031  34.039  31.720  1.00  0.00     0.031 C 
ATOM     57  C   UNL A   1      44.889  32.745  32.586  1.00  0.00     0.029 A 
ATOM     58  C   UNL A   1      43.568  32.685  32.174  1.00  0.00     0.049 A 
ATOM     59  H   UNL A   1      42.572  31.157  31.111  1.00  0.00     0.167 HD
ATOM     60  C   UNL A   1      41.243  33.506  31.955  1.00  0.00     0.074 A 
ATOM     61  C   UNL A   1      40.191  34.468  32.194  1.00  0.00     0.031 C 
ATOM     62  C   UNL A   1      42.523  33.654  32.376  1.00  0.00     0.037 A 
BRANCH  49  63
ATOM     63  C   UNL A   1      46.192  28.906  30.940  1.00  0.00     0.064 A 
ATOM     64  C   UNL A   1      46.592  28.087  32.008  1.00  0.00     0.173 A 
ATOM     65  C   UNL A   1      47.099  29.104  29.889  1.00  0.00     0.173 A 
ATOM     66  F   UNL A   1      45.766  27.877  33.044  1.00  0.00    -0.203 F 
ATOM     67  C   UNL A   1      47.855  27.504  32.028  1.00  0.00     0.198 A 
ATOM     68  C   UNL A   1      48.350  28.495  29.898  1.00  0.00     0.198 A 
ATOM     69  F   UNL A   1      46.764  29.875  28.843  1.00  0.00    -0.203 F 
ATOM     70  F   UNL A   1      48.231  26.757  33.077  1.00  0.00    -0.200 F 
ATOM     71  C   UNL A   1      48.729  27.700  30.970  1.00  0.00     0.200 A 
ATOM     72  F   UNL A   1      49.189  28.674  28.869  1.00  0.00    -0.200 F 
ATOM     73  F   UNL A   1      49.940  27.125  30.984  1.00  0.00    -0.200 F 
ENDBRANCH  49  63
BRANCH  50  74
ATOM     74  C   UNL A   1      36.974  32.619  30.213  1.00  0.00     0.064 A 
ATOM     75  C   UNL A   1      36.594  33.477  29.171  1.00  0.00     0.173 A 
ATOM     76  C   UNL A   1      36.033  32.365  31.222  1.00  0.00     0.173 A 
ATOM     77  F   UNL A   1      37.464  33.768  28.193  1.00  0.00    -0.203 F 
ATOM     78  C   UNL A   1      35.345  34.097  29.166  1.00  0.00     0.198 A 
ATOM     79  C   UNL A   1      34.772  32.961  31.198  1.00  0.00     0.198 A 
ATOM     80  F   UNL A   1      36.342  31.547  32.239  1.00  0.00    -0.203 F 
ATOM     81  F   UNL A   1      35.040  34.972  28.198  1.00  0.00    -0.200 F 
ATOM     82  C   UNL A   1      34.436  33.839  30.179  1.00  0.00     0.200 A 
ATOM     83  F   UNL A   1      33.892  32.700  32.174  1.00  0.00    -0.200 F 
ATOM     84  F   UNL A   1      33.242  34.448  30.183  1.00  0.00    -0.200 F 
ENDBRANCH  50  74
BRANCH  62  85
ATOM     85  C   UNL A   1      42.882  34.934  33.075  1.00  0.00     0.064 A 
ATOM     86  C   UNL A   1      43.356  36.053  32.377  1.00  0.00     0.173 A 
ATOM     87  C   UNL A   1      42.705  35.052  34.463  1.00  0.00     0.173 A 
ATOM     88  F   UNL A   1      43.558  35.987  31.052  1.00  0.00    -0.203 F 
ATOM     89  C   UNL A   1      43.666  37.235  33.045  1.00  0.00     0.198 A 
ATOM     90  C   UNL A   1      42.983  36.246  35.122  1.00  0.00     0.198 A 
ATOM     91  F   UNL A   1      42.247  34.013  35.177  1.00  0.00    -0.203 F 
ATOM     92  F   UNL A   1      44.167  38.276  32.365  1.00  0.00    -0.200 F 
ATOM     93  C   UNL A   1      43.471  37.333  34.415  1.00  0.00     0.200 A 
ATOM     94  F   UNL A   1      42.776  36.344  36.443  1.00  0.00    -0.200 F 
ATOM     95  F   UNL A   1      43.759  38.476  35.054  1.00  0.00    -0.200 F 
ENDBRANCH  62  85
ENDBRANCH  36  37
ENDBRANCH  28  31
ENDBRANCH  26  27
ENDBRANCH   1  26
TORSDOF 14
ENDMDL
