MODEL 1
REMARK VINA RESULT:     -11.9      0.000      0.000
REMARK SMILES C[C@@H](O)[C@@H](NC(=O)c1csc(-c2ccsc2)n1)C(=O)NCCCNC(=O)c1ccc(-c2c3nc(c(-c4c(F)c(F)c(F)c(F)c4F)c4ccc([nH]4)c(-c4c(F)c(F)c(F)c(F)c4F)c4nc(c(-c5c(F)c(F)c(F)c(F)c5F)c5ccc2[nH]5)C=C4)C=C3)cc1
REMARK SMILES IDX 21 1 20 2 18 3 19 4 4 6 2 7 1 8 3 9 5 11 6 12 7 14 8 15 9 16
REMARK SMILES IDX 17 17 10 18 11 19 12 20 13 21 16 22 14 23 15 24 22 25 23 26
REMARK SMILES IDX 24 27 25 28 26 30 27 31 28 32 89 33 29 34 88 35 30 36 31 37
REMARK SMILES IDX 32 38 82 39 33 40 87 41 81 42 83 43 34 44 86 45 80 46 79 47
REMARK SMILES IDX 35 49 67 50 47 51 66 52 48 53 51 54 65 55 84 56 49 57 50 58
REMARK SMILES IDX 64 60 85 61 52 62 36 63 37 64 45 65 38 66 39 67 43 68 46 69
REMARK SMILES IDX 40 70 41 71 44 72 42 73 68 74 69 75 77 76 70 77 71 78 75 79
REMARK SMILES IDX 78 80 72 81 73 82 76 83 74 84 53 85 54 86 62 87 55 88 56 89
REMARK SMILES IDX 60 90 63 91 57 92 58 93 61 94 59 95
REMARK H PARENT 20 5 3 10 5 13 24 29 83 48 51 59
REMARK Flexibility Score: inf
ROOT
ATOM      1  C   UNL A   1      31.735  28.129  25.815  1.00  0.00     0.117 C 
ENDROOT
BRANCH   1   2
ATOM      2  N   UNL A   1      32.585  28.802  24.853  1.00  0.00    -0.354 N 
ATOM      3  C   UNL A   1      32.675  28.670  23.500  1.00  0.00     0.245 C 
ATOM      4  O   UNL A   1      33.602  29.275  22.956  1.00  0.00    -0.273 OA
ATOM      5  H   UNL A   1      33.199  29.466  25.242  1.00  0.00     0.163 HD
BRANCH   3   6
ATOM      6  C   UNL A   1      31.778  27.680  22.726  1.00  0.00     0.200 C 
BRANCH   6   7
ATOM      7  C   UNL A   1      30.496  28.509  22.373  1.00  0.00     0.143 C 
ATOM      8  C   UNL A   1      29.233  28.111  23.126  1.00  0.00     0.041 C 
BRANCH   7   9
ATOM      9  O   UNL A   1      30.712  29.894  22.665  1.00  0.00    -0.391 OA
ATOM     10  H   UNL A   1      31.131  30.324  21.904  1.00  0.00     0.211 HD
ENDBRANCH   7   9
ENDBRANCH   6   7
BRANCH   6  11
ATOM     11  N   UNL A   1      32.392  27.060  21.528  1.00  0.00    -0.337 N 
ATOM     12  C   UNL A   1      32.721  25.751  21.253  1.00  0.00     0.271 C 
ATOM     13  H   UNL A   1      32.602  27.694  20.805  1.00  0.00     0.164 HD
ATOM     14  O   UNL A   1      33.036  25.472  20.096  1.00  0.00    -0.267 OA
BRANCH  12  15
ATOM     15  C   UNL A   1      32.895  24.800  22.348  1.00  0.00     0.139 A 
ATOM     16  C   UNL A   1      31.814  24.226  22.997  1.00  0.00     0.101 A 
ATOM     17  N   UNL A   1      34.132  24.340  22.783  1.00  0.00    -0.231 NA
ATOM     18  S   UNL A   1      32.335  22.875  23.909  1.00  0.00    -0.122 S 
ATOM     19  C   UNL A   1      33.967  23.280  23.550  1.00  0.00     0.125 A 
BRANCH  19  20
ATOM     20  C   UNL A   1      35.133  22.475  24.040  1.00  0.00     0.021 A 
ATOM     21  C   UNL A   1      36.497  22.867  23.899  1.00  0.00     0.023 A 
ATOM     22  C   UNL A   1      35.013  21.245  24.655  1.00  0.00     0.076 A 
ATOM     23  C   UNL A   1      37.360  21.947  24.453  1.00  0.00     0.065 A 
ATOM     24  S   UNL A   1      36.536  20.579  25.067  1.00  0.00    -0.152 S 
ENDBRANCH  19  20
ENDBRANCH  12  15
ENDBRANCH   6  11
ENDBRANCH   3   6
ENDBRANCH   1   2
BRANCH   1  25
ATOM     25  C   UNL A   1      32.416  28.023  27.167  1.00  0.00     0.042 C 
BRANCH  25  26
ATOM     26  C   UNL A   1      33.780  28.697  27.215  1.00  0.00     0.118 C 
BRANCH  26  27
ATOM     27  N   UNL A   1      33.724  30.071  27.693  1.00  0.00    -0.352 N 
ATOM     28  C   UNL A   1      34.687  30.777  28.373  1.00  0.00     0.251 C 
ATOM     29  H   UNL A   1      32.888  30.558  27.506  1.00  0.00     0.163 HD
ATOM     30  O   UNL A   1      34.443  31.883  28.843  1.00  0.00    -0.269 OA
BRANCH  28  31
ATOM     31  C   UNL A   1      36.017  30.165  28.556  1.00  0.00     0.039 A 
ATOM     32  C   UNL A   1      36.964  30.275  27.537  1.00  0.00     0.014 A 
ATOM     33  C   UNL A   1      36.342  29.552  29.769  1.00  0.00     0.014 A 
ATOM     34  C   UNL A   1      38.269  29.836  27.767  1.00  0.00     0.010 A 
ATOM     35  C   UNL A   1      37.659  29.197  30.026  1.00  0.00     0.010 A 
ATOM     36  C   UNL A   1      38.635  29.334  29.027  1.00  0.00    -0.014 A 
BRANCH  36  37
ATOM     37  C   UNL A   1      40.033  28.938  29.326  1.00  0.00     0.031 A 
ATOM     38  C   UNL A   1      40.929  29.880  30.079  1.00  0.00     0.074 A 
ATOM     39  C   UNL A   1      40.518  27.778  28.843  1.00  0.00     0.049 A 
ATOM     40  N   UNL A   1      42.203  29.767  30.357  1.00  0.00    -0.248 NA
ATOM     41  C   UNL A   1      40.321  31.136  30.548  1.00  0.00     0.031 C 
ATOM     42  C   UNL A   1      39.766  26.814  28.038  1.00  0.00     0.029 A 
ATOM     43  N   UNL A   1      41.767  27.220  28.946  1.00  0.00    -0.354 N 
ATOM     44  C   UNL A   1      42.551  30.945  31.005  1.00  0.00     0.074 A 
ATOM     45  C   UNL A   1      41.371  31.780  31.032  1.00  0.00     0.031 C 
ATOM     46  C   UNL A   1      40.562  25.776  27.737  1.00  0.00     0.029 A 
ATOM     47  C   UNL A   1      41.888  26.014  28.301  1.00  0.00     0.049 A 
ATOM     48  H   UNL A   1      42.508  27.644  29.438  1.00  0.00     0.167 HD
ATOM     49  C   UNL A   1      43.741  31.287  31.552  1.00  0.00     0.037 A 
ATOM     50  C   UNL A   1      42.949  25.196  28.176  1.00  0.00     0.037 A 
ATOM     51  C   UNL A   1      44.898  30.431  31.565  1.00  0.00     0.049 A 
ATOM     52  C   UNL A   1      44.249  25.578  28.831  1.00  0.00     0.074 A 
ATOM     53  C   UNL A   1      46.123  30.645  32.170  1.00  0.00     0.029 A 
ATOM     54  N   UNL A   1      44.966  29.192  30.944  1.00  0.00    -0.354 N 
ATOM     55  N   UNL A   1      44.544  26.659  29.512  1.00  0.00    -0.248 NA
ATOM     56  C   UNL A   1      45.358  24.623  28.707  1.00  0.00     0.031 C 
ATOM     57  C   UNL A   1      46.946  29.550  31.885  1.00  0.00     0.029 A 
ATOM     58  C   UNL A   1      46.219  28.637  31.137  1.00  0.00     0.049 A 
ATOM     59  H   UNL A   1      44.232  28.771  30.442  1.00  0.00     0.167 HD
ATOM     60  C   UNL A   1      45.862  26.505  29.917  1.00  0.00     0.074 A 
ATOM     61  C   UNL A   1      46.306  25.219  29.418  1.00  0.00     0.031 C 
ATOM     62  C   UNL A   1      46.638  27.353  30.636  1.00  0.00     0.037 A 
BRANCH  49  63
ATOM     63  C   UNL A   1      43.846  32.641  32.189  1.00  0.00     0.064 A 
ATOM     64  C   UNL A   1      43.534  32.843  33.542  1.00  0.00     0.173 A 
ATOM     65  C   UNL A   1      44.286  33.745  31.444  1.00  0.00     0.173 A 
ATOM     66  F   UNL A   1      43.095  31.822  34.294  1.00  0.00    -0.203 F 
ATOM     67  C   UNL A   1      43.626  34.107  34.118  1.00  0.00     0.198 A 
ATOM     68  C   UNL A   1      44.406  35.002  32.032  1.00  0.00     0.198 A 
ATOM     69  F   UNL A   1      44.600  33.606  30.148  1.00  0.00    -0.203 F 
ATOM     70  F   UNL A   1      43.271  34.286  35.398  1.00  0.00    -0.200 F 
ATOM     71  C   UNL A   1      44.068  35.184  33.364  1.00  0.00     0.200 A 
ATOM     72  F   UNL A   1      44.843  36.040  31.304  1.00  0.00    -0.200 F 
ATOM     73  F   UNL A   1      44.161  36.399  33.921  1.00  0.00    -0.200 F 
ENDBRANCH  49  63
BRANCH  50  74
ATOM     74  C   UNL A   1      42.816  23.920  27.428  1.00  0.00     0.064 A 
ATOM     75  C   UNL A   1      42.366  22.757  28.067  1.00  0.00     0.173 A 
ATOM     76  C   UNL A   1      43.126  23.837  26.063  1.00  0.00     0.173 A 
ATOM     77  F   UNL A   1      42.074  22.784  29.376  1.00  0.00    -0.203 F 
ATOM     78  C   UNL A   1      42.245  21.554  27.374  1.00  0.00     0.198 A 
ATOM     79  C   UNL A   1      42.983  22.640  25.365  1.00  0.00     0.198 A 
ATOM     80  F   UNL A   1      43.553  24.924  25.405  1.00  0.00    -0.203 F 
ATOM     81  F   UNL A   1      41.848  20.449  28.018  1.00  0.00    -0.200 F 
ATOM     82  C   UNL A   1      42.549  21.499  26.022  1.00  0.00     0.200 A 
ATOM     83  F   UNL A   1      43.262  22.593  24.055  1.00  0.00    -0.200 F 
ATOM     84  F   UNL A   1      42.427  20.343  25.354  1.00  0.00    -0.200 F 
ENDBRANCH  50  74
BRANCH  62  85
ATOM     85  C   UNL A   1      48.035  26.907  30.949  1.00  0.00     0.064 A 
ATOM     86  C   UNL A   1      49.121  27.290  30.149  1.00  0.00     0.173 A 
ATOM     87  C   UNL A   1      48.293  26.126  32.084  1.00  0.00     0.173 A 
ATOM     88  F   UNL A   1      48.921  28.024  29.045  1.00  0.00    -0.203 F 
ATOM     89  C   UNL A   1      50.417  26.888  30.467  1.00  0.00     0.198 A 
ATOM     90  C   UNL A   1      49.592  25.749  32.413  1.00  0.00     0.198 A 
ATOM     91  F   UNL A   1      47.286  25.740  32.883  1.00  0.00    -0.203 F 
ATOM     92  F   UNL A   1      51.436  27.231  29.667  1.00  0.00    -0.200 F 
ATOM     93  C   UNL A   1      50.651  26.126  31.601  1.00  0.00     0.200 A 
ATOM     94  F   UNL A   1      49.819  25.022  33.515  1.00  0.00    -0.200 F 
ATOM     95  F   UNL A   1      51.899  25.747  31.909  1.00  0.00    -0.200 F 
ENDBRANCH  62  85
ENDBRANCH  36  37
ENDBRANCH  28  31
ENDBRANCH  26  27
ENDBRANCH  25  26
ENDBRANCH   1  25
TORSDOF 15
ENDMDL
MODEL 2
REMARK VINA RESULT:     -11.7      3.438      5.263
REMARK SMILES C[C@@H](O)[C@@H](NC(=O)c1csc(-c2ccsc2)n1)C(=O)NCCCNC(=O)c1ccc(-c2c3nc(c(-c4c(F)c(F)c(F)c(F)c4F)c4ccc([nH]4)c(-c4c(F)c(F)c(F)c(F)c4F)c4nc(c(-c5c(F)c(F)c(F)c(F)c5F)c5ccc2[nH]5)C=C4)C=C3)cc1
REMARK SMILES IDX 21 1 20 2 18 3 19 4 4 6 2 7 1 8 3 9 5 11 6 12 7 14 8 15 9 16
REMARK SMILES IDX 17 17 10 18 11 19 12 20 13 21 16 22 14 23 15 24 22 25 23 26
REMARK SMILES IDX 24 27 25 28 26 30 27 31 28 32 89 33 29 34 88 35 30 36 31 37
REMARK SMILES IDX 32 38 82 39 33 40 87 41 81 42 83 43 34 44 86 45 80 46 79 47
REMARK SMILES IDX 35 49 67 50 47 51 66 52 48 53 51 54 65 55 84 56 49 57 50 58
REMARK SMILES IDX 64 60 85 61 52 62 36 63 37 64 45 65 38 66 39 67 43 68 46 69
REMARK SMILES IDX 40 70 41 71 44 72 42 73 68 74 69 75 77 76 70 77 71 78 75 79
REMARK SMILES IDX 78 80 72 81 73 82 76 83 74 84 53 85 54 86 62 87 55 88 56 89
REMARK SMILES IDX 60 90 63 91 57 92 58 93 61 94 59 95
REMARK H PARENT 20 5 3 10 5 13 24 29 83 48 51 59
REMARK Flexibility Score: inf
ROOT
ATOM      1  C   UNL A   1      32.383  27.164  26.635  1.00  0.00     0.117 C 
ENDROOT
BRANCH   1   2
ATOM      2  N   UNL A   1      31.327  26.182  26.490  1.00  0.00    -0.354 N 
ATOM      3  C   UNL A   1      31.365  24.894  26.046  1.00  0.00     0.245 C 
ATOM      4  O   UNL A   1      30.273  24.341  25.893  1.00  0.00    -0.273 OA
ATOM      5  H   UNL A   1      30.434  26.497  26.759  1.00  0.00     0.163 HD
BRANCH   3   6
ATOM      6  C   UNL A   1      32.686  24.236  25.594  1.00  0.00     0.200 C 
BRANCH   6   7
ATOM      7  C   UNL A   1      32.842  22.990  26.531  1.00  0.00     0.143 C 
ATOM      8  C   UNL A   1      34.237  22.773  27.103  1.00  0.00     0.041 C 
BRANCH   7   9
ATOM      9  O   UNL A   1      31.966  23.111  27.657  1.00  0.00    -0.391 OA
ATOM     10  H   UNL A   1      31.276  23.763  27.462  1.00  0.00     0.211 HD
ENDBRANCH   7   9
ENDBRANCH   6   7
BRANCH   6  11
ATOM     11  N   UNL A   1      32.763  23.872  24.160  1.00  0.00    -0.337 N 
ATOM     12  C   UNL A   1      32.909  24.653  23.033  1.00  0.00     0.271 C 
ATOM     13  H   UNL A   1      32.697  22.907  23.981  1.00  0.00     0.164 HD
ATOM     14  O   UNL A   1      33.149  24.081  21.970  1.00  0.00    -0.267 OA
BRANCH  12  15
ATOM     15  C   UNL A   1      32.572  26.072  23.084  1.00  0.00     0.139 A 
ATOM     16  C   UNL A   1      33.545  27.058  23.026  1.00  0.00     0.101 A 
ATOM     17  N   UNL A   1      31.271  26.557  23.123  1.00  0.00    -0.231 NA
ATOM     18  S   UNL A   1      32.820  28.569  22.683  1.00  0.00    -0.122 S 
ATOM     19  C   UNL A   1      31.268  27.847  22.850  1.00  0.00     0.125 A 
BRANCH  19  20
ATOM     20  C   UNL A   1      29.991  28.610  22.667  1.00  0.00     0.021 A 
ATOM     21  C   UNL A   1      28.716  28.165  23.126  1.00  0.00     0.023 A 
ATOM     22  C   UNL A   1      29.905  29.816  22.002  1.00  0.00     0.076 A 
ATOM     23  C   UNL A   1      27.717  29.069  22.838  1.00  0.00     0.065 A 
ATOM     24  S   UNL A   1      28.299  30.408  21.945  1.00  0.00    -0.152 S 
ENDBRANCH  19  20
ENDBRANCH  12  15
ENDBRANCH   6  11
ENDBRANCH   3   6
ENDBRANCH   1   2
BRANCH   1  25
ATOM     25  C   UNL A   1      31.850  28.572  26.442  1.00  0.00     0.042 C 
BRANCH  25  26
ATOM     26  C   UNL A   1      32.906  29.562  25.973  1.00  0.00     0.118 C 
BRANCH  26  27
ATOM     27  N   UNL A   1      32.631  30.932  26.383  1.00  0.00    -0.352 N 
ATOM     28  C   UNL A   1      33.335  31.716  27.266  1.00  0.00     0.251 C 
ATOM     29  H   UNL A   1      31.839  31.352  25.975  1.00  0.00     0.163 HD
ATOM     30  O   UNL A   1      32.900  32.804  27.627  1.00  0.00    -0.269 OA
BRANCH  28  31
ATOM     31  C   UNL A   1      34.613  31.208  27.801  1.00  0.00     0.039 A 
ATOM     32  C   UNL A   1      35.669  32.098  27.999  1.00  0.00     0.014 A 
ATOM     33  C   UNL A   1      34.731  29.866  28.173  1.00  0.00     0.014 A 
ATOM     34  C   UNL A   1      36.823  31.656  28.648  1.00  0.00     0.010 A 
ATOM     35  C   UNL A   1      35.841  29.452  28.895  1.00  0.00     0.010 A 
ATOM     36  C   UNL A   1      36.899  30.341  29.137  1.00  0.00    -0.014 A 
BRANCH  36  37
ATOM     37  C   UNL A   1      38.077  29.867  29.904  1.00  0.00     0.031 A 
ATOM     38  C   UNL A   1      38.297  30.355  31.308  1.00  0.00     0.074 A 
ATOM     39  C   UNL A   1      38.990  29.077  29.308  1.00  0.00     0.049 A 
ATOM     40  N   UNL A   1      39.308  30.138  32.111  1.00  0.00    -0.248 NA
ATOM     41  C   UNL A   1      37.261  31.234  31.872  1.00  0.00     0.031 C 
ATOM     42  C   UNL A   1      38.923  28.597  27.926  1.00  0.00     0.029 A 
ATOM     43  N   UNL A   1      40.164  28.551  29.784  1.00  0.00    -0.354 N 
ATOM     44  C   UNL A   1      39.042  30.876  33.257  1.00  0.00     0.074 A 
ATOM     45  C   UNL A   1      37.803  31.587  33.026  1.00  0.00     0.031 C 
ATOM     46  C   UNL A   1      39.996  27.832  27.673  1.00  0.00     0.029 A 
ATOM     47  C   UNL A   1      40.843  27.792  28.862  1.00  0.00     0.049 A 
ATOM     48  H   UNL A   1      40.489  28.702  30.701  1.00  0.00     0.167 HD
ATOM     49  C   UNL A   1      39.753  30.934  34.407  1.00  0.00     0.037 A 
ATOM     50  C   UNL A   1      42.017  27.142  28.965  1.00  0.00     0.037 A 
ATOM     51  C   UNL A   1      40.958  30.187  34.648  1.00  0.00     0.049 A 
ATOM     52  C   UNL A   1      42.766  27.185  30.269  1.00  0.00     0.074 A 
ATOM     53  C   UNL A   1      41.706  30.105  35.809  1.00  0.00     0.029 A 
ATOM     54  N   UNL A   1      41.589  29.387  33.706  1.00  0.00    -0.354 N 
ATOM     55  N   UNL A   1      42.463  27.821  31.375  1.00  0.00    -0.248 NA
ATOM     56  C   UNL A   1      44.014  26.414  30.342  1.00  0.00     0.031 C 
ATOM     57  C   UNL A   1      42.810  29.283  35.558  1.00  0.00     0.029 A 
ATOM     58  C   UNL A   1      42.727  28.820  34.255  1.00  0.00     0.049 A 
ATOM     59  H   UNL A   1      41.274  29.243  32.785  1.00  0.00     0.167 HD
ATOM     60  C   UNL A   1      43.467  27.510  32.280  1.00  0.00     0.074 A 
ATOM     61  C   UNL A   1      44.381  26.616  31.600  1.00  0.00     0.031 C 
ATOM     62  C   UNL A   1      43.620  27.929  33.561  1.00  0.00     0.037 A 
BRANCH  49  63
ATOM     63  C   UNL A   1      39.238  31.830  35.494  1.00  0.00     0.064 A 
ATOM     64  C   UNL A   1      38.370  31.354  36.490  1.00  0.00     0.173 A 
ATOM     65  C   UNL A   1      39.633  33.175  35.555  1.00  0.00     0.173 A 
ATOM     66  F   UNL A   1      37.951  30.080  36.467  1.00  0.00    -0.203 F 
ATOM     67  C   UNL A   1      37.892  32.200  37.487  1.00  0.00     0.198 A 
ATOM     68  C   UNL A   1      39.176  34.009  36.572  1.00  0.00     0.198 A 
ATOM     69  F   UNL A   1      40.463  33.679  34.631  1.00  0.00    -0.203 F 
ATOM     70  F   UNL A   1      37.022  31.735  38.396  1.00  0.00    -0.200 F 
ATOM     71  C   UNL A   1      38.300  33.524  37.531  1.00  0.00     0.200 A 
ATOM     72  F   UNL A   1      39.579  35.287  36.619  1.00  0.00    -0.200 F 
ATOM     73  F   UNL A   1      37.842  34.335  38.495  1.00  0.00    -0.200 F 
ENDBRANCH  49  63
BRANCH  50  74
ATOM     74  C   UNL A   1      42.537  26.366  27.811  1.00  0.00     0.064 A 
ATOM     75  C   UNL A   1      43.478  26.924  26.935  1.00  0.00     0.173 A 
ATOM     76  C   UNL A   1      42.114  25.051  27.565  1.00  0.00     0.173 A 
ATOM     77  F   UNL A   1      43.898  28.184  27.120  1.00  0.00    -0.203 F 
ATOM     78  C   UNL A   1      43.964  26.204  25.846  1.00  0.00     0.198 A 
ATOM     79  C   UNL A   1      42.620  24.323  26.489  1.00  0.00     0.198 A 
ATOM     80  F   UNL A   1      41.223  24.469  28.379  1.00  0.00    -0.203 F 
ATOM     81  F   UNL A   1      44.835  26.775  25.003  1.00  0.00    -0.200 F 
ATOM     82  C   UNL A   1      43.539  24.902  25.628  1.00  0.00     0.200 A 
ATOM     83  F   UNL A   1      42.219  23.060  26.291  1.00  0.00    -0.200 F 
ATOM     84  F   UNL A   1      44.013  24.207  24.584  1.00  0.00    -0.200 F 
ENDBRANCH  50  74
BRANCH  62  85
ATOM     85  C   UNL A   1      44.804  27.404  34.316  1.00  0.00     0.064 A 
ATOM     86  C   UNL A   1      44.743  26.195  35.024  1.00  0.00     0.173 A 
ATOM     87  C   UNL A   1      46.024  28.095  34.295  1.00  0.00     0.173 A 
ATOM     88  F   UNL A   1      43.594  25.506  35.086  1.00  0.00    -0.203 F 
ATOM     89  C   UNL A   1      45.859  25.707  35.700  1.00  0.00     0.198 A 
ATOM     90  C   UNL A   1      47.144  27.591  34.949  1.00  0.00     0.198 A 
ATOM     91  F   UNL A   1      46.133  29.254  33.626  1.00  0.00    -0.203 F 
ATOM     92  F   UNL A   1      45.767  24.570  36.404  1.00  0.00    -0.200 F 
ATOM     93  C   UNL A   1      47.058  26.401  35.656  1.00  0.00     0.200 A 
ATOM     94  F   UNL A   1      48.306  28.257  34.896  1.00  0.00    -0.200 F 
ATOM     95  F   UNL A   1      48.132  25.926  36.301  1.00  0.00    -0.200 F 
ENDBRANCH  62  85
ENDBRANCH  36  37
ENDBRANCH  28  31
ENDBRANCH  26  27
ENDBRANCH  25  26
ENDBRANCH   1  25
TORSDOF 15
ENDMDL
MODEL 3
REMARK VINA RESULT:     -11.6      3.183      4.421
REMARK SMILES C[C@@H](O)[C@@H](NC(=O)c1csc(-c2ccsc2)n1)C(=O)NCCCNC(=O)c1ccc(-c2c3nc(c(-c4c(F)c(F)c(F)c(F)c4F)c4ccc([nH]4)c(-c4c(F)c(F)c(F)c(F)c4F)c4nc(c(-c5c(F)c(F)c(F)c(F)c5F)c5ccc2[nH]5)C=C4)C=C3)cc1
REMARK SMILES IDX 21 1 20 2 18 3 19 4 4 6 2 7 1 8 3 9 5 11 6 12 7 14 8 15 9 16
REMARK SMILES IDX 17 17 10 18 11 19 12 20 13 21 16 22 14 23 15 24 22 25 23 26
REMARK SMILES IDX 24 27 25 28 26 30 27 31 28 32 89 33 29 34 88 35 30 36 31 37
REMARK SMILES IDX 32 38 82 39 33 40 87 41 81 42 83 43 34 44 86 45 80 46 79 47
REMARK SMILES IDX 35 49 67 50 47 51 66 52 48 53 51 54 65 55 84 56 49 57 50 58
REMARK SMILES IDX 64 60 85 61 52 62 36 63 37 64 45 65 38 66 39 67 43 68 46 69
REMARK SMILES IDX 40 70 41 71 44 72 42 73 68 74 69 75 77 76 70 77 71 78 75 79
REMARK SMILES IDX 78 80 72 81 73 82 76 83 74 84 53 85 54 86 62 87 55 88 56 89
REMARK SMILES IDX 60 90 63 91 57 92 58 93 61 94 59 95
REMARK H PARENT 20 5 3 10 5 13 24 29 83 48 51 59
REMARK Flexibility Score: inf
ROOT
ATOM      1  C   UNL A   1      31.748  29.624  25.072  1.00  0.00     0.117 C 
ENDROOT
BRANCH   1   2
ATOM      2  N   UNL A   1      30.992  29.769  23.844  1.00  0.00    -0.354 N 
ATOM      3  C   UNL A   1      30.764  28.887  22.830  1.00  0.00     0.245 C 
ATOM      4  O   UNL A   1      30.200  29.342  21.832  1.00  0.00    -0.273 OA
ATOM      5  H   UNL A   1      30.572  30.651  23.722  1.00  0.00     0.163 HD
BRANCH   3   6
ATOM      6  C   UNL A   1      31.341  27.455  22.864  1.00  0.00     0.200 C 
BRANCH   6   7
ATOM      7  C   UNL A   1      30.123  26.555  23.269  1.00  0.00     0.143 C 
ATOM      8  C   UNL A   1      30.290  25.779  24.569  1.00  0.00     0.041 C 
BRANCH   7   9
ATOM      9  O   UNL A   1      28.951  27.361  23.435  1.00  0.00    -0.391 OA
ATOM     10  H   UNL A   1      29.006  27.841  24.274  1.00  0.00     0.211 HD
ENDBRANCH   7   9
ENDBRANCH   6   7
BRANCH   6  11
ATOM     11  N   UNL A   1      31.986  26.995  21.612  1.00  0.00    -0.337 N 
ATOM     12  C   UNL A   1      32.698  25.850  21.327  1.00  0.00     0.271 C 
ATOM     13  H   UNL A   1      31.890  27.614  20.853  1.00  0.00     0.164 HD
ATOM     14  O   UNL A   1      32.954  25.615  20.146  1.00  0.00    -0.267 OA
BRANCH  12  15
ATOM     15  C   UNL A   1      33.300  25.080  22.413  1.00  0.00     0.139 A 
ATOM     16  C   UNL A   1      33.879  25.694  23.511  1.00  0.00     0.101 A 
ATOM     17  N   UNL A   1      33.285  23.693  22.477  1.00  0.00    -0.231 NA
ATOM     18  S   UNL A   1      34.099  24.552  24.766  1.00  0.00    -0.122 S 
ATOM     19  C   UNL A   1      33.613  23.300  23.692  1.00  0.00     0.125 A 
BRANCH  19  20
ATOM     20  C   UNL A   1      33.532  21.860  24.102  1.00  0.00     0.021 A 
ATOM     21  C   UNL A   1      34.632  21.102  24.601  1.00  0.00     0.023 A 
ATOM     22  C   UNL A   1      32.384  21.100  24.010  1.00  0.00     0.076 A 
ATOM     23  C   UNL A   1      34.271  19.810  24.914  1.00  0.00     0.065 A 
ATOM     24  S   UNL A   1      32.634  19.488  24.533  1.00  0.00    -0.152 S 
ENDBRANCH  19  20
ENDBRANCH  12  15
ENDBRANCH   6  11
ENDBRANCH   3   6
ENDBRANCH   1   2
BRANCH   1  25
ATOM     25  C   UNL A   1      31.424  30.740  26.048  1.00  0.00     0.042 C 
BRANCH  25  26
ATOM     26  C   UNL A   1      32.603  31.145  26.920  1.00  0.00     0.118 C 
BRANCH  26  27
ATOM     27  N   UNL A   1      32.707  32.585  27.112  1.00  0.00    -0.352 N 
ATOM     28  C   UNL A   1      33.683  33.289  27.775  1.00  0.00     0.251 C 
ATOM     29  H   UNL A   1      31.984  33.124  26.717  1.00  0.00     0.163 HD
ATOM     30  O   UNL A   1      33.561  34.491  27.984  1.00  0.00    -0.269 OA
BRANCH  28  31
ATOM     31  C   UNL A   1      34.872  32.563  28.263  1.00  0.00     0.039 A 
ATOM     32  C   UNL A   1      36.105  33.216  28.292  1.00  0.00     0.014 A 
ATOM     33  C   UNL A   1      34.741  31.264  28.761  1.00  0.00     0.014 A 
ATOM     34  C   UNL A   1      37.196  32.590  28.895  1.00  0.00     0.010 A 
ATOM     35  C   UNL A   1      35.803  30.680  29.437  1.00  0.00     0.010 A 
ATOM     36  C   UNL A   1      37.041  31.336  29.510  1.00  0.00    -0.014 A 
BRANCH  36  37
ATOM     37  C   UNL A   1      38.161  30.685  30.231  1.00  0.00     0.031 A 
ATOM     38  C   UNL A   1      38.428  31.038  31.667  1.00  0.00     0.074 A 
ATOM     39  C   UNL A   1      38.988  29.851  29.572  1.00  0.00     0.049 A 
ATOM     40  N   UNL A   1      39.408  30.656  32.446  1.00  0.00    -0.248 NA
ATOM     41  C   UNL A   1      37.488  31.975  32.302  1.00  0.00     0.031 C 
ATOM     42  C   UNL A   1      38.875  29.487  28.158  1.00  0.00     0.029 A 
ATOM     43  N   UNL A   1      40.099  29.170  30.000  1.00  0.00    -0.354 N 
ATOM     44  C   UNL A   1      39.218  31.328  33.646  1.00  0.00     0.074 A 
ATOM     45  C   UNL A   1      38.061  32.180  33.477  1.00  0.00     0.031 C 
ATOM     46  C   UNL A   1      39.862  28.636  27.842  1.00  0.00     0.029 A 
ATOM     47  C   UNL A   1      40.697  28.416  29.020  1.00  0.00     0.049 A 
ATOM     48  H   UNL A   1      40.436  29.216  30.924  1.00  0.00     0.167 HD
ATOM     49  C   UNL A   1      39.928  31.224  34.794  1.00  0.00     0.037 A 
ATOM     50  C   UNL A   1      41.796  27.641  29.067  1.00  0.00     0.037 A 
ATOM     51  C   UNL A   1      41.048  30.338  34.970  1.00  0.00     0.049 A 
ATOM     52  C   UNL A   1      42.542  27.506  30.366  1.00  0.00     0.074 A 
ATOM     53  C   UNL A   1      41.779  30.089  36.117  1.00  0.00     0.029 A 
ATOM     54  N   UNL A   1      41.593  29.550  33.967  1.00  0.00    -0.354 N 
ATOM     55  N   UNL A   1      42.304  28.084  31.519  1.00  0.00    -0.248 NA
ATOM     56  C   UNL A   1      43.702  26.605  30.373  1.00  0.00     0.031 C 
ATOM     57  C   UNL A   1      42.792  29.178  35.799  1.00  0.00     0.029 A 
ATOM     58  C   UNL A   1      42.664  28.827  34.465  1.00  0.00     0.049 A 
ATOM     59  H   UNL A   1      41.267  29.511  33.039  1.00  0.00     0.167 HD
ATOM     60  C   UNL A   1      43.268  27.602  32.392  1.00  0.00     0.074 A 
ATOM     61  C   UNL A   1      44.085  26.671  31.641  1.00  0.00     0.031 C 
ATOM     62  C   UNL A   1      43.461  27.903  33.700  1.00  0.00     0.037 A 
BRANCH  49  63
ATOM     63  C   UNL A   1      39.507  32.083  35.949  1.00  0.00     0.064 A 
ATOM     64  C   UNL A   1      38.495  31.681  36.834  1.00  0.00     0.173 A 
ATOM     65  C   UNL A   1      40.137  33.313  36.187  1.00  0.00     0.173 A 
ATOM     66  F   UNL A   1      37.852  30.519  36.641  1.00  0.00    -0.203 F 
ATOM     67  C   UNL A   1      38.107  32.493  37.896  1.00  0.00     0.198 A 
ATOM     68  C   UNL A   1      39.767  34.109  37.268  1.00  0.00     0.198 A 
ATOM     69  F   UNL A   1      41.112  33.743  35.374  1.00  0.00    -0.203 F 
ATOM     70  F   UNL A   1      37.102  32.111  38.696  1.00  0.00    -0.200 F 
ATOM     71  C   UNL A   1      38.747  33.703  38.116  1.00  0.00     0.200 A 
ATOM     72  F   UNL A   1      40.393  35.274  37.486  1.00  0.00    -0.200 F 
ATOM     73  F   UNL A   1      38.376  34.481  39.142  1.00  0.00    -0.200 F 
ENDBRANCH  49  63
BRANCH  50  74
ATOM     74  C   UNL A   1      42.235  26.905  27.854  1.00  0.00     0.064 A 
ATOM     75  C   UNL A   1      43.122  27.490  26.940  1.00  0.00     0.173 A 
ATOM     76  C   UNL A   1      41.787  25.602  27.588  1.00  0.00     0.173 A 
ATOM     77  F   UNL A   1      43.563  28.740  27.143  1.00  0.00    -0.203 F 
ATOM     78  C   UNL A   1      43.532  26.808  25.797  1.00  0.00     0.198 A 
ATOM     79  C   UNL A   1      42.217  24.912  26.456  1.00  0.00     0.198 A 
ATOM     80  F   UNL A   1      40.945  24.996  28.436  1.00  0.00    -0.203 F 
ATOM     81  F   UNL A   1      44.351  27.404  24.920  1.00  0.00    -0.200 F 
ATOM     82  C   UNL A   1      43.083  25.517  25.559  1.00  0.00     0.200 A 
ATOM     83  F   UNL A   1      41.794  23.659  26.238  1.00  0.00    -0.200 F 
ATOM     84  F   UNL A   1      43.483  24.858  24.462  1.00  0.00    -0.200 F 
ENDBRANCH  50  74
BRANCH  62  85
ATOM     85  C   UNL A   1      44.581  27.201  34.407  1.00  0.00     0.064 A 
ATOM     86  C   UNL A   1      44.393  25.952  35.017  1.00  0.00     0.173 A 
ATOM     87  C   UNL A   1      45.866  27.762  34.435  1.00  0.00     0.173 A 
ATOM     88  F   UNL A   1      43.178  25.383  35.029  1.00  0.00    -0.203 F 
ATOM     89  C   UNL A   1      45.450  25.300  35.648  1.00  0.00     0.198 A 
ATOM     90  C   UNL A   1      46.925  27.095  35.043  1.00  0.00     0.198 A 
ATOM     91  F   UNL A   1      46.096  28.952  33.860  1.00  0.00    -0.203 F 
ATOM     92  F   UNL A   1      45.238  24.126  36.260  1.00  0.00    -0.200 F 
ATOM     93  C   UNL A   1      46.714  25.868  35.654  1.00  0.00     0.200 A 
ATOM     94  F   UNL A   1      48.149  27.639  35.039  1.00  0.00    -0.200 F 
ATOM     95  F   UNL A   1      47.731  25.235  36.255  1.00  0.00    -0.200 F 
ENDBRANCH  62  85
ENDBRANCH  36  37
ENDBRANCH  28  31
ENDBRANCH  26  27
ENDBRANCH  25  26
ENDBRANCH   1  25
TORSDOF 15
ENDMDL
