MODEL 1
REMARK VINA RESULT:     -13.9      0.000      0.000
REMARK SMILES O=C(NCCCNC(=O)c1cc(-c2cccc(F)c2)nc2c(F)cccc12)c1ccc(-c2c3nc(c(-c4c(F)c(F)c(F)c(F)c4F)c4ccc([nH]4)c(-c4c(F)c(F)c(F)c(F)c4F)c4nc(c(-c5c(F)c(F)c(F)c(F)c5F)c5ccc2[nH]5)C=C4)C=C3)cc1
REMARK SMILES IDX 4 1 3 2 1 3 2 4 28 6 29 7 90 8 30 9 89 10 31 11 32 12 33 13
REMARK SMILES IDX 83 14 34 15 88 16 82 17 84 18 35 19 87 20 81 21 80 22 36 24
REMARK SMILES IDX 68 25 48 26 67 27 49 28 52 29 66 30 85 31 50 32 51 33 65 35
REMARK SMILES IDX 86 36 53 37 37 38 38 39 46 40 39 41 40 42 44 43 47 44 41 45
REMARK SMILES IDX 42 46 45 47 43 48 69 49 70 50 78 51 71 52 72 53 76 54 79 55
REMARK SMILES IDX 73 56 74 57 77 58 75 59 54 60 55 61 63 62 56 63 57 64 61 65
REMARK SMILES IDX 64 66 58 67 59 68 62 69 60 70 5 71 6 72 7 73 8 74 9 76 10 77
REMARK SMILES IDX 11 78 27 79 12 80 21 81 26 82 20 83 22 84 25 85 23 86 24 87
REMARK SMILES IDX 13 88 14 89 19 90 15 91 17 92 16 93 18 94
REMARK H PARENT 3 5 84 23 52 34 7 75
REMARK Flexibility Score: inf
ROOT
ATOM      1  C   UNL A   1      33.294  29.084  25.113  1.00  0.00     0.118 C 
ENDROOT
BRANCH   1   2
ATOM      2  N   UNL A   1      32.627  30.203  25.769  1.00  0.00    -0.352 N 
ATOM      3  O   UNL A   1      32.208  31.770  27.334  1.00  0.00    -0.269 OA
ATOM      4  C   UNL A   1      32.998  30.959  26.857  1.00  0.00     0.251 C 
ATOM      5  H   UNL A   1      31.766  30.460  25.366  1.00  0.00     0.163 HD
BRANCH   4   6
ATOM      6  C   UNL A   1      34.330  30.779  27.475  1.00  0.00     0.039 A 
ATOM      7  C   UNL A   1      34.761  29.517  27.870  1.00  0.00     0.014 A 
ATOM      8  C   UNL A   1      35.163  31.887  27.667  1.00  0.00     0.014 A 
ATOM      9  C   UNL A   1      35.897  29.392  28.654  1.00  0.00     0.010 A 
ATOM     10  C   UNL A   1      36.386  31.736  28.335  1.00  0.00     0.010 A 
ATOM     11  C   UNL A   1      36.742  30.493  28.876  1.00  0.00    -0.014 A 
BRANCH  11  12
ATOM     12  C   UNL A   1      38.007  30.264  29.623  1.00  0.00     0.031 A 
ATOM     13  C   UNL A   1      38.186  30.734  31.039  1.00  0.00     0.074 A 
ATOM     14  C   UNL A   1      38.965  29.520  29.030  1.00  0.00     0.049 A 
ATOM     15  N   UNL A   1      39.188  30.512  31.855  1.00  0.00    -0.248 NA
ATOM     16  C   UNL A   1      37.119  31.563  31.620  1.00  0.00     0.031 C 
ATOM     17  C   UNL A   1      38.905  29.022  27.653  1.00  0.00     0.029 A 
ATOM     18  N   UNL A   1      40.135  28.998  29.517  1.00  0.00    -0.354 N 
ATOM     19  C   UNL A   1      38.884  31.190  33.028  1.00  0.00     0.074 A 
ATOM     20  C   UNL A   1      37.613  31.847  32.819  1.00  0.00     0.031 C 
ATOM     21  C   UNL A   1      39.924  28.181  27.442  1.00  0.00     0.029 A 
ATOM     22  C   UNL A   1      40.759  28.146  28.637  1.00  0.00     0.049 A 
ATOM     23  H   UNL A   1      40.494  29.213  30.408  1.00  0.00     0.167 HD
ATOM     24  C   UNL A   1      39.602  31.249  34.175  1.00  0.00     0.037 A 
ATOM     25  C   UNL A   1      41.879  27.412  28.773  1.00  0.00     0.037 A 
ATOM     26  C   UNL A   1      40.852  30.563  34.390  1.00  0.00     0.049 A 
ATOM     27  C   UNL A   1      42.643  27.491  30.061  1.00  0.00     0.074 A 
ATOM     28  C   UNL A   1      41.643  30.551  35.526  1.00  0.00     0.029 A 
ATOM     29  N   UNL A   1      41.485  29.760  33.453  1.00  0.00    -0.354 N 
ATOM     30  N   UNL A   1      42.344  28.142  31.157  1.00  0.00    -0.248 NA
ATOM     31  C   UNL A   1      43.910  26.751  30.122  1.00  0.00     0.031 C 
ATOM     32  C   UNL A   1      42.772  29.768  35.265  1.00  0.00     0.029 A 
ATOM     33  C   UNL A   1      42.664  29.260  33.981  1.00  0.00     0.049 A 
ATOM     34  H   UNL A   1      41.147  29.573  32.547  1.00  0.00     0.167 HD
ATOM     35  C   UNL A   1      43.387  27.898  32.038  1.00  0.00     0.074 A 
ATOM     36  C   UNL A   1      44.307  27.007  31.361  1.00  0.00     0.031 C 
ATOM     37  C   UNL A   1      43.571  28.382  33.289  1.00  0.00     0.037 A 
BRANCH  24  38
ATOM     38  C   UNL A   1      39.071  32.083  35.303  1.00  0.00     0.064 A 
ATOM     39  C   UNL A   1      39.378  33.451  35.377  1.00  0.00     0.173 A 
ATOM     40  C   UNL A   1      38.357  31.512  36.365  1.00  0.00     0.173 A 
ATOM     41  F   UNL A   1      40.065  34.044  34.390  1.00  0.00    -0.203 F 
ATOM     42  C   UNL A   1      39.006  34.211  36.483  1.00  0.00     0.198 A 
ATOM     43  C   UNL A   1      37.969  32.279  37.460  1.00  0.00     0.198 A 
ATOM     44  F   UNL A   1      38.033  30.211  36.336  1.00  0.00    -0.203 F 
ATOM     45  F   UNL A   1      39.342  35.507  36.549  1.00  0.00    -0.200 F 
ATOM     46  C   UNL A   1      38.304  33.624  37.524  1.00  0.00     0.200 A 
ATOM     47  F   UNL A   1      37.276  31.715  38.460  1.00  0.00    -0.200 F 
ATOM     48  F   UNL A   1      37.951  34.354  38.592  1.00  0.00    -0.200 F 
ENDBRANCH  24  38
BRANCH  25  49
ATOM     49  C   UNL A   1      42.331  26.542  27.657  1.00  0.00     0.064 A 
ATOM     50  C   UNL A   1      41.835  25.238  27.504  1.00  0.00     0.173 A 
ATOM     51  C   UNL A   1      43.291  26.986  26.740  1.00  0.00     0.173 A 
ATOM     52  F   UNL A   1      40.918  24.764  28.360  1.00  0.00    -0.203 F 
ATOM     53  C   UNL A   1      42.303  24.404  26.493  1.00  0.00     0.198 A 
ATOM     54  C   UNL A   1      43.736  26.161  25.709  1.00  0.00     0.198 A 
ATOM     55  F   UNL A   1      43.782  28.231  26.834  1.00  0.00    -0.203 F 
ATOM     56  F   UNL A   1      41.845  23.149  26.397  1.00  0.00    -0.200 F 
ATOM     57  C   UNL A   1      43.249  24.868  25.593  1.00  0.00     0.200 A 
ATOM     58  F   UNL A   1      44.633  26.622  24.826  1.00  0.00    -0.200 F 
ATOM     59  F   UNL A   1      43.690  24.070  24.611  1.00  0.00    -0.200 F 
ENDBRANCH  25  49
BRANCH  37  60
ATOM     60  C   UNL A   1      44.821  27.963  34.004  1.00  0.00     0.064 A 
ATOM     61  C   UNL A   1      44.837  26.806  34.795  1.00  0.00     0.173 A 
ATOM     62  C   UNL A   1      45.989  28.735  33.934  1.00  0.00     0.173 A 
ATOM     63  F   UNL A   1      43.741  26.039  34.895  1.00  0.00    -0.203 F 
ATOM     64  C   UNL A   1      45.981  26.437  35.495  1.00  0.00     0.198 A 
ATOM     65  C   UNL A   1      47.139  28.349  34.616  1.00  0.00     0.198 A 
ATOM     66  F   UNL A   1      46.023  29.841  33.177  1.00  0.00    -0.203 F 
ATOM     67  F   UNL A   1      45.971  25.339  36.262  1.00  0.00    -0.200 F 
ATOM     68  C   UNL A   1      47.132  27.207  35.402  1.00  0.00     0.200 A 
ATOM     69  F   UNL A   1      48.258  29.079  34.504  1.00  0.00    -0.200 F 
ATOM     70  F   UNL A   1      48.239  26.841  36.062  1.00  0.00    -0.200 F 
ENDBRANCH  37  60
ENDBRANCH  11  12
ENDBRANCH   4   6
ENDBRANCH   1   2
BRANCH   1  71
ATOM     71  C   UNL A   1      32.989  28.982  23.629  1.00  0.00     0.042 C 
BRANCH  71  72
ATOM     72  C   UNL A   1      34.120  28.395  22.809  1.00  0.00     0.118 C 
BRANCH  72  73
ATOM     73  N   UNL A   1      33.654  27.566  21.703  1.00  0.00    -0.352 N 
ATOM     74  C   UNL A   1      33.268  26.250  21.700  1.00  0.00     0.252 C 
ATOM     75  H   UNL A   1      33.611  28.018  20.830  1.00  0.00     0.163 HD
ATOM     76  O   UNL A   1      32.963  25.699  20.648  1.00  0.00    -0.269 OA
BRANCH  74  77
ATOM     77  C   UNL A   1      33.273  25.475  22.956  1.00  0.00     0.051 A 
ATOM     78  C   UNL A   1      34.462  24.811  23.253  1.00  0.00     0.043 A 
ATOM     79  C   UNL A   1      32.165  25.429  23.829  1.00  0.00     0.016 A 
ATOM     80  C   UNL A   1      34.545  24.145  24.457  1.00  0.00     0.072 A 
ATOM     81  C   UNL A   1      32.380  24.807  25.070  1.00  0.00     0.107 A 
ATOM     82  C   UNL A   1      30.889  25.985  23.538  1.00  0.00     0.011 A 
ATOM     83  N   UNL A   1      33.536  24.170  25.360  1.00  0.00    -0.245 NA
ATOM     84  C   UNL A   1      31.352  24.884  26.013  1.00  0.00     0.149 A 
ATOM     85  C   UNL A   1      29.886  26.041  24.501  1.00  0.00     0.004 A 
ATOM     86  F   UNL A   1      31.532  24.359  27.236  1.00  0.00    -0.205 F 
ATOM     87  C   UNL A   1      30.130  25.506  25.754  1.00  0.00     0.041 A 
BRANCH  80  88
ATOM     88  C   UNL A   1      35.713  23.340  24.828  1.00  0.00     0.003 A 
ATOM     89  C   UNL A   1      35.797  21.992  24.429  1.00  0.00     0.010 A 
ATOM     90  C   UNL A   1      36.780  23.879  25.563  1.00  0.00     0.049 A 
ATOM     91  C   UNL A   1      36.914  21.211  24.738  1.00  0.00     0.004 A 
ATOM     92  C   UNL A   1      37.884  23.090  25.875  1.00  0.00     0.123 A 
ATOM     93  C   UNL A   1      37.964  21.765  25.465  1.00  0.00     0.039 A 
ATOM     94  F   UNL A   1      38.891  23.620  26.583  1.00  0.00    -0.207 F 
ENDBRANCH  80  88
ENDBRANCH  74  77
ENDBRANCH  72  73
ENDBRANCH  71  72
ENDBRANCH   1  71
TORSDOF 11
ENDMDL
MODEL 2
REMARK VINA RESULT:     -13.9      0.086      1.586
REMARK SMILES O=C(NCCCNC(=O)c1cc(-c2cccc(F)c2)nc2c(F)cccc12)c1ccc(-c2c3nc(c(-c4c(F)c(F)c(F)c(F)c4F)c4ccc([nH]4)c(-c4c(F)c(F)c(F)c(F)c4F)c4nc(c(-c5c(F)c(F)c(F)c(F)c5F)c5ccc2[nH]5)C=C4)C=C3)cc1
REMARK SMILES IDX 4 1 3 2 1 3 2 4 28 6 29 7 90 8 30 9 89 10 31 11 32 12 33 13
REMARK SMILES IDX 83 14 34 15 88 16 82 17 84 18 35 19 87 20 81 21 80 22 36 24
REMARK SMILES IDX 68 25 48 26 67 27 49 28 52 29 66 30 85 31 50 32 51 33 65 35
REMARK SMILES IDX 86 36 53 37 37 38 38 39 46 40 39 41 40 42 44 43 47 44 41 45
REMARK SMILES IDX 42 46 45 47 43 48 69 49 70 50 78 51 71 52 72 53 76 54 79 55
REMARK SMILES IDX 73 56 74 57 77 58 75 59 54 60 55 61 63 62 56 63 57 64 61 65
REMARK SMILES IDX 64 66 58 67 59 68 62 69 60 70 5 71 6 72 7 73 8 74 9 76 10 77
REMARK SMILES IDX 11 78 27 79 12 80 21 81 26 82 20 83 22 84 25 85 23 86 24 87
REMARK SMILES IDX 13 88 14 89 19 90 15 91 17 92 16 93 18 94
REMARK H PARENT 3 5 84 23 52 34 7 75
REMARK Flexibility Score: inf
ROOT
ATOM      1  C   UNL A   1      33.411  29.095  25.054  1.00  0.00     0.118 C 
ENDROOT
BRANCH   1   2
ATOM      2  N   UNL A   1      32.724  30.191  25.728  1.00  0.00    -0.352 N 
ATOM      3  O   UNL A   1      32.268  31.713  27.328  1.00  0.00    -0.269 OA
ATOM      4  C   UNL A   1      33.073  30.922  26.841  1.00  0.00     0.251 C 
ATOM      5  H   UNL A   1      31.866  30.450  25.321  1.00  0.00     0.163 HD
BRANCH   4   6
ATOM      6  C   UNL A   1      34.397  30.739  27.473  1.00  0.00     0.039 A 
ATOM      7  C   UNL A   1      34.816  29.477  27.885  1.00  0.00     0.014 A 
ATOM      8  C   UNL A   1      35.238  31.843  27.661  1.00  0.00     0.014 A 
ATOM      9  C   UNL A   1      35.944  29.353  28.680  1.00  0.00     0.010 A 
ATOM     10  C   UNL A   1      36.453  31.689  28.340  1.00  0.00     0.010 A 
ATOM     11  C   UNL A   1      36.795  30.450  28.898  1.00  0.00    -0.014 A 
BRANCH  11  12
ATOM     12  C   UNL A   1      38.052  30.219  29.658  1.00  0.00     0.031 A 
ATOM     13  C   UNL A   1      38.219  30.697  31.074  1.00  0.00     0.074 A 
ATOM     14  C   UNL A   1      39.012  29.467  29.080  1.00  0.00     0.049 A 
ATOM     15  N   UNL A   1      39.212  30.475  31.900  1.00  0.00    -0.248 NA
ATOM     16  C   UNL A   1      37.151  31.535  31.639  1.00  0.00     0.031 C 
ATOM     17  C   UNL A   1      38.962  28.961  27.705  1.00  0.00     0.029 A 
ATOM     18  N   UNL A   1      40.175  28.942  29.581  1.00  0.00    -0.354 N 
ATOM     19  C   UNL A   1      38.901  31.162  33.066  1.00  0.00     0.074 A 
ATOM     20  C   UNL A   1      37.634  31.824  32.841  1.00  0.00     0.031 C 
ATOM     21  C   UNL A   1      39.980  28.114  27.509  1.00  0.00     0.029 A 
ATOM     22  C   UNL A   1      40.803  28.082  28.712  1.00  0.00     0.049 A 
ATOM     23  H   UNL A   1      40.526  29.161  30.474  1.00  0.00     0.167 HD
ATOM     24  C   UNL A   1      39.608  31.225  34.220  1.00  0.00     0.037 A 
ATOM     25  C   UNL A   1      41.918  27.344  28.864  1.00  0.00     0.037 A 
ATOM     26  C   UNL A   1      40.851  30.534  34.451  1.00  0.00     0.049 A 
ATOM     27  C   UNL A   1      42.670  27.427  30.158  1.00  0.00     0.074 A 
ATOM     28  C   UNL A   1      41.632  30.525  35.594  1.00  0.00     0.029 A 
ATOM     29  N   UNL A   1      41.490  29.722  33.525  1.00  0.00    -0.354 N 
ATOM     30  N   UNL A   1      42.364  28.086  31.248  1.00  0.00    -0.248 NA
ATOM     31  C   UNL A   1      43.933  26.681  30.237  1.00  0.00     0.031 C 
ATOM     32  C   UNL A   1      42.760  29.735  35.349  1.00  0.00     0.029 A 
ATOM     33  C   UNL A   1      42.662  29.219  34.067  1.00  0.00     0.049 A 
ATOM     34  H   UNL A   1      41.160  29.531  32.617  1.00  0.00     0.167 HD
ATOM     35  C   UNL A   1      43.396  27.842  32.140  1.00  0.00     0.074 A 
ATOM     36  C   UNL A   1      44.319  26.943  31.478  1.00  0.00     0.031 C 
ATOM     37  C   UNL A   1      43.571  28.333  33.390  1.00  0.00     0.037 A 
BRANCH  24  38
ATOM     38  C   UNL A   1      39.070  32.068  35.338  1.00  0.00     0.064 A 
ATOM     39  C   UNL A   1      39.388  33.434  35.409  1.00  0.00     0.173 A 
ATOM     40  C   UNL A   1      38.338  31.508  36.392  1.00  0.00     0.173 A 
ATOM     41  F   UNL A   1      40.092  34.016  34.428  1.00  0.00    -0.203 F 
ATOM     42  C   UNL A   1      39.008  34.201  36.508  1.00  0.00     0.198 A 
ATOM     43  C   UNL A   1      37.942  32.283  37.480  1.00  0.00     0.198 A 
ATOM     44  F   UNL A   1      38.002  30.209  36.366  1.00  0.00    -0.203 F 
ATOM     45  F   UNL A   1      39.355  35.495  36.572  1.00  0.00    -0.200 F 
ATOM     46  C   UNL A   1      38.288  33.625  37.542  1.00  0.00     0.200 A 
ATOM     47  F   UNL A   1      37.232  31.729  38.473  1.00  0.00    -0.200 F 
ATOM     48  F   UNL A   1      37.928  34.363  38.602  1.00  0.00    -0.200 F 
ENDBRANCH  24  38
BRANCH  25  49
ATOM     49  C   UNL A   1      42.376  26.464  27.758  1.00  0.00     0.064 A 
ATOM     50  C   UNL A   1      43.332  26.902  26.828  1.00  0.00     0.173 A 
ATOM     51  C   UNL A   1      41.843  25.180  27.590  1.00  0.00     0.173 A 
ATOM     52  F   UNL A   1      43.868  28.125  26.942  1.00  0.00    -0.203 F 
ATOM     53  C   UNL A   1      43.716  26.098  25.759  1.00  0.00     0.198 A 
ATOM     54  C   UNL A   1      42.251  24.364  26.537  1.00  0.00     0.198 A 
ATOM     55  F   UNL A   1      40.940  24.710  28.463  1.00  0.00    -0.203 F 
ATOM     56  F   UNL A   1      44.598  26.557  24.861  1.00  0.00    -0.200 F 
ATOM     57  C   UNL A   1      43.180  24.828  25.617  1.00  0.00     0.200 A 
ATOM     58  F   UNL A   1      41.748  23.128  26.417  1.00  0.00    -0.200 F 
ATOM     59  F   UNL A   1      43.559  24.049  24.595  1.00  0.00    -0.200 F 
ENDBRANCH  25  49
BRANCH  37  60
ATOM     60  C   UNL A   1      44.812  27.913  34.119  1.00  0.00     0.064 A 
ATOM     61  C   UNL A   1      45.985  28.673  34.027  1.00  0.00     0.173 A 
ATOM     62  C   UNL A   1      44.844  26.732  34.875  1.00  0.00     0.173 A 
ATOM     63  F   UNL A   1      46.003  29.807  33.311  1.00  0.00    -0.203 F 
ATOM     64  C   UNL A   1      47.152  28.264  34.665  1.00  0.00     0.198 A 
ATOM     65  C   UNL A   1      46.005  26.339  35.533  1.00  0.00     0.198 A 
ATOM     66  F   UNL A   1      43.740  25.982  35.003  1.00  0.00    -0.203 F 
ATOM     67  F   UNL A   1      48.270  28.994  34.549  1.00  0.00    -0.200 F 
ATOM     68  C   UNL A   1      47.159  27.100  35.421  1.00  0.00     0.200 A 
ATOM     69  F   UNL A   1      46.005  25.229  36.284  1.00  0.00    -0.200 F 
ATOM     70  F   UNL A   1      48.279  26.716  36.051  1.00  0.00    -0.200 F 
ENDBRANCH  37  60
ENDBRANCH  11  12
ENDBRANCH   4   6
ENDBRANCH   1   2
BRANCH   1  71
ATOM     71  C   UNL A   1      33.064  28.979  23.580  1.00  0.00     0.042 C 
BRANCH  71  72
ATOM     72  C   UNL A   1      34.167  28.375  22.735  1.00  0.00     0.118 C 
BRANCH  72  73
ATOM     73  N   UNL A   1      33.666  27.545  21.647  1.00  0.00    -0.352 N 
ATOM     74  C   UNL A   1      33.254  26.236  21.665  1.00  0.00     0.252 C 
ATOM     75  H   UNL A   1      33.614  27.989  20.770  1.00  0.00     0.163 HD
ATOM     76  O   UNL A   1      32.920  25.681  20.624  1.00  0.00    -0.269 OA
BRANCH  74  77
ATOM     77  C   UNL A   1      33.269  25.473  22.929  1.00  0.00     0.051 A 
ATOM     78  C   UNL A   1      34.462  24.819  23.227  1.00  0.00     0.043 A 
ATOM     79  C   UNL A   1      32.164  25.430  23.806  1.00  0.00     0.016 A 
ATOM     80  C   UNL A   1      34.554  24.165  24.438  1.00  0.00     0.072 A 
ATOM     81  C   UNL A   1      32.388  24.822  25.053  1.00  0.00     0.107 A 
ATOM     82  C   UNL A   1      30.885  25.976  23.516  1.00  0.00     0.011 A 
ATOM     83  N   UNL A   1      33.549  24.194  25.344  1.00  0.00    -0.245 NA
ATOM     84  C   UNL A   1      31.363  24.902  25.999  1.00  0.00     0.149 A 
ATOM     85  C   UNL A   1      29.885  26.037  24.481  1.00  0.00     0.004 A 
ATOM     86  F   UNL A   1      31.551  24.391  27.227  1.00  0.00    -0.205 F 
ATOM     87  C   UNL A   1      30.137  25.516  25.739  1.00  0.00     0.041 A 
BRANCH  80  88
ATOM     88  C   UNL A   1      35.728  23.370  24.811  1.00  0.00     0.003 A 
ATOM     89  C   UNL A   1      35.846  22.037  24.374  1.00  0.00     0.010 A 
ATOM     90  C   UNL A   1      36.767  23.905  25.587  1.00  0.00     0.049 A 
ATOM     91  C   UNL A   1      36.969  21.267  24.686  1.00  0.00     0.004 A 
ATOM     92  C   UNL A   1      37.878  23.127  25.902  1.00  0.00     0.123 A 
ATOM     93  C   UNL A   1      37.992  21.816  25.454  1.00  0.00     0.039 A 
ATOM     94  F   UNL A   1      38.859  23.653  26.649  1.00  0.00    -0.207 F 
ENDBRANCH  80  88
ENDBRANCH  74  77
ENDBRANCH  72  73
ENDBRANCH  71  72
ENDBRANCH   1  71
TORSDOF 11
ENDMDL
MODEL 3
REMARK VINA RESULT:     -13.7      4.065      9.387
REMARK SMILES O=C(NCCCNC(=O)c1cc(-c2cccc(F)c2)nc2c(F)cccc12)c1ccc(-c2c3nc(c(-c4c(F)c(F)c(F)c(F)c4F)c4ccc([nH]4)c(-c4c(F)c(F)c(F)c(F)c4F)c4nc(c(-c5c(F)c(F)c(F)c(F)c5F)c5ccc2[nH]5)C=C4)C=C3)cc1
REMARK SMILES IDX 4 1 3 2 1 3 2 4 28 6 29 7 90 8 30 9 89 10 31 11 32 12 33 13
REMARK SMILES IDX 83 14 34 15 88 16 82 17 84 18 35 19 87 20 81 21 80 22 36 24
REMARK SMILES IDX 68 25 48 26 67 27 49 28 52 29 66 30 85 31 50 32 51 33 65 35
REMARK SMILES IDX 86 36 53 37 37 38 38 39 46 40 39 41 40 42 44 43 47 44 41 45
REMARK SMILES IDX 42 46 45 47 43 48 69 49 70 50 78 51 71 52 72 53 76 54 79 55
REMARK SMILES IDX 73 56 74 57 77 58 75 59 54 60 55 61 63 62 56 63 57 64 61 65
REMARK SMILES IDX 64 66 58 67 59 68 62 69 60 70 5 71 6 72 7 73 8 74 9 76 10 77
REMARK SMILES IDX 11 78 27 79 12 80 21 81 26 82 20 83 22 84 25 85 23 86 24 87
REMARK SMILES IDX 13 88 14 89 19 90 15 91 17 92 16 93 18 94
REMARK H PARENT 3 5 84 23 52 34 7 75
REMARK Flexibility Score: inf
ROOT
ATOM      1  C   UNL A   1      35.974  22.387  26.074  1.00  0.00     0.118 C 
ENDROOT
BRANCH   1   2
ATOM      2  N   UNL A   1      36.951  21.351  25.758  1.00  0.00    -0.352 N 
ATOM      3  O   UNL A   1      38.966  20.420  25.361  1.00  0.00    -0.269 OA
ATOM      4  C   UNL A   1      38.326  21.366  25.814  1.00  0.00     0.251 C 
ATOM      5  H   UNL A   1      36.563  20.500  25.453  1.00  0.00     0.163 HD
BRANCH   4   6
ATOM      6  C   UNL A   1      39.041  22.527  26.387  1.00  0.00     0.039 A 
ATOM      7  C   UNL A   1      38.663  23.824  26.055  1.00  0.00     0.014 A 
ATOM      8  C   UNL A   1      40.108  22.322  27.269  1.00  0.00     0.014 A 
ATOM      9  C   UNL A   1      39.477  24.889  26.406  1.00  0.00     0.010 A 
ATOM     10  C   UNL A   1      40.846  23.415  27.743  1.00  0.00     0.010 A 
ATOM     11  C   UNL A   1      40.565  24.706  27.276  1.00  0.00    -0.014 A 
BRANCH  11  12
ATOM     12  C   UNL A   1      41.324  25.910  27.710  1.00  0.00     0.031 A 
ATOM     13  C   UNL A   1      42.715  26.189  27.213  1.00  0.00     0.074 A 
ATOM     14  C   UNL A   1      40.687  26.814  28.484  1.00  0.00     0.049 A 
ATOM     15  N   UNL A   1      43.458  27.250  27.414  1.00  0.00    -0.248 NA
ATOM     16  C   UNL A   1      43.365  25.154  26.395  1.00  0.00     0.031 C 
ATOM     17  C   UNL A   1      39.340  26.641  29.036  1.00  0.00     0.029 A 
ATOM     18  N   UNL A   1      41.048  28.073  28.887  1.00  0.00    -0.354 N 
ATOM     19  C   UNL A   1      44.664  27.000  26.773  1.00  0.00     0.074 A 
ATOM     20  C   UNL A   1      44.565  25.681  26.187  1.00  0.00     0.031 C 
ATOM     21  C   UNL A   1      38.946  27.786  29.606  1.00  0.00     0.029 A 
ATOM     22  C   UNL A   1      40.041  28.746  29.537  1.00  0.00     0.049 A 
ATOM     23  H   UNL A   1      41.940  28.457  28.728  1.00  0.00     0.167 HD
ATOM     24  C   UNL A   1      45.749  27.805  26.679  1.00  0.00     0.037 A 
ATOM     25  C   UNL A   1      39.998  30.000  30.024  1.00  0.00     0.037 A 
ATOM     26  C   UNL A   1      45.829  29.133  27.235  1.00  0.00     0.049 A 
ATOM     27  C   UNL A   1      41.212  30.870  29.892  1.00  0.00     0.074 A 
ATOM     28  C   UNL A   1      46.882  30.029  27.175  1.00  0.00     0.029 A 
ATOM     29  N   UNL A   1      44.811  29.757  27.941  1.00  0.00    -0.354 N 
ATOM     30  N   UNL A   1      42.345  30.615  29.287  1.00  0.00    -0.248 NA
ATOM     31  C   UNL A   1      41.149  32.192  30.528  1.00  0.00     0.031 C 
ATOM     32  C   UNL A   1      46.515  31.183  27.875  1.00  0.00     0.029 A 
ATOM     33  C   UNL A   1      45.219  31.022  28.336  1.00  0.00     0.049 A 
ATOM     34  H   UNL A   1      43.931  29.361  28.135  1.00  0.00     0.167 HD
ATOM     35  C   UNL A   1      43.135  31.739  29.474  1.00  0.00     0.074 A 
ATOM     36  C   UNL A   1      42.336  32.693  30.215  1.00  0.00     0.031 C 
ATOM     37  C   UNL A   1      44.413  31.954  29.080  1.00  0.00     0.037 A 
BRANCH  24  38
ATOM     38  C   UNL A   1      46.955  27.290  25.951  1.00  0.00     0.064 A 
ATOM     39  C   UNL A   1      47.967  26.612  26.650  1.00  0.00     0.173 A 
ATOM     40  C   UNL A   1      47.163  27.560  24.592  1.00  0.00     0.173 A 
ATOM     41  F   UNL A   1      47.819  26.335  27.953  1.00  0.00    -0.203 F 
ATOM     42  C   UNL A   1      49.152  26.244  26.017  1.00  0.00     0.198 A 
ATOM     43  C   UNL A   1      48.341  27.173  23.958  1.00  0.00     0.198 A 
ATOM     44  F   UNL A   1      46.222  28.197  23.880  1.00  0.00    -0.203 F 
ATOM     45  F   UNL A   1      50.120  25.631  26.713  1.00  0.00    -0.200 F 
ATOM     46  C   UNL A   1      49.338  26.526  24.673  1.00  0.00     0.200 A 
ATOM     47  F   UNL A   1      48.514  27.432  22.654  1.00  0.00    -0.200 F 
ATOM     48  F   UNL A   1      50.482  26.177  24.066  1.00  0.00    -0.200 F 
ENDBRANCH  24  38
BRANCH  25  49
ATOM     49  C   UNL A   1      38.757  30.497  30.673  1.00  0.00     0.064 A 
ATOM     50  C   UNL A   1      37.729  31.089  29.922  1.00  0.00     0.173 A 
ATOM     51  C   UNL A   1      38.589  30.418  32.060  1.00  0.00     0.173 A 
ATOM     52  F   UNL A   1      37.845  31.192  28.590  1.00  0.00    -0.203 F 
ATOM     53  C   UNL A   1      36.594  31.606  30.539  1.00  0.00     0.198 A 
ATOM     54  C   UNL A   1      37.438  30.909  32.674  1.00  0.00     0.198 A 
ATOM     55  F   UNL A   1      39.535  29.845  32.819  1.00  0.00    -0.203 F 
ATOM     56  F   UNL A   1      35.649  32.206  29.803  1.00  0.00    -0.200 F 
ATOM     57  C   UNL A   1      36.446  31.511  31.914  1.00  0.00     0.200 A 
ATOM     58  F   UNL A   1      37.288  30.794  34.001  1.00  0.00    -0.200 F 
ATOM     59  F   UNL A   1      35.348  31.998  32.506  1.00  0.00    -0.200 F 
ENDBRANCH  25  49
BRANCH  37  60
ATOM     60  C   UNL A   1      45.027  33.269  29.451  1.00  0.00     0.064 A 
ATOM     61  C   UNL A   1      45.709  33.421  30.666  1.00  0.00     0.173 A 
ATOM     62  C   UNL A   1      44.902  34.389  28.616  1.00  0.00     0.173 A 
ATOM     63  F   UNL A   1      45.850  32.378  31.498  1.00  0.00    -0.203 F 
ATOM     64  C   UNL A   1      46.243  34.652  31.035  1.00  0.00     0.198 A 
ATOM     65  C   UNL A   1      45.459  35.612  28.977  1.00  0.00     0.198 A 
ATOM     66  F   UNL A   1      44.271  34.285  27.438  1.00  0.00    -0.203 F 
ATOM     67  F   UNL A   1      46.875  34.782  32.210  1.00  0.00    -0.200 F 
ATOM     68  C   UNL A   1      46.122  35.744  30.188  1.00  0.00     0.200 A 
ATOM     69  F   UNL A   1      45.364  36.660  28.147  1.00  0.00    -0.200 F 
ATOM     70  F   UNL A   1      46.653  36.925  30.536  1.00  0.00    -0.200 F 
ENDBRANCH  37  60
ENDBRANCH  11  12
ENDBRANCH   4   6
ENDBRANCH   1   2
BRANCH   1  71
ATOM     71  C   UNL A   1      34.642  21.836  26.552  1.00  0.00     0.042 C 
BRANCH  71  72
ATOM     72  C   UNL A   1      34.053  22.589  27.727  1.00  0.00     0.118 C 
BRANCH  72  73
ATOM     73  N   UNL A   1      32.597  22.529  27.774  1.00  0.00    -0.352 N 
ATOM     74  C   UNL A   1      31.670  23.289  27.107  1.00  0.00     0.252 C 
ATOM     75  H   UNL A   1      32.224  21.842  28.372  1.00  0.00     0.163 HD
ATOM     76  O   UNL A   1      30.473  23.132  27.324  1.00  0.00    -0.269 OA
BRANCH  74  77
ATOM     77  C   UNL A   1      32.111  24.338  26.167  1.00  0.00     0.051 A 
ATOM     78  C   UNL A   1      32.301  25.603  26.719  1.00  0.00     0.043 A 
ATOM     79  C   UNL A   1      32.363  24.082  24.802  1.00  0.00     0.016 A 
ATOM     80  C   UNL A   1      32.796  26.596  25.899  1.00  0.00     0.072 A 
ATOM     81  C   UNL A   1      32.954  25.130  24.075  1.00  0.00     0.107 A 
ATOM     82  C   UNL A   1      32.084  22.851  24.150  1.00  0.00     0.011 A 
ATOM     83  N   UNL A   1      33.145  26.355  24.614  1.00  0.00    -0.245 NA
ATOM     84  C   UNL A   1      33.357  24.855  22.767  1.00  0.00     0.149 A 
ATOM     85  C   UNL A   1      32.497  22.612  22.843  1.00  0.00     0.004 A 
ATOM     86  F   UNL A   1      33.984  25.804  22.052  1.00  0.00    -0.205 F 
ATOM     87  C   UNL A   1      33.159  23.615  22.156  1.00  0.00     0.041 A 
BRANCH  80  88
ATOM     88  C   UNL A   1      32.947  27.982  26.353  1.00  0.00     0.003 A 
ATOM     89  C   UNL A   1      31.816  28.812  26.475  1.00  0.00     0.010 A 
ATOM     90  C   UNL A   1      34.198  28.517  26.693  1.00  0.00     0.049 A 
ATOM     91  C   UNL A   1      31.925  30.126  26.938  1.00  0.00     0.004 A 
ATOM     92  C   UNL A   1      34.299  29.831  27.143  1.00  0.00     0.123 A 
ATOM     93  C   UNL A   1      33.175  30.638  27.274  1.00  0.00     0.039 A 
ATOM     94  F   UNL A   1      35.503  30.327  27.459  1.00  0.00    -0.207 F 
ENDBRANCH  80  88
ENDBRANCH  74  77
ENDBRANCH  72  73
ENDBRANCH  71  72
ENDBRANCH   1  71
TORSDOF 11
ENDMDL
