MODEL 1
REMARK VINA RESULT:     -14.5      0.000      0.000
REMARK SMILES COc1ccc2[nH]cc([C@H](C(=O)NCCCNC(=O)c3ccc(-c4c5nc(c(-c6c(F)c(F)c(F)c(F)c6F)c6ccc([nH]6)c(-c6c(F)c(F)c(F)c(F)c6F)c6nc(c(-c7c(F)c(F)c(F)c(F)c7F)c7ccc4[nH]7)C=C6)C=C5)cc3)[NH+]3CC[NH+](Cc4cccc5ccccc45)CC3)c2c1
REMARK SMILES IDX 14 1 13 2 11 3 12 4 10 6 9 7 3 8 4 9 101 10 5 11 100 12 6 13
REMARK SMILES IDX 7 14 8 15 2 17 1 18 83 19 84 20 99 21 85 23 98 24 86 25
REMARK SMILES IDX 87 27 88 28 89 29 97 30 90 31 92 32 96 33 91 34 93 35 95 36
REMARK SMILES IDX 94 37 15 38 16 39 17 40 18 41 19 43 20 44 21 45 82 46 22 47
REMARK SMILES IDX 81 48 23 49 24 50 25 51 75 52 26 53 80 54 74 55 76 56 27 57
REMARK SMILES IDX 79 58 73 59 72 60 28 62 60 63 40 64 59 65 41 66 44 67 58 68
REMARK SMILES IDX 77 69 42 70 43 71 57 73 78 74 45 75 29 76 30 77 38 78 31 79
REMARK SMILES IDX 32 80 36 81 39 82 33 83 34 84 37 85 35 86 61 87 62 88 70 89
REMARK SMILES IDX 63 90 64 91 68 92 71 93 65 94 66 95 69 96 67 97 46 98 47 99
REMARK SMILES IDX 55 100 48 101 49 102 53 103 56 104 50 105 51 106 54 107
REMARK SMILES IDX 52 108
REMARK H PARENT 13 5 7 16 83 22 86 26 17 42 76 61 44 72
REMARK Flexibility Score: inf
ROOT
ATOM      1  C   UNL A   1      31.105  30.831  25.749  1.00  0.00     0.118 C 
ENDROOT
BRANCH   1   2
ATOM      2  N   UNL A   1      32.092  29.956  26.387  1.00  0.00    -0.351 N 
ATOM      3  C   UNL A   1      32.483  28.666  26.108  1.00  0.00     0.283 C 
ATOM      4  O   UNL A   1      33.502  28.269  26.688  1.00  0.00    -0.268 OA
ATOM      5  H   UNL A   1      32.561  30.363  27.151  1.00  0.00     0.163 HD
BRANCH   3   6
ATOM      6  C   UNL A   1      31.730  27.739  25.121  1.00  0.00     0.308 C 
BRANCH   6   7
ATOM      7  C   UNL A   1      31.490  28.403  23.754  1.00  0.00     0.045 A 
ATOM      8  C   UNL A   1      27.810  29.081  22.934  1.00  0.00     0.119 A 
ATOM      9  C   UNL A   1      28.055  30.066  21.983  1.00  0.00     0.048 A 
ATOM     10  C   UNL A   1      28.870  28.319  23.446  1.00  0.00     0.057 A 
ATOM     11  C   UNL A   1      29.361  30.328  21.539  1.00  0.00     0.030 A 
ATOM     12  C   UNL A   1      30.205  28.663  23.131  1.00  0.00     0.013 A 
ATOM     13  C   UNL A   1      30.414  29.620  22.139  1.00  0.00     0.046 A 
ATOM     14  N   UNL A   1      31.774  29.700  21.949  1.00  0.00    -0.361 N 
ATOM     15  C   UNL A   1      32.430  28.976  22.910  1.00  0.00     0.094 A 
ATOM     16  H   UNL A   1      32.212  30.206  21.226  1.00  0.00     0.166 HD
BRANCH   8  17
ATOM     17  O   UNL A   1      26.593  28.806  23.499  1.00  0.00    -0.497 OA
ATOM     18  C   UNL A   1      26.344  27.455  23.876  1.00  0.00     0.278 C 
ENDBRANCH   8  17
ENDBRANCH   6   7
BRANCH   6  19
ATOM     19  N   UNL A   1      32.360  26.396  25.002  1.00  0.00    -0.312 N 
ATOM     20  C   UNL A   1      31.490  25.286  24.657  1.00  0.00     0.325 C 
ATOM     21  C   UNL A   1      33.610  26.272  24.223  1.00  0.00     0.325 C 
ATOM     22  H   UNL A   1      32.613  26.319  25.988  1.00  0.00     0.349 HD
ATOM     23  C   UNL A   1      31.289  25.059  23.138  1.00  0.00     0.324 C 
ATOM     24  C   UNL A   1      33.579  25.642  22.772  1.00  0.00     0.324 C 
ATOM     25  N   UNL A   1      32.488  24.729  22.404  1.00  0.00    -0.322 N 
ATOM     26  H   UNL A   1      32.391  24.937  21.410  1.00  0.00     0.348 HD
BRANCH  25  27
ATOM     27  C   UNL A   1      32.706  23.292  22.217  1.00  0.00     0.300 C 
BRANCH  27  28
ATOM     28  C   UNL A   1      33.043  22.499  23.466  1.00  0.00     0.014 A 
ATOM     29  C   UNL A   1      31.980  21.793  24.050  1.00  0.00     0.010 A 
ATOM     30  C   UNL A   1      34.382  22.293  23.932  1.00  0.00    -0.010 A 
ATOM     31  C   UNL A   1      32.223  20.795  24.978  1.00  0.00     0.001 A 
ATOM     32  C   UNL A   1      34.617  21.171  24.760  1.00  0.00    -0.018 A 
ATOM     33  C   UNL A   1      35.518  23.052  23.539  1.00  0.00     0.009 A 
ATOM     34  C   UNL A   1      33.535  20.448  25.284  1.00  0.00     0.009 A 
ATOM     35  C   UNL A   1      35.934  20.740  25.001  1.00  0.00     0.009 A 
ATOM     36  C   UNL A   1      36.824  22.619  23.797  1.00  0.00     0.001 A 
ATOM     37  C   UNL A   1      37.029  21.438  24.495  1.00  0.00     0.001 A 
ENDBRANCH  27  28
ENDBRANCH  25  27
ENDBRANCH   6  19
ENDBRANCH   3   6
ENDBRANCH   1   2
BRANCH   1  38
ATOM     38  C   UNL A   1      31.030  32.241  26.269  1.00  0.00     0.042 C 
BRANCH  38  39
ATOM     39  C   UNL A   1      32.291  32.668  26.973  1.00  0.00     0.118 C 
BRANCH  39  40
ATOM     40  N   UNL A   1      32.225  34.041  27.457  1.00  0.00    -0.352 N 
ATOM     41  C   UNL A   1      33.021  34.638  28.407  1.00  0.00     0.251 C 
ATOM     42  H   UNL A   1      31.529  34.609  27.056  1.00  0.00     0.163 HD
ATOM     43  O   UNL A   1      32.741  35.734  28.878  1.00  0.00    -0.269 OA
BRANCH  41  44
ATOM     44  C   UNL A   1      34.205  33.894  28.882  1.00  0.00     0.039 A 
ATOM     45  C   UNL A   1      35.473  34.454  28.740  1.00  0.00     0.014 A 
ATOM     46  C   UNL A   1      34.028  32.700  29.585  1.00  0.00     0.014 A 
ATOM     47  C   UNL A   1      36.557  33.849  29.379  1.00  0.00     0.010 A 
ATOM     48  C   UNL A   1      35.073  32.197  30.342  1.00  0.00     0.010 A 
ATOM     49  C   UNL A   1      36.358  32.742  30.222  1.00  0.00    -0.014 A 
BRANCH  49  50
ATOM     50  C   UNL A   1      37.483  32.095  30.942  1.00  0.00     0.031 A 
ATOM     51  C   UNL A   1      38.277  31.018  30.250  1.00  0.00     0.074 A 
ATOM     52  C   UNL A   1      37.753  32.422  32.222  1.00  0.00     0.049 A 
ATOM     53  N   UNL A   1      39.245  30.270  30.717  1.00  0.00    -0.248 NA
ATOM     54  C   UNL A   1      37.905  30.704  28.859  1.00  0.00     0.031 C 
ATOM     55  C   UNL A   1      37.016  33.398  33.027  1.00  0.00     0.029 A 
ATOM     56  N   UNL A   1      38.726  31.961  33.075  1.00  0.00    -0.354 N 
ATOM     57  C   UNL A   1      39.568  29.392  29.692  1.00  0.00     0.074 A 
ATOM     58  C   UNL A   1      38.648  29.638  28.608  1.00  0.00     0.031 C 
ATOM     59  C   UNL A   1      37.587  33.492  34.239  1.00  0.00     0.029 A 
ATOM     60  C   UNL A   1      38.702  32.553  34.315  1.00  0.00     0.049 A 
ATOM     61  H   UNL A   1      39.380  31.269  32.822  1.00  0.00     0.167 HD
ATOM     62  C   UNL A   1      40.573  28.486  29.639  1.00  0.00     0.037 A 
ATOM     63  C   UNL A   1      39.492  32.359  35.388  1.00  0.00     0.037 A 
ATOM     64  C   UNL A   1      41.525  28.284  30.694  1.00  0.00     0.049 A 
ATOM     65  C   UNL A   1      40.617  31.360  35.294  1.00  0.00     0.074 A 
ATOM     66  C   UNL A   1      42.629  27.452  30.710  1.00  0.00     0.029 A 
ATOM     67  N   UNL A   1      41.489  28.930  31.921  1.00  0.00    -0.354 N 
ATOM     68  N   UNL A   1      40.965  30.595  34.287  1.00  0.00    -0.248 NA
ATOM     69  C   UNL A   1      41.465  31.202  36.485  1.00  0.00     0.031 C 
ATOM     70  C   UNL A   1      43.233  27.555  31.966  1.00  0.00     0.029 A 
ATOM     71  C   UNL A   1      42.540  28.496  32.711  1.00  0.00     0.049 A 
ATOM     72  H   UNL A   1      40.818  29.598  32.189  1.00  0.00     0.167 HD
ATOM     73  C   UNL A   1      42.087  29.893  34.709  1.00  0.00     0.074 A 
ATOM     74  C   UNL A   1      42.371  30.336  36.059  1.00  0.00     0.031 C 
ATOM     75  C   UNL A   1      42.815  28.963  34.045  1.00  0.00     0.037 A 
BRANCH  62  76
ATOM     76  C   UNL A   1      40.704  27.662  28.391  1.00  0.00     0.064 A 
ATOM     77  C   UNL A   1      41.491  28.082  27.307  1.00  0.00     0.173 A 
ATOM     78  C   UNL A   1      40.068  26.415  28.295  1.00  0.00     0.173 A 
ATOM     79  F   UNL A   1      42.107  29.274  27.342  1.00  0.00    -0.203 F 
ATOM     80  C   UNL A   1      41.614  27.298  26.164  1.00  0.00     0.198 A 
ATOM     81  C   UNL A   1      40.222  25.618  27.164  1.00  0.00     0.198 A 
ATOM     82  F   UNL A   1      39.306  25.964  29.302  1.00  0.00    -0.203 F 
ATOM     83  F   UNL A   1      42.329  27.744  25.122  1.00  0.00    -0.200 F 
ATOM     84  C   UNL A   1      40.989  26.062  26.097  1.00  0.00     0.200 A 
ATOM     85  F   UNL A   1      39.628  24.418  27.106  1.00  0.00    -0.200 F 
ATOM     86  F   UNL A   1      41.121  25.303  25.001  1.00  0.00    -0.200 F 
ENDBRANCH  62  76
BRANCH  63  87
ATOM     87  C   UNL A   1      39.271  33.136  36.637  1.00  0.00     0.064 A 
ATOM     88  C   UNL A   1      38.409  32.666  37.639  1.00  0.00     0.173 A 
ATOM     89  C   UNL A   1      39.892  34.377  36.845  1.00  0.00     0.173 A 
ATOM     90  F   UNL A   1      37.777  31.493  37.481  1.00  0.00    -0.203 F 
ATOM     91  C   UNL A   1      38.151  33.419  38.782  1.00  0.00     0.198 A 
ATOM     92  C   UNL A   1      39.658  35.115  38.003  1.00  0.00     0.198 A 
ATOM     93  F   UNL A   1      40.732  34.871  35.923  1.00  0.00    -0.203 F 
ATOM     94  F   UNL A   1      37.277  32.972  39.694  1.00  0.00    -0.200 F 
ATOM     95  C   UNL A   1      38.779  34.642  38.966  1.00  0.00     0.200 A 
ATOM     96  F   UNL A   1      40.281  36.287  38.185  1.00  0.00    -0.200 F 
ATOM     97  F   UNL A   1      38.529  35.367  40.064  1.00  0.00    -0.200 F 
ENDBRANCH  63  87
BRANCH  75  98
ATOM     98  C   UNL A   1      44.014  28.394  34.744  1.00  0.00     0.064 A 
ATOM     99  C   UNL A   1      45.267  29.021  34.687  1.00  0.00     0.173 A 
ATOM    100  C   UNL A   1      43.894  27.234  35.524  1.00  0.00     0.173 A 
ATOM    101  F   UNL A   1      45.437  30.125  33.945  1.00  0.00    -0.203 F 
ATOM    102  C   UNL A   1      46.363  28.490  35.362  1.00  0.00     0.198 A 
ATOM    103  C   UNL A   1      44.983  26.726  36.226  1.00  0.00     0.198 A 
ATOM    104  F   UNL A   1      42.714  26.602  35.620  1.00  0.00    -0.203 F 
ATOM    105  F   UNL A   1      47.562  29.077  35.252  1.00  0.00    -0.200 F 
ATOM    106  C   UNL A   1      46.218  27.350  36.138  1.00  0.00     0.200 A 
ATOM    107  F   UNL A   1      44.836  25.634  36.988  1.00  0.00    -0.200 F 
ATOM    108  F   UNL A   1      47.272  26.847  36.795  1.00  0.00    -0.200 F 
ENDBRANCH  75  98
ENDBRANCH  49  50
ENDBRANCH  41  44
ENDBRANCH  39  40
ENDBRANCH  38  39
ENDBRANCH   1  38
TORSDOF 15
ENDMDL
MODEL 2
REMARK VINA RESULT:     -14.4      0.502      7.044
REMARK SMILES COc1ccc2[nH]cc([C@H](C(=O)NCCCNC(=O)c3ccc(-c4c5nc(c(-c6c(F)c(F)c(F)c(F)c6F)c6ccc([nH]6)c(-c6c(F)c(F)c(F)c(F)c6F)c6nc(c(-c7c(F)c(F)c(F)c(F)c7F)c7ccc4[nH]7)C=C6)C=C5)cc3)[NH+]3CC[NH+](Cc4cccc5ccccc45)CC3)c2c1
REMARK SMILES IDX 14 1 13 2 11 3 12 4 10 6 9 7 3 8 4 9 101 10 5 11 100 12 6 13
REMARK SMILES IDX 7 14 8 15 2 17 1 18 83 19 84 20 99 21 85 23 98 24 86 25
REMARK SMILES IDX 87 27 88 28 89 29 97 30 90 31 92 32 96 33 91 34 93 35 95 36
REMARK SMILES IDX 94 37 15 38 16 39 17 40 18 41 19 43 20 44 21 45 82 46 22 47
REMARK SMILES IDX 81 48 23 49 24 50 25 51 75 52 26 53 80 54 74 55 76 56 27 57
REMARK SMILES IDX 79 58 73 59 72 60 28 62 60 63 40 64 59 65 41 66 44 67 58 68
REMARK SMILES IDX 77 69 42 70 43 71 57 73 78 74 45 75 29 76 30 77 38 78 31 79
REMARK SMILES IDX 32 80 36 81 39 82 33 83 34 84 37 85 35 86 61 87 62 88 70 89
REMARK SMILES IDX 63 90 64 91 68 92 71 93 65 94 66 95 69 96 67 97 46 98 47 99
REMARK SMILES IDX 55 100 48 101 49 102 53 103 56 104 50 105 51 106 54 107
REMARK SMILES IDX 52 108
REMARK H PARENT 13 5 7 16 83 22 86 26 17 42 76 61 44 72
REMARK Flexibility Score: inf
ROOT
ATOM      1  C   UNL A   1      31.148  30.883  25.830  1.00  0.00     0.118 C 
ENDROOT
BRANCH   1   2
ATOM      2  N   UNL A   1      32.123  29.973  26.437  1.00  0.00    -0.351 N 
ATOM      3  C   UNL A   1      32.449  28.666  26.155  1.00  0.00     0.283 C 
ATOM      4  O   UNL A   1      33.473  28.232  26.699  1.00  0.00    -0.268 OA
ATOM      5  H   UNL A   1      32.637  30.366  27.179  1.00  0.00     0.163 HD
BRANCH   3   6
ATOM      6  C   UNL A   1      31.621  27.764  25.206  1.00  0.00     0.308 C 
BRANCH   6   7
ATOM      7  C   UNL A   1      31.448  28.381  23.807  1.00  0.00     0.045 A 
ATOM      8  C   UNL A   1      27.822  29.133  22.832  1.00  0.00     0.119 A 
ATOM      9  C   UNL A   1      28.128  30.073  21.854  1.00  0.00     0.048 A 
ATOM     10  C   UNL A   1      28.839  28.361  23.409  1.00  0.00     0.057 A 
ATOM     11  C   UNL A   1      29.457  30.279  21.446  1.00  0.00     0.030 A 
ATOM     12  C   UNL A   1      30.195  28.653  23.129  1.00  0.00     0.013 A 
ATOM     13  C   UNL A   1      30.466  29.565  22.110  1.00  0.00     0.046 A 
ATOM     14  N   UNL A   1      31.834  29.598  21.965  1.00  0.00    -0.361 N 
ATOM     15  C   UNL A   1      32.434  28.893  22.975  1.00  0.00     0.094 A 
ATOM     16  H   UNL A   1      32.312  30.062  21.240  1.00  0.00     0.166 HD
BRANCH   8  17
ATOM     17  O   UNL A   1      26.578  28.916  23.363  1.00  0.00    -0.497 OA
ATOM     18  C   UNL A   1      26.328  27.630  23.923  1.00  0.00     0.278 C 
ENDBRANCH   8  17
ENDBRANCH   6   7
BRANCH   6  19
ATOM     19  N   UNL A   1      32.129  26.366  25.156  1.00  0.00    -0.312 N 
ATOM     20  C   UNL A   1      31.271  25.373  24.534  1.00  0.00     0.325 C 
ATOM     21  C   UNL A   1      33.517  26.138  24.702  1.00  0.00     0.325 C 
ATOM     22  H   UNL A   1      32.118  26.222  26.166  1.00  0.00     0.349 HD
ATOM     23  C   UNL A   1      31.438  25.232  23.001  1.00  0.00     0.324 C 
ATOM     24  C   UNL A   1      33.792  25.574  23.249  1.00  0.00     0.324 C 
ATOM     25  N   UNL A   1      32.745  24.802  22.564  1.00  0.00    -0.322 N 
ATOM     26  H   UNL A   1      32.922  25.060  21.593  1.00  0.00     0.348 HD
BRANCH  25  27
ATOM     27  C   UNL A   1      32.864  23.359  22.341  1.00  0.00     0.300 C 
BRANCH  27  28
ATOM     28  C   UNL A   1      33.167  22.515  23.565  1.00  0.00     0.014 A 
ATOM     29  C   UNL A   1      32.069  21.861  24.145  1.00  0.00     0.010 A 
ATOM     30  C   UNL A   1      34.495  22.217  24.010  1.00  0.00    -0.010 A 
ATOM     31  C   UNL A   1      32.262  20.827  25.046  1.00  0.00     0.001 A 
ATOM     32  C   UNL A   1      34.672  21.063  24.807  1.00  0.00    -0.018 A 
ATOM     33  C   UNL A   1      35.671  22.916  23.621  1.00  0.00     0.009 A 
ATOM     34  C   UNL A   1      33.554  20.394  25.327  1.00  0.00     0.009 A 
ATOM     35  C   UNL A   1      35.963  20.547  25.020  1.00  0.00     0.009 A 
ATOM     36  C   UNL A   1      36.951  22.400  23.851  1.00  0.00     0.001 A 
ATOM     37  C   UNL A   1      37.093  21.191  24.518  1.00  0.00     0.001 A 
ENDBRANCH  27  28
ENDBRANCH  25  27
ENDBRANCH   6  19
ENDBRANCH   3   6
ENDBRANCH   1   2
BRANCH   1  38
ATOM     38  C   UNL A   1      31.165  32.304  26.326  1.00  0.00     0.042 C 
BRANCH  38  39
ATOM     39  C   UNL A   1      32.431  32.645  27.068  1.00  0.00     0.118 C 
BRANCH  39  40
ATOM     40  N   UNL A   1      32.421  34.003  27.596  1.00  0.00    -0.352 N 
ATOM     41  C   UNL A   1      33.272  34.550  28.529  1.00  0.00     0.251 C 
ATOM     42  H   UNL A   1      31.723  34.601  27.244  1.00  0.00     0.163 HD
ATOM     43  O   UNL A   1      33.041  35.637  29.045  1.00  0.00    -0.269 OA
BRANCH  41  44
ATOM     44  C   UNL A   1      34.456  33.762  28.928  1.00  0.00     0.039 A 
ATOM     45  C   UNL A   1      35.733  34.265  28.685  1.00  0.00     0.014 A 
ATOM     46  C   UNL A   1      34.282  32.586  29.661  1.00  0.00     0.014 A 
ATOM     47  C   UNL A   1      36.835  33.623  29.252  1.00  0.00     0.010 A 
ATOM     48  C   UNL A   1      35.358  32.049  30.348  1.00  0.00     0.010 A 
ATOM     49  C   UNL A   1      36.652  32.537  30.126  1.00  0.00    -0.014 A 
BRANCH  49  50
ATOM     50  C   UNL A   1      37.799  31.851  30.772  1.00  0.00     0.031 A 
ATOM     51  C   UNL A   1      38.196  32.242  32.173  1.00  0.00     0.074 A 
ATOM     52  C   UNL A   1      38.518  30.935  30.094  1.00  0.00     0.049 A 
ATOM     53  N   UNL A   1      39.208  31.830  32.894  1.00  0.00    -0.248 NA
ATOM     54  C   UNL A   1      37.373  33.267  32.838  1.00  0.00     0.031 C 
ATOM     55  C   UNL A   1      38.280  30.519  28.710  1.00  0.00     0.029 A 
ATOM     56  N   UNL A   1      39.603  30.187  30.479  1.00  0.00    -0.354 N 
ATOM     57  C   UNL A   1      39.152  32.564  34.071  1.00  0.00     0.074 A 
ATOM     58  C   UNL A   1      38.062  33.501  33.943  1.00  0.00     0.031 C 
ATOM     59  C   UNL A   1      39.165  29.564  28.378  1.00  0.00     0.029 A 
ATOM     60  C   UNL A   1      40.059  29.330  29.507  1.00  0.00     0.049 A 
ATOM     61  H   UNL A   1      40.017  30.259  31.370  1.00  0.00     0.167 HD
ATOM     62  C   UNL A   1      39.915  32.440  35.183  1.00  0.00     0.037 A 
ATOM     63  C   UNL A   1      41.083  28.455  29.528  1.00  0.00     0.037 A 
ATOM     64  C   UNL A   1      40.959  31.466  35.332  1.00  0.00     0.049 A 
ATOM     65  C   UNL A   1      41.903  28.322  30.786  1.00  0.00     0.074 A 
ATOM     66  C   UNL A   1      41.737  31.201  36.444  1.00  0.00     0.029 A 
ATOM     67  N   UNL A   1      41.367  30.591  34.337  1.00  0.00    -0.354 N 
ATOM     68  N   UNL A   1      41.785  28.963  31.924  1.00  0.00    -0.248 NA
ATOM     69  C   UNL A   1      42.994  27.336  30.765  1.00  0.00     0.031 C 
ATOM     70  C   UNL A   1      42.651  30.200  36.106  1.00  0.00     0.029 A 
ATOM     71  C   UNL A   1      42.403  29.800  34.802  1.00  0.00     0.049 A 
ATOM     72  H   UNL A   1      40.978  30.539  33.434  1.00  0.00     0.167 HD
ATOM     73  C   UNL A   1      42.761  28.437  32.761  1.00  0.00     0.074 A 
ATOM     74  C   UNL A   1      43.450  27.412  32.006  1.00  0.00     0.031 C 
ATOM     75  C   UNL A   1      43.063  28.774  34.039  1.00  0.00     0.037 A 
BRANCH  62  76
ATOM     76  C   UNL A   1      39.632  33.365  36.330  1.00  0.00     0.064 A 
ATOM     77  C   UNL A   1      38.740  33.018  37.357  1.00  0.00     0.173 A 
ATOM     78  C   UNL A   1      40.293  34.598  36.426  1.00  0.00     0.173 A 
ATOM     79  F   UNL A   1      38.068  31.857  37.305  1.00  0.00    -0.203 F 
ATOM     80  C   UNL A   1      38.501  33.882  38.422  1.00  0.00     0.198 A 
ATOM     81  C   UNL A   1      40.078  35.445  37.510  1.00  0.00     0.198 A 
ATOM     82  F   UNL A   1      41.157  34.980  35.473  1.00  0.00    -0.203 F 
ATOM     83  F   UNL A   1      37.607  33.550  39.363  1.00  0.00    -0.200 F 
ATOM     84  C   UNL A   1      39.178  35.090  38.504  1.00  0.00     0.200 A 
ATOM     85  F   UNL A   1      40.743  36.606  37.595  1.00  0.00    -0.200 F 
ATOM     86  F   UNL A   1      38.957  35.913  39.537  1.00  0.00    -0.200 F 
ENDBRANCH  62  76
BRANCH  63  87
ATOM     87  C   UNL A   1      41.384  27.619  28.335  1.00  0.00     0.064 A 
ATOM     88  C   UNL A   1      42.314  28.038  27.373  1.00  0.00     0.173 A 
ATOM     89  C   UNL A   1      40.729  26.398  28.115  1.00  0.00     0.173 A 
ATOM     90  F   UNL A   1      42.955  29.206  27.527  1.00  0.00    -0.203 F 
ATOM     91  C   UNL A   1      42.554  27.287  26.224  1.00  0.00     0.198 A 
ATOM     92  C   UNL A   1      40.992  25.632  26.981  1.00  0.00     0.198 A 
ATOM     93  F   UNL A   1      39.835  25.944  29.007  1.00  0.00    -0.203 F 
ATOM     94  F   UNL A   1      43.404  27.742  25.294  1.00  0.00    -0.200 F 
ATOM     95  C   UNL A   1      41.895  26.083  26.030  1.00  0.00     0.200 A 
ATOM     96  F   UNL A   1      40.367  24.459  26.807  1.00  0.00    -0.200 F 
ATOM     97  F   UNL A   1      42.124  25.362  24.924  1.00  0.00    -0.200 F 
ENDBRANCH  63  87
BRANCH  75  98
ATOM     98  C   UNL A   1      44.156  28.000  34.718  1.00  0.00     0.064 A 
ATOM     99  C   UNL A   1      43.897  26.796  35.390  1.00  0.00     0.173 A 
ATOM    100  C   UNL A   1      45.484  28.443  34.650  1.00  0.00     0.173 A 
ATOM    101  F   UNL A   1      42.642  26.336  35.494  1.00  0.00    -0.203 F 
ATOM    102  C   UNL A   1      44.927  26.080  35.994  1.00  0.00     0.198 A 
ATOM    103  C   UNL A   1      46.516  27.707  35.225  1.00  0.00     0.198 A 
ATOM    104  F   UNL A   1      45.786  29.584  34.010  1.00  0.00    -0.203 F 
ATOM    105  F   UNL A   1      44.651  24.959  36.674  1.00  0.00    -0.200 F 
ATOM    106  C   UNL A   1      46.236  26.531  35.902  1.00  0.00     0.200 A 
ATOM    107  F   UNL A   1      47.781  28.136  35.120  1.00  0.00    -0.200 F 
ATOM    108  F   UNL A   1      47.227  25.834  36.475  1.00  0.00    -0.200 F 
ENDBRANCH  75  98
ENDBRANCH  49  50
ENDBRANCH  41  44
ENDBRANCH  39  40
ENDBRANCH  38  39
ENDBRANCH   1  38
TORSDOF 15
ENDMDL
MODEL 3
REMARK VINA RESULT:     -14.3      1.508      7.008
REMARK SMILES COc1ccc2[nH]cc([C@H](C(=O)NCCCNC(=O)c3ccc(-c4c5nc(c(-c6c(F)c(F)c(F)c(F)c6F)c6ccc([nH]6)c(-c6c(F)c(F)c(F)c(F)c6F)c6nc(c(-c7c(F)c(F)c(F)c(F)c7F)c7ccc4[nH]7)C=C6)C=C5)cc3)[NH+]3CC[NH+](Cc4cccc5ccccc45)CC3)c2c1
REMARK SMILES IDX 14 1 13 2 11 3 12 4 10 6 9 7 3 8 4 9 101 10 5 11 100 12 6 13
REMARK SMILES IDX 7 14 8 15 2 17 1 18 83 19 84 20 99 21 85 23 98 24 86 25
REMARK SMILES IDX 87 27 88 28 89 29 97 30 90 31 92 32 96 33 91 34 93 35 95 36
REMARK SMILES IDX 94 37 15 38 16 39 17 40 18 41 19 43 20 44 21 45 82 46 22 47
REMARK SMILES IDX 81 48 23 49 24 50 25 51 75 52 26 53 80 54 74 55 76 56 27 57
REMARK SMILES IDX 79 58 73 59 72 60 28 62 60 63 40 64 59 65 41 66 44 67 58 68
REMARK SMILES IDX 77 69 42 70 43 71 57 73 78 74 45 75 29 76 30 77 38 78 31 79
REMARK SMILES IDX 32 80 36 81 39 82 33 83 34 84 37 85 35 86 61 87 62 88 70 89
REMARK SMILES IDX 63 90 64 91 68 92 71 93 65 94 66 95 69 96 67 97 46 98 47 99
REMARK SMILES IDX 55 100 48 101 49 102 53 103 56 104 50 105 51 106 54 107
REMARK SMILES IDX 52 108
REMARK H PARENT 13 5 7 16 83 22 86 26 17 42 76 61 44 72
REMARK Flexibility Score: inf
ROOT
ATOM      1  C   UNL A   1      32.094  28.305  27.565  1.00  0.00     0.118 C 
ENDROOT
BRANCH   1   2
ATOM      2  N   UNL A   1      32.951  27.490  26.701  1.00  0.00    -0.351 N 
ATOM      3  C   UNL A   1      32.733  26.936  25.460  1.00  0.00     0.283 C 
ATOM      4  O   UNL A   1      33.731  26.481  24.884  1.00  0.00    -0.268 OA
ATOM      5  H   UNL A   1      33.843  27.305  27.075  1.00  0.00     0.163 HD
BRANCH   3   6
ATOM      6  C   UNL A   1      31.342  26.881  24.780  1.00  0.00     0.308 C 
BRANCH   6   7
ATOM      7  C   UNL A   1      31.247  27.807  23.555  1.00  0.00     0.045 A 
ATOM      8  C   UNL A   1      27.716  29.074  22.782  1.00  0.00     0.119 A 
ATOM      9  C   UNL A   1      28.120  30.177  22.037  1.00  0.00     0.048 A 
ATOM     10  C   UNL A   1      28.653  28.107  23.170  1.00  0.00     0.057 A 
ATOM     11  C   UNL A   1      29.468  30.351  21.683  1.00  0.00     0.030 A 
ATOM     12  C   UNL A   1      30.034  28.333  22.958  1.00  0.00     0.013 A 
ATOM     13  C   UNL A   1      30.400  29.421  22.167  1.00  0.00     0.046 A 
ATOM     14  N   UNL A   1      31.768  29.364  22.030  1.00  0.00    -0.361 N 
ATOM     15  C   UNL A   1      32.288  28.403  22.856  1.00  0.00     0.094 A 
ATOM     16  H   UNL A   1      32.297  29.934  21.425  1.00  0.00     0.166 HD
BRANCH   8  17
ATOM     17  O   UNL A   1      26.450  28.855  23.255  1.00  0.00    -0.497 OA
ATOM     18  C   UNL A   1      26.217  27.627  23.937  1.00  0.00     0.278 C 
ENDBRANCH   8  17
ENDBRANCH   6   7
BRANCH   6  19
ATOM     19  N   UNL A   1      30.904  25.491  24.483  1.00  0.00    -0.312 N 
ATOM     20  C   UNL A   1      31.320  24.924  23.213  1.00  0.00     0.325 C 
ATOM     21  C   UNL A   1      31.067  24.462  25.532  1.00  0.00     0.325 C 
ATOM     22  H   UNL A   1      29.908  25.711  24.433  1.00  0.00     0.349 HD
ATOM     23  C   UNL A   1      32.702  24.227  23.229  1.00  0.00     0.324 C 
ATOM     24  C   UNL A   1      32.233  23.399  25.423  1.00  0.00     0.324 C 
ATOM     25  N   UNL A   1      32.802  23.083  24.105  1.00  0.00    -0.322 N 
ATOM     26  H   UNL A   1      33.770  22.883  24.357  1.00  0.00     0.348 HD
BRANCH  25  27
ATOM     27  C   UNL A   1      32.569  21.795  23.446  1.00  0.00     0.300 C 
BRANCH  27  28
ATOM     28  C   UNL A   1      33.178  20.579  24.119  1.00  0.00     0.014 A 
ATOM     29  C   UNL A   1      32.387  19.420  24.123  1.00  0.00     0.010 A 
ATOM     30  C   UNL A   1      34.542  20.518  24.552  1.00  0.00    -0.010 A 
ATOM     31  C   UNL A   1      32.948  18.187  24.408  1.00  0.00     0.001 A 
ATOM     32  C   UNL A   1      35.125  19.237  24.687  1.00  0.00    -0.018 A 
ATOM     33  C   UNL A   1      35.397  21.637  24.745  1.00  0.00     0.009 A 
ATOM     34  C   UNL A   1      34.318  18.091  24.629  1.00  0.00     0.009 A 
ATOM     35  C   UNL A   1      36.520  19.109  24.809  1.00  0.00     0.009 A 
ATOM     36  C   UNL A   1      36.783  21.497  24.880  1.00  0.00     0.001 A 
ATOM     37  C   UNL A   1      37.348  20.230  24.870  1.00  0.00     0.001 A 
ENDBRANCH  27  28
ENDBRANCH  25  27
ENDBRANCH   6  19
ENDBRANCH   3   6
ENDBRANCH   1   2
BRANCH   1  38
ATOM     38  C   UNL A   1      31.682  29.647  27.020  1.00  0.00     0.042 C 
BRANCH  38  39
ATOM     39  C   UNL A   1      32.849  30.445  26.500  1.00  0.00     0.118 C 
BRANCH  39  40
ATOM     40  N   UNL A   1      32.739  31.865  26.809  1.00  0.00    -0.352 N 
ATOM     41  C   UNL A   1      33.578  32.624  27.592  1.00  0.00     0.251 C 
ATOM     42  H   UNL A   1      31.973  32.337  26.411  1.00  0.00     0.163 HD
ATOM     43  O   UNL A   1      33.272  33.756  27.945  1.00  0.00    -0.269 OA
BRANCH  41  44
ATOM     44  C   UNL A   1      34.847  32.012  28.038  1.00  0.00     0.039 A 
ATOM     45  C   UNL A   1      35.993  32.798  28.137  1.00  0.00     0.014 A 
ATOM     46  C   UNL A   1      34.851  30.687  28.480  1.00  0.00     0.014 A 
ATOM     47  C   UNL A   1      37.126  32.270  28.759  1.00  0.00     0.010 A 
ATOM     48  C   UNL A   1      35.918  30.226  29.232  1.00  0.00     0.010 A 
ATOM     49  C   UNL A   1      37.082  30.996  29.352  1.00  0.00    -0.014 A 
BRANCH  49  50
ATOM     50  C   UNL A   1      38.258  30.418  30.049  1.00  0.00     0.031 A 
ATOM     51  C   UNL A   1      38.529  30.805  31.481  1.00  0.00     0.074 A 
ATOM     52  C   UNL A   1      39.110  29.605  29.393  1.00  0.00     0.049 A 
ATOM     53  N   UNL A   1      39.537  30.482  32.251  1.00  0.00    -0.248 NA
ATOM     54  C   UNL A   1      37.562  31.715  32.120  1.00  0.00     0.031 C 
ATOM     55  C   UNL A   1      38.998  29.209  27.988  1.00  0.00     0.029 A 
ATOM     56  N   UNL A   1      40.246  28.966  29.825  1.00  0.00    -0.354 N 
ATOM     57  C   UNL A   1      39.334  31.168  33.441  1.00  0.00     0.074 A 
ATOM     58  C   UNL A   1      38.157  31.987  33.270  1.00  0.00     0.031 C 
ATOM     59  C   UNL A   1      39.999  28.365  27.686  1.00  0.00     0.029 A 
ATOM     60  C   UNL A   1      40.848  28.193  28.861  1.00  0.00     0.049 A 
ATOM     61  H   UNL A   1      40.598  29.054  30.740  1.00  0.00     0.167 HD
ATOM     62  C   UNL A   1      40.040  31.092  34.593  1.00  0.00     0.037 A 
ATOM     63  C   UNL A   1      41.958  27.433  28.923  1.00  0.00     0.037 A 
ATOM     64  C   UNL A   1      41.174  30.232  34.781  1.00  0.00     0.049 A 
ATOM     65  C   UNL A   1      42.713  27.349  30.224  1.00  0.00     0.074 A 
ATOM     66  C   UNL A   1      41.910  30.017  35.932  1.00  0.00     0.029 A 
ATOM     67  N   UNL A   1      41.731  29.436  33.791  1.00  0.00    -0.354 N 
ATOM     68  N   UNL A   1      42.462  27.938  31.369  1.00  0.00    -0.248 NA
ATOM     69  C   UNL A   1      43.904  26.487  30.245  1.00  0.00     0.031 C 
ATOM     70  C   UNL A   1      42.947  29.130  35.625  1.00  0.00     0.029 A 
ATOM     71  C   UNL A   1      42.818  28.746  34.299  1.00  0.00     0.049 A 
ATOM     72  H   UNL A   1      41.402  29.371  32.866  1.00  0.00     0.167 HD
ATOM     73  C   UNL A   1      43.439  27.494  32.250  1.00  0.00     0.074 A 
ATOM     74  C   UNL A   1      44.278  26.573  31.512  1.00  0.00     0.031 C 
ATOM     75  C   UNL A   1      43.629  27.821  33.552  1.00  0.00     0.037 A 
BRANCH  62  76
ATOM     76  C   UNL A   1      39.593  31.946  35.743  1.00  0.00     0.064 A 
ATOM     77  C   UNL A   1      40.137  33.220  35.974  1.00  0.00     0.173 A 
ATOM     78  C   UNL A   1      38.576  31.503  36.601  1.00  0.00     0.173 A 
ATOM     79  F   UNL A   1      41.124  33.684  35.192  1.00  0.00    -0.203 F 
ATOM     80  C   UNL A   1      39.699  34.005  37.036  1.00  0.00     0.198 A 
ATOM     81  C   UNL A   1      38.116  32.306  37.642  1.00  0.00     0.198 A 
ATOM     82  F   UNL A   1      38.020  30.295  36.426  1.00  0.00    -0.203 F 
ATOM     83  F   UNL A   1      40.270  35.195  37.266  1.00  0.00    -0.200 F 
ATOM     84  C   UNL A   1      38.682  33.553  37.863  1.00  0.00     0.200 A 
ATOM     85  F   UNL A   1      37.124  31.873  38.432  1.00  0.00    -0.200 F 
ATOM     86  F   UNL A   1      38.252  34.316  38.876  1.00  0.00    -0.200 F 
ENDBRANCH  62  76
BRANCH  63  87
ATOM     87  C   UNL A   1      42.415  26.671  27.730  1.00  0.00     0.064 A 
ATOM     88  C   UNL A   1      41.935  25.379  27.468  1.00  0.00     0.173 A 
ATOM     89  C   UNL A   1      43.361  27.204  26.841  1.00  0.00     0.173 A 
ATOM     90  F   UNL A   1      41.042  24.817  28.297  1.00  0.00    -0.203 F 
ATOM     91  C   UNL A   1      42.407  24.638  26.386  1.00  0.00     0.198 A 
ATOM     92  C   UNL A   1      43.809  26.474  25.741  1.00  0.00     0.198 A 
ATOM     93  F   UNL A   1      43.848  28.438  27.038  1.00  0.00    -0.203 F 
ATOM     94  F   UNL A   1      41.974  23.384  26.196  1.00  0.00    -0.200 F 
ATOM     95  C   UNL A   1      43.341  25.187  25.521  1.00  0.00     0.200 A 
ATOM     96  F   UNL A   1      44.698  27.016  24.897  1.00  0.00    -0.200 F 
ATOM     97  F   UNL A   1      43.796  24.474  24.483  1.00  0.00    -0.200 F 
ENDBRANCH  63  87
BRANCH  75  98
ATOM     98  C   UNL A   1      44.758  27.148  34.277  1.00  0.00     0.064 A 
ATOM     99  C   UNL A   1      46.031  27.730  34.360  1.00  0.00     0.173 A 
ATOM    100  C   UNL A   1      44.546  25.929  34.939  1.00  0.00     0.173 A 
ATOM    101  F   UNL A   1      46.287  28.887  33.734  1.00  0.00    -0.203 F 
ATOM    102  C   UNL A   1      47.059  27.101  35.058  1.00  0.00     0.198 A 
ATOM    103  C   UNL A   1      45.566  25.321  35.664  1.00  0.00     0.198 A 
ATOM    104  F   UNL A   1      43.343  25.337  34.898  1.00  0.00    -0.203 F 
ATOM    105  F   UNL A   1      48.281  27.649  35.082  1.00  0.00    -0.200 F 
ATOM    106  C   UNL A   1      46.823  25.904  35.716  1.00  0.00     0.200 A 
ATOM    107  F   UNL A   1      45.332  24.173  36.314  1.00  0.00    -0.200 F 
ATOM    108  F   UNL A   1      47.812  25.306  36.396  1.00  0.00    -0.200 F 
ENDBRANCH  75  98
ENDBRANCH  49  50
ENDBRANCH  41  44
ENDBRANCH  39  40
ENDBRANCH  38  39
ENDBRANCH   1  38
TORSDOF 15
ENDMDL
