MODEL 1
REMARK VINA RESULT:     -11.9      0.000      0.000
REMARK SMILES Cn1cncc1COc1c(F)cc(C(=O)NCCCNC(=O)c2ccc(-c3c4nc(c(-c5c(F)c(F)c(F)c(F)c5F)c5ccc([nH]5)c(-c5c(F)c(F)c(F)c(F)c5F)c5nc(c(-c6c(F)c(F)c(F)c(F)c6F)c6ccc3[nH]6)C=C5)C=C4)cc2)cc1F
REMARK SMILES IDX 17 1 16 2 14 3 15 4 13 6 9 7 10 8 87 9 11 10 12 11 86 12
REMARK SMILES IDX 88 13 8 14 7 15 6 16 1 17 2 18 3 19 4 20 5 21 18 22 19 23
REMARK SMILES IDX 20 24 21 25 22 27 23 28 24 29 85 30 25 31 84 32 26 33 27 34
REMARK SMILES IDX 28 35 78 36 29 37 83 38 77 39 79 40 30 41 82 42 76 43 75 44
REMARK SMILES IDX 31 46 63 47 43 48 62 49 44 50 47 51 61 52 80 53 45 54 46 55
REMARK SMILES IDX 60 57 81 58 48 59 32 60 33 61 41 62 34 63 35 64 39 65 42 66
REMARK SMILES IDX 36 67 37 68 40 69 38 70 64 71 65 72 73 73 66 74 67 75 71 76
REMARK SMILES IDX 74 77 68 78 69 79 72 80 70 81 49 82 50 83 58 84 51 85 52 86
REMARK SMILES IDX 56 87 59 88 53 89 54 90 57 91 55 92
REMARK H PARENT 16 5 20 26 79 45 47 56
REMARK Flexibility Score: inf
ROOT
ATOM      1  C   UNL A   1      31.676  30.631  26.435  1.00  0.00     0.118 C 
ENDROOT
BRANCH   1   2
ATOM      2  N   UNL A   1      31.377  30.370  25.036  1.00  0.00    -0.352 N 
ATOM      3  C   UNL A   1      31.269  29.194  24.332  1.00  0.00     0.251 C 
ATOM      4  O   UNL A   1      30.816  29.236  23.191  1.00  0.00    -0.269 OA
ATOM      5  H   UNL A   1      31.226  31.180  24.496  1.00  0.00     0.163 HD
BRANCH   3   6
ATOM      6  C   UNL A   1      31.657  27.875  24.898  1.00  0.00     0.045 A 
ATOM      7  C   UNL A   1      32.294  25.330  25.931  1.00  0.00     0.191 A 
ATOM      8  C   UNL A   1      33.264  26.126  25.335  1.00  0.00     0.168 A 
ATOM      9  C   UNL A   1      30.981  25.789  25.941  1.00  0.00     0.168 A 
ATOM     10  F   UNL A   1      34.524  25.698  25.197  1.00  0.00    -0.203 F 
ATOM     11  C   UNL A   1      32.957  27.382  24.830  1.00  0.00     0.057 A 
ATOM     12  C   UNL A   1      30.655  27.049  25.430  1.00  0.00     0.057 A 
ATOM     13  F   UNL A   1      30.003  25.019  26.438  1.00  0.00    -0.203 F 
BRANCH   7  14
ATOM     14  O   UNL A   1      32.604  24.078  26.388  1.00  0.00    -0.481 OA
BRANCH  14  15
ATOM     15  C   UNL A   1      32.401  23.062  25.390  1.00  0.00     0.285 C 
BRANCH  15  16
ATOM     16  C   UNL A   1      33.597  22.176  25.340  1.00  0.00     0.075 A 
ATOM     17  C   UNL A   1      32.598  20.272  24.016  1.00  0.00     0.151 C 
ATOM     18  N   UNL A   1      33.643  20.931  24.760  1.00  0.00    -0.335 N 
ATOM     19  C   UNL A   1      34.878  20.400  25.003  1.00  0.00     0.199 A 
ATOM     20  N   UNL A   1      35.647  21.245  25.649  1.00  0.00    -0.245 NA
ATOM     21  C   UNL A   1      34.866  22.350  25.861  1.00  0.00     0.138 A 
ENDBRANCH  15  16
ENDBRANCH  14  15
ENDBRANCH   7  14
ENDBRANCH   3   6
ENDBRANCH   1   2
BRANCH   1  22
ATOM     22  C   UNL A   1      31.454  32.094  26.818  1.00  0.00     0.042 C 
BRANCH  22  23
ATOM     23  C   UNL A   1      32.734  32.897  27.015  1.00  0.00     0.118 C 
BRANCH  23  24
ATOM     24  N   UNL A   1      32.485  34.193  27.624  1.00  0.00    -0.352 N 
ATOM     25  C   UNL A   1      33.035  34.771  28.741  1.00  0.00     0.251 C 
ATOM     26  H   UNL A   1      31.813  34.745  27.161  1.00  0.00     0.163 HD
ATOM     27  O   UNL A   1      32.529  35.793  29.195  1.00  0.00    -0.269 OA
BRANCH  25  28
ATOM     28  C   UNL A   1      34.219  34.182  29.411  1.00  0.00     0.039 A 
ATOM     29  C   UNL A   1      34.010  33.306  30.482  1.00  0.00     0.014 A 
ATOM     30  C   UNL A   1      35.522  34.526  29.043  1.00  0.00     0.014 A 
ATOM     31  C   UNL A   1      35.101  32.741  31.148  1.00  0.00     0.010 A 
ATOM     32  C   UNL A   1      36.609  33.908  29.660  1.00  0.00     0.010 A 
ATOM     33  C   UNL A   1      36.411  33.015  30.724  1.00  0.00    -0.014 A 
BRANCH  33  34
ATOM     34  C   UNL A   1      37.582  32.382  31.384  1.00  0.00     0.031 A 
ATOM     35  C   UNL A   1      38.324  31.264  30.703  1.00  0.00     0.074 A 
ATOM     36  C   UNL A   1      37.944  32.779  32.619  1.00  0.00     0.049 A 
ATOM     37  N   UNL A   1      39.318  30.538  31.151  1.00  0.00    -0.248 NA
ATOM     38  C   UNL A   1      37.879  30.900  29.350  1.00  0.00     0.031 C 
ATOM     39  C   UNL A   1      37.281  33.828  33.394  1.00  0.00     0.029 A 
ATOM     40  N   UNL A   1      38.950  32.341  33.444  1.00  0.00    -0.354 N 
ATOM     41  C   UNL A   1      39.604  29.627  30.143  1.00  0.00     0.074 A 
ATOM     42  C   UNL A   1      38.653  29.858  29.079  1.00  0.00     0.031 C 
ATOM     43  C   UNL A   1      37.913  33.971  34.570  1.00  0.00     0.029 A 
ATOM     44  C   UNL A   1      38.998  32.998  34.650  1.00  0.00     0.049 A 
ATOM     45  H   UNL A   1      39.579  31.626  33.194  1.00  0.00     0.167 HD
ATOM     46  C   UNL A   1      40.588  28.697  30.103  1.00  0.00     0.037 A 
ATOM     47  C   UNL A   1      39.819  32.829  35.704  1.00  0.00     0.037 A 
ATOM     48  C   UNL A   1      41.553  28.493  31.151  1.00  0.00     0.049 A 
ATOM     49  C   UNL A   1      40.899  31.784  35.635  1.00  0.00     0.074 A 
ATOM     50  C   UNL A   1      42.618  27.608  31.180  1.00  0.00     0.029 A 
ATOM     51  N   UNL A   1      41.573  29.185  32.353  1.00  0.00    -0.354 N 
ATOM     52  N   UNL A   1      41.188  30.960  34.658  1.00  0.00    -0.248 NA
ATOM     53  C   UNL A   1      41.768  31.646  36.813  1.00  0.00     0.031 C 
ATOM     54  C   UNL A   1      43.259  27.736  32.415  1.00  0.00     0.029 A 
ATOM     55  C   UNL A   1      42.623  28.735  33.137  1.00  0.00     0.049 A 
ATOM     56  H   UNL A   1      40.938  29.890  32.610  1.00  0.00     0.167 HD
ATOM     57  C   UNL A   1      42.284  30.225  35.090  1.00  0.00     0.074 A 
ATOM     58  C   UNL A   1      42.617  30.709  36.413  1.00  0.00     0.031 C 
ATOM     59  C   UNL A   1      42.951  29.236  34.447  1.00  0.00     0.037 A 
BRANCH  46  60
ATOM     60  C   UNL A   1      40.691  27.834  28.878  1.00  0.00     0.064 A 
ATOM     61  C   UNL A   1      41.484  28.231  27.791  1.00  0.00     0.173 A 
ATOM     62  C   UNL A   1      39.939  26.657  28.749  1.00  0.00     0.173 A 
ATOM     63  F   UNL A   1      42.218  29.351  27.861  1.00  0.00    -0.203 F 
ATOM     64  C   UNL A   1      41.509  27.487  26.614  1.00  0.00     0.198 A 
ATOM     65  C   UNL A   1      39.987  25.902  27.579  1.00  0.00     0.198 A 
ATOM     66  F   UNL A   1      39.172  26.231  29.763  1.00  0.00    -0.203 F 
ATOM     67  F   UNL A   1      42.248  27.902  25.576  1.00  0.00    -0.200 F 
ATOM     68  C   UNL A   1      40.763  26.322  26.511  1.00  0.00     0.200 A 
ATOM     69  F   UNL A   1      39.283  24.765  27.490  1.00  0.00    -0.200 F 
ATOM     70  F   UNL A   1      40.793  25.604  25.379  1.00  0.00    -0.200 F 
ENDBRANCH  46  60
BRANCH  47  71
ATOM     71  C   UNL A   1      39.669  33.697  36.902  1.00  0.00     0.064 A 
ATOM     72  C   UNL A   1      38.834  33.336  37.968  1.00  0.00     0.173 A 
ATOM     73  C   UNL A   1      40.346  34.922  36.989  1.00  0.00     0.173 A 
ATOM     74  F   UNL A   1      38.161  32.176  37.931  1.00  0.00    -0.203 F 
ATOM     75  C   UNL A   1      38.670  34.173  39.069  1.00  0.00     0.198 A 
ATOM     76  C   UNL A   1      40.203  35.746  38.103  1.00  0.00     0.198 A 
ATOM     77  F   UNL A   1      41.172  35.301  36.003  1.00  0.00    -0.203 F 
ATOM     78  F   UNL A   1      37.841  33.818  40.061  1.00  0.00    -0.200 F 
ATOM     79  C   UNL A   1      39.357  35.375  39.138  1.00  0.00     0.200 A 
ATOM     80  F   UNL A   1      40.889  36.895  38.176  1.00  0.00    -0.200 F 
ATOM     81  F   UNL A   1      39.212  36.173  40.204  1.00  0.00    -0.200 F 
ENDBRANCH  47  71
BRANCH  59  82
ATOM     82  C   UNL A   1      44.128  28.623  35.144  1.00  0.00     0.064 A 
ATOM     83  C   UNL A   1      43.950  27.536  36.015  1.00  0.00     0.173 A 
ATOM     84  C   UNL A   1      45.417  29.163  35.020  1.00  0.00     0.173 A 
ATOM     85  F   UNL A   1      42.735  26.991  36.175  1.00  0.00    -0.203 F 
ATOM     86  C   UNL A   1      45.017  27.023  36.746  1.00  0.00     0.198 A 
ATOM     87  C   UNL A   1      46.486  28.628  35.732  1.00  0.00     0.198 A 
ATOM     88  F   UNL A   1      45.638  30.194  34.191  1.00  0.00    -0.203 F 
ATOM     89  F   UNL A   1      44.816  26.009  37.599  1.00  0.00    -0.200 F 
ATOM     90  C   UNL A   1      46.284  27.568  36.602  1.00  0.00     0.200 A 
ATOM     91  F   UNL A   1      47.715  29.140  35.576  1.00  0.00    -0.200 F 
ATOM     92  F   UNL A   1      47.311  27.068  37.303  1.00  0.00    -0.200 F 
ENDBRANCH  59  82
ENDBRANCH  33  34
ENDBRANCH  25  28
ENDBRANCH  23  24
ENDBRANCH  22  23
ENDBRANCH   1  22
TORSDOF 13
ENDMDL
MODEL 2
REMARK VINA RESULT:     -11.8      5.419     11.218
REMARK SMILES Cn1cncc1COc1c(F)cc(C(=O)NCCCNC(=O)c2ccc(-c3c4nc(c(-c5c(F)c(F)c(F)c(F)c5F)c5ccc([nH]5)c(-c5c(F)c(F)c(F)c(F)c5F)c5nc(c(-c6c(F)c(F)c(F)c(F)c6F)c6ccc3[nH]6)C=C5)C=C4)cc2)cc1F
REMARK SMILES IDX 17 1 16 2 14 3 15 4 13 6 9 7 10 8 87 9 11 10 12 11 86 12
REMARK SMILES IDX 88 13 8 14 7 15 6 16 1 17 2 18 3 19 4 20 5 21 18 22 19 23
REMARK SMILES IDX 20 24 21 25 22 27 23 28 24 29 85 30 25 31 84 32 26 33 27 34
REMARK SMILES IDX 28 35 78 36 29 37 83 38 77 39 79 40 30 41 82 42 76 43 75 44
REMARK SMILES IDX 31 46 63 47 43 48 62 49 44 50 47 51 61 52 80 53 45 54 46 55
REMARK SMILES IDX 60 57 81 58 48 59 32 60 33 61 41 62 34 63 35 64 39 65 42 66
REMARK SMILES IDX 36 67 37 68 40 69 38 70 64 71 65 72 73 73 66 74 67 75 71 76
REMARK SMILES IDX 74 77 68 78 69 79 72 80 70 81 49 82 50 83 58 84 51 85 52 86
REMARK SMILES IDX 56 87 59 88 53 89 54 90 57 91 55 92
REMARK H PARENT 16 5 20 26 79 45 47 56
REMARK Flexibility Score: inf
ROOT
ATOM      1  C   UNL A   1      37.151  20.755  24.816  1.00  0.00     0.118 C 
ENDROOT
BRANCH   1   2
ATOM      2  N   UNL A   1      35.834  20.324  25.255  1.00  0.00    -0.352 N 
ATOM      3  C   UNL A   1      34.591  20.889  25.095  1.00  0.00     0.251 C 
ATOM      4  O   UNL A   1      33.604  20.223  25.400  1.00  0.00    -0.269 OA
ATOM      5  H   UNL A   1      35.832  19.477  25.758  1.00  0.00     0.163 HD
BRANCH   3   6
ATOM      6  C   UNL A   1      34.390  22.258  24.553  1.00  0.00     0.045 A 
ATOM      7  C   UNL A   1      33.911  24.819  23.474  1.00  0.00     0.191 A 
ATOM      8  C   UNL A   1      34.395  24.664  24.767  1.00  0.00     0.168 A 
ATOM      9  C   UNL A   1      33.597  23.674  22.748  1.00  0.00     0.168 A 
ATOM     10  F   UNL A   1      34.616  25.720  25.556  1.00  0.00    -0.203 F 
ATOM     11  C   UNL A   1      34.638  23.406  25.301  1.00  0.00     0.057 A 
ATOM     12  C   UNL A   1      33.829  22.401  23.275  1.00  0.00     0.057 A 
ATOM     13  F   UNL A   1      33.056  23.781  21.526  1.00  0.00    -0.203 F 
BRANCH   7  14
ATOM     14  O   UNL A   1      33.638  26.064  22.977  1.00  0.00    -0.481 OA
BRANCH  14  15
ATOM     15  C   UNL A   1      32.268  26.451  23.180  1.00  0.00     0.285 C 
BRANCH  15  16
ATOM     16  C   UNL A   1      32.217  27.614  24.108  1.00  0.00     0.075 A 
ATOM     17  C   UNL A   1      31.308  26.430  26.145  1.00  0.00     0.151 C 
ATOM     18  N   UNL A   1      31.752  27.583  25.400  1.00  0.00    -0.335 N 
ATOM     19  C   UNL A   1      31.779  28.859  25.887  1.00  0.00     0.199 A 
ATOM     20  N   UNL A   1      32.287  29.697  25.014  1.00  0.00    -0.245 NA
ATOM     21  C   UNL A   1      32.565  28.937  23.909  1.00  0.00     0.138 A 
ENDBRANCH  15  16
ENDBRANCH  14  15
ENDBRANCH   7  14
ENDBRANCH   3   6
ENDBRANCH   1   2
BRANCH   1  22
ATOM     22  C   UNL A   1      38.214  19.671  25.000  1.00  0.00     0.042 C 
BRANCH  22  23
ATOM     23  C   UNL A   1      39.196  19.935  26.134  1.00  0.00     0.118 C 
BRANCH  23  24
ATOM     24  N   UNL A   1      40.348  19.051  26.084  1.00  0.00    -0.352 N 
ATOM     25  C   UNL A   1      41.691  19.339  26.092  1.00  0.00     0.251 C 
ATOM     26  H   UNL A   1      40.132  18.091  26.036  1.00  0.00     0.163 HD
ATOM     27  O   UNL A   1      42.494  18.447  25.834  1.00  0.00    -0.269 OA
BRANCH  25  28
ATOM     28  C   UNL A   1      42.185  20.702  26.397  1.00  0.00     0.039 A 
ATOM     29  C   UNL A   1      42.421  21.578  25.331  1.00  0.00     0.014 A 
ATOM     30  C   UNL A   1      42.478  21.107  27.701  1.00  0.00     0.014 A 
ATOM     31  C   UNL A   1      42.902  22.867  25.577  1.00  0.00     0.010 A 
ATOM     32  C   UNL A   1      42.888  22.416  27.953  1.00  0.00     0.010 A 
ATOM     33  C   UNL A   1      43.112  23.308  26.893  1.00  0.00    -0.014 A 
BRANCH  33  34
ATOM     34  C   UNL A   1      43.569  24.692  27.178  1.00  0.00     0.031 A 
ATOM     35  C   UNL A   1      42.607  25.714  27.717  1.00  0.00     0.074 A 
ATOM     36  C   UNL A   1      44.841  25.042  26.900  1.00  0.00     0.049 A 
ATOM     37  N   UNL A   1      42.798  26.988  27.954  1.00  0.00    -0.248 NA
ATOM     38  C   UNL A   1      41.242  25.250  28.010  1.00  0.00     0.031 C 
ATOM     39  C   UNL A   1      45.857  24.150  26.344  1.00  0.00     0.029 A 
ATOM     40  N   UNL A   1      45.492  26.243  27.040  1.00  0.00    -0.354 N 
ATOM     41  C   UNL A   1      41.580  27.476  28.409  1.00  0.00     0.074 A 
ATOM     42  C   UNL A   1      40.642  26.375  28.371  1.00  0.00     0.031 C 
ATOM     43  C   UNL A   1      47.010  24.825  26.211  1.00  0.00     0.029 A 
ATOM     44  C   UNL A   1      46.804  26.206  26.635  1.00  0.00     0.049 A 
ATOM     45  H   UNL A   1      45.059  27.052  27.396  1.00  0.00     0.167 HD
ATOM     46  C   UNL A   1      41.281  28.724  28.839  1.00  0.00     0.037 A 
ATOM     47  C   UNL A   1      47.735  27.180  26.603  1.00  0.00     0.037 A 
ATOM     48  C   UNL A   1      42.226  29.807  28.904  1.00  0.00     0.049 A 
ATOM     49  C   UNL A   1      47.373  28.560  27.079  1.00  0.00     0.074 A 
ATOM     50  C   UNL A   1      42.029  31.095  29.373  1.00  0.00     0.029 A 
ATOM     51  N   UNL A   1      43.549  29.728  28.494  1.00  0.00    -0.354 N 
ATOM     52  N   UNL A   1      46.229  28.997  27.549  1.00  0.00    -0.248 NA
ATOM     53  C   UNL A   1      48.428  29.581  27.025  1.00  0.00     0.031 C 
ATOM     54  C   UNL A   1      43.220  31.807  29.209  1.00  0.00     0.029 A 
ATOM     55  C   UNL A   1      44.175  30.949  28.684  1.00  0.00     0.049 A 
ATOM     56  H   UNL A   1      43.979  28.924  28.125  1.00  0.00     0.167 HD
ATOM     57  C   UNL A   1      46.434  30.333  27.869  1.00  0.00     0.074 A 
ATOM     58  C   UNL A   1      47.814  30.632  27.552  1.00  0.00     0.031 C 
ATOM     59  C   UNL A   1      45.554  31.229  28.377  1.00  0.00     0.037 A 
BRANCH  46  60
ATOM     60  C   UNL A   1      39.875  28.994  29.293  1.00  0.00     0.064 A 
ATOM     61  C   UNL A   1      39.495  28.749  30.621  1.00  0.00     0.173 A 
ATOM     62  C   UNL A   1      38.885  29.414  28.393  1.00  0.00     0.173 A 
ATOM     63  F   UNL A   1      40.403  28.339  31.520  1.00  0.00    -0.203 F 
ATOM     64  C   UNL A   1      38.173  28.902  31.028  1.00  0.00     0.198 A 
ATOM     65  C   UNL A   1      37.568  29.592  28.810  1.00  0.00     0.198 A 
ATOM     66  F   UNL A   1      39.199  29.670  27.115  1.00  0.00    -0.203 F 
ATOM     67  F   UNL A   1      37.826  28.630  32.293  1.00  0.00    -0.200 F 
ATOM     68  C   UNL A   1      37.211  29.326  30.123  1.00  0.00     0.200 A 
ATOM     69  F   UNL A   1      36.644  30.023  27.939  1.00  0.00    -0.200 F 
ATOM     70  F   UNL A   1      35.939  29.479  30.517  1.00  0.00    -0.200 F 
ENDBRANCH  46  60
BRANCH  47  71
ATOM     71  C   UNL A   1      49.110  26.869  26.130  1.00  0.00     0.064 A 
ATOM     72  C   UNL A   1      49.479  27.042  24.789  1.00  0.00     0.173 A 
ATOM     73  C   UNL A   1      50.077  26.371  27.014  1.00  0.00     0.173 A 
ATOM     74  F   UNL A   1      48.590  27.512  23.902  1.00  0.00    -0.203 F 
ATOM     75  C   UNL A   1      50.758  26.713  24.346  1.00  0.00     0.198 A 
ATOM     76  C   UNL A   1      51.363  26.067  26.577  1.00  0.00     0.198 A 
ATOM     77  F   UNL A   1      49.776  26.209  28.311  1.00  0.00    -0.203 F 
ATOM     78  F   UNL A   1      51.077  26.858  23.053  1.00  0.00    -0.200 F 
ATOM     79  C   UNL A   1      51.702  26.230  25.241  1.00  0.00     0.200 A 
ATOM     80  F   UNL A   1      52.278  25.625  27.451  1.00  0.00    -0.200 F 
ATOM     81  F   UNL A   1      52.936  25.928  24.820  1.00  0.00    -0.200 F 
ENDBRANCH  47  71
BRANCH  59  82
ATOM     82  C   UNL A   1      46.053  32.615  28.653  1.00  0.00     0.064 A 
ATOM     83  C   UNL A   1      45.999  33.601  27.654  1.00  0.00     0.173 A 
ATOM     84  C   UNL A   1      46.664  32.946  29.871  1.00  0.00     0.173 A 
ATOM     85  F   UNL A   1      45.433  33.330  26.468  1.00  0.00    -0.203 F 
ATOM     86  C   UNL A   1      46.551  34.862  27.862  1.00  0.00     0.198 A 
ATOM     87  C   UNL A   1      47.190  34.216  30.084  1.00  0.00     0.198 A 
ATOM     88  F   UNL A   1      46.729  32.041  30.859  1.00  0.00    -0.203 F 
ATOM     89  F   UNL A   1      46.519  35.774  26.881  1.00  0.00    -0.200 F 
ATOM     90  C   UNL A   1      47.144  35.169  29.077  1.00  0.00     0.200 A 
ATOM     91  F   UNL A   1      47.743  34.521  31.267  1.00  0.00    -0.200 F 
ATOM     92  F   UNL A   1      47.669  36.385  29.277  1.00  0.00    -0.200 F 
ENDBRANCH  59  82
ENDBRANCH  33  34
ENDBRANCH  25  28
ENDBRANCH  23  24
ENDBRANCH  22  23
ENDBRANCH   1  22
TORSDOF 13
ENDMDL
MODEL 3
REMARK VINA RESULT:     -11.8      1.112      1.790
REMARK SMILES Cn1cncc1COc1c(F)cc(C(=O)NCCCNC(=O)c2ccc(-c3c4nc(c(-c5c(F)c(F)c(F)c(F)c5F)c5ccc([nH]5)c(-c5c(F)c(F)c(F)c(F)c5F)c5nc(c(-c6c(F)c(F)c(F)c(F)c6F)c6ccc3[nH]6)C=C5)C=C4)cc2)cc1F
REMARK SMILES IDX 17 1 16 2 14 3 15 4 13 6 9 7 10 8 87 9 11 10 12 11 86 12
REMARK SMILES IDX 88 13 8 14 7 15 6 16 1 17 2 18 3 19 4 20 5 21 18 22 19 23
REMARK SMILES IDX 20 24 21 25 22 27 23 28 24 29 85 30 25 31 84 32 26 33 27 34
REMARK SMILES IDX 28 35 78 36 29 37 83 38 77 39 79 40 30 41 82 42 76 43 75 44
REMARK SMILES IDX 31 46 63 47 43 48 62 49 44 50 47 51 61 52 80 53 45 54 46 55
REMARK SMILES IDX 60 57 81 58 48 59 32 60 33 61 41 62 34 63 35 64 39 65 42 66
REMARK SMILES IDX 36 67 37 68 40 69 38 70 64 71 65 72 73 73 66 74 67 75 71 76
REMARK SMILES IDX 74 77 68 78 69 79 72 80 70 81 49 82 50 83 58 84 51 85 52 86
REMARK SMILES IDX 56 87 59 88 53 89 54 90 57 91 55 92
REMARK H PARENT 16 5 20 26 79 45 47 56
REMARK Flexibility Score: inf
ROOT
ATOM      1  C   UNL A   1      31.777  30.577  26.865  1.00  0.00     0.118 C 
ENDROOT
BRANCH   1   2
ATOM      2  N   UNL A   1      33.081  30.220  27.400  1.00  0.00    -0.352 N 
ATOM      3  C   UNL A   1      33.980  29.248  27.033  1.00  0.00     0.251 C 
ATOM      4  O   UNL A   1      35.105  29.276  27.528  1.00  0.00    -0.269 OA
ATOM      5  H   UNL A   1      33.371  30.773  28.162  1.00  0.00     0.163 HD
BRANCH   3   6
ATOM      6  C   UNL A   1      33.658  28.178  26.052  1.00  0.00     0.045 A 
ATOM      7  C   UNL A   1      32.946  26.133  24.247  1.00  0.00     0.191 A 
ATOM      8  C   UNL A   1      33.557  27.300  23.805  1.00  0.00     0.168 A 
ATOM      9  C   UNL A   1      32.626  26.029  25.597  1.00  0.00     0.168 A 
ATOM     10  F   UNL A   1      33.795  27.509  22.506  1.00  0.00    -0.203 F 
ATOM     11  C   UNL A   1      33.914  28.307  24.690  1.00  0.00     0.057 A 
ATOM     12  C   UNL A   1      32.973  27.038  26.499  1.00  0.00     0.057 A 
ATOM     13  F   UNL A   1      31.968  24.952  26.051  1.00  0.00    -0.203 F 
BRANCH   7  14
ATOM     14  O   UNL A   1      32.563  25.166  23.357  1.00  0.00    -0.481 OA
BRANCH  14  15
ATOM     15  C   UNL A   1      33.638  24.273  23.017  1.00  0.00     0.285 C 
BRANCH  15  16
ATOM     16  C   UNL A   1      33.354  22.925  23.582  1.00  0.00     0.075 A 
ATOM     17  C   UNL A   1      34.830  23.056  25.627  1.00  0.00     0.151 C 
ATOM     18  N   UNL A   1      33.925  22.399  24.716  1.00  0.00    -0.335 N 
ATOM     19  C   UNL A   1      33.484  21.113  24.850  1.00  0.00     0.199 A 
ATOM     20  N   UNL A   1      32.622  20.798  23.912  1.00  0.00    -0.245 NA
ATOM     21  C   UNL A   1      32.530  21.914  23.122  1.00  0.00     0.138 A 
ENDBRANCH  15  16
ENDBRANCH  14  15
ENDBRANCH   7  14
ENDBRANCH   3   6
ENDBRANCH   1   2
BRANCH   1  22
ATOM     22  C   UNL A   1      31.507  32.081  26.934  1.00  0.00     0.042 C 
BRANCH  22  23
ATOM     23  C   UNL A   1      32.760  32.945  27.007  1.00  0.00     0.118 C 
BRANCH  23  24
ATOM     24  N   UNL A   1      32.505  34.236  27.623  1.00  0.00    -0.352 N 
ATOM     25  C   UNL A   1      33.049  34.808  28.747  1.00  0.00     0.251 C 
ATOM     26  H   UNL A   1      31.834  34.790  27.161  1.00  0.00     0.163 HD
ATOM     27  O   UNL A   1      32.538  35.826  29.205  1.00  0.00    -0.269 OA
BRANCH  25  28
ATOM     28  C   UNL A   1      34.230  34.217  29.419  1.00  0.00     0.039 A 
ATOM     29  C   UNL A   1      34.019  33.350  30.496  1.00  0.00     0.014 A 
ATOM     30  C   UNL A   1      35.535  34.551  29.046  1.00  0.00     0.014 A 
ATOM     31  C   UNL A   1      35.108  32.784  31.164  1.00  0.00     0.010 A 
ATOM     32  C   UNL A   1      36.620  33.931  29.665  1.00  0.00     0.010 A 
ATOM     33  C   UNL A   1      36.419  33.047  30.736  1.00  0.00    -0.014 A 
BRANCH  33  34
ATOM     34  C   UNL A   1      37.587  32.412  31.398  1.00  0.00     0.031 A 
ATOM     35  C   UNL A   1      38.333  31.299  30.715  1.00  0.00     0.074 A 
ATOM     36  C   UNL A   1      37.943  32.804  32.637  1.00  0.00     0.049 A 
ATOM     37  N   UNL A   1      39.326  30.571  31.164  1.00  0.00    -0.248 NA
ATOM     38  C   UNL A   1      37.895  30.940  29.358  1.00  0.00     0.031 C 
ATOM     39  C   UNL A   1      37.276  33.849  33.414  1.00  0.00     0.029 A 
ATOM     40  N   UNL A   1      38.947  32.364  33.464  1.00  0.00    -0.354 N 
ATOM     41  C   UNL A   1      39.618  29.665  30.153  1.00  0.00     0.074 A 
ATOM     42  C   UNL A   1      38.671  29.901  29.086  1.00  0.00     0.031 C 
ATOM     43  C   UNL A   1      37.902  33.987  34.593  1.00  0.00     0.029 A 
ATOM     44  C   UNL A   1      38.988  33.015  34.673  1.00  0.00     0.049 A 
ATOM     45  H   UNL A   1      39.577  31.651  33.213  1.00  0.00     0.167 HD
ATOM     46  C   UNL A   1      40.603  28.737  30.113  1.00  0.00     0.037 A 
ATOM     47  C   UNL A   1      39.805  32.843  35.729  1.00  0.00     0.037 A 
ATOM     48  C   UNL A   1      41.564  28.528  31.165  1.00  0.00     0.049 A 
ATOM     49  C   UNL A   1      40.886  31.799  35.661  1.00  0.00     0.074 A 
ATOM     50  C   UNL A   1      42.629  27.645  31.194  1.00  0.00     0.029 A 
ATOM     51  N   UNL A   1      41.578  29.215  32.370  1.00  0.00    -0.354 N 
ATOM     52  N   UNL A   1      41.181  30.979  34.681  1.00  0.00    -0.248 NA
ATOM     53  C   UNL A   1      41.750  31.657  36.842  1.00  0.00     0.031 C 
ATOM     54  C   UNL A   1      43.264  27.768  32.433  1.00  0.00     0.029 A 
ATOM     55  C   UNL A   1      42.625  28.763  33.156  1.00  0.00     0.049 A 
ATOM     56  H   UNL A   1      40.940  29.919  32.628  1.00  0.00     0.167 HD
ATOM     57  C   UNL A   1      42.275  30.243  35.115  1.00  0.00     0.074 A 
ATOM     58  C   UNL A   1      42.602  30.722  36.441  1.00  0.00     0.031 C 
ATOM     59  C   UNL A   1      42.946  29.258  34.470  1.00  0.00     0.037 A 
BRANCH  46  60
ATOM     60  C   UNL A   1      40.712  27.879  28.885  1.00  0.00     0.064 A 
ATOM     61  C   UNL A   1      41.523  28.273  27.810  1.00  0.00     0.173 A 
ATOM     62  C   UNL A   1      39.949  26.712  28.740  1.00  0.00     0.173 A 
ATOM     63  F   UNL A   1      42.268  29.385  27.896  1.00  0.00    -0.203 F 
ATOM     64  C   UNL A   1      41.556  27.536  26.630  1.00  0.00     0.198 A 
ATOM     65  C   UNL A   1      40.004  25.962  27.566  1.00  0.00     0.198 A 
ATOM     66  F   UNL A   1      39.165  26.288  29.742  1.00  0.00    -0.203 F 
ATOM     67  F   UNL A   1      42.312  27.949  25.603  1.00  0.00    -0.200 F 
ATOM     68  C   UNL A   1      40.798  26.380  26.510  1.00  0.00     0.200 A 
ATOM     69  F   UNL A   1      39.289  24.834  27.462  1.00  0.00    -0.200 F 
ATOM     70  F   UNL A   1      40.834  25.668  25.375  1.00  0.00    -0.200 F 
ENDBRANCH  46  60
BRANCH  47  71
ATOM     71  C   UNL A   1      39.649  33.705  36.931  1.00  0.00     0.064 A 
ATOM     72  C   UNL A   1      38.822  33.329  37.999  1.00  0.00     0.173 A 
ATOM     73  C   UNL A   1      40.311  34.937  37.019  1.00  0.00     0.173 A 
ATOM     74  F   UNL A   1      38.164  32.161  37.962  1.00  0.00    -0.203 F 
ATOM     75  C   UNL A   1      38.652  34.161  39.104  1.00  0.00     0.198 A 
ATOM     76  C   UNL A   1      40.161  35.756  38.136  1.00  0.00     0.198 A 
ATOM     77  F   UNL A   1      41.128  35.330  36.031  1.00  0.00    -0.203 F 
ATOM     78  F   UNL A   1      37.832  33.792  40.098  1.00  0.00    -0.200 F 
ATOM     79  C   UNL A   1      39.325  35.372  39.174  1.00  0.00     0.200 A 
ATOM     80  F   UNL A   1      40.833  36.913  38.210  1.00  0.00    -0.200 F 
ATOM     81  F   UNL A   1      39.173  36.165  40.243  1.00  0.00    -0.200 F 
ENDBRANCH  47  71
BRANCH  59  82
ATOM     82  C   UNL A   1      44.121  28.644  35.170  1.00  0.00     0.064 A 
ATOM     83  C   UNL A   1      45.415  29.149  34.962  1.00  0.00     0.173 A 
ATOM     84  C   UNL A   1      43.981  27.504  35.975  1.00  0.00     0.173 A 
ATOM     85  F   UNL A   1      45.601  30.232  34.193  1.00  0.00    -0.203 F 
ATOM     86  C   UNL A   1      46.525  28.526  35.524  1.00  0.00     0.198 A 
ATOM     87  C   UNL A   1      45.092  26.900  36.557  1.00  0.00     0.198 A 
ATOM     88  F   UNL A   1      42.765  26.991  36.211  1.00  0.00    -0.203 F 
ATOM     89  F   UNL A   1      47.753  29.005  35.282  1.00  0.00    -0.200 F 
ATOM     90  C   UNL A   1      46.363  27.404  36.322  1.00  0.00     0.200 A 
ATOM     91  F   UNL A   1      44.933  25.829  37.347  1.00  0.00    -0.200 F 
ATOM     92  F   UNL A   1      47.432  26.809  36.867  1.00  0.00    -0.200 F 
ENDBRANCH  59  82
ENDBRANCH  33  34
ENDBRANCH  25  28
ENDBRANCH  23  24
ENDBRANCH  22  23
ENDBRANCH   1  22
TORSDOF 13
ENDMDL
