MODEL 1
REMARK VINA RESULT:     -12.8      0.000      0.000
REMARK SMILES CCc1c(C)nc(Nc2ccc(Cl)cc2Cl)nc1OCC(=O)NCCCNC(=O)c1ccc(-c2c3nc(c(-c4c(F)c(F)c(F)c(F)c4F)c4ccc([nH]4)c(-c4c(F)c(F)c(F)c(F)c4F)c4nc(c(-c5c(F)c(F)c(F)c(F)c5F)c5ccc2[nH]5)C=C4)C=C3)cc1
REMARK SMILES IDX 24 1 23 2 21 3 22 4 20 6 19 7 18 8 3 9 4 10 5 11 6 12 17 13
REMARK SMILES IDX 7 14 2 15 1 16 8 17 9 19 10 20 15 21 11 22 14 23 16 24 12 25
REMARK SMILES IDX 13 26 25 27 26 28 27 29 28 30 29 32 30 33 31 34 92 35 32 36
REMARK SMILES IDX 91 37 33 38 34 39 35 40 85 41 36 42 90 43 84 44 86 45 37 46
REMARK SMILES IDX 89 47 83 48 82 49 38 51 70 52 50 53 69 54 51 55 54 56 68 57
REMARK SMILES IDX 87 58 52 59 53 60 67 62 88 63 55 64 39 65 40 66 48 67 41 68
REMARK SMILES IDX 42 69 46 70 49 71 43 72 44 73 47 74 45 75 71 76 72 77 80 78
REMARK SMILES IDX 73 79 74 80 78 81 81 82 75 83 76 84 79 85 77 86 56 87 57 88
REMARK SMILES IDX 65 89 58 90 59 91 63 92 66 93 60 94 61 95 64 96 62 97
REMARK H PARENT 23 5 8 18 27 31 86 50 54 61
REMARK Flexibility Score: inf
ROOT
ATOM      1  C   UNL A   1      31.724  30.595  26.599  1.00  0.00     0.117 C 
ENDROOT
BRANCH   1   2
ATOM      2  N   UNL A   1      32.103  30.204  25.257  1.00  0.00    -0.353 N 
ATOM      3  C   UNL A   1      33.007  29.272  24.852  1.00  0.00     0.258 C 
ATOM      4  O   UNL A   1      33.311  29.264  23.658  1.00  0.00    -0.271 OA
ATOM      5  H   UNL A   1      31.639  30.682  24.532  1.00  0.00     0.163 HD
BRANCH   3   6
ATOM      6  C   UNL A   1      33.540  28.225  25.853  1.00  0.00     0.331 C 
BRANCH   6   7
ATOM      7  O   UNL A   1      32.873  27.083  26.341  1.00  0.00    -0.467 OA
BRANCH   7   8
ATOM      8  C   UNL A   1      32.233  26.275  25.447  1.00  0.00     0.222 A 
ATOM      9  C   UNL A   1      32.914  25.392  24.624  1.00  0.00     0.035 A 
ATOM     10  C   UNL A   1      32.093  24.747  23.703  1.00  0.00     0.050 A 
ATOM     11  C   UNL A   1      32.606  23.747  22.704  1.00  0.00     0.067 C 
ATOM     12  N   UNL A   1      30.802  25.072  23.517  1.00  0.00    -0.218 NA
ATOM     13  N   UNL A   1      30.943  26.646  25.245  1.00  0.00    -0.177 NA
ATOM     14  C   UNL A   1      30.285  26.072  24.230  1.00  0.00     0.230 A 
BRANCH   9  15
ATOM     15  C   UNL A   1      34.396  25.107  24.585  1.00  0.00     0.040 C 
ATOM     16  C   UNL A   1      35.050  24.147  25.568  1.00  0.00     0.009 C 
ENDBRANCH   9  15
BRANCH  14  17
ATOM     17  N   UNL A   1      29.084  26.649  23.790  1.00  0.00    -0.323 N 
ATOM     18  H   UNL A   1      28.263  26.132  23.954  1.00  0.00     0.170 HD
BRANCH  17  19
ATOM     19  C   UNL A   1      28.930  27.894  23.139  1.00  0.00     0.060 A 
ATOM     20  C   UNL A   1      30.036  28.544  22.566  1.00  0.00     0.029 A 
ATOM     21  C   UNL A   1      27.706  28.594  23.161  1.00  0.00     0.066 A 
ATOM     22  C   UNL A   1      29.931  29.834  22.035  1.00  0.00     0.023 A 
ATOM     23  C   UNL A   1      27.596  29.891  22.643  1.00  0.00     0.043 A 
ATOM     24  Cl  UNL A   1      26.297  27.888  23.875  1.00  0.00    -0.082 Cl
ATOM     25  C   UNL A   1      28.714  30.505  22.086  1.00  0.00     0.042 A 
ATOM     26  Cl  UNL A   1      28.597  32.110  21.473  1.00  0.00    -0.084 Cl
ENDBRANCH  17  19
ENDBRANCH  14  17
ENDBRANCH   7   8
ENDBRANCH   6   7
ENDBRANCH   3   6
ENDBRANCH   1   2
BRANCH   1  27
ATOM     27  C   UNL A   1      31.561  32.103  26.696  1.00  0.00     0.042 C 
BRANCH  27  28
ATOM     28  C   UNL A   1      32.770  32.798  27.312  1.00  0.00     0.118 C 
BRANCH  28  29
ATOM     29  N   UNL A   1      32.509  34.198  27.635  1.00  0.00    -0.352 N 
ATOM     30  C   UNL A   1      33.031  34.981  28.636  1.00  0.00     0.251 C 
ATOM     31  H   UNL A   1      31.862  34.648  27.045  1.00  0.00     0.163 HD
ATOM     32  O   UNL A   1      32.537  36.066  28.897  1.00  0.00    -0.269 OA
BRANCH  30  33
ATOM     33  C   UNL A   1      34.189  34.484  29.400  1.00  0.00     0.039 A 
ATOM     34  C   UNL A   1      33.980  33.808  30.604  1.00  0.00     0.014 A 
ATOM     35  C   UNL A   1      35.481  34.676  28.907  1.00  0.00     0.014 A 
ATOM     36  C   UNL A   1      35.071  33.258  31.279  1.00  0.00     0.010 A 
ATOM     37  C   UNL A   1      36.549  34.044  29.524  1.00  0.00     0.010 A 
ATOM     38  C   UNL A   1      36.358  33.341  30.724  1.00  0.00    -0.014 A 
BRANCH  38  39
ATOM     39  C   UNL A   1      37.540  32.739  31.385  1.00  0.00     0.031 A 
ATOM     40  C   UNL A   1      38.247  31.590  30.721  1.00  0.00     0.074 A 
ATOM     41  C   UNL A   1      37.912  33.153  32.610  1.00  0.00     0.049 A 
ATOM     42  N   UNL A   1      39.195  30.818  31.184  1.00  0.00    -0.248 NA
ATOM     43  C   UNL A   1      37.794  31.237  29.365  1.00  0.00     0.031 C 
ATOM     44  C   UNL A   1      37.277  34.230  33.370  1.00  0.00     0.029 A 
ATOM     45  N   UNL A   1      38.903  32.697  33.442  1.00  0.00    -0.354 N 
ATOM     46  C   UNL A   1      39.429  29.875  30.193  1.00  0.00     0.074 A 
ATOM     47  C   UNL A   1      38.483  30.131  29.130  1.00  0.00     0.031 C 
ATOM     48  C   UNL A   1      37.904  34.364  34.550  1.00  0.00     0.029 A 
ATOM     49  C   UNL A   1      38.951  33.352  34.649  1.00  0.00     0.049 A 
ATOM     50  H   UNL A   1      39.521  31.972  33.198  1.00  0.00     0.167 HD
ATOM     51  C   UNL A   1      40.366  28.898  30.161  1.00  0.00     0.037 A 
ATOM     52  C   UNL A   1      39.741  33.144  35.719  1.00  0.00     0.037 A 
ATOM     53  C   UNL A   1      41.322  28.672  31.212  1.00  0.00     0.049 A 
ATOM     54  C   UNL A   1      40.771  32.047  35.664  1.00  0.00     0.074 A 
ATOM     55  C   UNL A   1      42.351  27.750  31.258  1.00  0.00     0.029 A 
ATOM     56  N   UNL A   1      41.362  29.378  32.406  1.00  0.00    -0.354 N 
ATOM     57  N   UNL A   1      41.025  31.197  34.699  1.00  0.00    -0.248 NA
ATOM     58  C   UNL A   1      41.627  31.882  36.848  1.00  0.00     0.031 C 
ATOM     59  C   UNL A   1      42.980  27.861  32.502  1.00  0.00     0.029 A 
ATOM     60  C   UNL A   1      42.386  28.897  33.205  1.00  0.00     0.049 A 
ATOM     61  H   UNL A   1      40.752  30.112  32.649  1.00  0.00     0.167 HD
ATOM     62  C   UNL A   1      42.093  30.426  35.140  1.00  0.00     0.074 A 
ATOM     63  C   UNL A   1      42.442  30.913  36.458  1.00  0.00     0.031 C 
ATOM     64  C   UNL A   1      42.729  29.409  34.508  1.00  0.00     0.037 A 
BRANCH  51  65
ATOM     65  C   UNL A   1      40.397  28.005  28.954  1.00  0.00     0.064 A 
ATOM     66  C   UNL A   1      41.146  28.328  27.812  1.00  0.00     0.173 A 
ATOM     67  C   UNL A   1      39.678  26.800  28.943  1.00  0.00     0.173 A 
ATOM     68  F   UNL A   1      41.842  29.476  27.763  1.00  0.00    -0.203 F 
ATOM     69  C   UNL A   1      41.144  27.501  26.692  1.00  0.00     0.198 A 
ATOM     70  C   UNL A   1      39.708  25.955  27.836  1.00  0.00     0.198 A 
ATOM     71  F   UNL A   1      38.948  26.437  30.009  1.00  0.00    -0.203 F 
ATOM     72  F   UNL A   1      41.816  27.864  25.591  1.00  0.00    -0.200 F 
ATOM     73  C   UNL A   1      40.431  26.312  26.709  1.00  0.00     0.200 A 
ATOM     74  F   UNL A   1      39.031  24.799  27.859  1.00  0.00    -0.200 F 
ATOM     75  F   UNL A   1      40.434  25.513  25.631  1.00  0.00    -0.200 F 
ENDBRANCH  51  65
BRANCH  52  76
ATOM     76  C   UNL A   1      39.607  34.009  36.921  1.00  0.00     0.064 A 
ATOM     77  C   UNL A   1      40.267  35.243  36.996  1.00  0.00     0.173 A 
ATOM     78  C   UNL A   1      38.819  33.624  38.017  1.00  0.00     0.173 A 
ATOM     79  F   UNL A   1      41.046  35.648  35.981  1.00  0.00    -0.203 F 
ATOM     80  C   UNL A   1      40.163  36.049  38.128  1.00  0.00     0.198 A 
ATOM     81  C   UNL A   1      38.692  34.445  39.135  1.00  0.00     0.198 A 
ATOM     82  F   UNL A   1      38.161  32.457  37.994  1.00  0.00    -0.203 F 
ATOM     83  F   UNL A   1      40.843  37.202  38.190  1.00  0.00    -0.200 F 
ATOM     84  C   UNL A   1      39.371  35.653  39.194  1.00  0.00     0.200 A 
ATOM     85  F   UNL A   1      37.912  34.066  40.157  1.00  0.00    -0.200 F 
ATOM     86  F   UNL A   1      39.267  36.431  40.280  1.00  0.00    -0.200 F 
ENDBRANCH  52  76
BRANCH  64  87
ATOM     87  C   UNL A   1      43.907  28.789  35.204  1.00  0.00     0.064 A 
ATOM     88  C   UNL A   1      43.770  27.682  36.052  1.00  0.00     0.173 A 
ATOM     89  C   UNL A   1      45.201  29.280  34.967  1.00  0.00     0.173 A 
ATOM     90  F   UNL A   1      42.554  27.183  36.321  1.00  0.00    -0.203 F 
ATOM     91  C   UNL A   1      44.883  27.102  36.657  1.00  0.00     0.198 A 
ATOM     92  C   UNL A   1      46.314  28.677  35.545  1.00  0.00     0.198 A 
ATOM     93  F   UNL A   1      45.388  30.333  34.156  1.00  0.00    -0.203 F 
ATOM     94  F   UNL A   1      44.725  26.073  37.501  1.00  0.00    -0.200 F 
ATOM     95  C   UNL A   1      46.154  27.593  36.395  1.00  0.00     0.200 A 
ATOM     96  F   UNL A   1      47.542  29.143  35.276  1.00  0.00    -0.200 F 
ATOM     97  F   UNL A   1      47.224  27.025  36.966  1.00  0.00    -0.200 F 
ENDBRANCH  64  87
ENDBRANCH  38  39
ENDBRANCH  30  33
ENDBRANCH  28  29
ENDBRANCH  27  28
ENDBRANCH   1  27
TORSDOF 15
ENDMDL
MODEL 2
REMARK VINA RESULT:     -12.5      5.739     10.885
REMARK SMILES CCc1c(C)nc(Nc2ccc(Cl)cc2Cl)nc1OCC(=O)NCCCNC(=O)c1ccc(-c2c3nc(c(-c4c(F)c(F)c(F)c(F)c4F)c4ccc([nH]4)c(-c4c(F)c(F)c(F)c(F)c4F)c4nc(c(-c5c(F)c(F)c(F)c(F)c5F)c5ccc2[nH]5)C=C4)C=C3)cc1
REMARK SMILES IDX 24 1 23 2 21 3 22 4 20 6 19 7 18 8 3 9 4 10 5 11 6 12 17 13
REMARK SMILES IDX 7 14 2 15 1 16 8 17 9 19 10 20 15 21 11 22 14 23 16 24 12 25
REMARK SMILES IDX 13 26 25 27 26 28 27 29 28 30 29 32 30 33 31 34 92 35 32 36
REMARK SMILES IDX 91 37 33 38 34 39 35 40 85 41 36 42 90 43 84 44 86 45 37 46
REMARK SMILES IDX 89 47 83 48 82 49 38 51 70 52 50 53 69 54 51 55 54 56 68 57
REMARK SMILES IDX 87 58 52 59 53 60 67 62 88 63 55 64 39 65 40 66 48 67 41 68
REMARK SMILES IDX 42 69 46 70 49 71 43 72 44 73 47 74 45 75 71 76 72 77 80 78
REMARK SMILES IDX 73 79 74 80 78 81 81 82 75 83 76 84 79 85 77 86 56 87 57 88
REMARK SMILES IDX 65 89 58 90 59 91 63 92 66 93 60 94 61 95 64 96 62 97
REMARK H PARENT 23 5 8 18 27 31 86 50 54 61
REMARK Flexibility Score: inf
ROOT
ATOM      1  C   UNL A   1      36.762  20.505  25.239  1.00  0.00     0.117 C 
ENDROOT
BRANCH   1   2
ATOM      2  N   UNL A   1      36.891  21.882  25.671  1.00  0.00    -0.353 N 
ATOM      3  C   UNL A   1      36.928  23.020  24.927  1.00  0.00     0.258 C 
ATOM      4  O   UNL A   1      37.254  24.058  25.503  1.00  0.00    -0.271 OA
ATOM      5  H   UNL A   1      36.963  22.013  26.643  1.00  0.00     0.163 HD
BRANCH   3   6
ATOM      6  C   UNL A   1      36.482  22.994  23.449  1.00  0.00     0.331 C 
BRANCH   6   7
ATOM      7  O   UNL A   1      35.178  23.162  22.940  1.00  0.00    -0.467 OA
BRANCH   7   8
ATOM      8  C   UNL A   1      34.187  23.525  23.805  1.00  0.00     0.222 A 
ATOM      9  C   UNL A   1      33.293  22.610  24.337  1.00  0.00     0.035 A 
ATOM     10  C   UNL A   1      32.288  23.197  25.102  1.00  0.00     0.050 A 
ATOM     11  C   UNL A   1      31.203  22.407  25.777  1.00  0.00     0.067 C 
ATOM     12  N   UNL A   1      32.106  24.527  25.178  1.00  0.00    -0.218 NA
ATOM     13  N   UNL A   1      33.994  24.869  23.835  1.00  0.00    -0.177 NA
ATOM     14  C   UNL A   1      32.908  25.324  24.472  1.00  0.00     0.230 A 
BRANCH   9  15
ATOM     15  C   UNL A   1      33.261  21.114  24.139  1.00  0.00     0.040 C 
ATOM     16  C   UNL A   1      32.357  20.466  23.100  1.00  0.00     0.009 C 
ENDBRANCH   9  15
BRANCH  14  17
ATOM     17  N   UNL A   1      32.502  26.649  24.255  1.00  0.00    -0.323 N 
ATOM     18  H   UNL A   1      31.904  26.805  23.489  1.00  0.00     0.170 HD
BRANCH  17  19
ATOM     19  C   UNL A   1      32.861  27.783  25.019  1.00  0.00     0.060 A 
ATOM     20  C   UNL A   1      33.839  27.688  26.023  1.00  0.00     0.029 A 
ATOM     21  C   UNL A   1      32.163  29.002  24.906  1.00  0.00     0.066 A 
ATOM     22  C   UNL A   1      34.113  28.761  26.880  1.00  0.00     0.023 A 
ATOM     23  C   UNL A   1      32.423  30.076  25.768  1.00  0.00     0.043 A 
ATOM     24  Cl  UNL A   1      30.918  29.201  23.721  1.00  0.00    -0.082 Cl
ATOM     25  C   UNL A   1      33.396  29.946  26.753  1.00  0.00     0.042 A 
ATOM     26  Cl  UNL A   1      33.704  31.249  27.836  1.00  0.00    -0.084 Cl
ENDBRANCH  17  19
ENDBRANCH  14  17
ENDBRANCH   7   8
ENDBRANCH   6   7
ENDBRANCH   3   6
ENDBRANCH   1   2
BRANCH   1  27
ATOM     27  C   UNL A   1      38.114  19.936  24.840  1.00  0.00     0.042 C 
BRANCH  27  28
ATOM     28  C   UNL A   1      39.221  20.267  25.834  1.00  0.00     0.118 C 
BRANCH  28  29
ATOM     29  N   UNL A   1      40.199  19.191  25.966  1.00  0.00    -0.352 N 
ATOM     30  C   UNL A   1      41.563  19.255  26.111  1.00  0.00     0.251 C 
ATOM     31  H   UNL A   1      39.822  18.281  25.948  1.00  0.00     0.163 HD
ATOM     32  O   UNL A   1      42.250  18.254  25.984  1.00  0.00    -0.269 OA
BRANCH  30  33
ATOM     33  C   UNL A   1      42.188  20.556  26.409  1.00  0.00     0.039 A 
ATOM     34  C   UNL A   1      42.588  21.384  25.357  1.00  0.00     0.014 A 
ATOM     35  C   UNL A   1      42.357  20.958  27.735  1.00  0.00     0.014 A 
ATOM     36  C   UNL A   1      43.095  22.653  25.640  1.00  0.00     0.010 A 
ATOM     37  C   UNL A   1      42.764  22.255  28.009  1.00  0.00     0.010 A 
ATOM     38  C   UNL A   1      43.151  23.110  26.967  1.00  0.00    -0.014 A 
BRANCH  38  39
ATOM     39  C   UNL A   1      43.644  24.465  27.312  1.00  0.00     0.031 A 
ATOM     40  C   UNL A   1      42.679  25.483  27.851  1.00  0.00     0.074 A 
ATOM     41  C   UNL A   1      44.920  24.805  27.050  1.00  0.00     0.049 A 
ATOM     42  N   UNL A   1      42.854  26.760  28.072  1.00  0.00    -0.248 NA
ATOM     43  C   UNL A   1      41.317  25.006  28.142  1.00  0.00     0.031 C 
ATOM     44  C   UNL A   1      45.937  23.915  26.490  1.00  0.00     0.029 A 
ATOM     45  N   UNL A   1      45.572  26.003  27.201  1.00  0.00    -0.354 N 
ATOM     46  C   UNL A   1      41.623  27.240  28.496  1.00  0.00     0.074 A 
ATOM     47  C   UNL A   1      40.694  26.134  28.444  1.00  0.00     0.031 C 
ATOM     48  C   UNL A   1      47.089  24.592  26.359  1.00  0.00     0.029 A 
ATOM     49  C   UNL A   1      46.879  25.974  26.780  1.00  0.00     0.049 A 
ATOM     50  H   UNL A   1      45.145  26.806  27.576  1.00  0.00     0.167 HD
ATOM     51  C   UNL A   1      41.302  28.486  28.918  1.00  0.00     0.037 A 
ATOM     52  C   UNL A   1      47.796  26.958  26.725  1.00  0.00     0.037 A 
ATOM     53  C   UNL A   1      42.243  29.572  28.993  1.00  0.00     0.049 A 
ATOM     54  C   UNL A   1      47.414  28.338  27.190  1.00  0.00     0.074 A 
ATOM     55  C   UNL A   1      42.040  30.858  29.459  1.00  0.00     0.029 A 
ATOM     56  N   UNL A   1      43.568  29.495  28.590  1.00  0.00    -0.354 N 
ATOM     57  N   UNL A   1      46.264  28.770  27.647  1.00  0.00    -0.248 NA
ATOM     58  C   UNL A   1      48.461  29.369  27.136  1.00  0.00     0.031 C 
ATOM     59  C   UNL A   1      43.227  31.575  29.287  1.00  0.00     0.029 A 
ATOM     60  C   UNL A   1      44.190  30.719  28.775  1.00  0.00     0.049 A 
ATOM     61  H   UNL A   1      44.002  28.691  28.224  1.00  0.00     0.167 HD
ATOM     62  C   UNL A   1      46.458  30.106  27.971  1.00  0.00     0.074 A 
ATOM     63  C   UNL A   1      47.840  30.413  27.664  1.00  0.00     0.031 C 
ATOM     64  C   UNL A   1      45.573  30.998  28.481  1.00  0.00     0.037 A 
BRANCH  51  65
ATOM     65  C   UNL A   1      39.878  28.737  29.322  1.00  0.00     0.064 A 
ATOM     66  C   UNL A   1      38.929  29.241  28.418  1.00  0.00     0.173 A 
ATOM     67  C   UNL A   1      39.450  28.457  30.628  1.00  0.00     0.173 A 
ATOM     68  F   UNL A   1      39.288  29.539  27.159  1.00  0.00    -0.203 F 
ATOM     69  C   UNL A   1      37.619  29.492  28.817  1.00  0.00     0.198 A 
ATOM     70  C   UNL A   1      38.129  28.673  31.013  1.00  0.00     0.198 A 
ATOM     71  F   UNL A   1      40.312  27.969  31.534  1.00  0.00    -0.203 F 
ATOM     72  F   UNL A   1      36.750  30.034  27.952  1.00  0.00    -0.200 F 
ATOM     73  C   UNL A   1      37.218  29.200  30.111  1.00  0.00     0.200 A 
ATOM     74  F   UNL A   1      37.739  28.377  32.261  1.00  0.00    -0.200 F 
ATOM     75  F   UNL A   1      35.955  29.438  30.492  1.00  0.00    -0.200 F 
ENDBRANCH  51  65
BRANCH  52  76
ATOM     76  C   UNL A   1      49.169  26.668  26.234  1.00  0.00     0.064 A 
ATOM     77  C   UNL A   1      49.527  26.930  24.904  1.00  0.00     0.173 A 
ATOM     78  C   UNL A   1      50.151  26.127  27.078  1.00  0.00     0.173 A 
ATOM     79  F   UNL A   1      48.619  27.430  24.053  1.00  0.00    -0.203 F 
ATOM     80  C   UNL A   1      50.805  26.640  24.431  1.00  0.00     0.198 A 
ATOM     81  C   UNL A   1      51.438  25.868  26.611  1.00  0.00     0.198 A 
ATOM     82  F   UNL A   1      49.863  25.865  28.361  1.00  0.00    -0.203 F 
ATOM     83  F   UNL A   1      51.104  26.856  23.142  1.00  0.00    -0.200 F 
ATOM     84  C   UNL A   1      51.762  26.115  25.286  1.00  0.00     0.200 A 
ATOM     85  F   UNL A   1      52.364  25.376  27.446  1.00  0.00    -0.200 F 
ATOM     86  F   UNL A   1      52.993  25.843  24.832  1.00  0.00    -0.200 F 
ENDBRANCH  52  76
BRANCH  64  87
ATOM     87  C   UNL A   1      46.081  32.376  28.798  1.00  0.00     0.064 A 
ATOM     88  C   UNL A   1      46.661  32.687  30.035  1.00  0.00     0.173 A 
ATOM     89  C   UNL A   1      46.036  33.383  27.821  1.00  0.00     0.173 A 
ATOM     90  F   UNL A   1      46.715  31.763  31.007  1.00  0.00    -0.203 F 
ATOM     91  C   UNL A   1      47.157  33.963  30.291  1.00  0.00     0.198 A 
ATOM     92  C   UNL A   1      46.564  34.647  28.069  1.00  0.00     0.198 A 
ATOM     93  F   UNL A   1      45.499  33.135  26.616  1.00  0.00    -0.203 F 
ATOM     94  F   UNL A   1      47.666  34.251  31.498  1.00  0.00    -0.200 F 
ATOM     95  C   UNL A   1      47.118  34.938  29.306  1.00  0.00     0.200 A 
ATOM     96  F   UNL A   1      46.541  35.581  27.107  1.00  0.00    -0.200 F 
ATOM     97  F   UNL A   1      47.609  36.160  29.549  1.00  0.00    -0.200 F 
ENDBRANCH  64  87
ENDBRANCH  38  39
ENDBRANCH  30  33
ENDBRANCH  28  29
ENDBRANCH  27  28
ENDBRANCH   1  27
TORSDOF 15
ENDMDL
MODEL 3
REMARK VINA RESULT:     -12.3      6.059     11.406
REMARK SMILES CCc1c(C)nc(Nc2ccc(Cl)cc2Cl)nc1OCC(=O)NCCCNC(=O)c1ccc(-c2c3nc(c(-c4c(F)c(F)c(F)c(F)c4F)c4ccc([nH]4)c(-c4c(F)c(F)c(F)c(F)c4F)c4nc(c(-c5c(F)c(F)c(F)c(F)c5F)c5ccc2[nH]5)C=C4)C=C3)cc1
REMARK SMILES IDX 24 1 23 2 21 3 22 4 20 6 19 7 18 8 3 9 4 10 5 11 6 12 17 13
REMARK SMILES IDX 7 14 2 15 1 16 8 17 9 19 10 20 15 21 11 22 14 23 16 24 12 25
REMARK SMILES IDX 13 26 25 27 26 28 27 29 28 30 29 32 30 33 31 34 92 35 32 36
REMARK SMILES IDX 91 37 33 38 34 39 35 40 85 41 36 42 90 43 84 44 86 45 37 46
REMARK SMILES IDX 89 47 83 48 82 49 38 51 70 52 50 53 69 54 51 55 54 56 68 57
REMARK SMILES IDX 87 58 52 59 53 60 67 62 88 63 55 64 39 65 40 66 48 67 41 68
REMARK SMILES IDX 42 69 46 70 49 71 43 72 44 73 47 74 45 75 71 76 72 77 80 78
REMARK SMILES IDX 73 79 74 80 78 81 81 82 75 83 76 84 79 85 77 86 56 87 57 88
REMARK SMILES IDX 65 89 58 90 59 91 63 92 66 93 60 94 61 95 64 96 62 97
REMARK H PARENT 23 5 8 18 27 31 86 50 54 61
REMARK Flexibility Score: inf
ROOT
ATOM      1  C   UNL A   1      36.986  20.690  25.111  1.00  0.00     0.117 C 
ENDROOT
BRANCH   1   2
ATOM      2  N   UNL A   1      37.091  21.624  24.009  1.00  0.00    -0.353 N 
ATOM      3  C   UNL A   1      36.540  22.859  23.870  1.00  0.00     0.258 C 
ATOM      4  O   UNL A   1      36.598  23.379  22.755  1.00  0.00    -0.271 OA
ATOM      5  H   UNL A   1      37.640  21.321  23.251  1.00  0.00     0.163 HD
BRANCH   3   6
ATOM      6  C   UNL A   1      35.959  23.591  25.099  1.00  0.00     0.331 C 
BRANCH   6   7
ATOM      7  O   UNL A   1      35.244  24.806  25.120  1.00  0.00    -0.467 OA
BRANCH   7   8
ATOM      8  C   UNL A   1      33.882  24.756  25.060  1.00  0.00     0.222 A 
ATOM      9  C   UNL A   1      33.080  25.792  25.513  1.00  0.00     0.035 A 
ATOM     10  C   UNL A   1      31.719  25.498  25.474  1.00  0.00     0.050 A 
ATOM     11  C   UNL A   1      30.658  26.465  25.917  1.00  0.00     0.067 C 
ATOM     12  N   UNL A   1      31.241  24.275  25.186  1.00  0.00    -0.218 NA
ATOM     13  N   UNL A   1      33.421  23.505  24.808  1.00  0.00    -0.177 NA
ATOM     14  C   UNL A   1      32.106  23.289  24.948  1.00  0.00     0.230 A 
BRANCH   9  15
ATOM     15  C   UNL A   1      33.508  27.128  26.071  1.00  0.00     0.040 C 
ATOM     16  C   UNL A   1      33.736  28.333  25.171  1.00  0.00     0.009 C 
ENDBRANCH   9  15
BRANCH  14  17
ATOM     17  N   UNL A   1      31.641  21.967  25.016  1.00  0.00    -0.323 N 
ATOM     18  H   UNL A   1      30.758  21.833  25.429  1.00  0.00     0.170 HD
BRANCH  17  19
ATOM     19  C   UNL A   1      32.307  20.809  24.553  1.00  0.00     0.060 A 
ATOM     20  C   UNL A   1      31.978  20.244  23.310  1.00  0.00     0.029 A 
ATOM     21  C   UNL A   1      33.214  20.102  25.369  1.00  0.00     0.066 A 
ATOM     22  C   UNL A   1      32.527  19.026  22.893  1.00  0.00     0.023 A 
ATOM     23  C   UNL A   1      33.758  18.876  24.963  1.00  0.00     0.043 A 
ATOM     24  Cl  UNL A   1      33.653  20.704  26.931  1.00  0.00    -0.082 Cl
ATOM     25  C   UNL A   1      33.407  18.344  23.727  1.00  0.00     0.042 A 
ATOM     26  Cl  UNL A   1      34.047  16.825  23.231  1.00  0.00    -0.084 Cl
ENDBRANCH  17  19
ENDBRANCH  14  17
ENDBRANCH   7   8
ENDBRANCH   6   7
ENDBRANCH   3   6
ENDBRANCH   1   2
BRANCH   1  27
ATOM     27  C   UNL A   1      38.125  19.683  25.076  1.00  0.00     0.042 C 
BRANCH  27  28
ATOM     28  C   UNL A   1      39.363  20.152  25.832  1.00  0.00     0.118 C 
BRANCH  28  29
ATOM     29  N   UNL A   1      40.361  19.098  25.983  1.00  0.00    -0.352 N 
ATOM     30  C   UNL A   1      41.725  19.192  26.120  1.00  0.00     0.251 C 
ATOM     31  H   UNL A   1      40.002  18.181  25.988  1.00  0.00     0.163 HD
ATOM     32  O   UNL A   1      42.430  18.201  26.013  1.00  0.00    -0.269 OA
BRANCH  30  33
ATOM     33  C   UNL A   1      42.326  20.511  26.386  1.00  0.00     0.039 A 
ATOM     34  C   UNL A   1      42.725  21.313  25.315  1.00  0.00     0.014 A 
ATOM     35  C   UNL A   1      42.473  20.956  27.701  1.00  0.00     0.014 A 
ATOM     36  C   UNL A   1      43.209  22.598  25.564  1.00  0.00     0.010 A 
ATOM     37  C   UNL A   1      42.856  22.266  27.941  1.00  0.00     0.010 A 
ATOM     38  C   UNL A   1      43.242  23.096  26.877  1.00  0.00    -0.014 A 
BRANCH  38  39
ATOM     39  C   UNL A   1      43.710  24.468  27.187  1.00  0.00     0.031 A 
ATOM     40  C   UNL A   1      42.727  25.480  27.703  1.00  0.00     0.074 A 
ATOM     41  C   UNL A   1      44.978  24.825  26.912  1.00  0.00     0.049 A 
ATOM     42  N   UNL A   1      42.878  26.766  27.891  1.00  0.00    -0.248 NA
ATOM     43  C   UNL A   1      41.375  24.984  28.011  1.00  0.00     0.031 C 
ATOM     44  C   UNL A   1      46.011  23.942  26.371  1.00  0.00     0.029 A 
ATOM     45  N   UNL A   1      45.607  26.039  27.031  1.00  0.00    -0.354 N 
ATOM     46  C   UNL A   1      41.638  27.232  28.307  1.00  0.00     0.074 A 
ATOM     47  C   UNL A   1      40.731  26.107  28.286  1.00  0.00     0.031 C 
ATOM     48  C   UNL A   1      47.150  24.637  26.220  1.00  0.00     0.029 A 
ATOM     49  C   UNL A   1      46.914  26.025  26.607  1.00  0.00     0.049 A 
ATOM     50  H   UNL A   1      45.166  26.843  27.387  1.00  0.00     0.167 HD
ATOM     51  C   UNL A   1      41.295  28.482  28.698  1.00  0.00     0.037 A 
ATOM     52  C   UNL A   1      47.811  27.025  26.524  1.00  0.00     0.037 A 
ATOM     53  C   UNL A   1      42.215  29.587  28.744  1.00  0.00     0.049 A 
ATOM     54  C   UNL A   1      47.404  28.409  26.956  1.00  0.00     0.074 A 
ATOM     55  C   UNL A   1      41.989  30.881  29.178  1.00  0.00     0.029 A 
ATOM     56  N   UNL A   1      43.540  29.526  28.338  1.00  0.00    -0.354 N 
ATOM     57  N   UNL A   1      46.247  28.829  27.405  1.00  0.00    -0.248 NA
ATOM     58  C   UNL A   1      48.431  29.457  26.873  1.00  0.00     0.031 C 
ATOM     59  C   UNL A   1      43.161  31.616  28.984  1.00  0.00     0.029 A 
ATOM     60  C   UNL A   1      44.139  30.766  28.491  1.00  0.00     0.049 A 
ATOM     61  H   UNL A   1      43.989  28.721  27.991  1.00  0.00     0.167 HD
ATOM     62  C   UNL A   1      46.416  30.177  27.696  1.00  0.00     0.074 A 
ATOM     63  C   UNL A   1      47.791  30.502  27.377  1.00  0.00     0.031 C 
ATOM     64  C   UNL A   1      45.516  31.064  28.186  1.00  0.00     0.037 A 
BRANCH  51  65
ATOM     65  C   UNL A   1      39.867  28.716  29.101  1.00  0.00     0.064 A 
ATOM     66  C   UNL A   1      39.432  28.536  30.423  1.00  0.00     0.173 A 
ATOM     67  C   UNL A   1      38.922  29.140  28.155  1.00  0.00     0.173 A 
ATOM     68  F   UNL A   1      40.291  28.118  31.367  1.00  0.00    -0.203 F 
ATOM     69  C   UNL A   1      38.099  28.733  30.774  1.00  0.00     0.198 A 
ATOM     70  C   UNL A   1      37.598  29.373  28.517  1.00  0.00     0.198 A 
ATOM     71  F   UNL A   1      39.282  29.333  26.876  1.00  0.00    -0.203 F 
ATOM     72  F   UNL A   1      37.696  28.492  32.029  1.00  0.00    -0.200 F 
ATOM     73  C   UNL A   1      37.185  29.158  29.823  1.00  0.00     0.200 A 
ATOM     74  F   UNL A   1      36.718  29.799  27.599  1.00  0.00    -0.200 F 
ATOM     75  F   UNL A   1      35.903  29.353  30.163  1.00  0.00    -0.200 F 
ENDBRANCH  51  65
BRANCH  52  76
ATOM     76  C   UNL A   1      49.189  26.749  26.036  1.00  0.00     0.064 A 
ATOM     77  C   UNL A   1      49.537  26.981  24.699  1.00  0.00     0.173 A 
ATOM     78  C   UNL A   1      50.184  26.251  26.892  1.00  0.00     0.173 A 
ATOM     79  F   UNL A   1      48.616  27.439  23.837  1.00  0.00    -0.203 F 
ATOM     80  C   UNL A   1      50.819  26.704  24.229  1.00  0.00     0.198 A 
ATOM     81  C   UNL A   1      51.474  26.005  26.428  1.00  0.00     0.198 A 
ATOM     82  F   UNL A   1      49.906  26.020  28.182  1.00  0.00    -0.203 F 
ATOM     83  F   UNL A   1      51.110  26.890  22.934  1.00  0.00    -0.200 F 
ATOM     84  C   UNL A   1      51.789  26.222  25.095  1.00  0.00     0.200 A 
ATOM     85  F   UNL A   1      52.413  25.555  27.272  1.00  0.00    -0.200 F 
ATOM     86  F   UNL A   1      53.024  25.962  24.644  1.00  0.00    -0.200 F 
ENDBRANCH  52  76
BRANCH  64  87
ATOM     87  C   UNL A   1      45.997  32.459  28.466  1.00  0.00     0.064 A 
ATOM     88  C   UNL A   1      45.909  33.481  27.512  1.00  0.00     0.173 A 
ATOM     89  C   UNL A   1      46.503  32.786  29.735  1.00  0.00     0.173 A 
ATOM     90  F   UNL A   1      45.446  33.217  26.280  1.00  0.00    -0.203 F 
ATOM     91  C   UNL A   1      46.329  34.775  27.809  1.00  0.00     0.198 A 
ATOM     92  C   UNL A   1      46.889  34.087  30.040  1.00  0.00     0.198 A 
ATOM     93  F   UNL A   1      46.600  31.846  30.688  1.00  0.00    -0.203 F 
ATOM     94  F   UNL A   1      46.279  35.727  26.867  1.00  0.00    -0.200 F 
ATOM     95  C   UNL A   1      46.809  35.079  29.075  1.00  0.00     0.200 A 
ATOM     96  F   UNL A   1      47.335  34.381  31.269  1.00  0.00    -0.200 F 
ATOM     97  F   UNL A   1      47.199  36.328  29.363  1.00  0.00    -0.200 F 
ENDBRANCH  64  87
ENDBRANCH  38  39
ENDBRANCH  30  33
ENDBRANCH  28  29
ENDBRANCH  27  28
ENDBRANCH   1  27
TORSDOF 15
ENDMDL
