MODEL 1
REMARK VINA RESULT:     -11.1      0.000      0.000
REMARK SMILES O=C(Cc1ccc(OC[C@H]2Cc3ccccc3S2)cc1)NCCCNC(=O)c1ccc(-c2c3nc(c(-c4c(F)c(F)c(F)c(F)c4F)c4ccc([nH]4)c(-c4c(F)c(F)c(F)c(F)c4F)c4nc(c(-c5c(F)c(F)c(F)c(F)c5F)c5ccc2[nH]5)C=C4)C=C3)cc1
REMARK SMILES IDX 22 1 21 2 1 3 2 4 3 6 4 7 5 8 20 9 6 10 19 11 7 12 8 13 9 14
REMARK SMILES IDX 10 15 11 16 18 17 12 18 17 19 13 20 16 21 14 22 15 23 23 24
REMARK SMILES IDX 24 25 25 26 26 27 27 29 28 30 29 31 90 32 30 33 89 34 31 35
REMARK SMILES IDX 32 36 33 37 83 38 34 39 88 40 82 41 84 42 35 43 87 44 81 45
REMARK SMILES IDX 80 46 36 48 68 49 48 50 67 51 49 52 52 53 66 54 85 55 50 56
REMARK SMILES IDX 51 57 65 59 86 60 53 61 37 62 38 63 46 64 39 65 40 66 44 67
REMARK SMILES IDX 47 68 41 69 42 70 45 71 43 72 69 73 70 74 78 75 71 76 72 77
REMARK SMILES IDX 76 78 79 79 73 80 74 81 77 82 75 83 54 84 55 85 63 86 56 87
REMARK SMILES IDX 57 88 61 89 64 90 58 91 59 92 62 93 60 94
REMARK H PARENT 21 5 25 28 84 47 52 58
REMARK Flexibility Score: inf
ROOT
ATOM      1  C   UNL A   1      33.210  34.436  28.196  1.00  0.00     0.117 C 
ENDROOT
BRANCH   1   2
ATOM      2  N   UNL A   1      33.129  34.751  29.607  1.00  0.00    -0.356 N 
ATOM      3  O   UNL A   1      32.883  37.018  29.332  1.00  0.00    -0.275 OA
ATOM      4  C   UNL A   1      32.924  36.036  30.067  1.00  0.00     0.224 C 
ATOM      5  H   UNL A   1      33.224  34.022  30.263  1.00  0.00     0.163 HD
BRANCH   4   6
ATOM      6  C   UNL A   1      32.825  36.154  31.575  1.00  0.00     0.135 C 
BRANCH   6   7
ATOM      7  C   UNL A   1      33.789  35.336  32.408  1.00  0.00    -0.038 A 
ATOM      8  C   UNL A   1      35.019  35.805  32.896  1.00  0.00     0.008 A 
ATOM      9  C   UNL A   1      33.379  34.043  32.770  1.00  0.00     0.008 A 
ATOM     10  C   UNL A   1      35.759  35.044  33.807  1.00  0.00     0.047 A 
ATOM     11  C   UNL A   1      34.127  33.277  33.660  1.00  0.00     0.047 A 
ATOM     12  C   UNL A   1      35.301  33.792  34.200  1.00  0.00     0.119 A 
BRANCH  12  13
ATOM     13  O   UNL A   1      35.948  33.154  35.220  1.00  0.00    -0.492 OA
BRANCH  13  14
ATOM     14  C   UNL A   1      37.295  33.609  35.395  1.00  0.00     0.244 C 
BRANCH  14  15
ATOM     15  C   UNL A   1      38.284  32.475  35.035  1.00  0.00     0.094 C 
ATOM     16  C   UNL A   1      37.822  31.633  33.820  1.00  0.00     0.055 C 
ATOM     17  S   UNL A   1      39.815  33.274  34.427  1.00  0.00    -0.119 SA
ATOM     18  C   UNL A   1      38.072  32.507  32.618  1.00  0.00    -0.033 A 
ATOM     19  C   UNL A   1      39.080  33.457  32.828  1.00  0.00     0.011 A 
ATOM     20  C   UNL A   1      37.363  32.488  31.425  1.00  0.00     0.005 A 
ATOM     21  C   UNL A   1      39.312  34.474  31.923  1.00  0.00     0.015 A 
ATOM     22  C   UNL A   1      37.602  33.502  30.495  1.00  0.00     0.000 A 
ATOM     23  C   UNL A   1      38.548  34.506  30.757  1.00  0.00     0.001 A 
ENDBRANCH  14  15
ENDBRANCH  13  14
ENDBRANCH  12  13
ENDBRANCH   6   7
ENDBRANCH   4   6
ENDBRANCH   1   2
BRANCH   1  24
ATOM     24  C   UNL A   1      34.441  33.606  27.861  1.00  0.00     0.042 C 
BRANCH  24  25
ATOM     25  C   UNL A   1      34.654  32.401  28.771  1.00  0.00     0.118 C 
BRANCH  25  26
ATOM     26  N   UNL A   1      34.131  31.159  28.216  1.00  0.00    -0.352 N 
ATOM     27  C   UNL A   1      34.777  29.977  27.941  1.00  0.00     0.251 C 
ATOM     28  H   UNL A   1      33.169  31.168  28.008  1.00  0.00     0.163 HD
ATOM     29  O   UNL A   1      34.189  29.080  27.343  1.00  0.00    -0.269 OA
BRANCH  27  30
ATOM     30  C   UNL A   1      36.191  29.795  28.332  1.00  0.00     0.039 A 
ATOM     31  C   UNL A   1      36.482  29.326  29.616  1.00  0.00     0.014 A 
ATOM     32  C   UNL A   1      37.226  30.073  27.437  1.00  0.00     0.014 A 
ATOM     33  C   UNL A   1      37.805  29.049  29.970  1.00  0.00     0.010 A 
ATOM     34  C   UNL A   1      38.533  29.723  27.763  1.00  0.00     0.010 A 
ATOM     35  C   UNL A   1      38.836  29.198  29.029  1.00  0.00    -0.014 A 
BRANCH  35  36
ATOM     36  C   UNL A   1      40.234  28.797  29.333  1.00  0.00     0.031 A 
ATOM     37  C   UNL A   1      41.151  29.742  30.057  1.00  0.00     0.074 A 
ATOM     38  C   UNL A   1      40.705  27.619  28.877  1.00  0.00     0.049 A 
ATOM     39  N   UNL A   1      42.433  29.633  30.300  1.00  0.00    -0.248 NA
ATOM     40  C   UNL A   1      40.551  30.992  30.550  1.00  0.00     0.031 C 
ATOM     41  C   UNL A   1      39.927  26.628  28.133  1.00  0.00     0.029 A 
ATOM     42  N   UNL A   1      41.960  27.065  28.955  1.00  0.00    -0.354 N 
ATOM     43  C   UNL A   1      42.794  30.802  30.956  1.00  0.00     0.074 A 
ATOM     44  C   UNL A   1      41.609  31.629  31.029  1.00  0.00     0.031 C 
ATOM     45  C   UNL A   1      40.716  25.583  27.834  1.00  0.00     0.029 A 
ATOM     46  C   UNL A   1      42.066  25.851  28.320  1.00  0.00     0.049 A 
ATOM     47  H   UNL A   1      42.711  27.496  29.421  1.00  0.00     0.167 HD
ATOM     48  C   UNL A   1      44.000  31.144  31.469  1.00  0.00     0.037 A 
ATOM     49  C   UNL A   1      43.136  25.054  28.129  1.00  0.00     0.037 A 
ATOM     50  C   UNL A   1      45.171  30.309  31.410  1.00  0.00     0.049 A 
ATOM     51  C   UNL A   1      44.473  25.474  28.679  1.00  0.00     0.074 A 
ATOM     52  C   UNL A   1      46.425  30.543  31.947  1.00  0.00     0.029 A 
ATOM     53  N   UNL A   1      45.235  29.080  30.769  1.00  0.00    -0.354 N 
ATOM     54  N   UNL A   1      44.790  26.554  29.351  1.00  0.00    -0.248 NA
ATOM     55  C   UNL A   1      45.604  24.563  28.444  1.00  0.00     0.031 C 
ATOM     56  C   UNL A   1      47.262  29.486  31.583  1.00  0.00     0.029 A 
ATOM     57  C   UNL A   1      46.515  28.559  30.874  1.00  0.00     0.049 A 
ATOM     58  H   UNL A   1      44.482  28.644  30.309  1.00  0.00     0.167 HD
ATOM     59  C   UNL A   1      46.141  26.436  29.651  1.00  0.00     0.074 A 
ATOM     60  C   UNL A   1      46.584  25.175  29.093  1.00  0.00     0.031 C 
ATOM     61  C   UNL A   1      46.939  27.294  30.331  1.00  0.00     0.037 A 
BRANCH  48  62
ATOM     62  C   UNL A   1      44.119  32.485  32.135  1.00  0.00     0.064 A 
ATOM     63  C   UNL A   1      44.541  33.624  31.431  1.00  0.00     0.173 A 
ATOM     64  C   UNL A   1      43.764  32.643  33.483  1.00  0.00     0.173 A 
ATOM     65  F   UNL A   1      44.901  33.526  30.143  1.00  0.00    -0.203 F 
ATOM     66  C   UNL A   1      44.635  34.863  32.060  1.00  0.00     0.198 A 
ATOM     67  C   UNL A   1      43.826  33.891  34.100  1.00  0.00     0.198 A 
ATOM     68  F   UNL A   1      43.346  31.591  34.202  1.00  0.00    -0.203 F 
ATOM     69  F   UNL A   1      45.090  35.925  31.382  1.00  0.00    -0.200 F 
ATOM     70  C   UNL A   1      44.268  34.997  33.391  1.00  0.00     0.200 A 
ATOM     71  F   UNL A   1      43.457  34.021  35.382  1.00  0.00    -0.200 F 
ATOM     72  F   UNL A   1      44.349  36.191  33.993  1.00  0.00    -0.200 F 
ENDBRANCH  48  62
BRANCH  49  73
ATOM     73  C   UNL A   1      42.986  23.771  27.391  1.00  0.00     0.064 A 
ATOM     74  C   UNL A   1      42.473  22.631  28.025  1.00  0.00     0.173 A 
ATOM     75  C   UNL A   1      43.360  23.653  26.044  1.00  0.00     0.173 A 
ATOM     76  F   UNL A   1      42.122  22.686  29.318  1.00  0.00    -0.203 F 
ATOM     77  C   UNL A   1      42.362  21.418  27.348  1.00  0.00     0.198 A 
ATOM     78  C   UNL A   1      43.219  22.449  25.359  1.00  0.00     0.198 A 
ATOM     79  F   UNL A   1      43.854  24.715  25.389  1.00  0.00    -0.203 F 
ATOM     80  F   UNL A   1      41.916  20.332  27.994  1.00  0.00    -0.200 F 
ATOM     81  C   UNL A   1      42.729  21.329  26.014  1.00  0.00     0.200 A 
ATOM     82  F   UNL A   1      43.560  22.372  24.066  1.00  0.00    -0.200 F 
ATOM     83  F   UNL A   1      42.618  20.164  25.363  1.00  0.00    -0.200 F 
ENDBRANCH  49  73
BRANCH  61  84
ATOM     84  C   UNL A   1      48.366  26.885  30.561  1.00  0.00     0.064 A 
ATOM     85  C   UNL A   1      49.405  27.319  29.725  1.00  0.00     0.173 A 
ATOM     86  C   UNL A   1      48.703  26.103  31.677  1.00  0.00     0.173 A 
ATOM     87  F   UNL A   1      49.134  28.055  28.637  1.00  0.00    -0.203 F 
ATOM     88  C   UNL A   1      50.727  26.971  29.990  1.00  0.00     0.198 A 
ATOM     89  C   UNL A   1      50.029  25.786  31.957  1.00  0.00     0.198 A 
ATOM     90  F   UNL A   1      47.747  25.667  32.513  1.00  0.00    -0.203 F 
ATOM     91  F   UNL A   1      51.701  27.364  29.157  1.00  0.00    -0.200 F 
ATOM     92  C   UNL A   1      51.039  26.215  31.110  1.00  0.00     0.200 A 
ATOM     93  F   UNL A   1      50.329  25.069  33.049  1.00  0.00    -0.200 F 
ATOM     94  F   UNL A   1      52.314  25.899  31.374  1.00  0.00    -0.200 F 
ENDBRANCH  61  84
ENDBRANCH  35  36
ENDBRANCH  27  30
ENDBRANCH  25  26
ENDBRANCH  24  25
ENDBRANCH   1  24
TORSDOF 14
ENDMDL
MODEL 2
REMARK VINA RESULT:     -11.0      4.828     10.856
REMARK SMILES O=C(Cc1ccc(OC[C@H]2Cc3ccccc3S2)cc1)NCCCNC(=O)c1ccc(-c2c3nc(c(-c4c(F)c(F)c(F)c(F)c4F)c4ccc([nH]4)c(-c4c(F)c(F)c(F)c(F)c4F)c4nc(c(-c5c(F)c(F)c(F)c(F)c5F)c5ccc2[nH]5)C=C4)C=C3)cc1
REMARK SMILES IDX 22 1 21 2 1 3 2 4 3 6 4 7 5 8 20 9 6 10 19 11 7 12 8 13 9 14
REMARK SMILES IDX 10 15 11 16 18 17 12 18 17 19 13 20 16 21 14 22 15 23 23 24
REMARK SMILES IDX 24 25 25 26 26 27 27 29 28 30 29 31 90 32 30 33 89 34 31 35
REMARK SMILES IDX 32 36 33 37 83 38 34 39 88 40 82 41 84 42 35 43 87 44 81 45
REMARK SMILES IDX 80 46 36 48 68 49 48 50 67 51 49 52 52 53 66 54 85 55 50 56
REMARK SMILES IDX 51 57 65 59 86 60 53 61 37 62 38 63 46 64 39 65 40 66 44 67
REMARK SMILES IDX 47 68 41 69 42 70 45 71 43 72 69 73 70 74 78 75 71 76 72 77
REMARK SMILES IDX 76 78 79 79 73 80 74 81 77 82 75 83 54 84 55 85 63 86 56 87
REMARK SMILES IDX 57 88 61 89 64 90 58 91 59 92 62 93 60 94
REMARK H PARENT 21 5 25 28 84 47 52 58
REMARK Flexibility Score: inf
ROOT
ATOM      1  C   UNL A   1      31.836  30.505  26.457  1.00  0.00     0.117 C 
ENDROOT
BRANCH   1   2
ATOM      2  N   UNL A   1      31.330  29.982  25.204  1.00  0.00    -0.356 N 
ATOM      3  O   UNL A   1      33.369  29.301  24.391  1.00  0.00    -0.275 OA
ATOM      4  C   UNL A   1      32.148  29.372  24.274  1.00  0.00     0.224 C 
ATOM      5  H   UNL A   1      30.369  30.067  25.007  1.00  0.00     0.163 HD
BRANCH   4   6
ATOM      6  C   UNL A   1      31.425  28.853  23.048  1.00  0.00     0.135 C 
BRANCH   6   7
ATOM      7  C   UNL A   1      31.183  27.361  22.954  1.00  0.00    -0.038 A 
ATOM      8  C   UNL A   1      32.047  26.450  22.328  1.00  0.00     0.008 A 
ATOM      9  C   UNL A   1      30.044  26.860  23.604  1.00  0.00     0.008 A 
ATOM     10  C   UNL A   1      31.835  25.073  22.447  1.00  0.00     0.047 A 
ATOM     11  C   UNL A   1      29.821  25.489  23.704  1.00  0.00     0.047 A 
ATOM     12  C   UNL A   1      30.734  24.598  23.151  1.00  0.00     0.119 A 
BRANCH  12  13
ATOM     13  O   UNL A   1      30.653  23.257  23.402  1.00  0.00    -0.492 OA
BRANCH  13  14
ATOM     14  C   UNL A   1      31.846  22.551  23.043  1.00  0.00     0.244 C 
BRANCH  14  15
ATOM     15  C   UNL A   1      32.414  21.815  24.281  1.00  0.00     0.094 C 
ATOM     16  C   UNL A   1      33.871  22.225  24.613  1.00  0.00     0.055 C 
ATOM     17  S   UNL A   1      31.475  22.414  25.735  1.00  0.00    -0.119 SA
ATOM     18  C   UNL A   1      33.764  23.597  25.224  1.00  0.00    -0.033 A 
ATOM     19  C   UNL A   1      32.518  23.842  25.815  1.00  0.00     0.011 A 
ATOM     20  C   UNL A   1      34.725  24.597  25.175  1.00  0.00     0.005 A 
ATOM     21  C   UNL A   1      32.158  25.105  26.245  1.00  0.00     0.015 A 
ATOM     22  C   UNL A   1      34.378  25.874  25.624  1.00  0.00     0.000 A 
ATOM     23  C   UNL A   1      33.093  26.133  26.126  1.00  0.00     0.001 A 
ENDBRANCH  14  15
ENDBRANCH  13  14
ENDBRANCH  12  13
ENDBRANCH   6   7
ENDBRANCH   4   6
ENDBRANCH   1   2
BRANCH   1  24
ATOM     24  C   UNL A   1      31.650  32.011  26.569  1.00  0.00     0.042 C 
BRANCH  24  25
ATOM     25  C   UNL A   1      32.778  32.730  27.302  1.00  0.00     0.118 C 
BRANCH  25  26
ATOM     26  N   UNL A   1      32.464  34.116  27.626  1.00  0.00    -0.352 N 
ATOM     27  C   UNL A   1      33.024  34.949  28.565  1.00  0.00     0.251 C 
ATOM     28  H   UNL A   1      31.743  34.517  27.089  1.00  0.00     0.163 HD
ATOM     29  O   UNL A   1      32.528  36.051  28.783  1.00  0.00    -0.269 OA
BRANCH  27  30
ATOM     30  C   UNL A   1      34.202  34.509  29.341  1.00  0.00     0.039 A 
ATOM     31  C   UNL A   1      34.006  33.934  30.600  1.00  0.00     0.014 A 
ATOM     32  C   UNL A   1      35.494  34.650  28.830  1.00  0.00     0.014 A 
ATOM     33  C   UNL A   1      35.096  33.418  31.305  1.00  0.00     0.010 A 
ATOM     34  C   UNL A   1      36.567  34.066  29.496  1.00  0.00     0.010 A 
ATOM     35  C   UNL A   1      36.380  33.435  30.736  1.00  0.00    -0.014 A 
BRANCH  35  36
ATOM     36  C   UNL A   1      37.538  32.786  31.404  1.00  0.00     0.031 A 
ATOM     37  C   UNL A   1      38.219  31.612  30.759  1.00  0.00     0.074 A 
ATOM     38  C   UNL A   1      37.916  33.193  32.632  1.00  0.00     0.049 A 
ATOM     39  N   UNL A   1      39.156  30.831  31.237  1.00  0.00    -0.248 NA
ATOM     40  C   UNL A   1      37.769  31.252  29.406  1.00  0.00     0.031 C 
ATOM     41  C   UNL A   1      37.313  34.297  33.380  1.00  0.00     0.029 A 
ATOM     42  N   UNL A   1      38.886  32.711  33.477  1.00  0.00    -0.354 N 
ATOM     43  C   UNL A   1      39.393  29.881  30.252  1.00  0.00     0.074 A 
ATOM     44  C   UNL A   1      38.468  30.151  29.172  1.00  0.00     0.031 C 
ATOM     45  C   UNL A   1      37.934  34.417  34.565  1.00  0.00     0.029 A 
ATOM     46  C   UNL A   1      38.942  33.368  34.682  1.00  0.00     0.049 A 
ATOM     47  H   UNL A   1      39.483  31.965  33.242  1.00  0.00     0.167 HD
ATOM     48  C   UNL A   1      40.312  28.886  30.243  1.00  0.00     0.037 A 
ATOM     49  C   UNL A   1      39.704  33.138  35.769  1.00  0.00     0.037 A 
ATOM     50  C   UNL A   1      41.242  28.634  31.312  1.00  0.00     0.049 A 
ATOM     51  C   UNL A   1      40.694  32.004  35.747  1.00  0.00     0.074 A 
ATOM     52  C   UNL A   1      42.248  27.685  31.374  1.00  0.00     0.029 A 
ATOM     53  N   UNL A   1      41.277  29.330  32.511  1.00  0.00    -0.354 N 
ATOM     54  N   UNL A   1      40.952  31.149  34.787  1.00  0.00    -0.248 NA
ATOM     55  C   UNL A   1      41.501  31.802  36.960  1.00  0.00     0.031 C 
ATOM     56  C   UNL A   1      42.852  27.768  32.631  1.00  0.00     0.029 A 
ATOM     57  C   UNL A   1      42.268  28.813  33.330  1.00  0.00     0.049 A 
ATOM     58  H   UNL A   1      40.685  30.082  32.746  1.00  0.00     0.167 HD
ATOM     59  C   UNL A   1      41.972  30.336  35.263  1.00  0.00     0.074 A 
ATOM     60  C   UNL A   1      42.291  30.802  36.596  1.00  0.00     0.031 C 
ATOM     61  C   UNL A   1      42.590  29.298  34.648  1.00  0.00     0.037 A 
BRANCH  48  62
ATOM     62  C   UNL A   1      40.355  27.988  29.040  1.00  0.00     0.064 A 
ATOM     63  C   UNL A   1      39.625  26.790  28.986  1.00  0.00     0.173 A 
ATOM     64  C   UNL A   1      41.101  28.351  27.908  1.00  0.00     0.173 A 
ATOM     65  F   UNL A   1      38.903  26.392  30.044  1.00  0.00    -0.203 F 
ATOM     66  C   UNL A   1      39.666  25.975  27.858  1.00  0.00     0.198 A 
ATOM     67  C   UNL A   1      41.113  27.550  26.768  1.00  0.00     0.198 A 
ATOM     68  F   UNL A   1      41.812  29.489  27.901  1.00  0.00    -0.203 F 
ATOM     69  F   UNL A   1      39.003  24.811  27.850  1.00  0.00    -0.200 F 
ATOM     70  C   UNL A   1      40.402  26.360  26.747  1.00  0.00     0.200 A 
ATOM     71  F   UNL A   1      41.812  27.931  25.691  1.00  0.00    -0.200 F 
ATOM     72  F   UNL A   1      40.433  25.579  25.659  1.00  0.00    -0.200 F 
ENDBRANCH  48  62
BRANCH  49  73
ATOM     73  C   UNL A   1      39.568  34.005  36.971  1.00  0.00     0.064 A 
ATOM     74  C   UNL A   1      38.759  33.620  38.049  1.00  0.00     0.173 A 
ATOM     75  C   UNL A   1      40.234  35.237  37.064  1.00  0.00     0.173 A 
ATOM     76  F   UNL A   1      38.084  32.462  37.998  1.00  0.00    -0.203 F 
ATOM     77  C   UNL A   1      38.601  34.443  39.162  1.00  0.00     0.198 A 
ATOM     78  C   UNL A   1      40.101  36.044  38.192  1.00  0.00     0.198 A 
ATOM     79  F   UNL A   1      41.024  35.651  36.062  1.00  0.00    -0.203 F 
ATOM     80  F   UNL A   1      37.780  34.074  40.154  1.00  0.00    -0.200 F 
ATOM     81  C   UNL A   1      39.277  35.651  39.236  1.00  0.00     0.200 A 
ATOM     82  F   UNL A   1      40.768  37.203  38.265  1.00  0.00    -0.200 F 
ATOM     83  F   UNL A   1      39.128  36.441  40.308  1.00  0.00    -0.200 F 
ENDBRANCH  49  73
BRANCH  61  84
ATOM     84  C   UNL A   1      43.712  28.621  35.380  1.00  0.00     0.064 A 
ATOM     85  C   UNL A   1      43.488  27.532  36.235  1.00  0.00     0.173 A 
ATOM     86  C   UNL A   1      45.038  29.027  35.168  1.00  0.00     0.173 A 
ATOM     87  F   UNL A   1      42.238  27.115  36.484  1.00  0.00    -0.203 F 
ATOM     88  C   UNL A   1      44.550  26.885  36.862  1.00  0.00     0.198 A 
ATOM     89  C   UNL A   1      46.100  28.357  35.769  1.00  0.00     0.198 A 
ATOM     90  F   UNL A   1      45.308  30.060  34.354  1.00  0.00    -0.203 F 
ATOM     91  F   UNL A   1      44.311  25.871  37.705  1.00  0.00    -0.200 F 
ATOM     92  C   UNL A   1      45.854  27.291  36.620  1.00  0.00     0.200 A 
ATOM     93  F   UNL A   1      47.360  28.741  35.521  1.00  0.00    -0.200 F 
ATOM     94  F   UNL A   1      46.876  26.654  37.209  1.00  0.00    -0.200 F 
ENDBRANCH  61  84
ENDBRANCH  35  36
ENDBRANCH  27  30
ENDBRANCH  25  26
ENDBRANCH  24  25
ENDBRANCH   1  24
TORSDOF 14
ENDMDL
MODEL 3
REMARK VINA RESULT:     -10.9      4.704     10.925
REMARK SMILES O=C(Cc1ccc(OC[C@H]2Cc3ccccc3S2)cc1)NCCCNC(=O)c1ccc(-c2c3nc(c(-c4c(F)c(F)c(F)c(F)c4F)c4ccc([nH]4)c(-c4c(F)c(F)c(F)c(F)c4F)c4nc(c(-c5c(F)c(F)c(F)c(F)c5F)c5ccc2[nH]5)C=C4)C=C3)cc1
REMARK SMILES IDX 22 1 21 2 1 3 2 4 3 6 4 7 5 8 20 9 6 10 19 11 7 12 8 13 9 14
REMARK SMILES IDX 10 15 11 16 18 17 12 18 17 19 13 20 16 21 14 22 15 23 23 24
REMARK SMILES IDX 24 25 25 26 26 27 27 29 28 30 29 31 90 32 30 33 89 34 31 35
REMARK SMILES IDX 32 36 33 37 83 38 34 39 88 40 82 41 84 42 35 43 87 44 81 45
REMARK SMILES IDX 80 46 36 48 68 49 48 50 67 51 49 52 52 53 66 54 85 55 50 56
REMARK SMILES IDX 51 57 65 59 86 60 53 61 37 62 38 63 46 64 39 65 40 66 44 67
REMARK SMILES IDX 47 68 41 69 42 70 45 71 43 72 69 73 70 74 78 75 71 76 72 77
REMARK SMILES IDX 76 78 79 79 73 80 74 81 77 82 75 83 54 84 55 85 63 86 56 87
REMARK SMILES IDX 57 88 61 89 64 90 58 91 59 92 62 93 60 94
REMARK H PARENT 21 5 25 28 84 47 52 58
REMARK Flexibility Score: inf
ROOT
ATOM      1  C   UNL A   1      31.753  30.485  26.482  1.00  0.00     0.117 C 
ENDROOT
BRANCH   1   2
ATOM      2  N   UNL A   1      31.804  30.021  25.111  1.00  0.00    -0.356 N 
ATOM      3  O   UNL A   1      33.837  28.965  25.292  1.00  0.00    -0.275 OA
ATOM      4  C   UNL A   1      32.841  29.247  24.631  1.00  0.00     0.224 C 
ATOM      5  H   UNL A   1      31.073  30.267  24.498  1.00  0.00     0.163 HD
BRANCH   4   6
ATOM      6  C   UNL A   1      32.691  28.825  23.183  1.00  0.00     0.135 C 
BRANCH   6   7
ATOM      7  C   UNL A   1      32.484  27.352  22.898  1.00  0.00    -0.038 A 
ATOM      8  C   UNL A   1      33.466  26.494  22.378  1.00  0.00     0.008 A 
ATOM      9  C   UNL A   1      31.239  26.805  23.248  1.00  0.00     0.008 A 
ATOM     10  C   UNL A   1      33.244  25.115  22.318  1.00  0.00     0.047 A 
ATOM     11  C   UNL A   1      31.011  25.434  23.167  1.00  0.00     0.047 A 
ATOM     12  C   UNL A   1      32.025  24.588  22.731  1.00  0.00     0.119 A 
BRANCH  12  13
ATOM     13  O   UNL A   1      31.904  23.231  22.829  1.00  0.00    -0.492 OA
BRANCH  13  14
ATOM     14  C   UNL A   1      33.131  22.587  23.193  1.00  0.00     0.244 C 
BRANCH  14  15
ATOM     15  C   UNL A   1      32.976  21.899  24.570  1.00  0.00     0.094 C 
ATOM     16  C   UNL A   1      34.040  20.801  24.821  1.00  0.00     0.055 C 
ATOM     17  S   UNL A   1      33.370  23.156  25.842  1.00  0.00    -0.119 SA
ATOM     18  C   UNL A   1      35.315  21.549  25.111  1.00  0.00    -0.033 A 
ATOM     19  C   UNL A   1      35.096  22.837  25.617  1.00  0.00     0.011 A 
ATOM     20  C   UNL A   1      36.605  21.107  24.854  1.00  0.00     0.005 A 
ATOM     21  C   UNL A   1      36.128  23.745  25.751  1.00  0.00     0.015 A 
ATOM     22  C   UNL A   1      37.659  22.011  25.004  1.00  0.00     0.000 A 
ATOM     23  C   UNL A   1      37.418  23.330  25.419  1.00  0.00     0.001 A 
ENDBRANCH  14  15
ENDBRANCH  13  14
ENDBRANCH  12  13
ENDBRANCH   6   7
ENDBRANCH   4   6
ENDBRANCH   1   2
BRANCH   1  24
ATOM     24  C   UNL A   1      31.607  31.997  26.573  1.00  0.00     0.042 C 
BRANCH  24  25
ATOM     25  C   UNL A   1      32.699  32.686  27.385  1.00  0.00     0.118 C 
BRANCH  25  26
ATOM     26  N   UNL A   1      32.408  34.084  27.673  1.00  0.00    -0.352 N 
ATOM     27  C   UNL A   1      32.996  34.937  28.577  1.00  0.00     0.251 C 
ATOM     28  H   UNL A   1      31.682  34.478  27.139  1.00  0.00     0.163 HD
ATOM     29  O   UNL A   1      32.517  36.051  28.772  1.00  0.00    -0.269 OA
BRANCH  27  30
ATOM     30  C   UNL A   1      34.184  34.505  29.344  1.00  0.00     0.039 A 
ATOM     31  C   UNL A   1      34.002  33.932  30.605  1.00  0.00     0.014 A 
ATOM     32  C   UNL A   1      35.470  34.652  28.820  1.00  0.00     0.014 A 
ATOM     33  C   UNL A   1      35.101  33.423  31.301  1.00  0.00     0.010 A 
ATOM     34  C   UNL A   1      36.552  34.075  29.478  1.00  0.00     0.010 A 
ATOM     35  C   UNL A   1      36.379  33.447  30.721  1.00  0.00    -0.014 A 
BRANCH  35  36
ATOM     36  C   UNL A   1      37.547  32.805  31.379  1.00  0.00     0.031 A 
ATOM     37  C   UNL A   1      38.210  31.615  30.746  1.00  0.00     0.074 A 
ATOM     38  C   UNL A   1      37.950  33.235  32.592  1.00  0.00     0.049 A 
ATOM     39  N   UNL A   1      39.152  30.838  31.222  1.00  0.00    -0.248 NA
ATOM     40  C   UNL A   1      37.732  31.229  29.410  1.00  0.00     0.031 C 
ATOM     41  C   UNL A   1      37.368  34.358  33.328  1.00  0.00     0.029 A 
ATOM     42  N   UNL A   1      38.934  32.765  33.428  1.00  0.00    -0.354 N 
ATOM     43  C   UNL A   1      39.365  29.867  30.253  1.00  0.00     0.074 A 
ATOM     44  C   UNL A   1      38.421  30.119  29.186  1.00  0.00     0.031 C 
ATOM     45  C   UNL A   1      38.012  34.499  34.498  1.00  0.00     0.029 A 
ATOM     46  C   UNL A   1      39.017  33.448  34.618  1.00  0.00     0.049 A 
ATOM     47  H   UNL A   1      39.523  32.012  33.197  1.00  0.00     0.167 HD
ATOM     48  C   UNL A   1      40.279  28.867  30.247  1.00  0.00     0.037 A 
ATOM     49  C   UNL A   1      39.799  33.236  35.694  1.00  0.00     0.037 A 
ATOM     50  C   UNL A   1      41.228  28.632  31.303  1.00  0.00     0.049 A 
ATOM     51  C   UNL A   1      40.783  32.096  35.677  1.00  0.00     0.074 A 
ATOM     52  C   UNL A   1      42.230  27.680  31.365  1.00  0.00     0.029 A 
ATOM     53  N   UNL A   1      41.289  29.353  32.486  1.00  0.00    -0.354 N 
ATOM     54  N   UNL A   1      41.018  31.220  34.730  1.00  0.00    -0.248 NA
ATOM     55  C   UNL A   1      41.612  31.915  36.877  1.00  0.00     0.031 C 
ATOM     56  C   UNL A   1      42.859  27.785  32.608  1.00  0.00     0.029 A 
ATOM     57  C   UNL A   1      42.294  28.847  33.296  1.00  0.00     0.049 A 
ATOM     58  H   UNL A   1      40.706  30.112  32.716  1.00  0.00     0.167 HD
ATOM     59  C   UNL A   1      42.043  30.411  35.203  1.00  0.00     0.074 A 
ATOM     60  C   UNL A   1      42.390  30.904  36.519  1.00  0.00     0.031 C 
ATOM     61  C   UNL A   1      42.644  29.358  34.597  1.00  0.00     0.037 A 
BRANCH  48  62
ATOM     62  C   UNL A   1      40.294  27.944  29.062  1.00  0.00     0.064 A 
ATOM     63  C   UNL A   1      39.540  26.761  29.038  1.00  0.00     0.173 A 
ATOM     64  C   UNL A   1      41.039  28.269  27.917  1.00  0.00     0.173 A 
ATOM     65  F   UNL A   1      38.819  26.399  30.109  1.00  0.00    -0.203 F 
ATOM     66  C   UNL A   1      39.556  25.922  27.927  1.00  0.00     0.198 A 
ATOM     67  C   UNL A   1      41.025  27.445  26.794  1.00  0.00     0.198 A 
ATOM     68  F   UNL A   1      41.772  29.392  27.882  1.00  0.00    -0.203 F 
ATOM     69  F   UNL A   1      38.869  24.772  27.948  1.00  0.00    -0.200 F 
ATOM     70  C   UNL A   1      40.291  26.269  26.803  1.00  0.00     0.200 A 
ATOM     71  F   UNL A   1      41.723  27.790  25.704  1.00  0.00    -0.200 F 
ATOM     72  F   UNL A   1      40.297  25.466  25.730  1.00  0.00    -0.200 F 
ENDBRANCH  48  62
BRANCH  49  73
ATOM     73  C   UNL A   1      39.691  34.128  36.880  1.00  0.00     0.064 A 
ATOM     74  C   UNL A   1      40.414  35.327  36.947  1.00  0.00     0.173 A 
ATOM     75  C   UNL A   1      38.874  33.799  37.972  1.00  0.00     0.173 A 
ATOM     76  F   UNL A   1      41.226  35.675  35.938  1.00  0.00    -0.203 F 
ATOM     77  C   UNL A   1      40.342  36.150  38.069  1.00  0.00     0.198 A 
ATOM     78  C   UNL A   1      38.779  34.638  39.080  1.00  0.00     0.198 A 
ATOM     79  F   UNL A   1      38.158  32.664  37.958  1.00  0.00    -0.203 F 
ATOM     80  F   UNL A   1      41.084  37.265  38.128  1.00  0.00    -0.200 F 
ATOM     81  C   UNL A   1      39.520  35.809  39.132  1.00  0.00     0.200 A 
ATOM     82  F   UNL A   1      37.971  34.312  40.097  1.00  0.00    -0.200 F 
ATOM     83  F   UNL A   1      39.449  36.602  40.209  1.00  0.00    -0.200 F 
ENDBRANCH  49  73
BRANCH  61  84
ATOM     84  C   UNL A   1      43.776  28.690  35.322  1.00  0.00     0.064 A 
ATOM     85  C   UNL A   1      45.110  29.077  35.129  1.00  0.00     0.173 A 
ATOM     86  C   UNL A   1      43.512  27.693  36.274  1.00  0.00     0.173 A 
ATOM     87  F   UNL A   1      45.417  30.014  34.220  1.00  0.00    -0.203 F 
ATOM     88  C   UNL A   1      46.139  28.479  35.853  1.00  0.00     0.198 A 
ATOM     89  C   UNL A   1      44.539  27.122  37.019  1.00  0.00     0.198 A 
ATOM     90  F   UNL A   1      42.252  27.290  36.502  1.00  0.00    -0.203 F 
ATOM     91  F   UNL A   1      47.411  28.837  35.627  1.00  0.00    -0.200 F 
ATOM     92  C   UNL A   1      45.852  27.511  36.804  1.00  0.00     0.200 A 
ATOM     93  F   UNL A   1      44.257  26.199  37.949  1.00  0.00    -0.200 F 
ATOM     94  F   UNL A   1      46.843  26.952  37.514  1.00  0.00    -0.200 F 
ENDBRANCH  61  84
ENDBRANCH  35  36
ENDBRANCH  27  30
ENDBRANCH  25  26
ENDBRANCH  24  25
ENDBRANCH   1  24
TORSDOF 14
ENDMDL
