MODEL 1
REMARK VINA RESULT:     -13.1      0.000      0.000
REMARK SMILES Cc1ccc(CNc2ccc(C(=O)NCCCNC(=O)c3ccc(-c4c5nc(c(-c6c(F)c(F)c(F)c(F)c6F)c6ccc([nH]6)c(-c6c(F)c(F)c(F)c(F)c6F)c6nc(c(-c7c(F)c(F)c(F)c(F)c7F)c7ccc4[nH]7)C=C6)C=C5)cc3)cc2Br)cc1
REMARK SMILES IDX 15 1 14 2 12 3 13 4 11 6 8 7 9 8 85 9 10 10 84 11 86 12 7 13
REMARK SMILES IDX 6 15 5 16 1 17 2 18 3 19 88 20 4 21 87 22 16 23 17 24 18 25
REMARK SMILES IDX 19 26 20 28 21 29 22 30 83 31 23 32 82 33 24 34 25 35 26 36
REMARK SMILES IDX 76 37 27 38 81 39 75 40 77 41 28 42 80 43 74 44 73 45 29 47
REMARK SMILES IDX 61 48 41 49 60 50 42 51 45 52 59 53 78 54 43 55 44 56 58 58
REMARK SMILES IDX 79 59 46 60 30 61 31 62 39 63 32 64 33 65 37 66 40 67 34 68
REMARK SMILES IDX 35 69 38 70 36 71 62 72 63 73 71 74 64 75 65 76 69 77 72 78
REMARK SMILES IDX 66 79 67 80 70 81 68 82 47 83 48 84 56 85 49 86 50 87 54 88
REMARK SMILES IDX 57 89 51 90 52 91 55 92 53 93
REMARK H PARENT 14 5 7 14 18 27 77 46 45 57
REMARK Flexibility Score: inf
ROOT
ATOM      1  C   UNL A   1      31.902  30.403  26.583  1.00  0.00     0.118 C 
ENDROOT
BRANCH   1   2
ATOM      2  N   UNL A   1      31.411  30.243  25.223  1.00  0.00    -0.352 N 
ATOM      3  C   UNL A   1      31.407  29.180  24.349  1.00  0.00     0.251 C 
ATOM      4  O   UNL A   1      30.817  29.348  23.279  1.00  0.00    -0.269 OA
ATOM      5  H   UNL A   1      30.998  31.058  24.854  1.00  0.00     0.163 HD
BRANCH   3   6
ATOM      6  C   UNL A   1      32.048  27.855  24.615  1.00  0.00     0.041 A 
ATOM      7  C   UNL A   1      33.128  25.279  25.193  1.00  0.00     0.049 A 
ATOM      8  C   UNL A   1      33.902  26.275  24.605  1.00  0.00     0.028 A 
ATOM      9  C   UNL A   1      31.776  25.575  25.438  1.00  0.00     0.041 A 
ATOM     10  C   UNL A   1      33.372  27.536  24.325  1.00  0.00     0.016 A 
ATOM     11  C   UNL A   1      31.243  26.842  25.156  1.00  0.00     0.031 A 
ATOM     12  Br  UNL A   1      30.622  24.273  26.207  1.00  0.00    -0.049 Br
BRANCH   7  13
ATOM     13  N   UNL A   1      33.701  24.073  25.567  1.00  0.00    -0.380 N 
ATOM     14  H   UNL A   1      33.747  23.833  26.521  1.00  0.00     0.160 HD
BRANCH  13  15
ATOM     15  C   UNL A   1      34.236  23.158  24.571  1.00  0.00     0.148 C 
BRANCH  15  16
ATOM     16  C   UNL A   1      35.643  22.771  24.953  1.00  0.00    -0.029 A 
ATOM     17  C   UNL A   1      39.628  21.662  26.168  1.00  0.00     0.044 C 
ATOM     18  C   UNL A   1      38.253  22.051  25.715  1.00  0.00    -0.051 A 
ATOM     19  C   UNL A   1      37.760  23.325  26.009  1.00  0.00     0.004 A 
ATOM     20  C   UNL A   1      37.441  21.146  25.021  1.00  0.00     0.004 A 
ATOM     21  C   UNL A   1      36.471  23.685  25.623  1.00  0.00     0.006 A 
ATOM     22  C   UNL A   1      36.146  21.504  24.640  1.00  0.00     0.006 A 
ENDBRANCH  15  16
ENDBRANCH  13  15
ENDBRANCH   7  13
ENDBRANCH   3   6
ENDBRANCH   1   2
BRANCH   1  23
ATOM     23  C   UNL A   1      33.415  30.626  26.623  1.00  0.00     0.042 C 
BRANCH  23  24
ATOM     24  C   UNL A   1      34.090  30.069  27.861  1.00  0.00     0.118 C 
BRANCH  24  25
ATOM     25  N   UNL A   1      34.703  31.086  28.709  1.00  0.00    -0.352 N 
ATOM     26  C   UNL A   1      35.959  31.063  29.295  1.00  0.00     0.251 C 
ATOM     27  H   UNL A   1      34.159  31.887  28.885  1.00  0.00     0.163 HD
ATOM     28  O   UNL A   1      36.352  31.981  29.992  1.00  0.00    -0.269 OA
BRANCH  26  29
ATOM     29  C   UNL A   1      36.853  29.936  28.949  1.00  0.00     0.039 A 
ATOM     30  C   UNL A   1      37.238  29.071  29.978  1.00  0.00     0.014 A 
ATOM     31  C   UNL A   1      37.503  29.924  27.718  1.00  0.00     0.014 A 
ATOM     32  C   UNL A   1      38.430  28.365  29.849  1.00  0.00     0.010 A 
ATOM     33  C   UNL A   1      38.734  29.307  27.631  1.00  0.00     0.010 A 
ATOM     34  C   UNL A   1      39.225  28.580  28.720  1.00  0.00    -0.014 A 
BRANCH  34  35
ATOM     35  C   UNL A   1      40.624  28.176  28.659  1.00  0.00     0.031 A 
ATOM     36  C   UNL A   1      40.996  26.834  28.168  1.00  0.00     0.074 A 
ATOM     37  C   UNL A   1      41.596  29.040  29.030  1.00  0.00     0.049 A 
ATOM     38  N   UNL A   1      42.031  26.182  28.584  1.00  0.00    -0.248 NA
ATOM     39  C   UNL A   1      40.204  26.103  27.183  1.00  0.00     0.031 C 
ATOM     40  C   UNL A   1      43.037  28.876  28.843  1.00  0.00     0.029 A 
ATOM     41  N   UNL A   1      41.478  30.184  29.840  1.00  0.00    -0.354 N 
ATOM     42  C   UNL A   1      42.186  25.097  27.762  1.00  0.00     0.074 A 
ATOM     43  C   UNL A   1      40.992  25.050  26.947  1.00  0.00     0.031 C 
ATOM     44  C   UNL A   1      43.678  29.649  29.732  1.00  0.00     0.029 A 
ATOM     45  C   UNL A   1      42.673  30.240  30.597  1.00  0.00     0.049 A 
ATOM     46  H   UNL A   1      40.722  30.814  29.874  1.00  0.00     0.167 HD
ATOM     47  C   UNL A   1      43.363  24.413  27.740  1.00  0.00     0.037 A 
ATOM     48  C   UNL A   1      42.669  30.171  31.958  1.00  0.00     0.037 A 
ATOM     49  C   UNL A   1      44.342  24.974  28.657  1.00  0.00     0.049 A 
ATOM     50  C   UNL A   1      43.464  29.016  32.518  1.00  0.00     0.074 A 
ATOM     51  C   UNL A   1      45.374  25.880  28.476  1.00  0.00     0.029 A 
ATOM     52  N   UNL A   1      44.128  24.890  30.028  1.00  0.00    -0.354 N 
ATOM     53  N   UNL A   1      43.839  27.988  31.810  1.00  0.00    -0.248 NA
ATOM     54  C   UNL A   1      43.853  28.900  33.922  1.00  0.00     0.031 C 
ATOM     55  C   UNL A   1      45.746  26.386  29.743  1.00  0.00     0.029 A 
ATOM     56  C   UNL A   1      44.958  25.770  30.698  1.00  0.00     0.049 A 
ATOM     57  H   UNL A   1      43.479  24.291  30.461  1.00  0.00     0.167 HD
ATOM     58  C   UNL A   1      44.468  27.082  32.621  1.00  0.00     0.074 A 
ATOM     59  C   UNL A   1      44.471  27.705  33.931  1.00  0.00     0.031 C 
ATOM     60  C   UNL A   1      44.920  25.885  32.145  1.00  0.00     0.037 A 
BRANCH  47  61
ATOM     61  C   UNL A   1      43.666  23.437  26.642  1.00  0.00     0.064 A 
ATOM     62  C   UNL A   1      43.263  22.089  26.721  1.00  0.00     0.173 A 
ATOM     63  C   UNL A   1      44.428  23.781  25.511  1.00  0.00     0.173 A 
ATOM     64  F   UNL A   1      42.492  21.648  27.720  1.00  0.00    -0.203 F 
ATOM     65  C   UNL A   1      43.674  21.138  25.786  1.00  0.00     0.198 A 
ATOM     66  C   UNL A   1      44.878  22.821  24.602  1.00  0.00     0.198 A 
ATOM     67  F   UNL A   1      44.766  25.059  25.280  1.00  0.00    -0.203 F 
ATOM     68  F   UNL A   1      43.279  19.863  25.917  1.00  0.00    -0.200 F 
ATOM     69  C   UNL A   1      44.509  21.497  24.746  1.00  0.00     0.200 A 
ATOM     70  F   UNL A   1      45.694  23.181  23.601  1.00  0.00    -0.200 F 
ATOM     71  F   UNL A   1      44.954  20.571  23.885  1.00  0.00    -0.200 F 
ENDBRANCH  47  61
BRANCH  48  72
ATOM     72  C   UNL A   1      41.446  30.748  32.569  1.00  0.00     0.064 A 
ATOM     73  C   UNL A   1      41.311  32.150  32.585  1.00  0.00     0.173 A 
ATOM     74  C   UNL A   1      40.291  29.983  32.765  1.00  0.00     0.173 A 
ATOM     75  F   UNL A   1      42.389  32.928  32.399  1.00  0.00    -0.203 F 
ATOM     76  C   UNL A   1      40.060  32.756  32.666  1.00  0.00     0.198 A 
ATOM     77  C   UNL A   1      39.039  30.596  32.863  1.00  0.00     0.198 A 
ATOM     78  F   UNL A   1      40.352  28.644  32.744  1.00  0.00    -0.203 F 
ATOM     79  F   UNL A   1      39.954  34.088  32.551  1.00  0.00    -0.200 F 
ATOM     80  C   UNL A   1      38.922  31.976  32.775  1.00  0.00     0.200 A 
ATOM     81  F   UNL A   1      37.933  29.842  32.947  1.00  0.00    -0.200 F 
ATOM     82  F   UNL A   1      37.711  32.552  32.753  1.00  0.00    -0.200 F 
ENDBRANCH  48  72
BRANCH  60  83
ATOM     83  C   UNL A   1      45.448  24.745  32.973  1.00  0.00     0.064 A 
ATOM     84  C   UNL A   1      46.708  24.749  33.589  1.00  0.00     0.173 A 
ATOM     85  C   UNL A   1      44.604  23.656  33.301  1.00  0.00     0.173 A 
ATOM     86  F   UNL A   1      47.555  25.776  33.431  1.00  0.00    -0.203 F 
ATOM     87  C   UNL A   1      47.114  23.716  34.439  1.00  0.00     0.198 A 
ATOM     88  C   UNL A   1      44.993  22.656  34.189  1.00  0.00     0.198 A 
ATOM     89  F   UNL A   1      43.370  23.549  32.786  1.00  0.00    -0.203 F 
ATOM     90  F   UNL A   1      48.339  23.746  34.981  1.00  0.00    -0.200 F 
ATOM     91  C   UNL A   1      46.253  22.679  34.748  1.00  0.00     0.200 A 
ATOM     92  F   UNL A   1      44.130  21.682  34.514  1.00  0.00    -0.200 F 
ATOM     93  F   UNL A   1      46.630  21.716  35.600  1.00  0.00    -0.200 F 
ENDBRANCH  60  83
ENDBRANCH  34  35
ENDBRANCH  26  29
ENDBRANCH  24  25
ENDBRANCH  23  24
ENDBRANCH   1  23
TORSDOF 13
ENDMDL
MODEL 2
REMARK VINA RESULT:     -12.9      3.431      9.772
REMARK SMILES Cc1ccc(CNc2ccc(C(=O)NCCCNC(=O)c3ccc(-c4c5nc(c(-c6c(F)c(F)c(F)c(F)c6F)c6ccc([nH]6)c(-c6c(F)c(F)c(F)c(F)c6F)c6nc(c(-c7c(F)c(F)c(F)c(F)c7F)c7ccc4[nH]7)C=C6)C=C5)cc3)cc2Br)cc1
REMARK SMILES IDX 15 1 14 2 12 3 13 4 11 6 8 7 9 8 85 9 10 10 84 11 86 12 7 13
REMARK SMILES IDX 6 15 5 16 1 17 2 18 3 19 88 20 4 21 87 22 16 23 17 24 18 25
REMARK SMILES IDX 19 26 20 28 21 29 22 30 83 31 23 32 82 33 24 34 25 35 26 36
REMARK SMILES IDX 76 37 27 38 81 39 75 40 77 41 28 42 80 43 74 44 73 45 29 47
REMARK SMILES IDX 61 48 41 49 60 50 42 51 45 52 59 53 78 54 43 55 44 56 58 58
REMARK SMILES IDX 79 59 46 60 30 61 31 62 39 63 32 64 33 65 37 66 40 67 34 68
REMARK SMILES IDX 35 69 38 70 36 71 62 72 63 73 71 74 64 75 65 76 69 77 72 78
REMARK SMILES IDX 66 79 67 80 70 81 68 82 47 83 48 84 56 85 49 86 50 87 54 88
REMARK SMILES IDX 57 89 51 90 52 91 55 92 53 93
REMARK H PARENT 14 5 7 14 18 27 77 46 45 57
REMARK Flexibility Score: inf
ROOT
ATOM      1  C   UNL A   1      36.008  21.250  25.703  1.00  0.00     0.118 C 
ENDROOT
BRANCH   1   2
ATOM      2  N   UNL A   1      35.228  20.119  25.221  1.00  0.00    -0.352 N 
ATOM      3  C   UNL A   1      33.995  20.022  24.617  1.00  0.00     0.251 C 
ATOM      4  O   UNL A   1      33.653  18.900  24.240  1.00  0.00    -0.269 OA
ATOM      5  H   UNL A   1      35.672  19.250  25.353  1.00  0.00     0.163 HD
BRANCH   3   6
ATOM      6  C   UNL A   1      33.069  21.173  24.383  1.00  0.00     0.041 A 
ATOM      7  C   UNL A   1      31.245  23.347  24.093  1.00  0.00     0.049 A 
ATOM      8  C   UNL A   1      32.042  22.922  23.034  1.00  0.00     0.028 A 
ATOM      9  C   UNL A   1      31.417  22.699  25.328  1.00  0.00     0.041 A 
ATOM     10  C   UNL A   1      32.932  21.856  23.177  1.00  0.00     0.016 A 
ATOM     11  C   UNL A   1      32.312  21.629  25.473  1.00  0.00     0.031 A 
ATOM     12  Br  UNL A   1      30.403  23.226  26.849  1.00  0.00    -0.049 Br
BRANCH   7  13
ATOM     13  N   UNL A   1      30.288  24.331  23.900  1.00  0.00    -0.380 N 
ATOM     14  H   UNL A   1      29.346  24.141  24.118  1.00  0.00     0.160 HD
BRANCH  13  15
ATOM     15  C   UNL A   1      30.653  25.640  23.381  1.00  0.00     0.148 C 
BRANCH  15  16
ATOM     16  C   UNL A   1      31.476  26.374  24.411  1.00  0.00    -0.029 A 
ATOM     17  C   UNL A   1      33.836  28.569  27.273  1.00  0.00     0.044 C 
ATOM     18  C   UNL A   1      33.016  27.780  26.298  1.00  0.00    -0.051 A 
ATOM     19  C   UNL A   1      33.609  27.286  25.133  1.00  0.00     0.004 A 
ATOM     20  C   UNL A   1      31.654  27.549  26.524  1.00  0.00     0.004 A 
ATOM     21  C   UNL A   1      32.848  26.581  24.203  1.00  0.00     0.006 A 
ATOM     22  C   UNL A   1      30.889  26.849  25.588  1.00  0.00     0.006 A 
ENDBRANCH  15  16
ENDBRANCH  13  15
ENDBRANCH   7  13
ENDBRANCH   3   6
ENDBRANCH   1   2
BRANCH   1  23
ATOM     23  C   UNL A   1      37.455  21.199  25.209  1.00  0.00     0.042 C 
BRANCH  23  24
ATOM     24  C   UNL A   1      38.231  22.482  25.436  1.00  0.00     0.118 C 
BRANCH  24  25
ATOM     25  N   UNL A   1      39.628  22.270  25.803  1.00  0.00    -0.352 N 
ATOM     26  C   UNL A   1      40.499  23.170  26.397  1.00  0.00     0.251 C 
ATOM     27  H   UNL A   1      39.997  21.380  25.604  1.00  0.00     0.163 HD
ATOM     28  O   UNL A   1      41.652  22.869  26.645  1.00  0.00    -0.269 OA
BRANCH  26  29
ATOM     29  C   UNL A   1      39.946  24.474  26.825  1.00  0.00     0.039 A 
ATOM     30  C   UNL A   1      40.516  25.631  26.288  1.00  0.00     0.014 A 
ATOM     31  C   UNL A   1      39.099  24.535  27.928  1.00  0.00     0.014 A 
ATOM     32  C   UNL A   1      40.427  26.819  27.007  1.00  0.00     0.010 A 
ATOM     33  C   UNL A   1      39.097  25.684  28.693  1.00  0.00     0.010 A 
ATOM     34  C   UNL A   1      39.813  26.805  28.262  1.00  0.00    -0.014 A 
BRANCH  34  35
ATOM     35  C   UNL A   1      39.980  27.883  29.229  1.00  0.00     0.031 A 
ATOM     36  C   UNL A   1      39.004  28.989  29.295  1.00  0.00     0.074 A 
ATOM     37  C   UNL A   1      41.022  27.866  30.091  1.00  0.00     0.049 A 
ATOM     38  N   UNL A   1      39.312  30.195  29.640  1.00  0.00    -0.248 NA
ATOM     39  C   UNL A   1      37.596  28.825  28.943  1.00  0.00     0.031 C 
ATOM     40  C   UNL A   1      41.226  28.745  31.241  1.00  0.00     0.029 A 
ATOM     41  N   UNL A   1      42.228  27.149  29.982  1.00  0.00    -0.354 N 
ATOM     42  C   UNL A   1      38.138  30.884  29.805  1.00  0.00     0.074 A 
ATOM     43  C   UNL A   1      37.100  30.014  29.298  1.00  0.00     0.031 C 
ATOM     44  C   UNL A   1      42.533  28.763  31.543  1.00  0.00     0.029 A 
ATOM     45  C   UNL A   1      43.224  27.996  30.523  1.00  0.00     0.049 A 
ATOM     46  H   UNL A   1      42.352  26.247  29.606  1.00  0.00     0.167 HD
ATOM     47  C   UNL A   1      38.124  32.066  30.479  1.00  0.00     0.037 A 
ATOM     48  C   UNL A   1      44.273  28.444  29.777  1.00  0.00     0.037 A 
ATOM     49  C   UNL A   1      39.445  32.447  30.950  1.00  0.00     0.049 A 
ATOM     50  C   UNL A   1      44.362  29.948  29.681  1.00  0.00     0.074 A 
ATOM     51  C   UNL A   1      40.087  32.269  32.165  1.00  0.00     0.029 A 
ATOM     52  N   UNL A   1      40.431  32.793  30.032  1.00  0.00    -0.354 N 
ATOM     53  N   UNL A   1      43.376  30.749  29.977  1.00  0.00    -0.248 NA
ATOM     54  C   UNL A   1      45.540  30.666  29.199  1.00  0.00     0.031 C 
ATOM     55  C   UNL A   1      41.475  32.454  31.964  1.00  0.00     0.029 A 
ATOM     56  C   UNL A   1      41.676  32.771  30.633  1.00  0.00     0.049 A 
ATOM     57  H   UNL A   1      40.266  33.020  29.089  1.00  0.00     0.167 HD
ATOM     58  C   UNL A   1      43.743  32.041  29.709  1.00  0.00     0.074 A 
ATOM     59  C   UNL A   1      45.114  31.942  29.244  1.00  0.00     0.031 C 
ATOM     60  C   UNL A   1      42.878  33.082  29.881  1.00  0.00     0.037 A 
BRANCH  47  61
ATOM     61  C   UNL A   1      36.832  32.673  30.943  1.00  0.00     0.064 A 
ATOM     62  C   UNL A   1      36.084  33.535  30.119  1.00  0.00     0.173 A 
ATOM     63  C   UNL A   1      36.329  32.480  32.242  1.00  0.00     0.173 A 
ATOM     64  F   UNL A   1      36.430  33.760  28.846  1.00  0.00    -0.203 F 
ATOM     65  C   UNL A   1      34.970  34.229  30.592  1.00  0.00     0.198 A 
ATOM     66  C   UNL A   1      35.242  33.210  32.730  1.00  0.00     0.198 A 
ATOM     67  F   UNL A   1      36.899  31.591  33.070  1.00  0.00    -0.203 F 
ATOM     68  F   UNL A   1      34.302  35.054  29.772  1.00  0.00    -0.200 F 
ATOM     69  C   UNL A   1      34.569  34.092  31.906  1.00  0.00     0.200 A 
ATOM     70  F   UNL A   1      34.868  33.073  34.009  1.00  0.00    -0.200 F 
ATOM     71  F   UNL A   1      33.537  34.806  32.377  1.00  0.00    -0.200 F 
ENDBRANCH  47  61
BRANCH  48  72
ATOM     72  C   UNL A   1      44.688  27.491  28.718  1.00  0.00     0.064 A 
ATOM     73  C   UNL A   1      45.333  26.302  29.113  1.00  0.00     0.173 A 
ATOM     74  C   UNL A   1      44.138  27.533  27.433  1.00  0.00     0.173 A 
ATOM     75  F   UNL A   1      45.876  26.210  30.337  1.00  0.00    -0.203 F 
ATOM     76  C   UNL A   1      45.317  25.168  28.306  1.00  0.00     0.198 A 
ATOM     77  C   UNL A   1      44.138  26.397  26.620  1.00  0.00     0.198 A 
ATOM     78  F   UNL A   1      43.496  28.631  27.006  1.00  0.00    -0.203 F 
ATOM     79  F   UNL A   1      45.830  24.015  28.762  1.00  0.00    -0.200 F 
ATOM     80  C   UNL A   1      44.692  25.209  27.072  1.00  0.00     0.200 A 
ATOM     81  F   UNL A   1      43.514  26.428  25.433  1.00  0.00    -0.200 F 
ATOM     82  F   UNL A   1      44.589  24.092  26.337  1.00  0.00    -0.200 F 
ENDBRANCH  48  72
BRANCH  60  83
ATOM     83  C   UNL A   1      43.107  34.504  29.444  1.00  0.00     0.064 A 
ATOM     84  C   UNL A   1      43.247  35.579  30.334  1.00  0.00     0.173 A 
ATOM     85  C   UNL A   1      43.352  34.796  28.080  1.00  0.00     0.173 A 
ATOM     86  F   UNL A   1      43.134  35.404  31.658  1.00  0.00    -0.203 F 
ATOM     87  C   UNL A   1      43.566  36.865  29.888  1.00  0.00     0.198 A 
ATOM     88  C   UNL A   1      43.721  36.067  27.646  1.00  0.00     0.198 A 
ATOM     89  F   UNL A   1      43.263  33.847  27.136  1.00  0.00    -0.203 F 
ATOM     90  F   UNL A   1      43.659  37.868  30.771  1.00  0.00    -0.200 F 
ATOM     91  C   UNL A   1      43.816  37.104  28.548  1.00  0.00     0.200 A 
ATOM     92  F   UNL A   1      44.005  36.272  26.352  1.00  0.00    -0.200 F 
ATOM     93  F   UNL A   1      44.169  38.329  28.133  1.00  0.00    -0.200 F 
ENDBRANCH  60  83
ENDBRANCH  34  35
ENDBRANCH  26  29
ENDBRANCH  24  25
ENDBRANCH  23  24
ENDBRANCH   1  23
TORSDOF 13
ENDMDL
MODEL 3
REMARK VINA RESULT:     -12.9      3.690     10.261
REMARK SMILES Cc1ccc(CNc2ccc(C(=O)NCCCNC(=O)c3ccc(-c4c5nc(c(-c6c(F)c(F)c(F)c(F)c6F)c6ccc([nH]6)c(-c6c(F)c(F)c(F)c(F)c6F)c6nc(c(-c7c(F)c(F)c(F)c(F)c7F)c7ccc4[nH]7)C=C6)C=C5)cc3)cc2Br)cc1
REMARK SMILES IDX 15 1 14 2 12 3 13 4 11 6 8 7 9 8 85 9 10 10 84 11 86 12 7 13
REMARK SMILES IDX 6 15 5 16 1 17 2 18 3 19 88 20 4 21 87 22 16 23 17 24 18 25
REMARK SMILES IDX 19 26 20 28 21 29 22 30 83 31 23 32 82 33 24 34 25 35 26 36
REMARK SMILES IDX 76 37 27 38 81 39 75 40 77 41 28 42 80 43 74 44 73 45 29 47
REMARK SMILES IDX 61 48 41 49 60 50 42 51 45 52 59 53 78 54 43 55 44 56 58 58
REMARK SMILES IDX 79 59 46 60 30 61 31 62 39 63 32 64 33 65 37 66 40 67 34 68
REMARK SMILES IDX 35 69 38 70 36 71 62 72 63 73 71 74 64 75 65 76 69 77 72 78
REMARK SMILES IDX 66 79 67 80 70 81 68 82 47 83 48 84 56 85 49 86 50 87 54 88
REMARK SMILES IDX 57 89 51 90 52 91 55 92 53 93
REMARK H PARENT 14 5 7 14 18 27 77 46 45 57
REMARK Flexibility Score: inf
ROOT
ATOM      1  C   UNL A   1      37.401  21.607  24.598  1.00  0.00     0.118 C 
ENDROOT
BRANCH   1   2
ATOM      2  N   UNL A   1      36.372  20.592  24.764  1.00  0.00    -0.352 N 
ATOM      3  C   UNL A   1      35.019  20.663  25.006  1.00  0.00     0.251 C 
ATOM      4  O   UNL A   1      34.402  19.596  25.000  1.00  0.00    -0.269 OA
ATOM      5  H   UNL A   1      36.710  19.671  24.686  1.00  0.00     0.163 HD
BRANCH   3   6
ATOM      6  C   UNL A   1      34.263  21.929  25.258  1.00  0.00     0.041 A 
ATOM      7  C   UNL A   1      32.726  24.306  25.606  1.00  0.00     0.049 A 
ATOM      8  C   UNL A   1      33.817  24.022  26.422  1.00  0.00     0.028 A 
ATOM      9  C   UNL A   1      32.376  23.346  24.641  1.00  0.00     0.041 A 
ATOM     10  C   UNL A   1      34.570  22.859  26.248  1.00  0.00     0.016 A 
ATOM     11  C   UNL A   1      33.132  22.178  24.467  1.00  0.00     0.031 A 
ATOM     12  Br  UNL A   1      30.881  23.621  23.498  1.00  0.00    -0.049 Br
BRANCH   7  13
ATOM     13  N   UNL A   1      32.062  25.518  25.720  1.00  0.00    -0.380 N 
ATOM     14  H   UNL A   1      31.437  25.660  26.468  1.00  0.00     0.160 HD
BRANCH  13  15
ATOM     15  C   UNL A   1      32.274  26.582  24.751  1.00  0.00     0.148 C 
BRANCH  15  16
ATOM     16  C   UNL A   1      32.614  27.859  25.479  1.00  0.00    -0.029 A 
ATOM     17  C   UNL A   1      33.477  31.495  27.628  1.00  0.00     0.044 C 
ATOM     18  C   UNL A   1      33.202  30.236  26.862  1.00  0.00    -0.051 A 
ATOM     19  C   UNL A   1      32.145  30.196  25.948  1.00  0.00     0.004 A 
ATOM     20  C   UNL A   1      33.975  29.087  27.065  1.00  0.00     0.004 A 
ATOM     21  C   UNL A   1      31.860  29.022  25.256  1.00  0.00     0.006 A 
ATOM     22  C   UNL A   1      33.685  27.907  26.377  1.00  0.00     0.006 A 
ENDBRANCH  15  16
ENDBRANCH  13  15
ENDBRANCH   7  13
ENDBRANCH   3   6
ENDBRANCH   1   2
BRANCH   1  23
ATOM     23  C   UNL A   1      38.408  21.595  25.750  1.00  0.00     0.042 C 
BRANCH  23  24
ATOM     24  C   UNL A   1      38.858  22.973  26.192  1.00  0.00     0.118 C 
BRANCH  24  25
ATOM     25  N   UNL A   1      40.298  23.085  26.406  1.00  0.00    -0.352 N 
ATOM     26  C   UNL A   1      41.016  24.202  26.801  1.00  0.00     0.251 C 
ATOM     27  H   UNL A   1      40.822  22.266  26.252  1.00  0.00     0.163 HD
ATOM     28  O   UNL A   1      42.225  24.164  26.936  1.00  0.00    -0.269 OA
BRANCH  26  29
ATOM     29  C   UNL A   1      40.249  25.414  27.164  1.00  0.00     0.039 A 
ATOM     30  C   UNL A   1      40.560  26.605  26.502  1.00  0.00     0.014 A 
ATOM     31  C   UNL A   1      39.465  25.414  28.315  1.00  0.00     0.014 A 
ATOM     32  C   UNL A   1      40.285  27.814  27.133  1.00  0.00     0.010 A 
ATOM     33  C   UNL A   1      39.285  26.606  28.987  1.00  0.00     0.010 A 
ATOM     34  C   UNL A   1      39.752  27.798  28.424  1.00  0.00    -0.014 A 
BRANCH  34  35
ATOM     35  C   UNL A   1      39.762  28.970  29.291  1.00  0.00     0.031 A 
ATOM     36  C   UNL A   1      38.731  30.017  29.148  1.00  0.00     0.074 A 
ATOM     37  C   UNL A   1      40.705  29.094  30.252  1.00  0.00     0.049 A 
ATOM     38  N   UNL A   1      38.941  31.266  29.401  1.00  0.00    -0.248 NA
ATOM     39  C   UNL A   1      37.379  29.738  28.673  1.00  0.00     0.031 C 
ATOM     40  C   UNL A   1      40.742  30.087  31.324  1.00  0.00     0.029 A 
ATOM     41  N   UNL A   1      41.949  28.443  30.337  1.00  0.00    -0.354 N 
ATOM     42  C   UNL A   1      37.724  31.897  29.378  1.00  0.00     0.074 A 
ATOM     43  C   UNL A   1      36.790  30.924  28.857  1.00  0.00     0.031 C 
ATOM     44  C   UNL A   1      42.007  30.211  31.754  1.00  0.00     0.029 A 
ATOM     45  C   UNL A   1      42.840  29.393  30.891  1.00  0.00     0.049 A 
ATOM     46  H   UNL A   1      42.157  27.519  30.067  1.00  0.00     0.167 HD
ATOM     47  C   UNL A   1      37.581  33.134  29.927  1.00  0.00     0.037 A 
ATOM     48  C   UNL A   1      43.939  29.831  30.215  1.00  0.00     0.037 A 
ATOM     49  C   UNL A   1      38.824  33.635  30.490  1.00  0.00     0.049 A 
ATOM     50  C   UNL A   1      43.964  31.322  29.980  1.00  0.00     0.074 A 
ATOM     51  C   UNL A   1      39.340  33.609  31.775  1.00  0.00     0.029 A 
ATOM     52  N   UNL A   1      39.884  33.951  29.647  1.00  0.00    -0.354 N 
ATOM     53  N   UNL A   1      42.914  32.088  30.093  1.00  0.00    -0.248 NA
ATOM     54  C   UNL A   1      45.150  32.061  29.552  1.00  0.00     0.031 C 
ATOM     55  C   UNL A   1      40.730  33.856  31.699  1.00  0.00     0.029 A 
ATOM     56  C   UNL A   1      41.057  34.058  30.370  1.00  0.00     0.049 A 
ATOM     57  H   UNL A   1      39.809  34.079  28.674  1.00  0.00     0.167 HD
ATOM     58  C   UNL A   1      43.245  33.368  29.738  1.00  0.00     0.074 A 
ATOM     59  C   UNL A   1      44.660  33.307  29.426  1.00  0.00     0.031 C 
ATOM     60  C   UNL A   1      42.316  34.369  29.717  1.00  0.00     0.037 A 
BRANCH  47  61
ATOM     61  C   UNL A   1      36.219  33.704  30.195  1.00  0.00     0.064 A 
ATOM     62  C   UNL A   1      35.404  34.189  29.153  1.00  0.00     0.173 A 
ATOM     63  C   UNL A   1      35.704  33.857  31.495  1.00  0.00     0.173 A 
ATOM     64  F   UNL A   1      35.757  34.056  27.870  1.00  0.00    -0.203 F 
ATOM     65  C   UNL A   1      34.208  34.864  29.402  1.00  0.00     0.198 A 
ATOM     66  C   UNL A   1      34.532  34.574  31.746  1.00  0.00     0.198 A 
ATOM     67  F   UNL A   1      36.345  33.328  32.548  1.00  0.00    -0.203 F 
ATOM     68  F   UNL A   1      33.478  35.324  28.376  1.00  0.00    -0.200 F 
ATOM     69  C   UNL A   1      33.789  35.085  30.700  1.00  0.00     0.200 A 
ATOM     70  F   UNL A   1      34.140  34.788  33.010  1.00  0.00    -0.200 F 
ATOM     71  F   UNL A   1      32.673  35.788  30.940  1.00  0.00    -0.200 F 
ENDBRANCH  47  61
BRANCH  48  72
ATOM     72  C   UNL A   1      44.511  28.809  29.303  1.00  0.00     0.064 A 
ATOM     73  C   UNL A   1      45.323  27.804  29.861  1.00  0.00     0.173 A 
ATOM     74  C   UNL A   1      43.980  28.581  28.029  1.00  0.00     0.173 A 
ATOM     75  F   UNL A   1      45.855  27.973  31.082  1.00  0.00    -0.203 F 
ATOM     76  C   UNL A   1      45.493  26.575  29.228  1.00  0.00     0.198 A 
ATOM     77  C   UNL A   1      44.166  27.352  27.390  1.00  0.00     0.198 A 
ATOM     78  F   UNL A   1      43.185  29.494  27.451  1.00  0.00    -0.203 F 
ATOM     79  F   UNL A   1      46.169  25.593  29.844  1.00  0.00    -0.200 F 
ATOM     80  C   UNL A   1      44.888  26.341  28.006  1.00  0.00     0.200 A 
ATOM     81  F   UNL A   1      43.564  27.115  26.215  1.00  0.00    -0.200 F 
ATOM     82  F   UNL A   1      44.968  25.127  27.442  1.00  0.00    -0.200 F 
ENDBRANCH  48  72
BRANCH  60  83
ATOM     83  C   UNL A   1      42.520  35.754  29.167  1.00  0.00     0.064 A 
ATOM     84  C   UNL A   1      41.909  36.224  27.995  1.00  0.00     0.173 A 
ATOM     85  C   UNL A   1      43.237  36.717  29.917  1.00  0.00     0.173 A 
ATOM     86  F   UNL A   1      41.125  35.429  27.254  1.00  0.00    -0.203 F 
ATOM     87  C   UNL A   1      42.040  37.552  27.579  1.00  0.00     0.198 A 
ATOM     88  C   UNL A   1      43.322  38.051  29.527  1.00  0.00     0.198 A 
ATOM     89  F   UNL A   1      43.853  36.392  31.064  1.00  0.00    -0.203 F 
ATOM     90  F   UNL A   1      41.464  37.949  26.436  1.00  0.00    -0.200 F 
ATOM     91  C   UNL A   1      42.734  38.467  28.351  1.00  0.00     0.200 A 
ATOM     92  F   UNL A   1      43.959  38.934  30.310  1.00  0.00    -0.200 F 
ATOM     93  F   UNL A   1      42.817  39.750  27.972  1.00  0.00    -0.200 F 
ENDBRANCH  60  83
ENDBRANCH  34  35
ENDBRANCH  26  29
ENDBRANCH  24  25
ENDBRANCH  23  24
ENDBRANCH   1  23
TORSDOF 13
ENDMDL
