MODEL 1
REMARK VINA RESULT:     -13.4      0.000      0.000
REMARK SMILES Cc1ccccc1C(=O)N1CSC[C@H]1C(=O)NCCCNC(=O)c1ccc(-c2c3nc(c(-c4c(F)c(F)c(F)c(F)c4F)c4ccc([nH]4)c(-c4c(F)c(F)c(F)c(F)c4F)c4nc(c(-c5c(F)c(F)c(F)c(F)c5F)c5ccc2[nH]5)C=C4)C=C3)cc1
REMARK SMILES IDX 19 1 18 2 17 3 15 4 16 5 14 7 10 8 11 9 12 10 13 11 8 12
REMARK SMILES IDX 9 13 7 14 1 15 2 16 3 17 4 18 6 19 5 20 20 21 21 22 22 23
REMARK SMILES IDX 23 25 24 26 25 27 86 28 26 29 85 30 27 31 28 32 29 33 79 34
REMARK SMILES IDX 30 35 84 36 78 37 80 38 31 39 83 40 77 41 76 42 32 44 64 45
REMARK SMILES IDX 44 46 63 47 45 48 48 49 62 50 81 51 46 52 47 53 61 55 82 56
REMARK SMILES IDX 49 57 33 58 34 59 42 60 35 61 36 62 40 63 43 64 37 65 38 66
REMARK SMILES IDX 41 67 39 68 65 69 66 70 74 71 67 72 68 73 72 74 75 75 69 76
REMARK SMILES IDX 70 77 73 78 71 79 50 80 51 81 59 82 52 83 53 84 57 85 60 86
REMARK SMILES IDX 54 87 55 88 58 89 56 90
REMARK H PARENT 17 6 21 24 80 43 48 54
REMARK Flexibility Score: inf
ROOT
ATOM      1  C   UNL A   1      32.914  31.325  27.281  1.00  0.00     0.042 C 
ENDROOT
BRANCH   1   2
ATOM      2  C   UNL A   1      32.209  30.456  26.252  1.00  0.00     0.117 C 
BRANCH   2   3
ATOM      3  N   UNL A   1      33.143  29.629  25.511  1.00  0.00    -0.354 N 
ATOM      4  C   UNL A   1      33.018  28.429  24.884  1.00  0.00     0.243 C 
ATOM      5  O   UNL A   1      34.022  28.062  24.259  1.00  0.00    -0.273 OA
ATOM      6  H   UNL A   1      34.048  30.014  25.450  1.00  0.00     0.163 HD
BRANCH   4   7
ATOM      7  C   UNL A   1      31.737  27.552  24.883  1.00  0.00     0.185 C 
ATOM      8  N   UNL A   1      31.491  26.626  23.768  1.00  0.00    -0.317 N 
ATOM      9  C   UNL A   1      31.714  25.233  24.064  1.00  0.00     0.190 C 
ATOM     10  S   UNL A   1      31.571  25.041  25.853  1.00  0.00    -0.138 SA
ATOM     11  C   UNL A   1      31.463  26.827  26.195  1.00  0.00     0.106 C 
BRANCH   8  12
ATOM     12  C   UNL A   1      30.965  27.140  22.594  1.00  0.00     0.255 C 
ATOM     13  O   UNL A   1      31.440  26.850  21.497  1.00  0.00    -0.269 OA
BRANCH  12  14
ATOM     14  C   UNL A   1      29.841  28.121  22.607  1.00  0.00     0.042 A 
ATOM     15  C   UNL A   1      28.188  26.604  23.890  1.00  0.00     0.045 C 
ATOM     16  C   UNL A   1      28.593  27.893  23.230  1.00  0.00    -0.038 A 
ATOM     17  C   UNL A   1      27.658  28.944  23.275  1.00  0.00     0.004 A 
ATOM     18  C   UNL A   1      27.978  30.217  22.803  1.00  0.00     0.000 A 
ATOM     19  C   UNL A   1      30.152  29.412  22.143  1.00  0.00     0.014 A 
ATOM     20  C   UNL A   1      29.230  30.456  22.249  1.00  0.00     0.001 A 
ENDBRANCH  12  14
ENDBRANCH   8  12
ENDBRANCH   4   7
ENDBRANCH   2   3
ENDBRANCH   1   2
BRANCH   1  21
ATOM     21  C   UNL A   1      34.300  30.826  27.652  1.00  0.00     0.118 C 
BRANCH  21  22
ATOM     22  N   UNL A   1      34.957  31.643  28.672  1.00  0.00    -0.352 N 
ATOM     23  C   UNL A   1      36.094  31.341  29.411  1.00  0.00     0.251 C 
ATOM     24  H   UNL A   1      34.543  32.516  28.858  1.00  0.00     0.163 HD
ATOM     25  O   UNL A   1      36.556  32.113  30.222  1.00  0.00    -0.269 OA
BRANCH  23  26
ATOM     26  C   UNL A   1      36.800  30.085  29.067  1.00  0.00     0.039 A 
ATOM     27  C   UNL A   1      37.047  29.196  30.116  1.00  0.00     0.014 A 
ATOM     28  C   UNL A   1      37.500  30.008  27.866  1.00  0.00     0.014 A 
ATOM     29  C   UNL A   1      38.188  28.409  30.064  1.00  0.00     0.010 A 
ATOM     30  C   UNL A   1      38.686  29.302  27.857  1.00  0.00     0.010 A 
ATOM     31  C   UNL A   1      39.067  28.576  28.994  1.00  0.00    -0.014 A 
BRANCH  31  32
ATOM     32  C   UNL A   1      40.452  28.130  29.046  1.00  0.00     0.031 A 
ATOM     33  C   UNL A   1      40.795  26.752  28.648  1.00  0.00     0.074 A 
ATOM     34  C   UNL A   1      41.425  28.991  29.430  1.00  0.00     0.049 A 
ATOM     35  N   UNL A   1      41.899  26.169  28.969  1.00  0.00    -0.248 NA
ATOM     36  C   UNL A   1      39.871  25.874  27.931  1.00  0.00     0.031 C 
ATOM     37  C   UNL A   1      42.871  28.823  29.284  1.00  0.00     0.029 A 
ATOM     38  N   UNL A   1      41.291  30.122  30.260  1.00  0.00    -0.354 N 
ATOM     39  C   UNL A   1      41.965  24.999  28.260  1.00  0.00     0.074 A 
ATOM     40  C   UNL A   1      40.632  24.788  27.759  1.00  0.00     0.031 C 
ATOM     41  C   UNL A   1      43.490  29.575  30.206  1.00  0.00     0.029 A 
ATOM     42  C   UNL A   1      42.460  30.131  31.063  1.00  0.00     0.049 A 
ATOM     43  H   UNL A   1      40.548  30.767  30.278  1.00  0.00     0.167 HD
ATOM     44  C   UNL A   1      43.185  24.433  28.056  1.00  0.00     0.037 A 
ATOM     45  C   UNL A   1      42.413  29.986  32.418  1.00  0.00     0.037 A 
ATOM     46  C   UNL A   1      44.177  24.982  28.979  1.00  0.00     0.049 A 
ATOM     47  C   UNL A   1      43.239  28.839  32.947  1.00  0.00     0.074 A 
ATOM     48  C   UNL A   1      45.266  25.823  28.831  1.00  0.00     0.029 A 
ATOM     49  N   UNL A   1      43.954  24.862  30.350  1.00  0.00    -0.354 N 
ATOM     50  N   UNL A   1      43.632  27.830  32.220  1.00  0.00    -0.248 NA
ATOM     51  C   UNL A   1      43.649  28.717  34.343  1.00  0.00     0.031 C 
ATOM     52  C   UNL A   1      45.641  26.277  30.127  1.00  0.00     0.029 A 
ATOM     53  C   UNL A   1      44.813  25.675  31.060  1.00  0.00     0.049 A 
ATOM     54  H   UNL A   1      43.276  24.275  30.756  1.00  0.00     0.167 HD
ATOM     55  C   UNL A   1      44.292  26.926  33.013  1.00  0.00     0.074 A 
ATOM     56  C   UNL A   1      44.300  27.541  34.327  1.00  0.00     0.031 C 
ATOM     57  C   UNL A   1      44.747  25.738  32.515  1.00  0.00     0.037 A 
BRANCH  44  58
ATOM     58  C   UNL A   1      43.533  23.519  26.898  1.00  0.00     0.064 A 
ATOM     59  C   UNL A   1      43.124  22.167  26.914  1.00  0.00     0.173 A 
ATOM     60  C   UNL A   1      44.383  23.860  25.822  1.00  0.00     0.173 A 
ATOM     61  F   UNL A   1      42.331  21.696  27.887  1.00  0.00    -0.203 F 
ATOM     62  C   UNL A   1      43.539  21.245  25.946  1.00  0.00     0.198 A 
ATOM     63  C   UNL A   1      44.748  22.953  24.824  1.00  0.00     0.198 A 
ATOM     64  F   UNL A   1      44.960  25.062  25.715  1.00  0.00    -0.203 F 
ATOM     65  F   UNL A   1      43.171  19.960  26.047  1.00  0.00    -0.200 F 
ATOM     66  C   UNL A   1      44.339  21.640  24.893  1.00  0.00     0.200 A 
ATOM     67  F   UNL A   1      45.532  23.360  23.815  1.00  0.00    -0.200 F 
ATOM     68  F   UNL A   1      44.736  20.761  23.964  1.00  0.00    -0.200 F 
ENDBRANCH  44  58
BRANCH  45  69
ATOM     69  C   UNL A   1      41.143  30.466  33.024  1.00  0.00     0.064 A 
ATOM     70  C   UNL A   1      40.926  31.855  33.116  1.00  0.00     0.173 A 
ATOM     71  C   UNL A   1      40.033  29.627  33.157  1.00  0.00     0.173 A 
ATOM     72  F   UNL A   1      41.958  32.705  32.991  1.00  0.00    -0.203 F 
ATOM     73  C   UNL A   1      39.641  32.382  33.212  1.00  0.00     0.198 A 
ATOM     74  C   UNL A   1      38.746  30.159  33.272  1.00  0.00     0.198 A 
ATOM     75  F   UNL A   1      40.171  28.296  33.060  1.00  0.00    -0.203 F 
ATOM     76  F   UNL A   1      39.458  33.709  33.172  1.00  0.00    -0.200 F 
ATOM     77  C   UNL A   1      38.549  31.533  33.263  1.00  0.00     0.200 A 
ATOM     78  F   UNL A   1      37.686  29.339  33.286  1.00  0.00    -0.200 F 
ATOM     79  F   UNL A   1      37.307  32.035  33.254  1.00  0.00    -0.200 F 
ENDBRANCH  45  69
BRANCH  57  80
ATOM     80  C   UNL A   1      45.238  24.553  33.325  1.00  0.00     0.064 A 
ATOM     81  C   UNL A   1      44.489  23.386  33.563  1.00  0.00     0.173 A 
ATOM     82  C   UNL A   1      46.580  24.504  33.778  1.00  0.00     0.173 A 
ATOM     83  F   UNL A   1      43.253  23.234  33.072  1.00  0.00    -0.203 F 
ATOM     84  C   UNL A   1      45.013  22.294  34.263  1.00  0.00     0.198 A 
ATOM     85  C   UNL A   1      47.119  23.389  34.422  1.00  0.00     0.198 A 
ATOM     86  F   UNL A   1      47.424  25.528  33.584  1.00  0.00    -0.203 F 
ATOM     87  F   UNL A   1      44.238  21.226  34.502  1.00  0.00    -0.200 F 
ATOM     88  C   UNL A   1      46.329  22.291  34.683  1.00  0.00     0.200 A 
ATOM     89  F   UNL A   1      48.414  23.381  34.768  1.00  0.00    -0.200 F 
ATOM     90  F   UNL A   1      46.840  21.224  35.311  1.00  0.00    -0.200 F 
ENDBRANCH  57  80
ENDBRANCH  31  32
ENDBRANCH  23  26
ENDBRANCH  21  22
ENDBRANCH   1  21
TORSDOF 12
ENDMDL
MODEL 2
REMARK VINA RESULT:     -13.3      1.346      2.475
REMARK SMILES Cc1ccccc1C(=O)N1CSC[C@H]1C(=O)NCCCNC(=O)c1ccc(-c2c3nc(c(-c4c(F)c(F)c(F)c(F)c4F)c4ccc([nH]4)c(-c4c(F)c(F)c(F)c(F)c4F)c4nc(c(-c5c(F)c(F)c(F)c(F)c5F)c5ccc2[nH]5)C=C4)C=C3)cc1
REMARK SMILES IDX 19 1 18 2 17 3 15 4 16 5 14 7 10 8 11 9 12 10 13 11 8 12
REMARK SMILES IDX 9 13 7 14 1 15 2 16 3 17 4 18 6 19 5 20 20 21 21 22 22 23
REMARK SMILES IDX 23 25 24 26 25 27 86 28 26 29 85 30 27 31 28 32 29 33 79 34
REMARK SMILES IDX 30 35 84 36 78 37 80 38 31 39 83 40 77 41 76 42 32 44 64 45
REMARK SMILES IDX 44 46 63 47 45 48 48 49 62 50 81 51 46 52 47 53 61 55 82 56
REMARK SMILES IDX 49 57 33 58 34 59 42 60 35 61 36 62 40 63 43 64 37 65 38 66
REMARK SMILES IDX 41 67 39 68 65 69 66 70 74 71 67 72 68 73 72 74 75 75 69 76
REMARK SMILES IDX 70 77 73 78 71 79 50 80 51 81 59 82 52 83 53 84 57 85 60 86
REMARK SMILES IDX 54 87 55 88 58 89 56 90
REMARK H PARENT 17 6 21 24 80 43 48 54
REMARK Flexibility Score: inf
ROOT
ATOM      1  C   UNL A   1      32.806  30.614  27.250  1.00  0.00     0.042 C 
ENDROOT
BRANCH   1   2
ATOM      2  C   UNL A   1      32.155  29.342  26.730  1.00  0.00     0.117 C 
BRANCH   2   3
ATOM      3  N   UNL A   1      31.512  29.550  25.446  1.00  0.00    -0.354 N 
ATOM      4  C   UNL A   1      31.443  28.798  24.315  1.00  0.00     0.243 C 
ATOM      5  O   UNL A   1      30.711  29.258  23.428  1.00  0.00    -0.273 OA
ATOM      6  H   UNL A   1      31.030  30.407  25.380  1.00  0.00     0.163 HD
BRANCH   4   7
ATOM      7  C   UNL A   1      32.171  27.445  24.097  1.00  0.00     0.185 C 
ATOM      8  N   UNL A   1      31.475  26.187  24.403  1.00  0.00    -0.317 N 
ATOM      9  C   UNL A   1      31.025  25.438  23.256  1.00  0.00     0.190 C 
ATOM     10  S   UNL A   1      32.042  25.951  21.855  1.00  0.00    -0.138 SA
ATOM     11  C   UNL A   1      32.867  27.307  22.749  1.00  0.00     0.106 C 
BRANCH   8  12
ATOM     12  C   UNL A   1      31.414  25.776  25.725  1.00  0.00     0.255 C 
ATOM     13  O   UNL A   1      30.703  26.355  26.545  1.00  0.00    -0.269 OA
BRANCH  12  14
ATOM     14  C   UNL A   1      32.258  24.656  26.232  1.00  0.00     0.042 A 
ATOM     15  C   UNL A   1      30.286  23.116  26.876  1.00  0.00     0.045 C 
ATOM     16  C   UNL A   1      31.748  23.432  26.719  1.00  0.00    -0.038 A 
ATOM     17  C   UNL A   1      32.653  22.408  27.057  1.00  0.00     0.004 A 
ATOM     18  C   UNL A   1      34.022  22.551  26.834  1.00  0.00     0.000 A 
ATOM     19  C   UNL A   1      33.641  24.782  26.004  1.00  0.00     0.014 A 
ATOM     20  C   UNL A   1      34.516  23.733  26.294  1.00  0.00     0.001 A 
ENDBRANCH  12  14
ENDBRANCH   8  12
ENDBRANCH   4   7
ENDBRANCH   2   3
ENDBRANCH   1   2
BRANCH   1  21
ATOM     21  C   UNL A   1      34.323  30.554  27.277  1.00  0.00     0.118 C 
BRANCH  21  22
ATOM     22  N   UNL A   1      34.917  31.384  28.325  1.00  0.00    -0.352 N 
ATOM     23  C   UNL A   1      36.018  31.099  29.123  1.00  0.00     0.251 C 
ATOM     24  H   UNL A   1      34.484  32.253  28.485  1.00  0.00     0.163 HD
ATOM     25  O   UNL A   1      36.428  31.882  29.952  1.00  0.00    -0.269 OA
BRANCH  23  26
ATOM     26  C   UNL A   1      36.755  29.851  28.824  1.00  0.00     0.039 A 
ATOM     27  C   UNL A   1      36.998  28.991  29.898  1.00  0.00     0.014 A 
ATOM     28  C   UNL A   1      37.482  29.759  27.639  1.00  0.00     0.014 A 
ATOM     29  C   UNL A   1      38.155  28.226  29.887  1.00  0.00     0.010 A 
ATOM     30  C   UNL A   1      38.681  29.077  27.671  1.00  0.00     0.010 A 
ATOM     31  C   UNL A   1      39.053  28.386  28.832  1.00  0.00    -0.014 A 
BRANCH  31  32
ATOM     32  C   UNL A   1      40.445  27.969  28.923  1.00  0.00     0.031 A 
ATOM     33  C   UNL A   1      40.830  26.605  28.517  1.00  0.00     0.074 A 
ATOM     34  C   UNL A   1      41.386  28.845  29.349  1.00  0.00     0.049 A 
ATOM     35  N   UNL A   1      41.936  26.041  28.866  1.00  0.00    -0.248 NA
ATOM     36  C   UNL A   1      39.949  25.718  27.758  1.00  0.00     0.031 C 
ATOM     37  C   UNL A   1      42.839  28.710  29.248  1.00  0.00     0.029 A 
ATOM     38  N   UNL A   1      41.201  29.961  30.190  1.00  0.00    -0.354 N 
ATOM     39  C   UNL A   1      42.050  24.883  28.142  1.00  0.00     0.074 A 
ATOM     40  C   UNL A   1      40.739  24.651  27.597  1.00  0.00     0.031 C 
ATOM     41  C   UNL A   1      43.412  29.462  30.199  1.00  0.00     0.029 A 
ATOM     42  C   UNL A   1      42.342  29.983  31.030  1.00  0.00     0.049 A 
ATOM     43  H   UNL A   1      40.443  30.589  30.193  1.00  0.00     0.167 HD
ATOM     44  C   UNL A   1      43.288  24.346  27.971  1.00  0.00     0.037 A 
ATOM     45  C   UNL A   1      42.256  29.818  32.381  1.00  0.00     0.037 A 
ATOM     46  C   UNL A   1      44.238  24.903  28.933  1.00  0.00     0.049 A 
ATOM     47  C   UNL A   1      43.090  28.682  32.920  1.00  0.00     0.074 A 
ATOM     48  C   UNL A   1      45.312  25.769  28.831  1.00  0.00     0.029 A 
ATOM     49  N   UNL A   1      43.974  24.759  30.293  1.00  0.00    -0.354 N 
ATOM     50  N   UNL A   1      43.527  27.692  32.193  1.00  0.00    -0.248 NA
ATOM     51  C   UNL A   1      43.457  28.548  34.327  1.00  0.00     0.031 C 
ATOM     52  C   UNL A   1      45.636  26.213  30.144  1.00  0.00     0.029 A 
ATOM     53  C   UNL A   1      44.792  25.579  31.042  1.00  0.00     0.049 A 
ATOM     54  H   UNL A   1      43.296  24.152  30.669  1.00  0.00     0.167 HD
ATOM     55  C   UNL A   1      44.181  26.791  32.995  1.00  0.00     0.074 A 
ATOM     56  C   UNL A   1      44.134  27.387  34.316  1.00  0.00     0.031 C 
ATOM     57  C   UNL A   1      44.678  25.620  32.495  1.00  0.00     0.037 A 
BRANCH  44  58
ATOM     58  C   UNL A   1      43.692  23.457  26.812  1.00  0.00     0.064 A 
ATOM     59  C   UNL A   1      43.245  22.119  26.755  1.00  0.00     0.173 A 
ATOM     60  C   UNL A   1      44.629  23.803  25.811  1.00  0.00     0.173 A 
ATOM     61  F   UNL A   1      42.369  21.643  27.653  1.00  0.00    -0.203 F 
ATOM     62  C   UNL A   1      43.702  21.213  25.790  1.00  0.00     0.198 A 
ATOM     63  C   UNL A   1      45.038  22.915  24.814  1.00  0.00     0.198 A 
ATOM     64  F   UNL A   1      45.246  24.989  25.785  1.00  0.00    -0.203 F 
ATOM     65  F   UNL A   1      43.291  19.938  25.824  1.00  0.00    -0.200 F 
ATOM     66  C   UNL A   1      44.588  21.614  24.811  1.00  0.00     0.200 A 
ATOM     67  F   UNL A   1      45.905  23.327  23.877  1.00  0.00    -0.200 F 
ATOM     68  F   UNL A   1      45.025  20.751  23.885  1.00  0.00    -0.200 F 
ENDBRANCH  44  58
BRANCH  45  69
ATOM     69  C   UNL A   1      40.957  30.262  32.952  1.00  0.00     0.064 A 
ATOM     70  C   UNL A   1      40.692  31.643  33.025  1.00  0.00     0.173 A 
ATOM     71  C   UNL A   1      39.872  29.388  33.069  1.00  0.00     0.173 A 
ATOM     72  F   UNL A   1      41.699  32.526  32.915  1.00  0.00    -0.203 F 
ATOM     73  C   UNL A   1      39.389  32.129  33.086  1.00  0.00     0.198 A 
ATOM     74  C   UNL A   1      38.566  29.878  33.148  1.00  0.00     0.198 A 
ATOM     75  F   UNL A   1      40.056  28.062  32.988  1.00  0.00    -0.203 F 
ATOM     76  F   UNL A   1      39.164  33.449  33.028  1.00  0.00    -0.200 F 
ATOM     77  C   UNL A   1      38.324  31.245  33.120  1.00  0.00     0.200 A 
ATOM     78  F   UNL A   1      37.533  29.024  33.145  1.00  0.00    -0.200 F 
ATOM     79  F   UNL A   1      37.067  31.706  33.077  1.00  0.00    -0.200 F 
ENDBRANCH  45  69
BRANCH  57  80
ATOM     80  C   UNL A   1      45.169  24.434  33.303  1.00  0.00     0.064 A 
ATOM     81  C   UNL A   1      44.412  23.276  33.557  1.00  0.00     0.173 A 
ATOM     82  C   UNL A   1      46.516  24.375  33.740  1.00  0.00     0.173 A 
ATOM     83  F   UNL A   1      43.169  23.133  33.083  1.00  0.00    -0.203 F 
ATOM     84  C   UNL A   1      44.936  22.182  34.256  1.00  0.00     0.198 A 
ATOM     85  C   UNL A   1      47.053  23.259  34.382  1.00  0.00     0.198 A 
ATOM     86  F   UNL A   1      47.367  25.391  33.530  1.00  0.00    -0.203 F 
ATOM     87  F   UNL A   1      44.154  21.123  34.510  1.00  0.00    -0.200 F 
ATOM     88  C   UNL A   1      46.257  22.169  34.658  1.00  0.00     0.200 A 
ATOM     89  F   UNL A   1      48.353  23.240  34.710  1.00  0.00    -0.200 F 
ATOM     90  F   UNL A   1      46.767  21.100  35.285  1.00  0.00    -0.200 F 
ENDBRANCH  57  80
ENDBRANCH  31  32
ENDBRANCH  23  26
ENDBRANCH  21  22
ENDBRANCH   1  21
TORSDOF 12
ENDMDL
MODEL 3
REMARK VINA RESULT:     -13.3      4.156     10.128
REMARK SMILES Cc1ccccc1C(=O)N1CSC[C@H]1C(=O)NCCCNC(=O)c1ccc(-c2c3nc(c(-c4c(F)c(F)c(F)c(F)c4F)c4ccc([nH]4)c(-c4c(F)c(F)c(F)c(F)c4F)c4nc(c(-c5c(F)c(F)c(F)c(F)c5F)c5ccc2[nH]5)C=C4)C=C3)cc1
REMARK SMILES IDX 19 1 18 2 17 3 15 4 16 5 14 7 10 8 11 9 12 10 13 11 8 12
REMARK SMILES IDX 9 13 7 14 1 15 2 16 3 17 4 18 6 19 5 20 20 21 21 22 22 23
REMARK SMILES IDX 23 25 24 26 25 27 86 28 26 29 85 30 27 31 28 32 29 33 79 34
REMARK SMILES IDX 30 35 84 36 78 37 80 38 31 39 83 40 77 41 76 42 32 44 64 45
REMARK SMILES IDX 44 46 63 47 45 48 48 49 62 50 81 51 46 52 47 53 61 55 82 56
REMARK SMILES IDX 49 57 33 58 34 59 42 60 35 61 36 62 40 63 43 64 37 65 38 66
REMARK SMILES IDX 41 67 39 68 65 69 66 70 74 71 67 72 68 73 72 74 75 75 69 76
REMARK SMILES IDX 70 77 73 78 71 79 50 80 51 81 59 82 52 83 53 84 57 85 60 86
REMARK SMILES IDX 54 87 55 88 58 89 56 90
REMARK H PARENT 17 6 21 24 80 43 48 54
REMARK Flexibility Score: inf
ROOT
ATOM      1  C   UNL A   1      38.099  21.538  25.365  1.00  0.00     0.042 C 
ENDROOT
BRANCH   1   2
ATOM      2  C   UNL A   1      36.924  21.833  24.446  1.00  0.00     0.117 C 
BRANCH   2   3
ATOM      3  N   UNL A   1      35.847  20.877  24.623  1.00  0.00    -0.354 N 
ATOM      4  C   UNL A   1      34.528  21.017  24.925  1.00  0.00     0.243 C 
ATOM      5  O   UNL A   1      33.875  19.966  24.899  1.00  0.00    -0.273 OA
ATOM      6  H   UNL A   1      36.126  19.941  24.499  1.00  0.00     0.163 HD
BRANCH   4   7
ATOM      7  C   UNL A   1      33.826  22.362  25.254  1.00  0.00     0.185 C 
ATOM      8  N   UNL A   1      33.065  23.059  24.208  1.00  0.00    -0.317 N 
ATOM      9  C   UNL A   1      31.631  22.976  24.331  1.00  0.00     0.190 C 
ATOM     10  S   UNL A   1      31.267  22.623  26.064  1.00  0.00    -0.138 SA
ATOM     11  C   UNL A   1      33.005  22.352  26.537  1.00  0.00     0.106 C 
BRANCH   8  12
ATOM     12  C   UNL A   1      33.765  23.818  23.283  1.00  0.00     0.255 C 
ATOM     13  O   UNL A   1      34.499  23.294  22.447  1.00  0.00    -0.269 OA
BRANCH  12  14
ATOM     14  C   UNL A   1      33.715  25.308  23.301  1.00  0.00     0.042 A 
ATOM     15  C   UNL A   1      32.715  25.562  20.931  1.00  0.00     0.045 C 
ATOM     16  C   UNL A   1      33.202  26.100  22.248  1.00  0.00    -0.038 A 
ATOM     17  C   UNL A   1      33.099  27.491  22.436  1.00  0.00     0.004 A 
ATOM     18  C   UNL A   1      33.407  28.079  23.663  1.00  0.00     0.000 A 
ATOM     19  C   UNL A   1      34.012  25.915  24.535  1.00  0.00     0.014 A 
ATOM     20  C   UNL A   1      33.850  27.290  24.718  1.00  0.00     0.001 A 
ENDBRANCH  12  14
ENDBRANCH   8  12
ENDBRANCH   4   7
ENDBRANCH   2   3
ENDBRANCH   1   2
BRANCH   1  21
ATOM     21  C   UNL A   1      38.571  22.745  26.156  1.00  0.00     0.118 C 
BRANCH  21  22
ATOM     22  N   UNL A   1      40.023  22.791  26.334  1.00  0.00    -0.352 N 
ATOM     23  C   UNL A   1      40.814  23.891  26.640  1.00  0.00     0.251 C 
ATOM     24  H   UNL A   1      40.498  21.937  26.222  1.00  0.00     0.163 HD
ATOM     25  O   UNL A   1      42.014  23.798  26.778  1.00  0.00    -0.269 OA
BRANCH  23  26
ATOM     26  C   UNL A   1      40.110  25.162  26.925  1.00  0.00     0.039 A 
ATOM     27  C   UNL A   1      40.561  26.296  26.244  1.00  0.00     0.014 A 
ATOM     28  C   UNL A   1      39.334  25.264  28.076  1.00  0.00     0.014 A 
ATOM     29  C   UNL A   1      40.468  27.529  26.875  1.00  0.00     0.010 A 
ATOM     30  C   UNL A   1      39.331  26.470  28.746  1.00  0.00     0.010 A 
ATOM     31  C   UNL A   1      39.979  27.577  28.180  1.00  0.00    -0.014 A 
BRANCH  31  32
ATOM     32  C   UNL A   1      40.223  28.709  29.062  1.00  0.00     0.031 A 
ATOM     33  C   UNL A   1      39.230  29.796  29.152  1.00  0.00     0.074 A 
ATOM     34  C   UNL A   1      41.344  28.745  29.821  1.00  0.00     0.049 A 
ATOM     35  N   UNL A   1      39.493  30.966  29.624  1.00  0.00    -0.248 NA
ATOM     36  C   UNL A   1      37.872  29.684  28.622  1.00  0.00     0.031 C 
ATOM     37  C   UNL A   1      41.629  29.635  30.947  1.00  0.00     0.029 A 
ATOM     38  N   UNL A   1      42.576  28.112  29.561  1.00  0.00    -0.354 N 
ATOM     39  C   UNL A   1      38.302  31.634  29.750  1.00  0.00     0.074 A 
ATOM     40  C   UNL A   1      37.360  30.867  28.978  1.00  0.00     0.031 C 
ATOM     41  C   UNL A   1      42.958  29.741  31.091  1.00  0.00     0.029 A 
ATOM     42  C   UNL A   1      43.563  29.043  29.971  1.00  0.00     0.049 A 
ATOM     43  H   UNL A   1      42.719  27.216  29.179  1.00  0.00     0.167 HD
ATOM     44  C   UNL A   1      38.232  32.674  30.623  1.00  0.00     0.037 A 
ATOM     45  C   UNL A   1      44.450  29.597  29.096  1.00  0.00     0.037 A 
ATOM     46  C   UNL A   1      39.568  33.142  30.987  1.00  0.00     0.049 A 
ATOM     47  C   UNL A   1      44.434  31.106  29.071  1.00  0.00     0.074 A 
ATOM     48  C   UNL A   1      40.330  33.074  32.141  1.00  0.00     0.029 A 
ATOM     49  N   UNL A   1      40.420  33.584  29.977  1.00  0.00    -0.354 N 
ATOM     50  N   UNL A   1      43.438  31.830  29.500  1.00  0.00    -0.248 NA
ATOM     51  C   UNL A   1      45.519  31.914  28.522  1.00  0.00     0.031 C 
ATOM     52  C   UNL A   1      41.671  33.396  31.793  1.00  0.00     0.029 A 
ATOM     53  C   UNL A   1      41.713  33.706  30.443  1.00  0.00     0.049 A 
ATOM     54  H   UNL A   1      40.138  33.783  29.055  1.00  0.00     0.167 HD
ATOM     55  C   UNL A   1      43.704  33.156  29.266  1.00  0.00     0.074 A 
ATOM     56  C   UNL A   1      45.030  33.157  28.678  1.00  0.00     0.031 C 
ATOM     57  C   UNL A   1      42.789  34.129  29.555  1.00  0.00     0.037 A 
BRANCH  44  58
ATOM     58  C   UNL A   1      36.963  33.151  31.300  1.00  0.00     0.064 A 
ATOM     59  C   UNL A   1      36.018  33.913  30.578  1.00  0.00     0.173 A 
ATOM     60  C   UNL A   1      36.683  33.026  32.680  1.00  0.00     0.173 A 
ATOM     61  F   UNL A   1      36.164  34.132  29.264  1.00  0.00    -0.203 F 
ATOM     62  C   UNL A   1      34.902  34.501  31.188  1.00  0.00     0.198 A 
ATOM     63  C   UNL A   1      35.538  33.564  33.274  1.00  0.00     0.198 A 
ATOM     64  F   UNL A   1      37.528  32.442  33.534  1.00  0.00    -0.203 F 
ATOM     65  F   UNL A   1      34.074  35.267  30.465  1.00  0.00    -0.200 F 
ATOM     66  C   UNL A   1      34.655  34.315  32.533  1.00  0.00     0.200 A 
ATOM     67  F   UNL A   1      35.324  33.375  34.585  1.00  0.00    -0.200 F 
ATOM     68  F   UNL A   1      33.587  34.874  33.119  1.00  0.00    -0.200 F 
ENDBRANCH  44  58
BRANCH  45  69
ATOM     69  C   UNL A   1      44.745  28.733  27.923  1.00  0.00     0.064 A 
ATOM     70  C   UNL A   1      45.555  27.597  28.112  1.00  0.00     0.173 A 
ATOM     71  C   UNL A   1      43.973  28.790  26.758  1.00  0.00     0.173 A 
ATOM     72  F   UNL A   1      46.314  27.491  29.216  1.00  0.00    -0.203 F 
ATOM     73  C   UNL A   1      45.499  26.514  27.240  1.00  0.00     0.198 A 
ATOM     74  C   UNL A   1      43.933  27.709  25.875  1.00  0.00     0.198 A 
ATOM     75  F   UNL A   1      43.166  29.837  26.529  1.00  0.00    -0.203 F 
ATOM     76  F   UNL A   1      46.189  25.397  27.515  1.00  0.00    -0.200 F 
ATOM     77  C   UNL A   1      44.667  26.560  26.135  1.00  0.00     0.200 A 
ATOM     78  F   UNL A   1      43.101  27.738  24.825  1.00  0.00    -0.200 F 
ATOM     79  F   UNL A   1      44.533  25.482  25.349  1.00  0.00    -0.200 F 
ENDBRANCH  45  69
BRANCH  57  80
ATOM     80  C   UNL A   1      42.842  35.575  29.102  1.00  0.00     0.064 A 
ATOM     81  C   UNL A   1      42.139  36.089  27.997  1.00  0.00     0.173 A 
ATOM     82  C   UNL A   1      43.518  36.545  29.883  1.00  0.00     0.173 A 
ATOM     83  F   UNL A   1      41.344  35.314  27.249  1.00  0.00    -0.203 F 
ATOM     84  C   UNL A   1      42.172  37.447  27.659  1.00  0.00     0.198 A 
ATOM     85  C   UNL A   1      43.499  37.907  29.579  1.00  0.00     0.198 A 
ATOM     86  F   UNL A   1      44.197  36.206  30.989  1.00  0.00    -0.203 F 
ATOM     87  F   UNL A   1      41.520  37.874  26.567  1.00  0.00    -0.200 F 
ATOM     88  C   UNL A   1      42.842  38.356  28.455  1.00  0.00     0.200 A 
ATOM     89  F   UNL A   1      44.103  38.781  30.396  1.00  0.00    -0.200 F 
ATOM     90  F   UNL A   1      42.831  39.661  28.153  1.00  0.00    -0.200 F 
ENDBRANCH  57  80
ENDBRANCH  31  32
ENDBRANCH  23  26
ENDBRANCH  21  22
ENDBRANCH   1  21
TORSDOF 12
ENDMDL
