MODEL 1
REMARK VINA RESULT:     -11.9      0.000      0.000
REMARK SMILES C[C@@](COc1ccccc1)(NC(=O)CN1CSCC1=O)C(=O)NCCCNC(=O)c1ccc(-c2c3nc(c(-c4c(F)c(F)c(F)c(F)c4F)c4ccc([nH]4)c(-c4c(F)c(F)c(F)c(F)c4F)c4nc(c(-c5c(F)c(F)c(F)c(F)c5F)c5ccc2[nH]5)C=C4)C=C3)cc1
REMARK SMILES IDX 24 1 23 2 21 3 22 4 2 6 1 7 3 8 4 9 5 10 6 11 10 12 7 13
REMARK SMILES IDX 9 14 8 15 11 16 12 17 13 19 14 20 15 21 16 22 19 23 17 24
REMARK SMILES IDX 18 25 20 26 25 27 26 28 27 29 28 30 29 32 30 33 31 34 92 35
REMARK SMILES IDX 32 36 91 37 33 38 34 39 35 40 85 41 36 42 90 43 84 44 86 45
REMARK SMILES IDX 37 46 89 47 83 48 82 49 38 51 70 52 50 53 69 54 51 55 54 56
REMARK SMILES IDX 68 57 87 58 52 59 53 60 67 62 88 63 55 64 39 65 40 66 48 67
REMARK SMILES IDX 41 68 42 69 46 70 49 71 43 72 44 73 47 74 45 75 71 76 72 77
REMARK SMILES IDX 80 78 73 79 74 80 78 81 81 82 75 83 76 84 79 85 77 86 56 87
REMARK SMILES IDX 57 88 65 89 58 90 59 91 63 92 66 93 60 94 61 95 64 96 62 97
REMARK H PARENT 23 5 11 18 27 31 86 50 54 61
REMARK Flexibility Score: inf
ROOT
ATOM      1  C   UNL A   1      31.234  30.831  26.097  1.00  0.00     0.117 C 
ENDROOT
BRANCH   1   2
ATOM      2  N   UNL A   1      32.397  30.326  25.385  1.00  0.00    -0.354 N 
ATOM      3  C   UNL A   1      32.820  29.062  25.108  1.00  0.00     0.249 C 
ATOM      4  O   UNL A   1      33.628  28.948  24.179  1.00  0.00    -0.272 OA
ATOM      5  H   UNL A   1      32.990  31.032  25.039  1.00  0.00     0.163 HD
BRANCH   3   6
ATOM      6  C   UNL A   1      32.208  27.810  25.778  1.00  0.00     0.150 C 
ATOM      7  C   UNL A   1      32.075  28.049  27.298  1.00  0.00     0.049 C 
BRANCH   6   8
ATOM      8  C   UNL A   1      33.245  26.660  25.546  1.00  0.00     0.267 C 
BRANCH   8   9
ATOM      9  O   UNL A   1      32.783  25.423  26.135  1.00  0.00    -0.491 OA
BRANCH   9  10
ATOM     10  C   UNL A   1      33.746  24.456  26.089  1.00  0.00     0.119 A 
ATOM     11  C   UNL A   1      33.582  23.258  26.780  1.00  0.00     0.046 A 
ATOM     12  C   UNL A   1      34.915  24.711  25.377  1.00  0.00     0.046 A 
ATOM     13  C   UNL A   1      34.569  22.276  26.689  1.00  0.00     0.004 A 
ATOM     14  C   UNL A   1      35.885  23.719  25.262  1.00  0.00     0.004 A 
ATOM     15  C   UNL A   1      35.709  22.498  25.914  1.00  0.00     0.000 A 
ENDBRANCH   9  10
ENDBRANCH   8   9
ENDBRANCH   6   8
BRANCH   6  16
ATOM     16  N   UNL A   1      30.898  27.384  25.219  1.00  0.00    -0.338 N 
ATOM     17  C   UNL A   1      30.450  27.162  23.957  1.00  0.00     0.240 C 
ATOM     18  H   UNL A   1      30.213  27.230  25.909  1.00  0.00     0.164 HD
ATOM     19  O   UNL A   1      29.227  27.168  23.785  1.00  0.00    -0.273 OA
BRANCH  17  20
ATOM     20  C   UNL A   1      31.374  26.755  22.810  1.00  0.00     0.220 C 
BRANCH  20  21
ATOM     21  N   UNL A   1      31.770  25.366  22.729  1.00  0.00    -0.323 N 
ATOM     22  C   UNL A   1      30.984  24.359  23.389  1.00  0.00     0.190 C 
ATOM     23  C   UNL A   1      33.015  25.001  22.246  1.00  0.00     0.233 C 
ATOM     24  S   UNL A   1      31.849  22.796  23.202  1.00  0.00    -0.130 SA
ATOM     25  C   UNL A   1      33.193  23.502  22.215  1.00  0.00     0.171 C 
ATOM     26  O   UNL A   1      33.862  25.796  21.861  1.00  0.00    -0.274 OA
ENDBRANCH  20  21
ENDBRANCH  17  20
ENDBRANCH   6  16
ENDBRANCH   3   6
ENDBRANCH   1   2
BRANCH   1  27
ATOM     27  C   UNL A   1      31.252  32.330  26.371  1.00  0.00     0.042 C 
BRANCH  27  28
ATOM     28  C   UNL A   1      32.441  32.832  27.183  1.00  0.00     0.118 C 
BRANCH  28  29
ATOM     29  N   UNL A   1      32.296  34.216  27.601  1.00  0.00    -0.352 N 
ATOM     30  C   UNL A   1      32.970  34.925  28.562  1.00  0.00     0.251 C 
ATOM     31  H   UNL A   1      31.604  34.723  27.119  1.00  0.00     0.163 HD
ATOM     32  O   UNL A   1      32.575  36.046  28.875  1.00  0.00    -0.269 OA
BRANCH  30  33
ATOM     33  C   UNL A   1      34.148  34.349  29.247  1.00  0.00     0.039 A 
ATOM     34  C   UNL A   1      33.944  33.623  30.424  1.00  0.00     0.014 A 
ATOM     35  C   UNL A   1      35.447  34.551  28.771  1.00  0.00     0.014 A 
ATOM     36  C   UNL A   1      35.033  33.053  31.089  1.00  0.00     0.010 A 
ATOM     37  C   UNL A   1      36.522  33.917  29.391  1.00  0.00     0.010 A 
ATOM     38  C   UNL A   1      36.329  33.167  30.561  1.00  0.00    -0.014 A 
BRANCH  38  39
ATOM     39  C   UNL A   1      37.487  32.519  31.232  1.00  0.00     0.031 A 
ATOM     40  C   UNL A   1      38.221  31.391  30.563  1.00  0.00     0.074 A 
ATOM     41  C   UNL A   1      37.853  32.920  32.466  1.00  0.00     0.049 A 
ATOM     42  N   UNL A   1      39.227  30.678  31.005  1.00  0.00    -0.248 NA
ATOM     43  C   UNL A   1      37.747  30.994  29.229  1.00  0.00     0.031 C 
ATOM     44  C   UNL A   1      37.198  33.975  33.239  1.00  0.00     0.029 A 
ATOM     45  N   UNL A   1      38.861  32.482  33.288  1.00  0.00    -0.354 N 
ATOM     46  C   UNL A   1      39.495  29.745  30.012  1.00  0.00     0.074 A 
ATOM     47  C   UNL A   1      38.514  29.944  28.969  1.00  0.00     0.031 C 
ATOM     48  C   UNL A   1      37.836  34.121  34.412  1.00  0.00     0.029 A 
ATOM     49  C   UNL A   1      38.920  33.145  34.489  1.00  0.00     0.049 A 
ATOM     50  H   UNL A   1      39.484  31.760  33.040  1.00  0.00     0.167 HD
ATOM     51  C   UNL A   1      40.486  28.821  29.963  1.00  0.00     0.037 A 
ATOM     52  C   UNL A   1      39.750  32.983  35.537  1.00  0.00     0.037 A 
ATOM     53  C   UNL A   1      41.475  28.637  30.995  1.00  0.00     0.049 A 
ATOM     54  C   UNL A   1      40.831  31.939  35.466  1.00  0.00     0.074 A 
ATOM     55  C   UNL A   1      42.552  27.767  31.012  1.00  0.00     0.029 A 
ATOM     56  N   UNL A   1      41.503  29.331  32.196  1.00  0.00    -0.354 N 
ATOM     57  N   UNL A   1      41.118  31.110  34.492  1.00  0.00    -0.248 NA
ATOM     58  C   UNL A   1      41.709  31.814  36.638  1.00  0.00     0.031 C 
ATOM     59  C   UNL A   1      43.200  27.898  32.245  1.00  0.00     0.029 A 
ATOM     60  C   UNL A   1      42.564  28.890  32.972  1.00  0.00     0.049 A 
ATOM     61  H   UNL A   1      40.865  30.033  32.458  1.00  0.00     0.167 HD
ATOM     62  C   UNL A   1      42.224  30.387  34.919  1.00  0.00     0.074 A 
ATOM     63  C   UNL A   1      42.564  30.886  36.236  1.00  0.00     0.031 C 
ATOM     64  C   UNL A   1      42.896  29.399  34.279  1.00  0.00     0.037 A 
BRANCH  51  65
ATOM     65  C   UNL A   1      40.548  27.935  28.752  1.00  0.00     0.064 A 
ATOM     66  C   UNL A   1      41.334  28.265  27.636  1.00  0.00     0.173 A 
ATOM     67  C   UNL A   1      39.835  26.727  28.715  1.00  0.00     0.173 A 
ATOM     68  F   UNL A   1      42.029  29.413  27.615  1.00  0.00    -0.203 F 
ATOM     69  C   UNL A   1      41.377  27.436  26.517  1.00  0.00     0.198 A 
ATOM     70  C   UNL A   1      39.906  25.884  27.608  1.00  0.00     0.198 A 
ATOM     71  F   UNL A   1      39.074  26.358  29.757  1.00  0.00    -0.203 F 
ATOM     72  F   UNL A   1      42.090  27.800  25.444  1.00  0.00    -0.200 F 
ATOM     73  C   UNL A   1      40.668  26.244  26.507  1.00  0.00     0.200 A 
ATOM     74  F   UNL A   1      39.233  24.726  27.606  1.00  0.00    -0.200 F 
ATOM     75  F   UNL A   1      40.713  25.445  25.433  1.00  0.00    -0.200 F 
ENDBRANCH  51  65
BRANCH  52  76
ATOM     76  C   UNL A   1      39.605  33.849  36.736  1.00  0.00     0.064 A 
ATOM     77  C   UNL A   1      38.833  33.437  37.831  1.00  0.00     0.173 A 
ATOM     78  C   UNL A   1      40.232  35.100  36.815  1.00  0.00     0.173 A 
ATOM     79  F   UNL A   1      38.195  32.258  37.795  1.00  0.00    -0.203 F 
ATOM     80  C   UNL A   1      38.679  34.251  38.951  1.00  0.00     0.198 A 
ATOM     81  C   UNL A   1      40.103  35.902  37.947  1.00  0.00     0.198 A 
ATOM     82  F   UNL A   1      40.987  35.539  35.796  1.00  0.00    -0.203 F 
ATOM     83  F   UNL A   1      37.899  33.853  39.965  1.00  0.00    -0.200 F 
ATOM     84  C   UNL A   1      39.320  35.479  39.012  1.00  0.00     0.200 A 
ATOM     85  F   UNL A   1      40.735  37.081  38.007  1.00  0.00    -0.200 F 
ATOM     86  F   UNL A   1      39.178  36.260  40.092  1.00  0.00    -0.200 F 
ENDBRANCH  52  76
BRANCH  64  87
ATOM     87  C   UNL A   1      44.091  28.814  34.975  1.00  0.00     0.064 A 
ATOM     88  C   UNL A   1      45.378  29.349  34.811  1.00  0.00     0.173 A 
ATOM     89  C   UNL A   1      43.939  27.726  35.850  1.00  0.00     0.173 A 
ATOM     90  F   UNL A   1      45.579  30.379  33.976  1.00  0.00    -0.203 F 
ATOM     91  C   UNL A   1      46.471  28.800  35.475  1.00  0.00     0.198 A 
ATOM     92  C   UNL A   1      45.030  27.200  36.536  1.00  0.00     0.198 A 
ATOM     93  F   UNL A   1      42.729  27.181  36.048  1.00  0.00    -0.203 F 
ATOM     94  F   UNL A   1      47.698  29.295  35.265  1.00  0.00    -0.200 F 
ATOM     95  C   UNL A   1      46.296  27.731  36.343  1.00  0.00     0.200 A 
ATOM     96  F   UNL A   1      44.856  26.177  37.385  1.00  0.00    -0.200 F 
ATOM     97  F   UNL A   1      47.348  27.208  36.986  1.00  0.00    -0.200 F 
ENDBRANCH  64  87
ENDBRANCH  38  39
ENDBRANCH  30  33
ENDBRANCH  28  29
ENDBRANCH  27  28
ENDBRANCH   1  27
TORSDOF 16
ENDMDL
MODEL 2
REMARK VINA RESULT:     -11.9      5.145     10.206
REMARK SMILES C[C@@](COc1ccccc1)(NC(=O)CN1CSCC1=O)C(=O)NCCCNC(=O)c1ccc(-c2c3nc(c(-c4c(F)c(F)c(F)c(F)c4F)c4ccc([nH]4)c(-c4c(F)c(F)c(F)c(F)c4F)c4nc(c(-c5c(F)c(F)c(F)c(F)c5F)c5ccc2[nH]5)C=C4)C=C3)cc1
REMARK SMILES IDX 24 1 23 2 21 3 22 4 2 6 1 7 3 8 4 9 5 10 6 11 10 12 7 13
REMARK SMILES IDX 9 14 8 15 11 16 12 17 13 19 14 20 15 21 16 22 19 23 17 24
REMARK SMILES IDX 18 25 20 26 25 27 26 28 27 29 28 30 29 32 30 33 31 34 92 35
REMARK SMILES IDX 32 36 91 37 33 38 34 39 35 40 85 41 36 42 90 43 84 44 86 45
REMARK SMILES IDX 37 46 89 47 83 48 82 49 38 51 70 52 50 53 69 54 51 55 54 56
REMARK SMILES IDX 68 57 87 58 52 59 53 60 67 62 88 63 55 64 39 65 40 66 48 67
REMARK SMILES IDX 41 68 42 69 46 70 49 71 43 72 44 73 47 74 45 75 71 76 72 77
REMARK SMILES IDX 80 78 73 79 74 80 78 81 81 82 75 83 76 84 79 85 77 86 56 87
REMARK SMILES IDX 57 88 65 89 58 90 59 91 63 92 66 93 60 94 61 95 64 96 62 97
REMARK H PARENT 23 5 11 18 27 31 86 50 54 61
REMARK Flexibility Score: inf
ROOT
ATOM      1  C   UNL A   1      36.478  20.582  24.816  1.00  0.00     0.117 C 
ENDROOT
BRANCH   1   2
ATOM      2  N   UNL A   1      36.279  21.469  25.950  1.00  0.00    -0.354 N 
ATOM      3  C   UNL A   1      35.453  22.534  26.143  1.00  0.00     0.249 C 
ATOM      4  O   UNL A   1      35.235  22.852  27.318  1.00  0.00    -0.272 OA
ATOM      5  H   UNL A   1      36.849  21.260  26.725  1.00  0.00     0.163 HD
BRANCH   3   6
ATOM      6  C   UNL A   1      34.677  23.209  24.988  1.00  0.00     0.150 C 
ATOM      7  C   UNL A   1      35.670  23.924  24.046  1.00  0.00     0.049 C 
BRANCH   6   8
ATOM      8  C   UNL A   1      33.769  24.290  25.667  1.00  0.00     0.267 C 
BRANCH   8   9
ATOM      9  O   UNL A   1      34.315  25.615  25.475  1.00  0.00    -0.491 OA
BRANCH   9  10
ATOM     10  C   UNL A   1      33.523  26.571  26.045  1.00  0.00     0.119 A 
ATOM     11  C   UNL A   1      32.196  26.295  26.364  1.00  0.00     0.046 A 
ATOM     12  C   UNL A   1      34.057  27.839  26.256  1.00  0.00     0.046 A 
ATOM     13  C   UNL A   1      31.422  27.281  26.975  1.00  0.00     0.004 A 
ATOM     14  C   UNL A   1      33.292  28.813  26.893  1.00  0.00     0.004 A 
ATOM     15  C   UNL A   1      31.975  28.531  27.258  1.00  0.00     0.000 A 
ENDBRANCH   9  10
ENDBRANCH   8   9
ENDBRANCH   6   8
BRANCH   6  16
ATOM     16  N   UNL A   1      33.810  22.292  24.202  1.00  0.00    -0.338 N 
ATOM     17  C   UNL A   1      32.925  22.482  23.190  1.00  0.00     0.240 C 
ATOM     18  H   UNL A   1      33.896  21.349  24.473  1.00  0.00     0.164 HD
ATOM     19  O   UNL A   1      32.098  21.586  22.990  1.00  0.00    -0.273 OA
BRANCH  17  20
ATOM     20  C   UNL A   1      33.020  23.657  22.217  1.00  0.00     0.220 C 
BRANCH  20  21
ATOM     21  N   UNL A   1      32.341  24.882  22.576  1.00  0.00    -0.323 N 
ATOM     22  C   UNL A   1      31.007  24.829  23.112  1.00  0.00     0.190 C 
ATOM     23  C   UNL A   1      32.835  26.116  22.192  1.00  0.00     0.233 C 
ATOM     24  S   UNL A   1      30.436  26.523  23.294  1.00  0.00    -0.130 SA
ATOM     25  C   UNL A   1      31.987  27.253  22.712  1.00  0.00     0.171 C 
ATOM     26  O   UNL A   1      33.854  26.272  21.534  1.00  0.00    -0.274 OA
ENDBRANCH  20  21
ENDBRANCH  17  20
ENDBRANCH   6  16
ENDBRANCH   3   6
ENDBRANCH   1   2
BRANCH   1  27
ATOM     27  C   UNL A   1      37.652  19.620  24.954  1.00  0.00     0.042 C 
BRANCH  27  28
ATOM     28  C   UNL A   1      38.871  20.177  25.680  1.00  0.00     0.118 C 
BRANCH  28  29
ATOM     29  N   UNL A   1      39.947  19.207  25.804  1.00  0.00    -0.352 N 
ATOM     30  C   UNL A   1      41.274  19.390  26.099  1.00  0.00     0.251 C 
ATOM     31  H   UNL A   1      39.681  18.273  25.649  1.00  0.00     0.163 HD
ATOM     32  O   UNL A   1      42.054  18.447  25.989  1.00  0.00    -0.269 OA
BRANCH  30  33
ATOM     33  C   UNL A   1      41.784  20.713  26.522  1.00  0.00     0.039 A 
ATOM     34  C   UNL A   1      42.189  21.616  25.536  1.00  0.00     0.014 A 
ATOM     35  C   UNL A   1      41.908  21.056  27.872  1.00  0.00     0.014 A 
ATOM     36  C   UNL A   1      42.662  22.880  25.899  1.00  0.00     0.010 A 
ATOM     37  C   UNL A   1      42.305  22.343  28.229  1.00  0.00     0.010 A 
ATOM     38  C   UNL A   1      42.695  23.267  27.248  1.00  0.00    -0.014 A 
BRANCH  38  39
ATOM     39  C   UNL A   1      43.146  24.628  27.641  1.00  0.00     0.031 A 
ATOM     40  C   UNL A   1      42.142  25.693  27.984  1.00  0.00     0.074 A 
ATOM     41  C   UNL A   1      44.462  24.918  27.650  1.00  0.00     0.049 A 
ATOM     42  N   UNL A   1      42.342  26.946  28.313  1.00  0.00    -0.248 NA
ATOM     43  C   UNL A   1      40.724  25.308  27.928  1.00  0.00     0.031 C 
ATOM     44  C   UNL A   1      45.534  23.986  27.299  1.00  0.00     0.029 A 
ATOM     45  N   UNL A   1      45.121  26.081  27.959  1.00  0.00    -0.354 N 
ATOM     46  C   UNL A   1      41.079  27.497  28.488  1.00  0.00     0.074 A 
ATOM     47  C   UNL A   1      40.119  26.461  28.178  1.00  0.00     0.031 C 
ATOM     48  C   UNL A   1      46.717  24.605  27.438  1.00  0.00     0.029 A 
ATOM     49  C   UNL A   1      46.487  25.987  27.849  1.00  0.00     0.049 A 
ATOM     50  H   UNL A   1      44.659  26.907  28.234  1.00  0.00     0.167 HD
ATOM     51  C   UNL A   1      40.749  28.747  28.896  1.00  0.00     0.037 A 
ATOM     52  C   UNL A   1      47.446  26.911  28.051  1.00  0.00     0.037 A 
ATOM     53  C   UNL A   1      41.707  29.772  29.223  1.00  0.00     0.049 A 
ATOM     54  C   UNL A   1      47.054  28.297  28.486  1.00  0.00     0.074 A 
ATOM     55  C   UNL A   1      41.473  31.051  29.699  1.00  0.00     0.029 A 
ATOM     56  N   UNL A   1      43.083  29.637  29.102  1.00  0.00    -0.354 N 
ATOM     57  N   UNL A   1      45.860  28.785  28.716  1.00  0.00    -0.248 NA
ATOM     58  C   UNL A   1      48.146  29.258  28.697  1.00  0.00     0.031 C 
ATOM     59  C   UNL A   1      42.704  31.706  29.816  1.00  0.00     0.029 A 
ATOM     60  C   UNL A   1      43.708  30.818  29.469  1.00  0.00     0.049 A 
ATOM     61  H   UNL A   1      43.546  28.822  28.800  1.00  0.00     0.167 HD
ATOM     62  C   UNL A   1      46.056  30.097  29.127  1.00  0.00     0.074 A 
ATOM     63  C   UNL A   1      47.486  30.324  29.127  1.00  0.00     0.031 C 
ATOM     64  C   UNL A   1      45.134  31.029  29.471  1.00  0.00     0.037 A 
BRANCH  51  65
ATOM     65  C   UNL A   1      39.288  29.077  29.008  1.00  0.00     0.064 A 
ATOM     66  C   UNL A   1      38.531  29.463  27.891  1.00  0.00     0.173 A 
ATOM     67  C   UNL A   1      38.629  28.980  30.243  1.00  0.00     0.173 A 
ATOM     68  F   UNL A   1      39.114  29.581  26.688  1.00  0.00    -0.203 F 
ATOM     69  C   UNL A   1      37.178  29.772  28.013  1.00  0.00     0.198 A 
ATOM     70  C   UNL A   1      37.268  29.257  30.355  1.00  0.00     0.198 A 
ATOM     71  F   UNL A   1      39.302  28.607  31.343  1.00  0.00    -0.203 F 
ATOM     72  F   UNL A   1      36.490  30.192  26.942  1.00  0.00    -0.200 F 
ATOM     73  C   UNL A   1      36.547  29.663  29.243  1.00  0.00     0.200 A 
ATOM     74  F   UNL A   1      36.657  29.136  31.541  1.00  0.00    -0.200 F 
ATOM     75  F   UNL A   1      35.245  29.956  29.357  1.00  0.00    -0.200 F 
ENDBRANCH  51  65
BRANCH  52  76
ATOM     76  C   UNL A   1      48.875  26.546  27.867  1.00  0.00     0.064 A 
ATOM     77  C   UNL A   1      49.445  26.494  26.587  1.00  0.00     0.173 A 
ATOM     78  C   UNL A   1      49.699  26.243  28.960  1.00  0.00     0.173 A 
ATOM     79  F   UNL A   1      48.692  26.754  25.508  1.00  0.00    -0.203 F 
ATOM     80  C   UNL A   1      50.779  26.136  26.406  1.00  0.00     0.198 A 
ATOM     81  C   UNL A   1      51.041  25.913  28.781  1.00  0.00     0.198 A 
ATOM     82  F   UNL A   1      49.204  26.282  30.207  1.00  0.00    -0.203 F 
ATOM     83  F   UNL A   1      51.286  26.051  25.169  1.00  0.00    -0.200 F 
ATOM     84  C   UNL A   1      51.578  25.853  27.504  1.00  0.00     0.200 A 
ATOM     85  F   UNL A   1      51.813  25.654  29.845  1.00  0.00    -0.200 F 
ATOM     86  F   UNL A   1      52.863  25.515  27.331  1.00  0.00    -0.200 F 
ENDBRANCH  52  76
BRANCH  64  87
ATOM     87  C   UNL A   1      45.643  32.371  29.914  1.00  0.00     0.064 A 
ATOM     88  C   UNL A   1      45.845  33.421  29.006  1.00  0.00     0.173 A 
ATOM     89  C   UNL A   1      45.895  32.621  31.272  1.00  0.00     0.173 A 
ATOM     90  F   UNL A   1      45.632  33.231  27.695  1.00  0.00    -0.203 F 
ATOM     91  C   UNL A   1      46.307  34.662  29.437  1.00  0.00     0.198 A 
ATOM     92  C   UNL A   1      46.326  33.871  31.704  1.00  0.00     0.198 A 
ATOM     93  F   UNL A   1      45.712  31.653  32.184  1.00  0.00    -0.203 F 
ATOM     94  F   UNL A   1      46.541  35.635  28.546  1.00  0.00    -0.200 F 
ATOM     95  C   UNL A   1      46.540  34.889  30.786  1.00  0.00     0.200 A 
ATOM     96  F   UNL A   1      46.538  34.093  33.009  1.00  0.00    -0.200 F 
ATOM     97  F   UNL A   1      46.978  36.085  31.200  1.00  0.00    -0.200 F 
ENDBRANCH  64  87
ENDBRANCH  38  39
ENDBRANCH  30  33
ENDBRANCH  28  29
ENDBRANCH  27  28
ENDBRANCH   1  27
TORSDOF 16
ENDMDL
MODEL 3
REMARK VINA RESULT:     -11.8      0.842      1.677
REMARK SMILES C[C@@](COc1ccccc1)(NC(=O)CN1CSCC1=O)C(=O)NCCCNC(=O)c1ccc(-c2c3nc(c(-c4c(F)c(F)c(F)c(F)c4F)c4ccc([nH]4)c(-c4c(F)c(F)c(F)c(F)c4F)c4nc(c(-c5c(F)c(F)c(F)c(F)c5F)c5ccc2[nH]5)C=C4)C=C3)cc1
REMARK SMILES IDX 24 1 23 2 21 3 22 4 2 6 1 7 3 8 4 9 5 10 6 11 10 12 7 13
REMARK SMILES IDX 9 14 8 15 11 16 12 17 13 19 14 20 15 21 16 22 19 23 17 24
REMARK SMILES IDX 18 25 20 26 25 27 26 28 27 29 28 30 29 32 30 33 31 34 92 35
REMARK SMILES IDX 32 36 91 37 33 38 34 39 35 40 85 41 36 42 90 43 84 44 86 45
REMARK SMILES IDX 37 46 89 47 83 48 82 49 38 51 70 52 50 53 69 54 51 55 54 56
REMARK SMILES IDX 68 57 87 58 52 59 53 60 67 62 88 63 55 64 39 65 40 66 48 67
REMARK SMILES IDX 41 68 42 69 46 70 49 71 43 72 44 73 47 74 45 75 71 76 72 77
REMARK SMILES IDX 80 78 73 79 74 80 78 81 81 82 75 83 76 84 79 85 77 86 56 87
REMARK SMILES IDX 57 88 65 89 58 90 59 91 63 92 66 93 60 94 61 95 64 96 62 97
REMARK H PARENT 23 5 11 18 27 31 86 50 54 61
REMARK Flexibility Score: inf
ROOT
ATOM      1  C   UNL A   1      31.442  30.493  26.100  1.00  0.00     0.117 C 
ENDROOT
BRANCH   1   2
ATOM      2  N   UNL A   1      32.587  30.142  25.276  1.00  0.00    -0.354 N 
ATOM      3  C   UNL A   1      32.996  28.961  24.736  1.00  0.00     0.249 C 
ATOM      4  O   UNL A   1      33.784  29.037  23.786  1.00  0.00    -0.272 OA
ATOM      5  H   UNL A   1      33.177  30.903  25.069  1.00  0.00     0.163 HD
BRANCH   3   6
ATOM      6  C   UNL A   1      32.390  27.599  25.149  1.00  0.00     0.150 C 
ATOM      7  C   UNL A   1      32.439  27.455  26.686  1.00  0.00     0.049 C 
BRANCH   6   8
ATOM      8  C   UNL A   1      33.325  26.514  24.517  1.00  0.00     0.267 C 
BRANCH   8   9
ATOM      9  O   UNL A   1      34.054  25.803  25.543  1.00  0.00    -0.491 OA
BRANCH   9  10
ATOM     10  C   UNL A   1      34.778  24.770  25.018  1.00  0.00     0.119 A 
ATOM     11  C   UNL A   1      35.704  24.083  25.800  1.00  0.00     0.046 A 
ATOM     12  C   UNL A   1      34.606  24.450  23.674  1.00  0.00     0.046 A 
ATOM     13  C   UNL A   1      36.405  23.012  25.246  1.00  0.00     0.004 A 
ATOM     14  C   UNL A   1      35.284  23.362  23.131  1.00  0.00     0.004 A 
ATOM     15  C   UNL A   1      36.180  22.639  23.919  1.00  0.00     0.000 A 
ENDBRANCH   9  10
ENDBRANCH   8   9
ENDBRANCH   6   8
BRANCH   6  16
ATOM     16  N   UNL A   1      31.003  27.365  24.666  1.00  0.00    -0.338 N 
ATOM     17  C   UNL A   1      30.175  26.290  24.693  1.00  0.00     0.240 C 
ATOM     18  H   UNL A   1      30.602  28.156  24.238  1.00  0.00     0.164 HD
ATOM     19  O   UNL A   1      29.227  26.290  23.899  1.00  0.00    -0.273 OA
BRANCH  17  20
ATOM     20  C   UNL A   1      30.277  25.192  25.751  1.00  0.00     0.220 C 
BRANCH  20  21
ATOM     21  N   UNL A   1      31.055  24.017  25.426  1.00  0.00    -0.323 N 
ATOM     22  C   UNL A   1      31.028  23.489  24.088  1.00  0.00     0.190 C 
ATOM     23  C   UNL A   1      31.630  23.239  26.416  1.00  0.00     0.233 C 
ATOM     24  S   UNL A   1      31.977  21.964  24.095  1.00  0.00    -0.130 SA
ATOM     25  C   UNL A   1      32.428  22.092  25.843  1.00  0.00     0.171 C 
ATOM     26  O   UNL A   1      31.530  23.469  27.613  1.00  0.00    -0.274 OA
ENDBRANCH  20  21
ENDBRANCH  17  20
ENDBRANCH   6  16
ENDBRANCH   3   6
ENDBRANCH   1   2
BRANCH   1  27
ATOM     27  C   UNL A   1      31.341  31.970  26.460  1.00  0.00     0.042 C 
BRANCH  27  28
ATOM     28  C   UNL A   1      32.626  32.607  26.976  1.00  0.00     0.118 C 
BRANCH  28  29
ATOM     29  N   UNL A   1      32.437  33.973  27.433  1.00  0.00    -0.352 N 
ATOM     30  C   UNL A   1      33.061  34.665  28.439  1.00  0.00     0.251 C 
ATOM     31  H   UNL A   1      31.751  34.481  26.943  1.00  0.00     0.163 HD
ATOM     32  O   UNL A   1      32.631  35.766  28.774  1.00  0.00    -0.269 OA
BRANCH  30  33
ATOM     33  C   UNL A   1      34.227  34.091  29.147  1.00  0.00     0.039 A 
ATOM     34  C   UNL A   1      33.995  33.234  30.226  1.00  0.00     0.014 A 
ATOM     35  C   UNL A   1      35.538  34.419  28.790  1.00  0.00     0.014 A 
ATOM     36  C   UNL A   1      35.073  32.663  30.908  1.00  0.00     0.010 A 
ATOM     37  C   UNL A   1      36.610  33.789  29.420  1.00  0.00     0.010 A 
ATOM     38  C   UNL A   1      36.390  32.910  30.491  1.00  0.00    -0.014 A 
BRANCH  38  39
ATOM     39  C   UNL A   1      37.542  32.266  31.176  1.00  0.00     0.031 A 
ATOM     40  C   UNL A   1      38.283  31.135  30.518  1.00  0.00     0.074 A 
ATOM     41  C   UNL A   1      37.895  32.671  32.412  1.00  0.00     0.049 A 
ATOM     42  N   UNL A   1      39.286  30.425  30.973  1.00  0.00    -0.248 NA
ATOM     43  C   UNL A   1      37.823  30.733  29.181  1.00  0.00     0.031 C 
ATOM     44  C   UNL A   1      37.231  33.728  33.175  1.00  0.00     0.029 A 
ATOM     45  N   UNL A   1      38.895  32.237  33.245  1.00  0.00    -0.354 N 
ATOM     46  C   UNL A   1      39.565  29.489  29.986  1.00  0.00     0.074 A 
ATOM     47  C   UNL A   1      38.594  29.684  28.932  1.00  0.00     0.031 C 
ATOM     48  C   UNL A   1      37.858  33.879  34.353  1.00  0.00     0.029 A 
ATOM     49  C   UNL A   1      38.942  32.904  34.445  1.00  0.00     0.049 A 
ATOM     50  H   UNL A   1      39.521  31.514  33.006  1.00  0.00     0.167 HD
ATOM     51  C   UNL A   1      40.557  28.565  29.950  1.00  0.00     0.037 A 
ATOM     52  C   UNL A   1      39.761  32.746  35.502  1.00  0.00     0.037 A 
ATOM     53  C   UNL A   1      41.535  28.386  30.992  1.00  0.00     0.049 A 
ATOM     54  C   UNL A   1      40.844  31.702  35.445  1.00  0.00     0.074 A 
ATOM     55  C   UNL A   1      42.613  27.517  31.023  1.00  0.00     0.029 A 
ATOM     56  N   UNL A   1      41.551  29.084  32.191  1.00  0.00    -0.354 N 
ATOM     57  N   UNL A   1      41.141  30.870  34.477  1.00  0.00    -0.248 NA
ATOM     58  C   UNL A   1      41.709  31.583  36.626  1.00  0.00     0.031 C 
ATOM     59  C   UNL A   1      43.248  27.653  32.262  1.00  0.00     0.029 A 
ATOM     60  C   UNL A   1      42.604  28.646  32.979  1.00  0.00     0.049 A 
ATOM     61  H   UNL A   1      40.909  29.787  32.444  1.00  0.00     0.167 HD
ATOM     62  C   UNL A   1      42.243  30.150  34.918  1.00  0.00     0.074 A 
ATOM     63  C   UNL A   1      42.570  30.653  36.236  1.00  0.00     0.031 C 
ATOM     64  C   UNL A   1      42.923  29.160  34.288  1.00  0.00     0.037 A 
BRANCH  51  65
ATOM     65  C   UNL A   1      40.632  27.675  28.742  1.00  0.00     0.064 A 
ATOM     66  C   UNL A   1      39.890  26.487  28.654  1.00  0.00     0.173 A 
ATOM     67  C   UNL A   1      41.436  28.027  27.647  1.00  0.00     0.173 A 
ATOM     68  F   UNL A   1      39.112  26.099  29.677  1.00  0.00    -0.203 F 
ATOM     69  C   UNL A   1      39.975  25.668  27.531  1.00  0.00     0.198 A 
ATOM     70  C   UNL A   1      41.494  27.223  26.511  1.00  0.00     0.198 A 
ATOM     71  F   UNL A   1      42.161  29.156  27.673  1.00  0.00    -0.203 F 
ATOM     72  F   UNL A   1      39.300  24.512  27.494  1.00  0.00    -0.200 F 
ATOM     73  C   UNL A   1      40.772  26.040  26.458  1.00  0.00     0.200 A 
ATOM     74  F   UNL A   1      42.251  27.591  25.469  1.00  0.00    -0.200 F 
ATOM     75  F   UNL A   1      40.849  25.254  25.376  1.00  0.00    -0.200 F 
ENDBRANCH  51  65
BRANCH  52  76
ATOM     76  C   UNL A   1      39.603  33.616  36.696  1.00  0.00     0.064 A 
ATOM     77  C   UNL A   1      38.776  33.232  37.761  1.00  0.00     0.173 A 
ATOM     78  C   UNL A   1      40.272  34.844  36.800  1.00  0.00     0.173 A 
ATOM     79  F   UNL A   1      38.098  32.076  37.700  1.00  0.00    -0.203 F 
ATOM     80  C   UNL A   1      38.611  34.050  38.877  1.00  0.00     0.198 A 
ATOM     81  C   UNL A   1      40.129  35.649  37.929  1.00  0.00     0.198 A 
ATOM     82  F   UNL A   1      41.078  35.256  35.810  1.00  0.00    -0.203 F 
ATOM     83  F   UNL A   1      37.781  33.679  39.861  1.00  0.00    -0.200 F 
ATOM     84  C   UNL A   1      39.293  35.254  38.963  1.00  0.00     0.200 A 
ATOM     85  F   UNL A   1      40.801  36.805  38.014  1.00  0.00    -0.200 F 
ATOM     86  F   UNL A   1      39.139  36.039  40.038  1.00  0.00    -0.200 F 
ENDBRANCH  52  76
BRANCH  64  87
ATOM     87  C   UNL A   1      44.111  28.579  34.998  1.00  0.00     0.064 A 
ATOM     88  C   UNL A   1      45.391  29.140  34.879  1.00  0.00     0.173 A 
ATOM     89  C   UNL A   1      43.958  27.467  35.841  1.00  0.00     0.173 A 
ATOM     90  F   UNL A   1      45.594  30.195  34.075  1.00  0.00    -0.203 F 
ATOM     91  C   UNL A   1      46.479  28.593  35.556  1.00  0.00     0.198 A 
ATOM     92  C   UNL A   1      45.041  26.943  36.541  1.00  0.00     0.198 A 
ATOM     93  F   UNL A   1      42.754  26.895  35.996  1.00  0.00    -0.203 F 
ATOM     94  F   UNL A   1      47.701  29.115  35.387  1.00  0.00    -0.200 F 
ATOM     95  C   UNL A   1      46.302  27.500  36.391  1.00  0.00     0.200 A 
ATOM     96  F   UNL A   1      44.866  25.895  37.359  1.00  0.00    -0.200 F 
ATOM     97  F   UNL A   1      47.348  26.979  37.047  1.00  0.00    -0.200 F 
ENDBRANCH  64  87
ENDBRANCH  38  39
ENDBRANCH  30  33
ENDBRANCH  28  29
ENDBRANCH  27  28
ENDBRANCH   1  27
TORSDOF 16
ENDMDL
