MODEL 1
REMARK VINA RESULT:     -14.8      0.000      0.000
REMARK SMILES O=C(NC1(C(=O)NCCCNC(=O)c2ccc(-c3c4nc(c(-c5c(F)c(F)c(F)c(F)c5F)c5ccc([nH]5)c(-c5c(F)c(F)c(F)c(F)c5F)c5nc(c(-c6c(F)c(F)c(F)c(F)c6F)c6ccc3[nH]6)C=C5)C=C4)cc2)CC[NH2+]CC1)OCC1c2ccccc2-c2ccccc21
REMARK SMILES IDX 8 1 7 2 5 3 6 4 4 6 77 7 81 8 78 9 80 10 79 11 3 14 1 15
REMARK SMILES IDX 2 16 82 18 83 19 84 20 85 21 96 22 86 23 90 24 91 25 95 26
REMARK SMILES IDX 87 27 89 28 92 29 94 30 88 31 93 32 9 33 10 34 11 35 12 36
REMARK SMILES IDX 13 38 14 39 15 40 76 41 16 42 75 43 17 44 18 45 19 46 69 47
REMARK SMILES IDX 20 48 74 49 68 50 70 51 21 52 73 53 67 54 66 55 22 57 54 58
REMARK SMILES IDX 34 59 53 60 35 61 38 62 52 63 71 64 36 65 37 66 51 68 72 69
REMARK SMILES IDX 39 70 23 71 24 72 32 73 25 74 26 75 30 76 33 77 27 78 28 79
REMARK SMILES IDX 31 80 29 81 55 82 56 83 64 84 57 85 58 86 62 87 65 88 59 89
REMARK SMILES IDX 60 90 63 91 61 92 40 93 41 94 49 95 42 96 43 97 47 98 50 99
REMARK SMILES IDX 44 100 45 101 48 102 46 103
REMARK H PARENT 7 5 79 12 79 13 3 17 11 37 70 56 38 67
REMARK Flexibility Score: inf
ROOT
ATOM      1  C   UNL A   1      31.348  30.463  25.625  1.00  0.00     0.117 C 
ENDROOT
BRANCH   1   2
ATOM      2  N   UNL A   1      30.667  30.270  24.368  1.00  0.00    -0.354 N 
ATOM      3  C   UNL A   1      30.801  29.324  23.409  1.00  0.00     0.246 C 
ATOM      4  O   UNL A   1      30.390  29.685  22.294  1.00  0.00    -0.272 OA
ATOM      5  H   UNL A   1      29.983  30.950  24.171  1.00  0.00     0.163 HD
BRANCH   3   6
ATOM      6  C   UNL A   1      31.193  27.816  23.620  1.00  0.00     0.132 C 
ATOM      7  C   UNL A   1      33.066  27.680  24.176  1.00  0.00     0.100 C 
ATOM      8  C   UNL A   1      29.953  26.537  24.383  1.00  0.00     0.100 C 
ATOM      9  C   UNL A   1      33.592  26.346  25.457  1.00  0.00     0.263 C 
ATOM     10  C   UNL A   1      30.661  25.153  25.620  1.00  0.00     0.263 C 
ATOM     11  N   UNL A   1      32.383  25.177  26.233  1.00  0.00    -0.346 N 
ATOM     12  H   UNL A   1      32.344  25.403  27.228  1.00  0.00     0.346 HD
ATOM     13  H   UNL A   1      32.743  24.254  25.992  1.00  0.00     0.346 HD
BRANCH   6  14
ATOM     14  N   UNL A   1      31.164  27.452  22.182  1.00  0.00    -0.307 N 
ATOM     15  O   UNL A   1      31.888  25.921  20.667  1.00  0.00    -0.225 OA
ATOM     16  C   UNL A   1      31.688  26.274  21.814  1.00  0.00     0.408 C 
ATOM     17  H   UNL A   1      30.769  28.059  21.516  1.00  0.00     0.168 HD
BRANCH  16  18
ATOM     18  O   UNL A   1      32.055  25.581  22.904  1.00  0.00    -0.449 OA
BRANCH  18  19
ATOM     19  C   UNL A   1      32.396  24.094  22.778  1.00  0.00     0.248 C 
BRANCH  19  20
ATOM     20  C   UNL A   1      33.600  22.682  23.844  1.00  0.00     0.088 C 
ATOM     21  C   UNL A   1      33.422  20.913  24.150  1.00  0.00    -0.029 A 
ATOM     22  C   UNL A   1      35.076  22.679  24.831  1.00  0.00    -0.029 A 
ATOM     23  C   UNL A   1      32.342  19.995  24.170  1.00  0.00     0.005 A 
ATOM     24  C   UNL A   1      34.684  20.375  24.490  1.00  0.00    -0.014 A 
ATOM     25  C   UNL A   1      35.672  21.395  24.717  1.00  0.00    -0.014 A 
ATOM     26  C   UNL A   1      35.818  23.576  25.607  1.00  0.00     0.005 A 
ATOM     27  C   UNL A   1      32.522  18.642  24.503  1.00  0.00     0.000 A 
ATOM     28  C   UNL A   1      34.861  19.019  24.817  1.00  0.00     0.009 A 
ATOM     29  C   UNL A   1      37.029  21.153  24.975  1.00  0.00     0.009 A 
ATOM     30  C   UNL A   1      37.189  23.352  25.863  1.00  0.00     0.000 A 
ATOM     31  C   UNL A   1      33.777  18.153  24.824  1.00  0.00     0.001 A 
ATOM     32  C   UNL A   1      37.812  22.170  25.485  1.00  0.00     0.001 A 
ENDBRANCH  19  20
ENDBRANCH  18  19
ENDBRANCH  16  18
ENDBRANCH   6  14
ENDBRANCH   3   6
ENDBRANCH   1   2
BRANCH   1  33
ATOM     33  C   UNL A   1      31.191  31.879  26.151  1.00  0.00     0.042 C 
BRANCH  33  34
ATOM     34  C   UNL A   1      32.392  32.336  26.954  1.00  0.00     0.118 C 
BRANCH  34  35
ATOM     35  N   UNL A   1      32.262  33.727  27.376  1.00  0.00    -0.352 N 
ATOM     36  C   UNL A   1      32.930  34.434  28.347  1.00  0.00     0.251 C 
ATOM     37  H   UNL A   1      31.585  34.244  26.884  1.00  0.00     0.163 HD
ATOM     38  O   UNL A   1      32.489  35.521  28.711  1.00  0.00    -0.269 OA
BRANCH  36  39
ATOM     39  C   UNL A   1      34.164  33.900  28.966  1.00  0.00     0.039 A 
ATOM     40  C   UNL A   1      35.399  34.477  28.647  1.00  0.00     0.014 A 
ATOM     41  C   UNL A   1      34.121  32.805  29.827  1.00  0.00     0.014 A 
ATOM     42  C   UNL A   1      36.571  33.995  29.242  1.00  0.00     0.010 A 
ATOM     43  C   UNL A   1      35.262  32.412  30.512  1.00  0.00     0.010 A 
ATOM     44  C   UNL A   1      36.506  32.983  30.209  1.00  0.00    -0.014 A 
BRANCH  44  45
ATOM     45  C   UNL A   1      37.711  32.440  30.887  1.00  0.00     0.031 A 
ATOM     46  C   UNL A   1      38.496  31.338  30.224  1.00  0.00     0.074 A 
ATOM     47  C   UNL A   1      38.034  32.844  32.129  1.00  0.00     0.049 A 
ATOM     48  N   UNL A   1      39.443  30.580  30.712  1.00  0.00    -0.248 NA
ATOM     49  C   UNL A   1      38.126  31.015  28.836  1.00  0.00     0.031 C 
ATOM     50  C   UNL A   1      37.332  33.874  32.896  1.00  0.00     0.029 A 
ATOM     51  N   UNL A   1      39.023  32.412  32.979  1.00  0.00    -0.354 N 
ATOM     52  C   UNL A   1      39.747  29.666  29.710  1.00  0.00     0.074 A 
ATOM     53  C   UNL A   1      38.845  29.927  28.611  1.00  0.00     0.031 C 
ATOM     54  C   UNL A   1      37.919  34.004  34.096  1.00  0.00     0.029 A 
ATOM     55  C   UNL A   1      39.004  33.032  34.204  1.00  0.00     0.049 A 
ATOM     56  H   UNL A   1      39.681  31.723  32.732  1.00  0.00     0.167 HD
ATOM     57  C   UNL A   1      40.706  28.710  29.698  1.00  0.00     0.037 A 
ATOM     58  C   UNL A   1      39.763  32.825  35.297  1.00  0.00     0.037 A 
ATOM     59  C   UNL A   1      41.631  28.488  30.777  1.00  0.00     0.049 A 
ATOM     60  C   UNL A   1      40.835  31.769  35.258  1.00  0.00     0.074 A 
ATOM     61  C   UNL A   1      42.685  27.595  30.841  1.00  0.00     0.029 A 
ATOM     62  N   UNL A   1      41.613  29.175  31.983  1.00  0.00    -0.354 N 
ATOM     63  N   UNL A   1      41.146  30.942  34.289  1.00  0.00    -0.248 NA
ATOM     64  C   UNL A   1      41.664  31.621  36.462  1.00  0.00     0.031 C 
ATOM     65  C   UNL A   1      43.278  27.710  32.103  1.00  0.00     0.029 A 
ATOM     66  C   UNL A   1      42.629  28.715  32.804  1.00  0.00     0.049 A 
ATOM     67  H   UNL A   1      40.973  29.886  32.219  1.00  0.00     0.167 HD
ATOM     68  C   UNL A   1      42.226  30.202  34.751  1.00  0.00     0.074 A 
ATOM     69  C   UNL A   1      42.519  30.680  36.087  1.00  0.00     0.031 C 
ATOM     70  C   UNL A   1      42.916  29.217  34.124  1.00  0.00     0.037 A 
BRANCH  57  71
ATOM     71  C   UNL A   1      40.797  27.836  28.479  1.00  0.00     0.064 A 
ATOM     72  C   UNL A   1      40.160  26.586  28.414  1.00  0.00     0.173 A 
ATOM     73  C   UNL A   1      41.531  28.253  27.359  1.00  0.00     0.173 A 
ATOM     74  F   UNL A   1      39.455  26.132  29.461  1.00  0.00    -0.203 F 
ATOM     75  C   UNL A   1      40.290  25.772  27.293  1.00  0.00     0.198 A 
ATOM     76  C   UNL A   1      41.629  27.451  26.224  1.00  0.00     0.198 A 
ATOM     77  F   UNL A   1      42.156  29.441  27.362  1.00  0.00    -0.203 F 
ATOM     78  F   UNL A   1      39.730  24.553  27.284  1.00  0.00    -0.200 F 
ATOM     79  C   UNL A   1      41.020  26.206  26.198  1.00  0.00     0.200 A 
ATOM     80  F   UNL A   1      42.323  27.880  25.160  1.00  0.00    -0.200 F 
ATOM     81  F   UNL A   1      41.146  25.420  25.119  1.00  0.00    -0.200 F 
ENDBRANCH  57  71
BRANCH  58  82
ATOM     82  C   UNL A   1      39.548  33.656  36.508  1.00  0.00     0.064 A 
ATOM     83  C   UNL A   1      38.716  33.211  37.545  1.00  0.00     0.173 A 
ATOM     84  C   UNL A   1      40.183  34.896  36.668  1.00  0.00     0.173 A 
ATOM     85  F   UNL A   1      38.073  32.040  37.430  1.00  0.00    -0.203 F 
ATOM     86  C   UNL A   1      38.517  33.980  38.689  1.00  0.00     0.198 A 
ATOM     87  C   UNL A   1      40.004  35.652  37.826  1.00  0.00     0.198 A 
ATOM     88  F   UNL A   1      40.996  35.364  35.710  1.00  0.00    -0.203 F 
ATOM     89  F   UNL A   1      37.688  33.546  39.649  1.00  0.00    -0.200 F 
ATOM     90  C   UNL A   1      39.167  35.196  38.833  1.00  0.00     0.200 A 
ATOM     91  F   UNL A   1      40.648  36.819  37.967  1.00  0.00    -0.200 F 
ATOM     92  F   UNL A   1      38.983  35.930  39.939  1.00  0.00    -0.200 F 
ENDBRANCH  58  82
BRANCH  70  93
ATOM     93  C   UNL A   1      44.090  28.625  34.846  1.00  0.00     0.064 A 
ATOM     94  C   UNL A   1      45.370  29.194  34.771  1.00  0.00     0.173 A 
ATOM     95  C   UNL A   1      43.915  27.507  35.677  1.00  0.00     0.173 A 
ATOM     96  F   UNL A   1      45.591  30.255  33.980  1.00  0.00    -0.203 F 
ATOM     97  C   UNL A   1      46.435  28.655  35.488  1.00  0.00     0.198 A 
ATOM     98  C   UNL A   1      44.975  26.989  36.415  1.00  0.00     0.198 A 
ATOM     99  F   UNL A   1      42.709  26.930  35.789  1.00  0.00    -0.203 F 
ATOM    100  F   UNL A   1      47.657  29.191  35.372  1.00  0.00    -0.200 F 
ATOM    101  C   UNL A   1      46.234  27.559  36.316  1.00  0.00     0.200 A 
ATOM    102  F   UNL A   1      44.775  25.941  37.226  1.00  0.00    -0.200 F 
ATOM    103  F   UNL A   1      47.258  27.052  37.016  1.00  0.00    -0.200 F 
ENDBRANCH  70  93
ENDBRANCH  44  45
ENDBRANCH  36  39
ENDBRANCH  34  35
ENDBRANCH  33  34
ENDBRANCH   1  33
TORSDOF 14
ENDMDL
MODEL 2
REMARK VINA RESULT:     -14.7      0.128      1.882
REMARK SMILES O=C(NC1(C(=O)NCCCNC(=O)c2ccc(-c3c4nc(c(-c5c(F)c(F)c(F)c(F)c5F)c5ccc([nH]5)c(-c5c(F)c(F)c(F)c(F)c5F)c5nc(c(-c6c(F)c(F)c(F)c(F)c6F)c6ccc3[nH]6)C=C5)C=C4)cc2)CC[NH2+]CC1)OCC1c2ccccc2-c2ccccc21
REMARK SMILES IDX 8 1 7 2 5 3 6 4 4 6 77 7 81 8 78 9 80 10 79 11 3 14 1 15
REMARK SMILES IDX 2 16 82 18 83 19 84 20 85 21 96 22 86 23 90 24 91 25 95 26
REMARK SMILES IDX 87 27 89 28 92 29 94 30 88 31 93 32 9 33 10 34 11 35 12 36
REMARK SMILES IDX 13 38 14 39 15 40 76 41 16 42 75 43 17 44 18 45 19 46 69 47
REMARK SMILES IDX 20 48 74 49 68 50 70 51 21 52 73 53 67 54 66 55 22 57 54 58
REMARK SMILES IDX 34 59 53 60 35 61 38 62 52 63 71 64 36 65 37 66 51 68 72 69
REMARK SMILES IDX 39 70 23 71 24 72 32 73 25 74 26 75 30 76 33 77 27 78 28 79
REMARK SMILES IDX 31 80 29 81 55 82 56 83 64 84 57 85 58 86 62 87 65 88 59 89
REMARK SMILES IDX 60 90 63 91 61 92 40 93 41 94 49 95 42 96 43 97 47 98 50 99
REMARK SMILES IDX 44 100 45 101 48 102 46 103
REMARK H PARENT 7 5 79 12 79 13 3 17 11 37 70 56 38 67
REMARK Flexibility Score: inf
ROOT
ATOM      1  C   UNL A   1      31.382  30.433  25.572  1.00  0.00     0.117 C 
ENDROOT
BRANCH   1   2
ATOM      2  N   UNL A   1      30.653  30.248  24.341  1.00  0.00    -0.354 N 
ATOM      3  C   UNL A   1      30.766  29.322  23.361  1.00  0.00     0.246 C 
ATOM      4  O   UNL A   1      30.301  29.693  22.270  1.00  0.00    -0.272 OA
ATOM      5  H   UNL A   1      29.946  30.915  24.186  1.00  0.00     0.163 HD
BRANCH   3   6
ATOM      6  C   UNL A   1      31.200  27.819  23.527  1.00  0.00     0.132 C 
ATOM      7  C   UNL A   1      33.101  27.715  23.982  1.00  0.00     0.100 C 
ATOM      8  C   UNL A   1      30.027  26.503  24.332  1.00  0.00     0.100 C 
ATOM      9  C   UNL A   1      33.721  26.374  25.213  1.00  0.00     0.263 C 
ATOM     10  C   UNL A   1      30.828  25.116  25.509  1.00  0.00     0.263 C 
ATOM     11  N   UNL A   1      32.578  25.168  26.032  1.00  0.00    -0.346 N 
ATOM     12  H   UNL A   1      32.587  25.378  27.030  1.00  0.00     0.346 HD
ATOM     13  H   UNL A   1      32.944  24.257  25.758  1.00  0.00     0.346 HD
BRANCH   6  14
ATOM     14  N   UNL A   1      31.103  27.476  22.086  1.00  0.00    -0.307 N 
ATOM     15  O   UNL A   1      31.793  25.995  20.508  1.00  0.00    -0.225 OA
ATOM     16  C   UNL A   1      31.645  26.323  21.670  1.00  0.00     0.408 C 
ATOM     17  H   UNL A   1      30.651  28.079  21.454  1.00  0.00     0.168 HD
BRANCH  16  18
ATOM     18  O   UNL A   1      32.096  25.627  22.726  1.00  0.00    -0.449 OA
BRANCH  18  19
ATOM     19  C   UNL A   1      32.644  24.212  22.524  1.00  0.00     0.248 C 
BRANCH  19  20
ATOM     20  C   UNL A   1      33.748  22.795  23.687  1.00  0.00     0.088 C 
ATOM     21  C   UNL A   1      33.475  21.052  24.067  1.00  0.00    -0.029 A 
ATOM     22  C   UNL A   1      35.196  22.767  24.713  1.00  0.00    -0.029 A 
ATOM     23  C   UNL A   1      32.351  20.189  24.098  1.00  0.00     0.005 A 
ATOM     24  C   UNL A   1      34.701  20.471  24.466  1.00  0.00    -0.014 A 
ATOM     25  C   UNL A   1      35.731  21.451  24.675  1.00  0.00    -0.014 A 
ATOM     26  C   UNL A   1      35.962  23.662  25.469  1.00  0.00     0.005 A 
ATOM     27  C   UNL A   1      32.456  18.846  24.497  1.00  0.00     0.000 A 
ATOM     28  C   UNL A   1      34.802  19.124  24.859  1.00  0.00     0.009 A 
ATOM     29  C   UNL A   1      37.067  21.157  24.982  1.00  0.00     0.009 A 
ATOM     30  C   UNL A   1      37.313  23.384  25.773  1.00  0.00     0.000 A 
ATOM     31  C   UNL A   1      33.677  18.313  24.875  1.00  0.00     0.001 A 
ATOM     32  C   UNL A   1      37.886  22.158  25.466  1.00  0.00     0.001 A 
ENDBRANCH  19  20
ENDBRANCH  18  19
ENDBRANCH  16  18
ENDBRANCH   6  14
ENDBRANCH   3   6
ENDBRANCH   1   2
BRANCH   1  33
ATOM     33  C   UNL A   1      31.194  31.827  26.145  1.00  0.00     0.042 C 
BRANCH  33  34
ATOM     34  C   UNL A   1      32.370  32.270  26.990  1.00  0.00     0.118 C 
BRANCH  34  35
ATOM     35  N   UNL A   1      32.263  33.675  27.373  1.00  0.00    -0.352 N 
ATOM     36  C   UNL A   1      32.949  34.401  28.316  1.00  0.00     0.251 C 
ATOM     37  H   UNL A   1      31.587  34.186  26.872  1.00  0.00     0.163 HD
ATOM     38  O   UNL A   1      32.526  35.504  28.653  1.00  0.00    -0.269 OA
BRANCH  36  39
ATOM     39  C   UNL A   1      34.182  33.869  28.940  1.00  0.00     0.039 A 
ATOM     40  C   UNL A   1      35.419  34.431  28.606  1.00  0.00     0.014 A 
ATOM     41  C   UNL A   1      34.134  32.789  29.820  1.00  0.00     0.014 A 
ATOM     42  C   UNL A   1      36.590  33.952  29.205  1.00  0.00     0.010 A 
ATOM     43  C   UNL A   1      35.276  32.399  30.507  1.00  0.00     0.010 A 
ATOM     44  C   UNL A   1      36.522  32.956  30.189  1.00  0.00    -0.014 A 
BRANCH  44  45
ATOM     45  C   UNL A   1      37.726  32.417  30.872  1.00  0.00     0.031 A 
ATOM     46  C   UNL A   1      38.515  31.316  30.212  1.00  0.00     0.074 A 
ATOM     47  C   UNL A   1      38.044  32.823  32.114  1.00  0.00     0.049 A 
ATOM     48  N   UNL A   1      39.462  30.560  30.705  1.00  0.00    -0.248 NA
ATOM     49  C   UNL A   1      38.150  30.990  28.824  1.00  0.00     0.031 C 
ATOM     50  C   UNL A   1      37.338  33.853  32.877  1.00  0.00     0.029 A 
ATOM     51  N   UNL A   1      39.031  32.394  32.967  1.00  0.00    -0.354 N 
ATOM     52  C   UNL A   1      39.771  29.645  29.705  1.00  0.00     0.074 A 
ATOM     53  C   UNL A   1      38.872  29.903  28.602  1.00  0.00     0.031 C 
ATOM     54  C   UNL A   1      37.922  33.985  34.079  1.00  0.00     0.029 A 
ATOM     55  C   UNL A   1      39.008  33.015  34.191  1.00  0.00     0.049 A 
ATOM     56  H   UNL A   1      39.692  31.706  32.724  1.00  0.00     0.167 HD
ATOM     57  C   UNL A   1      40.732  28.691  29.697  1.00  0.00     0.037 A 
ATOM     58  C   UNL A   1      39.764  32.811  35.287  1.00  0.00     0.037 A 
ATOM     59  C   UNL A   1      41.654  28.472  30.779  1.00  0.00     0.049 A 
ATOM     60  C   UNL A   1      40.837  31.758  35.253  1.00  0.00     0.074 A 
ATOM     61  C   UNL A   1      42.709  27.582  30.848  1.00  0.00     0.029 A 
ATOM     62  N   UNL A   1      41.631  29.161  31.984  1.00  0.00    -0.354 N 
ATOM     63  N   UNL A   1      41.154  30.930  34.286  1.00  0.00    -0.248 NA
ATOM     64  C   UNL A   1      41.663  31.613  36.460  1.00  0.00     0.031 C 
ATOM     65  C   UNL A   1      43.299  27.699  32.111  1.00  0.00     0.029 A 
ATOM     66  C   UNL A   1      42.645  28.703  32.808  1.00  0.00     0.049 A 
ATOM     67  H   UNL A   1      40.988  29.870  32.217  1.00  0.00     0.167 HD
ATOM     68  C   UNL A   1      42.233  30.192  34.753  1.00  0.00     0.074 A 
ATOM     69  C   UNL A   1      42.521  30.672  36.089  1.00  0.00     0.031 C 
ATOM     70  C   UNL A   1      42.927  29.208  34.129  1.00  0.00     0.037 A 
BRANCH  57  71
ATOM     71  C   UNL A   1      40.829  27.815  28.479  1.00  0.00     0.064 A 
ATOM     72  C   UNL A   1      41.531  28.217  27.332  1.00  0.00     0.173 A 
ATOM     73  C   UNL A   1      40.213  26.555  28.460  1.00  0.00     0.173 A 
ATOM     74  F   UNL A   1      42.128  29.418  27.291  1.00  0.00    -0.203 F 
ATOM     75  C   UNL A   1      41.574  27.411  26.198  1.00  0.00     0.198 A 
ATOM     76  C   UNL A   1      40.289  25.735  27.336  1.00  0.00     0.198 A 
ATOM     77  F   UNL A   1      39.534  26.116  29.531  1.00  0.00    -0.203 F 
ATOM     78  F   UNL A   1      42.191  27.849  25.090  1.00  0.00    -0.200 F 
ATOM     79  C   UNL A   1      40.958  26.170  26.202  1.00  0.00     0.200 A 
ATOM     80  F   UNL A   1      39.706  24.528  27.348  1.00  0.00    -0.200 F 
ATOM     81  F   UNL A   1      40.999  25.395  25.109  1.00  0.00    -0.200 F 
ENDBRANCH  57  71
BRANCH  58  82
ATOM     82  C   UNL A   1      39.544  33.644  36.497  1.00  0.00     0.064 A 
ATOM     83  C   UNL A   1      40.151  34.902  36.621  1.00  0.00     0.173 A 
ATOM     84  C   UNL A   1      38.711  33.217  37.540  1.00  0.00     0.173 A 
ATOM     85  F   UNL A   1      40.970  35.346  35.656  1.00  0.00    -0.203 F 
ATOM     86  C   UNL A   1      39.942  35.695  37.747  1.00  0.00     0.198 A 
ATOM     87  C   UNL A   1      38.481  34.022  38.654  1.00  0.00     0.198 A 
ATOM     88  F   UNL A   1      38.100  32.025  37.468  1.00  0.00    -0.203 F 
ATOM     89  F   UNL A   1      40.562  36.878  37.854  1.00  0.00    -0.200 F 
ATOM     90  C   UNL A   1      39.102  35.258  38.759  1.00  0.00     0.200 A 
ATOM     91  F   UNL A   1      37.655  33.603  39.622  1.00  0.00    -0.200 F 
ATOM     92  F   UNL A   1      38.894  36.026  39.838  1.00  0.00    -0.200 F 
ENDBRANCH  58  82
BRANCH  70  93
ATOM     93  C   UNL A   1      44.100  28.619  34.856  1.00  0.00     0.064 A 
ATOM     94  C   UNL A   1      43.980  27.463  35.641  1.00  0.00     0.173 A 
ATOM     95  C   UNL A   1      45.376  29.187  34.711  1.00  0.00     0.173 A 
ATOM     96  F   UNL A   1      42.781  26.891  35.821  1.00  0.00    -0.203 F 
ATOM     97  C   UNL A   1      45.093  26.907  36.268  1.00  0.00     0.198 A 
ATOM     98  C   UNL A   1      46.490  28.612  35.315  1.00  0.00     0.198 A 
ATOM     99  F   UNL A   1      45.544  30.289  33.964  1.00  0.00    -0.203 F 
ATOM    100  F   UNL A   1      44.950  25.825  37.045  1.00  0.00    -0.200 F 
ATOM    101  C   UNL A   1      46.347  27.477  36.097  1.00  0.00     0.200 A 
ATOM    102  F   UNL A   1      47.702  29.154  35.135  1.00  0.00    -0.200 F 
ATOM    103  F   UNL A   1      47.418  26.931  36.690  1.00  0.00    -0.200 F 
ENDBRANCH  70  93
ENDBRANCH  44  45
ENDBRANCH  36  39
ENDBRANCH  34  35
ENDBRANCH  33  34
ENDBRANCH   1  33
TORSDOF 14
ENDMDL
MODEL 3
REMARK VINA RESULT:     -14.7      5.087     10.624
REMARK SMILES O=C(NC1(C(=O)NCCCNC(=O)c2ccc(-c3c4nc(c(-c5c(F)c(F)c(F)c(F)c5F)c5ccc([nH]5)c(-c5c(F)c(F)c(F)c(F)c5F)c5nc(c(-c6c(F)c(F)c(F)c(F)c6F)c6ccc3[nH]6)C=C5)C=C4)cc2)CC[NH2+]CC1)OCC1c2ccccc2-c2ccccc21
REMARK SMILES IDX 8 1 7 2 5 3 6 4 4 6 77 7 81 8 78 9 80 10 79 11 3 14 1 15
REMARK SMILES IDX 2 16 82 18 83 19 84 20 85 21 96 22 86 23 90 24 91 25 95 26
REMARK SMILES IDX 87 27 89 28 92 29 94 30 88 31 93 32 9 33 10 34 11 35 12 36
REMARK SMILES IDX 13 38 14 39 15 40 76 41 16 42 75 43 17 44 18 45 19 46 69 47
REMARK SMILES IDX 20 48 74 49 68 50 70 51 21 52 73 53 67 54 66 55 22 57 54 58
REMARK SMILES IDX 34 59 53 60 35 61 38 62 52 63 71 64 36 65 37 66 51 68 72 69
REMARK SMILES IDX 39 70 23 71 24 72 32 73 25 74 26 75 30 76 33 77 27 78 28 79
REMARK SMILES IDX 31 80 29 81 55 82 56 83 64 84 57 85 58 86 62 87 65 88 59 89
REMARK SMILES IDX 60 90 63 91 61 92 40 93 41 94 49 95 42 96 43 97 47 98 50 99
REMARK SMILES IDX 44 100 45 101 48 102 46 103
REMARK H PARENT 7 5 79 12 79 13 3 17 11 37 70 56 38 67
REMARK Flexibility Score: inf
ROOT
ATOM      1  C   UNL A   1      36.496  20.435  24.971  1.00  0.00     0.117 C 
ENDROOT
BRANCH   1   2
ATOM      2  N   UNL A   1      35.266  19.681  24.968  1.00  0.00    -0.354 N 
ATOM      3  C   UNL A   1      33.984  20.054  25.189  1.00  0.00     0.246 C 
ATOM      4  O   UNL A   1      33.246  19.115  25.536  1.00  0.00    -0.272 OA
ATOM      5  H   UNL A   1      35.379  18.724  24.769  1.00  0.00     0.163 HD
BRANCH   3   6
ATOM      6  C   UNL A   1      33.331  21.442  24.844  1.00  0.00     0.132 C 
ATOM      7  C   UNL A   1      34.147  22.856  25.925  1.00  0.00     0.100 C 
ATOM      8  C   UNL A   1      32.815  21.904  23.034  1.00  0.00     0.100 C 
ATOM      9  C   UNL A   1      34.441  24.597  25.164  1.00  0.00     0.263 C 
ATOM     10  C   UNL A   1      33.092  23.772  22.418  1.00  0.00     0.263 C 
ATOM     11  N   UNL A   1      34.010  25.004  23.409  1.00  0.00    -0.346 N 
ATOM     12  H   UNL A   1      34.887  25.189  22.920  1.00  0.00     0.346 HD
ATOM     13  H   UNL A   1      33.362  25.787  23.490  1.00  0.00     0.346 HD
BRANCH   6  14
ATOM     14  N   UNL A   1      32.018  21.150  25.472  1.00  0.00    -0.307 N 
ATOM     15  O   UNL A   1      30.117  22.108  26.266  1.00  0.00    -0.225 OA
ATOM     16  C   UNL A   1      31.148  22.159  25.621  1.00  0.00     0.408 C 
ATOM     17  H   UNL A   1      31.793  20.240  25.770  1.00  0.00     0.168 HD
BRANCH  16  18
ATOM     18  O   UNL A   1      31.632  23.266  25.038  1.00  0.00    -0.449 OA
BRANCH  18  19
ATOM     19  C   UNL A   1      30.774  24.533  24.984  1.00  0.00     0.248 C 
BRANCH  19  20
ATOM     20  C   UNL A   1      31.125  26.641  24.884  1.00  0.00     0.088 C 
ATOM     21  C   UNL A   1      30.328  27.968  23.955  1.00  0.00    -0.029 A 
ATOM     22  C   UNL A   1      32.271  27.826  25.543  1.00  0.00    -0.029 A 
ATOM     23  C   UNL A   1      29.557  28.047  22.768  1.00  0.00     0.005 A 
ATOM     24  C   UNL A   1      30.611  29.203  24.581  1.00  0.00    -0.014 A 
ATOM     25  C   UNL A   1      31.610  29.082  25.608  1.00  0.00    -0.014 A 
ATOM     26  C   UNL A   1      33.573  27.850  26.055  1.00  0.00     0.005 A 
ATOM     27  C   UNL A   1      29.105  29.275  22.255  1.00  0.00     0.000 A 
ATOM     28  C   UNL A   1      30.152  30.429  24.068  1.00  0.00     0.009 A 
ATOM     29  C   UNL A   1      32.019  30.121  26.455  1.00  0.00     0.009 A 
ATOM     30  C   UNL A   1      33.993  28.883  26.922  1.00  0.00     0.000 A 
ATOM     31  C   UNL A   1      29.400  30.463  22.903  1.00  0.00     0.001 A 
ATOM     32  C   UNL A   1      33.188  29.985  27.178  1.00  0.00     0.001 A 
ENDBRANCH  19  20
ENDBRANCH  18  19
ENDBRANCH  16  18
ENDBRANCH   6  14
ENDBRANCH   3   6
ENDBRANCH   1   2
BRANCH   1  33
ATOM     33  C   UNL A   1      37.719  19.534  24.974  1.00  0.00     0.042 C 
BRANCH  33  34
ATOM     34  C   UNL A   1      38.893  20.153  25.705  1.00  0.00     0.118 C 
BRANCH  34  35
ATOM     35  N   UNL A   1      40.019  19.230  25.799  1.00  0.00    -0.352 N 
ATOM     36  C   UNL A   1      41.354  19.466  26.025  1.00  0.00     0.251 C 
ATOM     37  H   UNL A   1      39.783  18.282  25.681  1.00  0.00     0.163 HD
ATOM     38  O   UNL A   1      42.169  18.571  25.811  1.00  0.00    -0.269 OA
BRANCH  36  39
ATOM     39  C   UNL A   1      41.824  20.783  26.510  1.00  0.00     0.039 A 
ATOM     40  C   UNL A   1      42.025  20.979  27.881  1.00  0.00     0.014 A 
ATOM     41  C   UNL A   1      42.028  21.843  25.629  1.00  0.00     0.014 A 
ATOM     42  C   UNL A   1      42.490  22.213  28.351  1.00  0.00     0.010 A 
ATOM     43  C   UNL A   1      42.608  23.021  26.078  1.00  0.00     0.010 A 
ATOM     44  C   UNL A   1      42.822  23.232  27.447  1.00  0.00    -0.014 A 
BRANCH  44  45
ATOM     45  C   UNL A   1      43.333  24.557  27.882  1.00  0.00     0.031 A 
ATOM     46  C   UNL A   1      42.353  25.640  28.252  1.00  0.00     0.074 A 
ATOM     47  C   UNL A   1      44.651  24.827  27.836  1.00  0.00     0.049 A 
ATOM     48  N   UNL A   1      42.560  26.916  28.456  1.00  0.00    -0.248 NA
ATOM     49  C   UNL A   1      40.941  25.238  28.355  1.00  0.00     0.031 C 
ATOM     50  C   UNL A   1      45.698  23.878  27.459  1.00  0.00     0.029 A 
ATOM     51  N   UNL A   1      45.331  25.994  28.084  1.00  0.00    -0.354 N 
ATOM     52  C   UNL A   1      41.303  27.470  28.665  1.00  0.00     0.074 A 
ATOM     53  C   UNL A   1      40.338  26.405  28.506  1.00  0.00     0.031 C 
ATOM     54  C   UNL A   1      46.889  24.496  27.512  1.00  0.00     0.029 A 
ATOM     55  C   UNL A   1      46.685  25.895  27.875  1.00  0.00     0.049 A 
ATOM     56  H   UNL A   1      44.890  26.822  28.382  1.00  0.00     0.167 HD
ATOM     57  C   UNL A   1      40.983  28.747  28.984  1.00  0.00     0.037 A 
ATOM     58  C   UNL A   1      47.648  26.833  27.949  1.00  0.00     0.037 A 
ATOM     59  C   UNL A   1      41.953  29.790  29.189  1.00  0.00     0.049 A 
ATOM     60  C   UNL A   1      47.275  28.242  28.322  1.00  0.00     0.074 A 
ATOM     61  C   UNL A   1      41.743  31.099  29.582  1.00  0.00     0.029 A 
ATOM     62  N   UNL A   1      43.322  29.636  29.019  1.00  0.00    -0.354 N 
ATOM     63  N   UNL A   1      46.089  28.747  28.565  1.00  0.00    -0.248 NA
ATOM     64  C   UNL A   1      48.374  29.211  28.435  1.00  0.00     0.031 C 
ATOM     65  C   UNL A   1      42.981  31.750  29.609  1.00  0.00     0.029 A 
ATOM     66  C   UNL A   1      43.967  30.831  29.286  1.00  0.00     0.049 A 
ATOM     67  H   UNL A   1      43.767  28.799  28.750  1.00  0.00     0.167 HD
ATOM     68  C   UNL A   1      46.301  30.079  28.893  1.00  0.00     0.074 A 
ATOM     69  C   UNL A   1      47.730  30.305  28.821  1.00  0.00     0.031 C 
ATOM     70  C   UNL A   1      45.393  31.030  29.228  1.00  0.00     0.037 A 
BRANCH  57  71
ATOM     71  C   UNL A   1      39.524  29.080  29.129  1.00  0.00     0.064 A 
ATOM     72  C   UNL A   1      38.741  29.470  28.032  1.00  0.00     0.173 A 
ATOM     73  C   UNL A   1      38.900  29.006  30.384  1.00  0.00     0.173 A 
ATOM     74  F   UNL A   1      39.289  29.569  26.811  1.00  0.00    -0.203 F 
ATOM     75  C   UNL A   1      37.402  29.816  28.192  1.00  0.00     0.198 A 
ATOM     76  C   UNL A   1      37.551  29.318  30.534  1.00  0.00     0.198 A 
ATOM     77  F   UNL A   1      39.598  28.633  31.467  1.00  0.00    -0.203 F 
ATOM     78  F   UNL A   1      36.694  30.253  27.140  1.00  0.00    -0.200 F 
ATOM     79  C   UNL A   1      36.807  29.735  29.441  1.00  0.00     0.200 A 
ATOM     80  F   UNL A   1      36.973  29.223  31.740  1.00  0.00    -0.200 F 
ATOM     81  F   UNL A   1      35.518  30.069  29.595  1.00  0.00    -0.200 F 
ENDBRANCH  57  71
BRANCH  58  82
ATOM     82  C   UNL A   1      49.061  26.456  27.690  1.00  0.00     0.064 A 
ATOM     83  C   UNL A   1      49.946  26.217  28.751  1.00  0.00     0.173 A 
ATOM     84  C   UNL A   1      49.552  26.306  26.385  1.00  0.00     0.173 A 
ATOM     85  F   UNL A   1      49.526  26.366  30.016  1.00  0.00    -0.203 F 
ATOM     86  C   UNL A   1      51.270  25.854  28.518  1.00  0.00     0.198 A 
ATOM     87  C   UNL A   1      50.870  25.916  26.153  1.00  0.00     0.198 A 
ATOM     88  F   UNL A   1      48.746  26.515  25.335  1.00  0.00    -0.203 F 
ATOM     89  F   UNL A   1      52.102  25.665  29.551  1.00  0.00    -0.200 F 
ATOM     90  C   UNL A   1      51.729  25.696  27.219  1.00  0.00     0.200 A 
ATOM     91  F   UNL A   1      51.305  25.748  24.897  1.00  0.00    -0.200 F 
ATOM     92  F   UNL A   1      53.000  25.335  26.995  1.00  0.00    -0.200 F 
ENDBRANCH  58  82
BRANCH  70  93
ATOM     93  C   UNL A   1      45.916  32.387  29.597  1.00  0.00     0.064 A 
ATOM     94  C   UNL A   1      46.313  32.696  30.907  1.00  0.00     0.173 A 
ATOM     95  C   UNL A   1      46.080  33.372  28.610  1.00  0.00     0.173 A 
ATOM     96  F   UNL A   1      46.163  31.795  31.888  1.00  0.00    -0.203 F 
ATOM     97  C   UNL A   1      46.839  33.948  31.216  1.00  0.00     0.198 A 
ATOM     98  C   UNL A   1      46.634  34.611  28.917  1.00  0.00     0.198 A 
ATOM     99  F   UNL A   1      45.722  33.122  27.341  1.00  0.00    -0.203 F 
ATOM    100  F   UNL A   1      47.176  34.236  32.481  1.00  0.00    -0.200 F 
ATOM    101  C   UNL A   1      47.007  34.900  30.220  1.00  0.00     0.200 A 
ATOM    102  F   UNL A   1      46.810  35.522  27.951  1.00  0.00    -0.200 F 
ATOM    103  F   UNL A   1      47.528  36.098  30.519  1.00  0.00    -0.200 F 
ENDBRANCH  70  93
ENDBRANCH  44  45
ENDBRANCH  36  39
ENDBRANCH  34  35
ENDBRANCH  33  34
ENDBRANCH   1  33
TORSDOF 14
ENDMDL
