MODEL 1
REMARK VINA RESULT:     -12.1      0.000      0.000
REMARK SMILES C[C@H](NC(=O)c1ccc(N)cc1)C(=O)NCCCNC(=O)c1ccc(-c2c3nc(c(-c4c(F)c(F)c(F)c(F)c4F)c4ccc([nH]4)c(-c4c(F)c(F)c(F)c(F)c4F)c4nc(c(-c5c(F)c(F)c(F)c(F)c5F)c5ccc2[nH]5)C=C4)C=C3)cc1
REMARK SMILES IDX 16 1 15 2 13 3 14 4 2 6 1 7 3 8 4 9 5 11 6 12 7 13 12 14
REMARK SMILES IDX 8 15 11 16 9 17 10 18 17 21 18 22 19 23 20 24 21 26 22 27
REMARK SMILES IDX 23 28 84 29 24 30 83 31 25 32 26 33 27 34 77 35 28 36 82 37
REMARK SMILES IDX 76 38 78 39 29 40 81 41 75 42 74 43 30 45 62 46 42 47 61 48
REMARK SMILES IDX 43 49 46 50 60 51 79 52 44 53 45 54 59 56 80 57 47 58 31 59
REMARK SMILES IDX 32 60 40 61 33 62 34 63 38 64 41 65 35 66 36 67 39 68 37 69
REMARK SMILES IDX 63 70 64 71 72 72 65 73 66 74 70 75 73 76 67 77 68 78 71 79
REMARK SMILES IDX 69 80 48 81 49 82 57 83 50 84 51 85 55 86 58 87 52 88 53 89
REMARK SMILES IDX 56 90 54 91
REMARK H PARENT 15 5 3 10 10 19 10 20 19 25 78 44 46 55
REMARK Flexibility Score: inf
ROOT
ATOM      1  C   UNL A   1      32.002  30.243  26.224  1.00  0.00     0.117 C 
ENDROOT
BRANCH   1   2
ATOM      2  N   UNL A   1      32.843  30.078  25.048  1.00  0.00    -0.354 N 
ATOM      3  C   UNL A   1      33.250  28.929  24.427  1.00  0.00     0.242 C 
ATOM      4  O   UNL A   1      33.912  29.027  23.394  1.00  0.00    -0.273 OA
ATOM      5  H   UNL A   1      33.165  30.914  24.640  1.00  0.00     0.163 HD
BRANCH   3   6
ATOM      6  C   UNL A   1      32.828  27.560  24.991  1.00  0.00     0.168 C 
ATOM      7  C   UNL A   1      33.785  27.182  26.125  1.00  0.00     0.041 C 
BRANCH   6   8
ATOM      8  N   UNL A   1      32.716  26.626  23.859  1.00  0.00    -0.341 N 
ATOM      9  C   UNL A   1      31.693  26.338  23.000  1.00  0.00     0.251 C 
ATOM     10  H   UNL A   1      33.536  26.111  23.687  1.00  0.00     0.164 HD
ATOM     11  O   UNL A   1      31.845  25.491  22.125  1.00  0.00    -0.269 OA
BRANCH   9  12
ATOM     12  C   UNL A   1      30.378  26.968  23.186  1.00  0.00     0.039 A 
ATOM     13  C   UNL A   1      29.353  26.321  23.876  1.00  0.00     0.016 A 
ATOM     14  C   UNL A   1      30.156  28.209  22.585  1.00  0.00     0.016 A 
ATOM     15  C   UNL A   1      28.073  26.880  23.876  1.00  0.00     0.026 A 
ATOM     16  C   UNL A   1      28.876  28.761  22.600  1.00  0.00     0.026 A 
ATOM     17  C   UNL A   1      27.821  28.099  23.236  1.00  0.00     0.031 A 
BRANCH  17  18
ATOM     18  N   UNL A   1      26.529  28.578  23.126  1.00  0.00    -0.399 N 
ATOM     19  H   UNL A   1      26.225  29.313  23.707  1.00  0.00     0.156 HD
ATOM     20  H   UNL A   1      25.912  28.185  22.466  1.00  0.00     0.156 HD
ENDBRANCH  17  18
ENDBRANCH   9  12
ENDBRANCH   6   8
ENDBRANCH   3   6
ENDBRANCH   1   2
BRANCH   1  21
ATOM     21  C   UNL A   1      31.691  31.704  26.504  1.00  0.00     0.042 C 
BRANCH  21  22
ATOM     22  C   UNL A   1      32.799  32.423  27.257  1.00  0.00     0.118 C 
BRANCH  22  23
ATOM     23  N   UNL A   1      32.483  33.821  27.529  1.00  0.00    -0.352 N 
ATOM     24  C   UNL A   1      33.029  34.670  28.460  1.00  0.00     0.251 C 
ATOM     25  H   UNL A   1      31.778  34.211  26.964  1.00  0.00     0.163 HD
ATOM     26  O   UNL A   1      32.528  35.771  28.665  1.00  0.00    -0.269 OA
BRANCH  24  27
ATOM     27  C   UNL A   1      34.209  34.238  29.233  1.00  0.00     0.039 A 
ATOM     28  C   UNL A   1      34.025  33.591  30.457  1.00  0.00     0.014 A 
ATOM     29  C   UNL A   1      35.496  34.449  28.731  1.00  0.00     0.014 A 
ATOM     30  C   UNL A   1      35.131  33.083  31.142  1.00  0.00     0.010 A 
ATOM     31  C   UNL A   1      36.584  33.867  29.367  1.00  0.00     0.010 A 
ATOM     32  C   UNL A   1      36.414  33.182  30.580  1.00  0.00    -0.014 A 
BRANCH  32  33
ATOM     33  C   UNL A   1      37.609  32.597  31.238  1.00  0.00     0.031 A 
ATOM     34  C   UNL A   1      38.346  31.474  30.566  1.00  0.00     0.074 A 
ATOM     35  C   UNL A   1      37.962  32.999  32.474  1.00  0.00     0.049 A 
ATOM     36  N   UNL A   1      39.297  30.706  31.034  1.00  0.00    -0.248 NA
ATOM     37  C   UNL A   1      37.930  31.145  29.192  1.00  0.00     0.031 C 
ATOM     38  C   UNL A   1      37.303  34.053  33.245  1.00  0.00     0.029 A 
ATOM     39  N   UNL A   1      38.953  32.547  33.309  1.00  0.00    -0.354 N 
ATOM     40  C   UNL A   1      39.568  29.788  30.028  1.00  0.00     0.074 A 
ATOM     41  C   UNL A   1      38.651  30.062  28.944  1.00  0.00     0.031 C 
ATOM     42  C   UNL A   1      37.912  34.175  34.435  1.00  0.00     0.029 A 
ATOM     43  C   UNL A   1      38.974  33.178  34.530  1.00  0.00     0.049 A 
ATOM     44  H   UNL A   1      39.589  31.838  33.059  1.00  0.00     0.167 HD
ATOM     45  C   UNL A   1      40.510  28.816  30.005  1.00  0.00     0.037 A 
ATOM     46  C   UNL A   1      39.750  32.961  35.608  1.00  0.00     0.037 A 
ATOM     47  C   UNL A   1      41.444  28.574  31.071  1.00  0.00     0.049 A 
ATOM     48  C   UNL A   1      40.794  31.878  35.555  1.00  0.00     0.074 A 
ATOM     49  C   UNL A   1      42.475  27.653  31.124  1.00  0.00     0.029 A 
ATOM     50  N   UNL A   1      41.463  29.265  32.274  1.00  0.00    -0.354 N 
ATOM     51  N   UNL A   1      41.075  31.046  34.582  1.00  0.00    -0.248 NA
ATOM     52  C   UNL A   1      41.631  31.705  36.750  1.00  0.00     0.031 C 
ATOM     53  C   UNL A   1      43.093  27.760  32.373  1.00  0.00     0.029 A 
ATOM     54  C   UNL A   1      42.479  28.782  33.080  1.00  0.00     0.049 A 
ATOM     55  H   UNL A   1      40.844  29.991  32.519  1.00  0.00     0.167 HD
ATOM     56  C   UNL A   1      42.141  30.279  35.030  1.00  0.00     0.074 A 
ATOM     57  C   UNL A   1      42.460  30.747  36.363  1.00  0.00     0.031 C 
ATOM     58  C   UNL A   1      42.798  29.278  34.395  1.00  0.00     0.037 A 
BRANCH  45  59
ATOM     59  C   UNL A   1      40.577  27.944  28.785  1.00  0.00     0.064 A 
ATOM     60  C   UNL A   1      39.857  26.743  28.698  1.00  0.00     0.173 A 
ATOM     61  C   UNL A   1      41.350  28.327  27.679  1.00  0.00     0.173 A 
ATOM     62  F   UNL A   1      39.115  26.324  29.734  1.00  0.00    -0.203 F 
ATOM     63  C   UNL A   1      39.933  25.944  27.560  1.00  0.00     0.198 A 
ATOM     64  C   UNL A   1      41.397  27.541  26.530  1.00  0.00     0.198 A 
ATOM     65  F   UNL A   1      42.054  29.469  27.708  1.00  0.00    -0.203 F 
ATOM     66  F   UNL A   1      39.279  24.774  27.521  1.00  0.00    -0.200 F 
ATOM     67  C   UNL A   1      40.696  26.346  26.476  1.00  0.00     0.200 A 
ATOM     68  F   UNL A   1      42.125  27.939  25.478  1.00  0.00    -0.200 F 
ATOM     69  F   UNL A   1      40.763  25.579  25.379  1.00  0.00    -0.200 F 
ENDBRANCH  45  59
BRANCH  46  70
ATOM     70  C   UNL A   1      39.586  33.800  36.824  1.00  0.00     0.064 A 
ATOM     71  C   UNL A   1      38.776  33.374  37.884  1.00  0.00     0.173 A 
ATOM     72  C   UNL A   1      40.228  35.041  36.950  1.00  0.00     0.173 A 
ATOM     73  F   UNL A   1      38.125  32.204  37.802  1.00  0.00    -0.203 F 
ATOM     74  C   UNL A   1      38.595  34.166  39.017  1.00  0.00     0.198 A 
ATOM     75  C   UNL A   1      40.069  35.820  38.094  1.00  0.00     0.198 A 
ATOM     76  F   UNL A   1      41.018  35.492  35.964  1.00  0.00    -0.203 F 
ATOM     77  F   UNL A   1      37.779  33.755  39.996  1.00  0.00    -0.200 F 
ATOM     78  C   UNL A   1      39.247  35.386  39.123  1.00  0.00     0.200 A 
ATOM     79  F   UNL A   1      40.710  36.992  38.199  1.00  0.00    -0.200 F 
ATOM     80  F   UNL A   1      39.075  36.146  40.213  1.00  0.00    -0.200 F 
ENDBRANCH  46  70
BRANCH  58  81
ATOM     81  C   UNL A   1      43.967  28.659  35.103  1.00  0.00     0.064 A 
ATOM     82  C   UNL A   1      45.266  29.170  34.972  1.00  0.00     0.173 A 
ATOM     83  C   UNL A   1      43.770  27.573  35.969  1.00  0.00     0.173 A 
ATOM     84  F   UNL A   1      45.506  30.198  34.144  1.00  0.00    -0.203 F 
ATOM     85  C   UNL A   1      46.329  28.604  35.670  1.00  0.00     0.198 A 
ATOM     86  C   UNL A   1      44.831  27.027  36.687  1.00  0.00     0.198 A 
ATOM     87  F   UNL A   1      42.545  27.052  36.134  1.00  0.00    -0.203 F 
ATOM     88  F   UNL A   1      47.570  29.083  35.500  1.00  0.00    -0.200 F 
ATOM     89  C   UNL A   1      46.110  27.540  36.533  1.00  0.00     0.200 A 
ATOM     90  F   UNL A   1      44.614  26.009  37.531  1.00  0.00    -0.200 F 
ATOM     91  F   UNL A   1      47.133  27.005  37.212  1.00  0.00    -0.200 F 
ENDBRANCH  58  81
ENDBRANCH  32  33
ENDBRANCH  24  27
ENDBRANCH  22  23
ENDBRANCH  21  22
ENDBRANCH   1  21
TORSDOF 13
ENDMDL
MODEL 2
REMARK VINA RESULT:     -12.0      6.273     11.506
REMARK SMILES C[C@H](NC(=O)c1ccc(N)cc1)C(=O)NCCCNC(=O)c1ccc(-c2c3nc(c(-c4c(F)c(F)c(F)c(F)c4F)c4ccc([nH]4)c(-c4c(F)c(F)c(F)c(F)c4F)c4nc(c(-c5c(F)c(F)c(F)c(F)c5F)c5ccc2[nH]5)C=C4)C=C3)cc1
REMARK SMILES IDX 16 1 15 2 13 3 14 4 2 6 1 7 3 8 4 9 5 11 6 12 7 13 12 14
REMARK SMILES IDX 8 15 11 16 9 17 10 18 17 21 18 22 19 23 20 24 21 26 22 27
REMARK SMILES IDX 23 28 84 29 24 30 83 31 25 32 26 33 27 34 77 35 28 36 82 37
REMARK SMILES IDX 76 38 78 39 29 40 81 41 75 42 74 43 30 45 62 46 42 47 61 48
REMARK SMILES IDX 43 49 46 50 60 51 79 52 44 53 45 54 59 56 80 57 47 58 31 59
REMARK SMILES IDX 32 60 40 61 33 62 34 63 38 64 41 65 35 66 36 67 39 68 37 69
REMARK SMILES IDX 63 70 64 71 72 72 65 73 66 74 70 75 73 76 67 77 68 78 71 79
REMARK SMILES IDX 69 80 48 81 49 82 57 83 50 84 51 85 55 86 58 87 52 88 53 89
REMARK SMILES IDX 56 90 54 91
REMARK H PARENT 15 5 3 10 10 19 10 20 19 25 78 44 46 55
REMARK Flexibility Score: inf
ROOT
ATOM      1  C   UNL A   1      36.830  21.265  24.816  1.00  0.00     0.117 C 
ENDROOT
BRANCH   1   2
ATOM      2  N   UNL A   1      36.233  21.695  26.072  1.00  0.00    -0.354 N 
ATOM      3  C   UNL A   1      35.098  22.426  26.287  1.00  0.00     0.242 C 
ATOM      4  O   UNL A   1      34.738  22.619  27.449  1.00  0.00    -0.273 OA
ATOM      5  H   UNL A   1      36.717  21.419  26.884  1.00  0.00     0.163 HD
BRANCH   3   6
ATOM      6  C   UNL A   1      34.271  22.933  25.091  1.00  0.00     0.168 C 
ATOM      7  C   UNL A   1      34.781  24.322  24.698  1.00  0.00     0.041 C 
BRANCH   6   8
ATOM      8  N   UNL A   1      32.849  22.808  25.445  1.00  0.00    -0.341 N 
ATOM      9  C   UNL A   1      31.977  21.756  25.402  1.00  0.00     0.251 C 
ATOM     10  H   UNL A   1      32.448  23.643  25.778  1.00  0.00     0.164 HD
ATOM     11  O   UNL A   1      30.809  21.910  25.747  1.00  0.00    -0.269 OA
BRANCH   9  12
ATOM     12  C   UNL A   1      32.410  20.465  24.847  1.00  0.00     0.039 A 
ATOM     13  C   UNL A   1      32.267  20.173  23.491  1.00  0.00     0.016 A 
ATOM     14  C   UNL A   1      32.903  19.504  25.733  1.00  0.00     0.016 A 
ATOM     15  C   UNL A   1      32.528  18.877  23.042  1.00  0.00     0.026 A 
ATOM     16  C   UNL A   1      33.169  18.216  25.271  1.00  0.00     0.026 A 
ATOM     17  C   UNL A   1      32.976  17.887  23.925  1.00  0.00     0.031 A 
BRANCH  17  18
ATOM     18  N   UNL A   1      33.104  16.577  23.502  1.00  0.00    -0.399 N 
ATOM     19  H   UNL A   1      33.711  16.357  22.758  1.00  0.00     0.156 HD
ATOM     20  H   UNL A   1      32.589  15.863  23.945  1.00  0.00     0.156 HD
ENDBRANCH  17  18
ENDBRANCH   9  12
ENDBRANCH   6   8
ENDBRANCH   3   6
ENDBRANCH   1   2
BRANCH   1  21
ATOM     21  C   UNL A   1      37.784  20.099  25.006  1.00  0.00     0.042 C 
BRANCH  21  22
ATOM     22  C   UNL A   1      39.043  20.467  25.774  1.00  0.00     0.118 C 
BRANCH  22  23
ATOM     23  N   UNL A   1      39.970  19.349  25.909  1.00  0.00    -0.352 N 
ATOM     24  C   UNL A   1      41.326  19.366  26.125  1.00  0.00     0.251 C 
ATOM     25  H   UNL A   1      39.566  18.455  25.836  1.00  0.00     0.163 HD
ATOM     26  O   UNL A   1      41.980  18.330  26.048  1.00  0.00    -0.269 OA
BRANCH  24  27
ATOM     27  C   UNL A   1      41.998  20.645  26.424  1.00  0.00     0.039 A 
ATOM     28  C   UNL A   1      42.351  21.495  25.373  1.00  0.00     0.014 A 
ATOM     29  C   UNL A   1      42.253  21.014  27.747  1.00  0.00     0.014 A 
ATOM     30  C   UNL A   1      42.887  22.753  25.653  1.00  0.00     0.010 A 
ATOM     31  C   UNL A   1      42.703  22.298  28.026  1.00  0.00     0.010 A 
ATOM     32  C   UNL A   1      43.028  23.178  26.983  1.00  0.00    -0.014 A 
BRANCH  32  33
ATOM     33  C   UNL A   1      43.529  24.532  27.328  1.00  0.00     0.031 A 
ATOM     34  C   UNL A   1      42.577  25.551  27.889  1.00  0.00     0.074 A 
ATOM     35  C   UNL A   1      44.799  24.875  27.041  1.00  0.00     0.049 A 
ATOM     36  N   UNL A   1      42.756  26.831  28.093  1.00  0.00    -0.248 NA
ATOM     37  C   UNL A   1      41.228  25.071  28.230  1.00  0.00     0.031 C 
ATOM     38  C   UNL A   1      45.807  23.987  26.461  1.00  0.00     0.029 A 
ATOM     39  N   UNL A   1      45.452  26.074  27.176  1.00  0.00    -0.354 N 
ATOM     40  C   UNL A   1      41.537  27.311  28.554  1.00  0.00     0.074 A 
ATOM     41  C   UNL A   1      40.614  26.198  28.555  1.00  0.00     0.031 C 
ATOM     42  C   UNL A   1      46.953  24.667  26.300  1.00  0.00     0.029 A 
ATOM     43  C   UNL A   1      46.748  26.050  26.721  1.00  0.00     0.049 A 
ATOM     44  H   UNL A   1      45.032  26.876  27.562  1.00  0.00     0.167 HD
ATOM     45  C   UNL A   1      41.223  28.565  28.958  1.00  0.00     0.037 A 
ATOM     46  C   UNL A   1      47.659  27.037  26.635  1.00  0.00     0.037 A 
ATOM     47  C   UNL A   1      42.157  29.658  28.991  1.00  0.00     0.049 A 
ATOM     48  C   UNL A   1      47.287  28.421  27.096  1.00  0.00     0.074 A 
ATOM     49  C   UNL A   1      41.955  30.952  29.437  1.00  0.00     0.029 A 
ATOM     50  N   UNL A   1      43.475  29.582  28.564  1.00  0.00    -0.354 N 
ATOM     51  N   UNL A   1      46.147  28.855  27.575  1.00  0.00    -0.248 NA
ATOM     52  C   UNL A   1      48.330  29.452  27.007  1.00  0.00     0.031 C 
ATOM     53  C   UNL A   1      43.140  31.670  29.245  1.00  0.00     0.029 A 
ATOM     54  C   UNL A   1      44.094  30.809  28.725  1.00  0.00     0.049 A 
ATOM     55  H   UNL A   1      43.905  28.774  28.200  1.00  0.00     0.167 HD
ATOM     56  C   UNL A   1      46.345  30.195  27.879  1.00  0.00     0.074 A 
ATOM     57  C   UNL A   1      47.717  30.502  27.533  1.00  0.00     0.031 C 
ATOM     58  C   UNL A   1      45.469  31.089  28.399  1.00  0.00     0.037 A 
BRANCH  45  59
ATOM     59  C   UNL A   1      39.811  28.818  29.400  1.00  0.00     0.064 A 
ATOM     60  C   UNL A   1      39.415  28.649  30.735  1.00  0.00     0.173 A 
ATOM     61  C   UNL A   1      38.848  29.262  28.482  1.00  0.00     0.173 A 
ATOM     62  F   UNL A   1      40.294  28.211  31.649  1.00  0.00    -0.203 F 
ATOM     63  C   UNL A   1      38.101  28.884  31.128  1.00  0.00     0.198 A 
ATOM     64  C   UNL A   1      37.542  29.529  28.885  1.00  0.00     0.198 A 
ATOM     65  F   UNL A   1      39.174  29.445  27.194  1.00  0.00    -0.203 F 
ATOM     66  F   UNL A   1      37.733  28.663  32.398  1.00  0.00    -0.200 F 
ATOM     67  C   UNL A   1      37.167  29.330  30.206  1.00  0.00     0.200 A 
ATOM     68  F   UNL A   1      36.645  29.973  27.994  1.00  0.00    -0.200 F 
ATOM     69  F   UNL A   1      35.904  29.563  30.587  1.00  0.00    -0.200 F 
ENDBRANCH  45  59
BRANCH  46  70
ATOM     70  C   UNL A   1      49.020  26.750  26.112  1.00  0.00     0.064 A 
ATOM     71  C   UNL A   1      49.339  26.997  24.770  1.00  0.00     0.173 A 
ATOM     72  C   UNL A   1      50.026  26.222  26.935  1.00  0.00     0.173 A 
ATOM     73  F   UNL A   1      48.405  27.483  23.939  1.00  0.00    -0.203 F 
ATOM     74  C   UNL A   1      50.605  26.707  24.264  1.00  0.00     0.198 A 
ATOM     75  C   UNL A   1      51.299  25.958  26.436  1.00  0.00     0.198 A 
ATOM     76  F   UNL A   1      49.773  25.972  28.229  1.00  0.00    -0.203 F 
ATOM     77  F   UNL A   1      50.868  26.910  22.967  1.00  0.00    -0.200 F 
ATOM     78  C   UNL A   1      51.586  26.193  25.100  1.00  0.00     0.200 A 
ATOM     79  F   UNL A   1      52.248  25.473  27.248  1.00  0.00    -0.200 F 
ATOM     80  F   UNL A   1      52.803  25.916  24.614  1.00  0.00    -0.200 F 
ENDBRANCH  46  70
BRANCH  58  81
ATOM     81  C   UNL A   1      45.980  32.471  28.685  1.00  0.00     0.064 A 
ATOM     82  C   UNL A   1      46.592  32.796  29.903  1.00  0.00     0.173 A 
ATOM     83  C   UNL A   1      45.905  33.467  27.699  1.00  0.00     0.173 A 
ATOM     84  F   UNL A   1      46.675  31.881  30.881  1.00  0.00    -0.203 F 
ATOM     85  C   UNL A   1      47.095  34.073  30.131  1.00  0.00     0.198 A 
ATOM     86  C   UNL A   1      46.434  34.736  27.920  1.00  0.00     0.198 A 
ATOM     87  F   UNL A   1      45.334  33.204  26.513  1.00  0.00    -0.203 F 
ATOM     88  F   UNL A   1      47.642  34.374  31.318  1.00  0.00    -0.200 F 
ATOM     89  C   UNL A   1      47.023  35.039  29.138  1.00  0.00     0.200 A 
ATOM     90  F   UNL A   1      46.376  35.662  26.954  1.00  0.00    -0.200 F 
ATOM     91  F   UNL A   1      47.519  36.264  29.356  1.00  0.00    -0.200 F 
ENDBRANCH  58  81
ENDBRANCH  32  33
ENDBRANCH  24  27
ENDBRANCH  22  23
ENDBRANCH  21  22
ENDBRANCH   1  21
TORSDOF 13
ENDMDL
MODEL 3
REMARK VINA RESULT:     -11.9      1.444      2.223
REMARK SMILES C[C@H](NC(=O)c1ccc(N)cc1)C(=O)NCCCNC(=O)c1ccc(-c2c3nc(c(-c4c(F)c(F)c(F)c(F)c4F)c4ccc([nH]4)c(-c4c(F)c(F)c(F)c(F)c4F)c4nc(c(-c5c(F)c(F)c(F)c(F)c5F)c5ccc2[nH]5)C=C4)C=C3)cc1
REMARK SMILES IDX 16 1 15 2 13 3 14 4 2 6 1 7 3 8 4 9 5 11 6 12 7 13 12 14
REMARK SMILES IDX 8 15 11 16 9 17 10 18 17 21 18 22 19 23 20 24 21 26 22 27
REMARK SMILES IDX 23 28 84 29 24 30 83 31 25 32 26 33 27 34 77 35 28 36 82 37
REMARK SMILES IDX 76 38 78 39 29 40 81 41 75 42 74 43 30 45 62 46 42 47 61 48
REMARK SMILES IDX 43 49 46 50 60 51 79 52 44 53 45 54 59 56 80 57 47 58 31 59
REMARK SMILES IDX 32 60 40 61 33 62 34 63 38 64 41 65 35 66 36 67 39 68 37 69
REMARK SMILES IDX 63 70 64 71 72 72 65 73 66 74 70 75 73 76 67 77 68 78 71 79
REMARK SMILES IDX 69 80 48 81 49 82 57 83 50 84 51 85 55 86 58 87 52 88 53 89
REMARK SMILES IDX 56 90 54 91
REMARK H PARENT 15 5 3 10 10 19 10 20 19 25 78 44 46 55
REMARK Flexibility Score: inf
ROOT
ATOM      1  C   UNL A   1      31.978  30.497  26.128  1.00  0.00     0.117 C 
ENDROOT
BRANCH   1   2
ATOM      2  N   UNL A   1      31.745  29.565  27.222  1.00  0.00    -0.354 N 
ATOM      3  C   UNL A   1      31.752  28.198  27.212  1.00  0.00     0.242 C 
ATOM      4  O   UNL A   1      31.593  27.605  28.280  1.00  0.00    -0.273 OA
ATOM      5  H   UNL A   1      31.554  29.980  28.094  1.00  0.00     0.163 HD
BRANCH   3   6
ATOM      6  C   UNL A   1      32.014  27.439  25.898  1.00  0.00     0.168 C 
ATOM      7  C   UNL A   1      30.695  26.831  25.413  1.00  0.00     0.041 C 
BRANCH   6   8
ATOM      8  N   UNL A   1      33.140  26.521  26.130  1.00  0.00    -0.341 N 
ATOM      9  C   UNL A   1      33.908  25.771  25.283  1.00  0.00     0.251 C 
ATOM     10  H   UNL A   1      33.389  26.430  27.078  1.00  0.00     0.164 HD
ATOM     11  O   UNL A   1      34.801  25.058  25.731  1.00  0.00    -0.269 OA
BRANCH   9  12
ATOM     12  C   UNL A   1      33.600  25.739  23.846  1.00  0.00     0.039 A 
ATOM     13  C   UNL A   1      33.664  26.892  23.064  1.00  0.00     0.016 A 
ATOM     14  C   UNL A   1      33.165  24.531  23.297  1.00  0.00     0.016 A 
ATOM     15  C   UNL A   1      33.195  26.850  21.749  1.00  0.00     0.026 A 
ATOM     16  C   UNL A   1      32.708  24.500  21.980  1.00  0.00     0.026 A 
ATOM     17  C   UNL A   1      32.709  25.658  21.198  1.00  0.00     0.031 A 
BRANCH  17  18
ATOM     18  N   UNL A   1      32.124  25.654  19.944  1.00  0.00    -0.399 N 
ATOM     19  H   UNL A   1      32.152  24.840  19.391  1.00  0.00     0.156 HD
ATOM     20  H   UNL A   1      31.680  26.465  19.605  1.00  0.00     0.156 HD
ENDBRANCH  17  18
ENDBRANCH   9  12
ENDBRANCH   6   8
ENDBRANCH   3   6
ENDBRANCH   1   2
BRANCH   1  21
ATOM     21  C   UNL A   1      31.626  31.925  26.508  1.00  0.00     0.042 C 
BRANCH  21  22
ATOM     22  C   UNL A   1      32.703  32.613  27.333  1.00  0.00     0.118 C 
BRANCH  22  23
ATOM     23  N   UNL A   1      32.397  34.013  27.606  1.00  0.00    -0.352 N 
ATOM     24  C   UNL A   1      32.958  34.861  28.528  1.00  0.00     0.251 C 
ATOM     25  H   UNL A   1      31.687  34.405  27.049  1.00  0.00     0.163 HD
ATOM     26  O   UNL A   1      32.466  35.965  28.737  1.00  0.00    -0.269 OA
BRANCH  24  27
ATOM     27  C   UNL A   1      34.147  34.425  29.287  1.00  0.00     0.039 A 
ATOM     28  C   UNL A   1      33.977  33.829  30.540  1.00  0.00     0.014 A 
ATOM     29  C   UNL A   1      35.425  34.579  28.746  1.00  0.00     0.014 A 
ATOM     30  C   UNL A   1      35.086  33.316  31.215  1.00  0.00     0.010 A 
ATOM     31  C   UNL A   1      36.513  33.991  29.376  1.00  0.00     0.010 A 
ATOM     32  C   UNL A   1      36.355  33.357  30.618  1.00  0.00    -0.014 A 
BRANCH  32  33
ATOM     33  C   UNL A   1      37.551  32.763  31.267  1.00  0.00     0.031 A 
ATOM     34  C   UNL A   1      38.274  31.633  30.590  1.00  0.00     0.074 A 
ATOM     35  C   UNL A   1      37.917  33.162  32.500  1.00  0.00     0.049 A 
ATOM     36  N   UNL A   1      39.222  30.858  31.052  1.00  0.00    -0.248 NA
ATOM     37  C   UNL A   1      37.844  31.306  29.221  1.00  0.00     0.031 C 
ATOM     38  C   UNL A   1      37.272  34.223  33.275  1.00  0.00     0.029 A 
ATOM     39  N   UNL A   1      38.910  32.703  33.328  1.00  0.00    -0.354 N 
ATOM     40  C   UNL A   1      39.477  29.936  30.045  1.00  0.00     0.074 A 
ATOM     41  C   UNL A   1      38.555  30.217  28.967  1.00  0.00     0.031 C 
ATOM     42  C   UNL A   1      37.891  34.340  34.460  1.00  0.00     0.029 A 
ATOM     43  C   UNL A   1      38.945  33.335  34.548  1.00  0.00     0.049 A 
ATOM     44  H   UNL A   1      39.538  31.989  33.073  1.00  0.00     0.167 HD
ATOM     45  C   UNL A   1      40.412  28.957  30.016  1.00  0.00     0.037 A 
ATOM     46  C   UNL A   1      39.728  33.112  35.621  1.00  0.00     0.037 A 
ATOM     47  C   UNL A   1      41.352  28.709  31.075  1.00  0.00     0.049 A 
ATOM     48  C   UNL A   1      40.762  32.021  35.560  1.00  0.00     0.074 A 
ATOM     49  C   UNL A   1      42.375  27.779  31.121  1.00  0.00     0.029 A 
ATOM     50  N   UNL A   1      41.385  29.400  32.277  1.00  0.00    -0.354 N 
ATOM     51  N   UNL A   1      41.029  31.186  34.586  1.00  0.00    -0.248 NA
ATOM     52  C   UNL A   1      41.607  31.842  36.750  1.00  0.00     0.031 C 
ATOM     53  C   UNL A   1      43.004  27.882  32.365  1.00  0.00     0.029 A 
ATOM     54  C   UNL A   1      42.403  28.909  33.076  1.00  0.00     0.049 A 
ATOM     55  H   UNL A   1      40.774  30.131  32.526  1.00  0.00     0.167 HD
ATOM     56  C   UNL A   1      42.093  30.411  35.027  1.00  0.00     0.074 A 
ATOM     57  C   UNL A   1      42.426  30.877  36.357  1.00  0.00     0.031 C 
ATOM     58  C   UNL A   1      42.736  29.404  34.388  1.00  0.00     0.037 A 
BRANCH  45  59
ATOM     59  C   UNL A   1      40.463  28.083  28.796  1.00  0.00     0.064 A 
ATOM     60  C   UNL A   1      41.236  28.427  27.676  1.00  0.00     0.173 A 
ATOM     61  C   UNL A   1      39.752  26.875  28.756  1.00  0.00     0.173 A 
ATOM     62  F   UNL A   1      41.922  29.579  27.657  1.00  0.00    -0.203 F 
ATOM     63  C   UNL A   1      41.270  27.608  26.551  1.00  0.00     0.198 A 
ATOM     64  C   UNL A   1      39.815  26.042  27.642  1.00  0.00     0.198 A 
ATOM     65  F   UNL A   1      39.002  26.497  29.802  1.00  0.00    -0.203 F 
ATOM     66  F   UNL A   1      41.972  27.983  25.472  1.00  0.00    -0.200 F 
ATOM     67  C   UNL A   1      40.566  26.414  26.538  1.00  0.00     0.200 A 
ATOM     68  F   UNL A   1      39.144  24.882  27.637  1.00  0.00    -0.200 F 
ATOM     69  F   UNL A   1      40.605  25.623  25.456  1.00  0.00    -0.200 F 
ENDBRANCH  45  59
BRANCH  46  70
ATOM     70  C   UNL A   1      39.580  33.954  36.837  1.00  0.00     0.064 A 
ATOM     71  C   UNL A   1      38.784  33.530  37.909  1.00  0.00     0.173 A 
ATOM     72  C   UNL A   1      40.223  35.196  36.952  1.00  0.00     0.173 A 
ATOM     73  F   UNL A   1      38.133  32.360  37.838  1.00  0.00    -0.203 F 
ATOM     74  C   UNL A   1      38.619  34.324  39.043  1.00  0.00     0.198 A 
ATOM     75  C   UNL A   1      40.079  35.977  38.096  1.00  0.00     0.198 A 
ATOM     76  F   UNL A   1      40.999  35.645  35.954  1.00  0.00    -0.203 F 
ATOM     77  F   UNL A   1      37.816  33.915  40.033  1.00  0.00    -0.200 F 
ATOM     78  C   UNL A   1      39.271  35.545  39.137  1.00  0.00     0.200 A 
ATOM     79  F   UNL A   1      40.720  37.149  38.190  1.00  0.00    -0.200 F 
ATOM     80  F   UNL A   1      39.113  36.307  40.228  1.00  0.00    -0.200 F 
ENDBRANCH  46  70
BRANCH  58  81
ATOM     81  C   UNL A   1      43.906  28.776  35.087  1.00  0.00     0.064 A 
ATOM     82  C   UNL A   1      45.200  29.305  34.985  1.00  0.00     0.173 A 
ATOM     83  C   UNL A   1      43.713  27.662  35.918  1.00  0.00     0.173 A 
ATOM     84  F   UNL A   1      45.437  30.361  34.191  1.00  0.00    -0.203 F 
ATOM     85  C   UNL A   1      46.263  28.729  35.675  1.00  0.00     0.198 A 
ATOM     86  C   UNL A   1      44.773  27.106  36.629  1.00  0.00     0.198 A 
ATOM     87  F   UNL A   1      42.492  27.123  36.055  1.00  0.00    -0.203 F 
ATOM     88  F   UNL A   1      47.500  29.227  35.532  1.00  0.00    -0.200 F 
ATOM     89  C   UNL A   1      46.048  27.637  36.502  1.00  0.00     0.200 A 
ATOM     90  F   UNL A   1      44.559  26.060  37.439  1.00  0.00    -0.200 F 
ATOM     91  F   UNL A   1      47.071  27.093  37.175  1.00  0.00    -0.200 F 
ENDBRANCH  58  81
ENDBRANCH  32  33
ENDBRANCH  24  27
ENDBRANCH  22  23
ENDBRANCH  21  22
ENDBRANCH   1  21
TORSDOF 13
ENDMDL
