MODEL 1
REMARK VINA RESULT:     -13.1      0.000      0.000
REMARK SMILES CC[C@@H]1C=CCN1S(=O)(=O)c1sc2c(c1C(=O)NCCCNC(=O)c1ccc(-c3c4nc(c(-c5c(F)c(F)c(F)c(F)c5F)c5ccc([nH]5)c(-c5c(F)c(F)c(F)c(F)c5F)c5nc(c(-c6c(F)c(F)c(F)c(F)c6F)c6ccc3[nH]6)C=C5)C=C4)cc1)CC[NH2+]C2
REMARK SMILES IDX 19 1 18 2 16 3 17 4 15 6 11 7 12 8 13 9 14 10 91 11 88 12
REMARK SMILES IDX 90 13 89 14 8 17 9 18 10 19 7 20 3 21 4 22 5 23 6 24 2 25
REMARK SMILES IDX 1 26 20 27 21 28 22 29 23 30 24 32 25 33 26 34 87 35 27 36
REMARK SMILES IDX 86 37 28 38 29 39 30 40 80 41 31 42 85 43 79 44 81 45 32 46
REMARK SMILES IDX 84 47 78 48 77 49 33 51 65 52 45 53 64 54 46 55 49 56 63 57
REMARK SMILES IDX 82 58 47 59 48 60 62 62 83 63 50 64 34 65 35 66 43 67 36 68
REMARK SMILES IDX 37 69 41 70 44 71 38 72 39 73 42 74 40 75 66 76 67 77 75 78
REMARK SMILES IDX 68 79 69 80 73 81 76 82 70 83 71 84 74 85 72 86 51 87 52 88
REMARK SMILES IDX 60 89 53 90 54 91 58 92 61 93 55 94 56 95 59 96 57 97
REMARK H PARENT 18 5 90 15 90 16 22 31 81 50 49 61
REMARK Flexibility Score: inf
ROOT
ATOM      1  C   UNL A   1      31.809  30.386  26.589  1.00  0.00     0.118 C 
ENDROOT
BRANCH   1   2
ATOM      2  N   UNL A   1      32.576  30.046  25.449  1.00  0.00    -0.352 N 
ATOM      3  C   UNL A   1      32.288  29.192  24.438  1.00  0.00     0.253 C 
ATOM      4  O   UNL A   1      33.163  29.240  23.562  1.00  0.00    -0.269 OA
ATOM      5  H   UNL A   1      33.448  30.498  25.381  1.00  0.00     0.163 HD
BRANCH   3   6
ATOM      6  C   UNL A   1      31.112  28.273  24.302  1.00  0.00     0.074 A 
ATOM      7  C   UNL A   1      30.824  26.893  24.565  1.00  0.00     0.148 A 
ATOM      8  S   UNL A   1      29.174  26.535  24.084  1.00  0.00    -0.120 S 
ATOM      9  C   UNL A   1      28.850  28.055  23.504  1.00  0.00     0.064 A 
ATOM     10  C   UNL A   1      29.880  28.927  23.740  1.00  0.00    -0.009 A 
ATOM     11  C   UNL A   1      27.523  28.384  22.893  1.00  0.00     0.308 C 
ATOM     12  C   UNL A   1      29.661  30.391  23.374  1.00  0.00     0.099 C 
ATOM     13  N   UNL A   1      27.556  29.683  22.204  1.00  0.00    -0.342 N 
ATOM     14  C   UNL A   1      28.175  30.695  23.078  1.00  0.00     0.265 C 
ATOM     15  H   UNL A   1      28.100  29.597  21.346  1.00  0.00     0.346 HD
ATOM     16  H   UNL A   1      26.603  29.969  21.978  1.00  0.00     0.346 HD
BRANCH   7  17
ATOM     17  S   UNL A   1      31.472  25.252  25.258  1.00  0.00     0.254 S 
ATOM     18  O   UNL A   1      30.918  24.218  24.417  1.00  0.00    -0.206 OA
ATOM     19  O   UNL A   1      31.163  25.171  26.675  1.00  0.00    -0.206 OA
BRANCH  17  20
ATOM     20  N   UNL A   1      33.200  25.154  25.113  1.00  0.00    -0.186 NA
ATOM     21  C   UNL A   1      33.716  23.716  25.212  1.00  0.00     0.096 C 
ATOM     22  C   UNL A   1      34.099  23.396  23.804  1.00  0.00    -0.010 C 
ATOM     23  C   UNL A   1      34.140  24.489  23.047  1.00  0.00    -0.013 C 
ATOM     24  C   UNL A   1      33.710  25.689  23.807  1.00  0.00     0.130 C 
BRANCH  21  25
ATOM     25  C   UNL A   1      34.943  23.635  26.147  1.00  0.00     0.021 C 
ATOM     26  C   UNL A   1      36.105  22.819  25.568  1.00  0.00     0.006 C 
ENDBRANCH  21  25
ENDBRANCH  17  20
ENDBRANCH   7  17
ENDBRANCH   3   6
ENDBRANCH   1   2
BRANCH   1  27
ATOM     27  C   UNL A   1      31.605  31.902  26.657  1.00  0.00     0.042 C 
BRANCH  27  28
ATOM     28  C   UNL A   1      32.836  32.536  27.261  1.00  0.00     0.118 C 
BRANCH  28  29
ATOM     29  N   UNL A   1      32.577  33.896  27.769  1.00  0.00    -0.352 N 
ATOM     30  C   UNL A   1      33.127  34.523  28.877  1.00  0.00     0.251 C 
ATOM     31  H   UNL A   1      31.927  34.428  27.254  1.00  0.00     0.163 HD
ATOM     32  O   UNL A   1      32.627  35.521  29.375  1.00  0.00    -0.269 OA
BRANCH  30  33
ATOM     33  C   UNL A   1      34.379  33.968  29.411  1.00  0.00     0.039 A 
ATOM     34  C   UNL A   1      34.481  32.961  30.373  1.00  0.00     0.014 A 
ATOM     35  C   UNL A   1      35.526  34.481  28.850  1.00  0.00     0.014 A 
ATOM     36  C   UNL A   1      35.760  32.469  30.660  1.00  0.00     0.010 A 
ATOM     37  C   UNL A   1      36.536  33.595  28.716  1.00  0.00     0.010 A 
ATOM     38  C   UNL A   1      36.817  32.841  29.819  1.00  0.00    -0.014 A 
BRANCH  38  39
ATOM     39  C   UNL A   1      38.147  32.261  29.778  1.00  0.00     0.031 A 
ATOM     40  C   UNL A   1      38.113  30.885  29.237  1.00  0.00     0.074 A 
ATOM     41  C   UNL A   1      39.271  32.996  29.986  1.00  0.00     0.049 A 
ATOM     42  N   UNL A   1      38.096  29.805  29.939  1.00  0.00    -0.248 NA
ATOM     43  C   UNL A   1      37.773  30.667  27.817  1.00  0.00     0.031 C 
ATOM     44  C   UNL A   1      39.417  34.438  30.247  1.00  0.00     0.029 A 
ATOM     45  N   UNL A   1      40.575  32.581  29.983  1.00  0.00    -0.354 N 
ATOM     46  C   UNL A   1      38.066  28.767  29.019  1.00  0.00     0.074 A 
ATOM     47  C   UNL A   1      37.585  29.343  27.794  1.00  0.00     0.031 C 
ATOM     48  C   UNL A   1      40.720  34.805  30.158  1.00  0.00     0.029 A 
ATOM     49  C   UNL A   1      41.529  33.614  29.998  1.00  0.00     0.049 A 
ATOM     50  H   UNL A   1      40.826  31.630  29.971  1.00  0.00     0.167 HD
ATOM     51  C   UNL A   1      38.789  27.641  29.269  1.00  0.00     0.037 A 
ATOM     52  C   UNL A   1      42.882  33.452  29.914  1.00  0.00     0.037 A 
ATOM     53  C   UNL A   1      39.193  27.614  30.660  1.00  0.00     0.049 A 
ATOM     54  C   UNL A   1      43.158  32.044  30.316  1.00  0.00     0.074 A 
ATOM     55  C   UNL A   1      38.522  27.614  31.869  1.00  0.00     0.029 A 
ATOM     56  N   UNL A   1      40.462  28.061  30.934  1.00  0.00    -0.354 N 
ATOM     57  N   UNL A   1      42.941  31.600  31.525  1.00  0.00    -0.248 NA
ATOM     58  C   UNL A   1      43.112  31.049  29.255  1.00  0.00     0.031 C 
ATOM     59  C   UNL A   1      39.267  28.497  32.708  1.00  0.00     0.029 A 
ATOM     60  C   UNL A   1      40.418  28.891  32.024  1.00  0.00     0.049 A 
ATOM     61  H   UNL A   1      41.274  27.823  30.430  1.00  0.00     0.167 HD
ATOM     62  C   UNL A   1      42.283  30.394  31.336  1.00  0.00     0.074 A 
ATOM     63  C   UNL A   1      42.432  30.101  29.906  1.00  0.00     0.031 C 
ATOM     64  C   UNL A   1      41.401  29.922  32.266  1.00  0.00     0.037 A 
BRANCH  51  65
ATOM     65  C   UNL A   1      39.538  26.853  28.217  1.00  0.00     0.064 A 
ATOM     66  C   UNL A   1      39.481  25.445  28.276  1.00  0.00     0.173 A 
ATOM     67  C   UNL A   1      40.538  27.381  27.371  1.00  0.00     0.173 A 
ATOM     68  F   UNL A   1      38.578  24.831  29.055  1.00  0.00    -0.203 F 
ATOM     69  C   UNL A   1      40.414  24.639  27.620  1.00  0.00     0.198 A 
ATOM     70  C   UNL A   1      41.437  26.571  26.680  1.00  0.00     0.198 A 
ATOM     71  F   UNL A   1      40.773  28.692  27.257  1.00  0.00    -0.203 F 
ATOM     72  F   UNL A   1      40.402  23.314  27.817  1.00  0.00    -0.200 F 
ATOM     73  C   UNL A   1      41.397  25.204  26.830  1.00  0.00     0.200 A 
ATOM     74  F   UNL A   1      42.396  27.141  25.937  1.00  0.00    -0.200 F 
ATOM     75  F   UNL A   1      42.332  24.438  26.252  1.00  0.00    -0.200 F 
ENDBRANCH  51  65
BRANCH  52  76
ATOM     76  C   UNL A   1      43.893  34.239  29.150  1.00  0.00     0.064 A 
ATOM     77  C   UNL A   1      44.041  34.093  27.755  1.00  0.00     0.173 A 
ATOM     78  C   UNL A   1      44.494  35.379  29.714  1.00  0.00     0.173 A 
ATOM     79  F   UNL A   1      43.459  33.066  27.119  1.00  0.00    -0.203 F 
ATOM     80  C   UNL A   1      44.717  35.044  26.975  1.00  0.00     0.198 A 
ATOM     81  C   UNL A   1      45.164  36.330  28.935  1.00  0.00     0.198 A 
ATOM     82  F   UNL A   1      44.352  35.647  31.020  1.00  0.00    -0.203 F 
ATOM     83  F   UNL A   1      44.782  34.900  25.642  1.00  0.00    -0.200 F 
ATOM     84  C   UNL A   1      45.265  36.170  27.565  1.00  0.00     0.200 A 
ATOM     85  F   UNL A   1      45.649  37.438  29.512  1.00  0.00    -0.200 F 
ATOM     86  F   UNL A   1      45.847  37.116  26.815  1.00  0.00    -0.200 F 
ENDBRANCH  52  76
BRANCH  64  87
ATOM     87  C   UNL A   1      41.345  30.617  33.601  1.00  0.00     0.064 A 
ATOM     88  C   UNL A   1      40.483  31.681  33.925  1.00  0.00     0.173 A 
ATOM     89  C   UNL A   1      42.114  30.079  34.640  1.00  0.00     0.173 A 
ATOM     90  F   UNL A   1      39.648  32.194  33.014  1.00  0.00    -0.203 F 
ATOM     91  C   UNL A   1      40.427  32.201  35.220  1.00  0.00     0.198 A 
ATOM     92  C   UNL A   1      42.033  30.576  35.936  1.00  0.00     0.198 A 
ATOM     93  F   UNL A   1      42.914  29.029  34.403  1.00  0.00    -0.203 F 
ATOM     94  F   UNL A   1      39.600  33.220  35.504  1.00  0.00    -0.200 F 
ATOM     95  C   UNL A   1      41.199  31.644  36.225  1.00  0.00     0.200 A 
ATOM     96  F   UNL A   1      42.746  29.998  36.913  1.00  0.00    -0.200 F 
ATOM     97  F   UNL A   1      41.125  32.118  37.477  1.00  0.00    -0.200 F 
ENDBRANCH  64  87
ENDBRANCH  38  39
ENDBRANCH  30  33
ENDBRANCH  28  29
ENDBRANCH  27  28
ENDBRANCH   1  27
TORSDOF 13
ENDMDL
MODEL 2
REMARK VINA RESULT:     -12.7      3.847      5.393
REMARK SMILES CC[C@@H]1C=CCN1S(=O)(=O)c1sc2c(c1C(=O)NCCCNC(=O)c1ccc(-c3c4nc(c(-c5c(F)c(F)c(F)c(F)c5F)c5ccc([nH]5)c(-c5c(F)c(F)c(F)c(F)c5F)c5nc(c(-c6c(F)c(F)c(F)c(F)c6F)c6ccc3[nH]6)C=C5)C=C4)cc1)CC[NH2+]C2
REMARK SMILES IDX 19 1 18 2 16 3 17 4 15 6 11 7 12 8 13 9 14 10 91 11 88 12
REMARK SMILES IDX 90 13 89 14 8 17 9 18 10 19 7 20 3 21 4 22 5 23 6 24 2 25
REMARK SMILES IDX 1 26 20 27 21 28 22 29 23 30 24 32 25 33 26 34 87 35 27 36
REMARK SMILES IDX 86 37 28 38 29 39 30 40 80 41 31 42 85 43 79 44 81 45 32 46
REMARK SMILES IDX 84 47 78 48 77 49 33 51 65 52 45 53 64 54 46 55 49 56 63 57
REMARK SMILES IDX 82 58 47 59 48 60 62 62 83 63 50 64 34 65 35 66 43 67 36 68
REMARK SMILES IDX 37 69 41 70 44 71 38 72 39 73 42 74 40 75 66 76 67 77 75 78
REMARK SMILES IDX 68 79 69 80 73 81 76 82 70 83 71 84 74 85 72 86 51 87 52 88
REMARK SMILES IDX 60 89 53 90 54 91 58 92 61 93 55 94 56 95 59 96 57 97
REMARK H PARENT 18 5 90 15 90 16 22 31 81 50 49 61
REMARK Flexibility Score: inf
ROOT
ATOM      1  C   UNL A   1      33.956  28.692  27.044  1.00  0.00     0.118 C 
ENDROOT
BRANCH   1   2
ATOM      2  N   UNL A   1      32.686  28.545  27.653  1.00  0.00    -0.352 N 
ATOM      3  C   UNL A   1      31.612  27.825  27.248  1.00  0.00     0.253 C 
ATOM      4  O   UNL A   1      30.716  27.858  28.103  1.00  0.00    -0.269 OA
ATOM      5  H   UNL A   1      32.566  29.040  28.495  1.00  0.00     0.163 HD
BRANCH   3   6
ATOM      6  C   UNL A   1      31.429  27.065  25.969  1.00  0.00     0.074 A 
ATOM      7  C   UNL A   1      31.457  25.693  25.552  1.00  0.00     0.148 A 
ATOM      8  S   UNL A   1      31.186  25.601  23.820  1.00  0.00    -0.120 S 
ATOM      9  C   UNL A   1      31.100  27.241  23.590  1.00  0.00     0.064 A 
ATOM     10  C   UNL A   1      31.143  27.931  24.773  1.00  0.00    -0.009 A 
ATOM     11  C   UNL A   1      30.900  27.823  22.224  1.00  0.00     0.308 C 
ATOM     12  C   UNL A   1      30.942  29.441  24.716  1.00  0.00     0.099 C 
ATOM     13  N   UNL A   1      31.134  29.274  22.219  1.00  0.00    -0.342 N 
ATOM     14  C   UNL A   1      30.410  29.900  23.339  1.00  0.00     0.265 C 
ATOM     15  H   UNL A   1      32.133  29.457  22.316  1.00  0.00     0.346 HD
ATOM     16  H   UNL A   1      30.798  29.667  21.339  1.00  0.00     0.346 HD
BRANCH   7  17
ATOM     17  S   UNL A   1      31.633  23.884  26.092  1.00  0.00     0.254 S 
ATOM     18  O   UNL A   1      30.522  23.182  25.496  1.00  0.00    -0.206 OA
ATOM     19  O   UNL A   1      31.742  23.821  27.538  1.00  0.00    -0.206 OA
BRANCH  17  20
ATOM     20  N   UNL A   1      33.084  23.181  25.446  1.00  0.00    -0.186 NA
ATOM     21  C   UNL A   1      34.322  23.526  26.278  1.00  0.00     0.096 C 
ATOM     22  C   UNL A   1      34.629  22.242  26.978  1.00  0.00    -0.010 C 
ATOM     23  C   UNL A   1      33.953  21.224  26.452  1.00  0.00    -0.013 C 
ATOM     24  C   UNL A   1      33.031  21.683  25.383  1.00  0.00     0.130 C 
BRANCH  21  25
ATOM     25  C   UNL A   1      35.496  23.949  25.367  1.00  0.00     0.021 C 
ATOM     26  C   UNL A   1      36.870  23.821  26.034  1.00  0.00     0.006 C 
ENDBRANCH  21  25
ENDBRANCH  17  20
ENDBRANCH   7  17
ENDBRANCH   3   6
ENDBRANCH   1   2
BRANCH   1  27
ATOM     27  C   UNL A   1      34.417  30.149  27.126  1.00  0.00     0.042 C 
BRANCH  27  28
ATOM     28  C   UNL A   1      35.843  30.185  27.625  1.00  0.00     0.118 C 
BRANCH  28  29
ATOM     29  N   UNL A   1      35.927  30.084  29.094  1.00  0.00    -0.352 N 
ATOM     30  C   UNL A   1      36.836  29.367  29.859  1.00  0.00     0.251 C 
ATOM     31  H   UNL A   1      35.250  30.592  29.597  1.00  0.00     0.163 HD
ATOM     32  O   UNL A   1      36.635  29.112  31.038  1.00  0.00    -0.269 OA
BRANCH  30  33
ATOM     33  C   UNL A   1      38.089  28.959  29.208  1.00  0.00     0.039 A 
ATOM     34  C   UNL A   1      38.684  29.588  28.114  1.00  0.00     0.014 A 
ATOM     35  C   UNL A   1      38.722  27.886  29.793  1.00  0.00     0.014 A 
ATOM     36  C   UNL A   1      39.947  29.136  27.715  1.00  0.00     0.010 A 
ATOM     37  C   UNL A   1      40.070  27.941  29.767  1.00  0.00     0.010 A 
ATOM     38  C   UNL A   1      40.631  28.252  28.560  1.00  0.00    -0.014 A 
BRANCH  38  39
ATOM     39  C   UNL A   1      42.026  27.862  28.472  1.00  0.00     0.031 A 
ATOM     40  C   UNL A   1      42.183  26.613  27.697  1.00  0.00     0.074 A 
ATOM     41  C   UNL A   1      43.039  28.685  28.852  1.00  0.00     0.049 A 
ATOM     42  N   UNL A   1      42.297  25.431  28.197  1.00  0.00    -0.248 NA
ATOM     43  C   UNL A   1      41.900  26.611  26.248  1.00  0.00     0.031 C 
ATOM     44  C   UNL A   1      42.989  30.062  29.368  1.00  0.00     0.029 A 
ATOM     45  N   UNL A   1      44.386  28.446  28.829  1.00  0.00    -0.354 N 
ATOM     46  C   UNL A   1      42.421  24.580  27.109  1.00  0.00     0.074 A 
ATOM     47  C   UNL A   1      41.889  25.301  25.985  1.00  0.00     0.031 C 
ATOM     48  C   UNL A   1      44.233  30.602  29.398  1.00  0.00     0.029 A 
ATOM     49  C   UNL A   1      45.195  29.572  29.064  1.00  0.00     0.049 A 
ATOM     50  H   UNL A   1      44.761  27.552  28.660  1.00  0.00     0.167 HD
ATOM     51  C   UNL A   1      43.282  23.529  27.186  1.00  0.00     0.037 A 
ATOM     52  C   UNL A   1      46.559  29.600  29.008  1.00  0.00     0.037 A 
ATOM     53  C   UNL A   1      43.661  23.304  28.566  1.00  0.00     0.049 A 
ATOM     54  C   UNL A   1      47.011  28.189  29.168  1.00  0.00     0.074 A 
ATOM     55  C   UNL A   1      42.975  23.001  29.727  1.00  0.00     0.029 A 
ATOM     56  N   UNL A   1      44.855  23.851  28.966  1.00  0.00    -0.354 N 
ATOM     57  N   UNL A   1      46.834  27.512  30.271  1.00  0.00    -0.248 NA
ATOM     58  C   UNL A   1      47.116  27.404  27.948  1.00  0.00     0.031 C 
ATOM     59  C   UNL A   1      43.582  23.806  30.739  1.00  0.00     0.029 A 
ATOM     60  C   UNL A   1      44.682  24.460  30.181  1.00  0.00     0.049 A 
ATOM     61  H   UNL A   1      45.700  23.813  28.461  1.00  0.00     0.167 HD
ATOM     62  C   UNL A   1      46.345  26.286  29.845  1.00  0.00     0.074 A 
ATOM     63  C   UNL A   1      46.556  26.276  28.394  1.00  0.00     0.031 C 
ATOM     64  C   UNL A   1      45.516  25.547  30.641  1.00  0.00     0.037 A 
BRANCH  51  65
ATOM     65  C   UNL A   1      44.146  23.044  26.043  1.00  0.00     0.064 A 
ATOM     66  C   UNL A   1      44.179  21.659  25.776  1.00  0.00     0.173 A 
ATOM     67  C   UNL A   1      45.161  23.802  25.419  1.00  0.00     0.173 A 
ATOM     68  F   UNL A   1      43.272  20.837  26.324  1.00  0.00    -0.203 F 
ATOM     69  C   UNL A   1      45.204  21.074  25.028  1.00  0.00     0.198 A 
ATOM     70  C   UNL A   1      46.154  23.220  24.633  1.00  0.00     0.198 A 
ATOM     71  F   UNL A   1      45.314  25.114  25.623  1.00  0.00    -0.203 F 
ATOM     72  F   UNL A   1      45.267  19.741  24.917  1.00  0.00    -0.200 F 
ATOM     73  C   UNL A   1      46.195  21.855  24.465  1.00  0.00     0.200 A 
ATOM     74  F   UNL A   1      47.118  23.994  24.114  1.00  0.00    -0.200 F 
ATOM     75  F   UNL A   1      47.214  21.292  23.802  1.00  0.00    -0.200 F 
ENDBRANCH  51  65
BRANCH  52  76
ATOM     76  C   UNL A   1      47.470  30.634  28.437  1.00  0.00     0.064 A 
ATOM     77  C   UNL A   1      47.113  31.382  27.295  1.00  0.00     0.173 A 
ATOM     78  C   UNL A   1      48.549  31.137  29.186  1.00  0.00     0.173 A 
ATOM     79  F   UNL A   1      46.064  31.011  26.547  1.00  0.00    -0.203 F 
ATOM     80  C   UNL A   1      47.772  32.572  26.950  1.00  0.00     0.198 A 
ATOM     81  C   UNL A   1      49.203  32.326  28.844  1.00  0.00     0.198 A 
ATOM     82  F   UNL A   1      48.922  30.539  30.327  1.00  0.00    -0.203 F 
ATOM     83  F   UNL A   1      47.361  33.288  25.891  1.00  0.00    -0.200 F 
ATOM     84  C   UNL A   1      48.807  33.051  27.734  1.00  0.00     0.200 A 
ATOM     85  F   UNL A   1      50.172  32.803  29.637  1.00  0.00    -0.200 F 
ATOM     86  F   UNL A   1      49.391  34.224  27.450  1.00  0.00    -0.200 F 
ENDBRANCH  52  76
BRANCH  64  87
ATOM     87  C   UNL A   1      45.346  25.978  32.074  1.00  0.00     0.064 A 
ATOM     88  C   UNL A   1      44.243  26.692  32.579  1.00  0.00     0.173 A 
ATOM     89  C   UNL A   1      46.289  25.520  33.001  1.00  0.00     0.173 A 
ATOM     90  F   UNL A   1      43.251  27.087  31.774  1.00  0.00    -0.203 F 
ATOM     91  C   UNL A   1      44.119  26.964  33.944  1.00  0.00     0.198 A 
ATOM     92  C   UNL A   1      46.147  25.762  34.363  1.00  0.00     0.198 A 
ATOM     93  F   UNL A   1      47.333  24.787  32.584  1.00  0.00    -0.203 F 
ATOM     94  F   UNL A   1      43.061  27.652  34.402  1.00  0.00    -0.200 F 
ATOM     95  C   UNL A   1      45.069  26.494  34.834  1.00  0.00     0.200 A 
ATOM     96  F   UNL A   1      47.044  25.261  35.222  1.00  0.00    -0.200 F 
ATOM     97  F   UNL A   1      44.937  26.724  36.148  1.00  0.00    -0.200 F 
ENDBRANCH  64  87
ENDBRANCH  38  39
ENDBRANCH  30  33
ENDBRANCH  28  29
ENDBRANCH  27  28
ENDBRANCH   1  27
TORSDOF 13
ENDMDL
MODEL 3
REMARK VINA RESULT:     -12.6      2.937      7.396
REMARK SMILES CC[C@@H]1C=CCN1S(=O)(=O)c1sc2c(c1C(=O)NCCCNC(=O)c1ccc(-c3c4nc(c(-c5c(F)c(F)c(F)c(F)c5F)c5ccc([nH]5)c(-c5c(F)c(F)c(F)c(F)c5F)c5nc(c(-c6c(F)c(F)c(F)c(F)c6F)c6ccc3[nH]6)C=C5)C=C4)cc1)CC[NH2+]C2
REMARK SMILES IDX 19 1 18 2 16 3 17 4 15 6 11 7 12 8 13 9 14 10 91 11 88 12
REMARK SMILES IDX 90 13 89 14 8 17 9 18 10 19 7 20 3 21 4 22 5 23 6 24 2 25
REMARK SMILES IDX 1 26 20 27 21 28 22 29 23 30 24 32 25 33 26 34 87 35 27 36
REMARK SMILES IDX 86 37 28 38 29 39 30 40 80 41 31 42 85 43 79 44 81 45 32 46
REMARK SMILES IDX 84 47 78 48 77 49 33 51 65 52 45 53 64 54 46 55 49 56 63 57
REMARK SMILES IDX 82 58 47 59 48 60 62 62 83 63 50 64 34 65 35 66 43 67 36 68
REMARK SMILES IDX 37 69 41 70 44 71 38 72 39 73 42 74 40 75 66 76 67 77 75 78
REMARK SMILES IDX 68 79 69 80 73 81 76 82 70 83 71 84 74 85 72 86 51 87 52 88
REMARK SMILES IDX 60 89 53 90 54 91 58 92 61 93 55 94 56 95 59 96 57 97
REMARK H PARENT 18 5 90 15 90 16 22 31 81 50 49 61
REMARK Flexibility Score: inf
ROOT
ATOM      1  C   UNL A   1      33.990  28.853  27.077  1.00  0.00     0.118 C 
ENDROOT
BRANCH   1   2
ATOM      2  N   UNL A   1      32.723  28.667  27.682  1.00  0.00    -0.352 N 
ATOM      3  C   UNL A   1      31.677  27.907  27.279  1.00  0.00     0.253 C 
ATOM      4  O   UNL A   1      30.776  27.916  28.129  1.00  0.00    -0.269 OA
ATOM      5  H   UNL A   1      32.583  29.163  28.520  1.00  0.00     0.163 HD
BRANCH   3   6
ATOM      6  C   UNL A   1      31.527  27.132  26.005  1.00  0.00     0.074 A 
ATOM      7  C   UNL A   1      31.619  25.761  25.595  1.00  0.00     0.148 A 
ATOM      8  S   UNL A   1      31.347  25.645  23.864  1.00  0.00    -0.120 S 
ATOM      9  C   UNL A   1      31.180  27.278  23.626  1.00  0.00     0.064 A 
ATOM     10  C   UNL A   1      31.195  27.976  24.805  1.00  0.00    -0.009 A 
ATOM     11  C   UNL A   1      30.947  27.841  22.258  1.00  0.00     0.308 C 
ATOM     12  C   UNL A   1      30.920  29.474  24.740  1.00  0.00     0.099 C 
ATOM     13  N   UNL A   1      31.111  29.303  22.243  1.00  0.00    -0.342 N 
ATOM     14  C   UNL A   1      30.361  29.899  23.363  1.00  0.00     0.265 C 
ATOM     15  H   UNL A   1      32.099  29.534  22.335  1.00  0.00     0.346 HD
ATOM     16  H   UNL A   1      30.753  29.673  21.362  1.00  0.00     0.346 HD
BRANCH   7  17
ATOM     17  S   UNL A   1      31.885  23.966  26.144  1.00  0.00     0.254 S 
ATOM     18  O   UNL A   1      31.270  23.144  25.129  1.00  0.00    -0.206 OA
ATOM     19  O   UNL A   1      31.394  23.799  27.501  1.00  0.00    -0.206 OA
BRANCH  17  20
ATOM     20  N   UNL A   1      33.575  23.566  26.168  1.00  0.00    -0.186 NA
ATOM     21  C   UNL A   1      33.915  22.403  25.232  1.00  0.00     0.096 C 
ATOM     22  C   UNL A   1      34.620  23.074  24.099  1.00  0.00    -0.010 C 
ATOM     23  C   UNL A   1      34.956  24.325  24.403  1.00  0.00    -0.013 C 
ATOM     24  C   UNL A   1      34.453  24.707  25.747  1.00  0.00     0.130 C 
BRANCH  21  25
ATOM     25  C   UNL A   1      34.844  21.387  25.933  1.00  0.00     0.021 C 
ATOM     26  C   UNL A   1      35.728  20.592  24.965  1.00  0.00     0.006 C 
ENDBRANCH  21  25
ENDBRANCH  17  20
ENDBRANCH   7  17
ENDBRANCH   3   6
ENDBRANCH   1   2
BRANCH   1  27
ATOM     27  C   UNL A   1      34.275  30.346  26.894  1.00  0.00     0.042 C 
BRANCH  27  28
ATOM     28  C   UNL A   1      35.611  30.672  27.521  1.00  0.00     0.118 C 
BRANCH  28  29
ATOM     29  N   UNL A   1      35.555  31.879  28.366  1.00  0.00    -0.352 N 
ATOM     30  C   UNL A   1      36.069  32.064  29.642  1.00  0.00     0.251 C 
ATOM     31  H   UNL A   1      35.093  32.655  27.973  1.00  0.00     0.163 HD
ATOM     32  O   UNL A   1      35.710  32.986  30.359  1.00  0.00    -0.269 OA
BRANCH  30  33
ATOM     33  C   UNL A   1      37.109  31.128  30.089  1.00  0.00     0.039 A 
ATOM     34  C   UNL A   1      36.892  29.847  30.598  1.00  0.00     0.014 A 
ATOM     35  C   UNL A   1      38.400  31.578  29.930  1.00  0.00     0.014 A 
ATOM     36  C   UNL A   1      38.017  29.050  30.848  1.00  0.00     0.010 A 
ATOM     37  C   UNL A   1      39.297  30.623  29.607  1.00  0.00     0.010 A 
ATOM     38  C   UNL A   1      39.258  29.488  30.367  1.00  0.00    -0.014 A 
BRANCH  38  39
ATOM     39  C   UNL A   1      40.486  28.718  30.290  1.00  0.00     0.031 A 
ATOM     40  C   UNL A   1      41.071  28.512  31.632  1.00  0.00     0.074 A 
ATOM     41  C   UNL A   1      40.880  28.083  29.154  1.00  0.00     0.049 A 
ATOM     42  N   UNL A   1      42.015  29.218  32.153  1.00  0.00    -0.248 NA
ATOM     43  C   UNL A   1      40.375  27.652  32.609  1.00  0.00     0.031 C 
ATOM     44  C   UNL A   1      40.210  27.993  27.847  1.00  0.00     0.029 A 
ATOM     45  N   UNL A   1      42.006  27.335  28.942  1.00  0.00    -0.354 N 
ATOM     46  C   UNL A   1      42.237  28.669  33.407  1.00  0.00     0.074 A 
ATOM     47  C   UNL A   1      41.045  27.935  33.731  1.00  0.00     0.031 C 
ATOM     48  C   UNL A   1      40.823  27.070  27.064  1.00  0.00     0.029 A 
ATOM     49  C   UNL A   1      42.023  26.614  27.735  1.00  0.00     0.049 A 
ATOM     50  H   UNL A   1      42.748  27.304  29.587  1.00  0.00     0.167 HD
ATOM     51  C   UNL A   1      43.514  28.575  33.871  1.00  0.00     0.037 A 
ATOM     52  C   UNL A   1      42.994  25.738  27.343  1.00  0.00     0.037 A 
ATOM     53  C   UNL A   1      44.390  29.408  33.073  1.00  0.00     0.049 A 
ATOM     54  C   UNL A   1      44.207  26.078  28.140  1.00  0.00     0.074 A 
ATOM     55  C   UNL A   1      44.452  30.758  32.783  1.00  0.00     0.029 A 
ATOM     56  N   UNL A   1      45.085  28.776  32.072  1.00  0.00    -0.354 N 
ATOM     57  N   UNL A   1      44.843  27.210  28.008  1.00  0.00    -0.248 NA
ATOM     58  C   UNL A   1      44.333  25.423  29.433  1.00  0.00     0.031 C 
ATOM     59  C   UNL A   1      44.769  30.825  31.392  1.00  0.00     0.029 A 
ATOM     60  C   UNL A   1      45.011  29.531  30.931  1.00  0.00     0.049 A 
ATOM     61  H   UNL A   1      45.561  27.918  32.159  1.00  0.00     0.167 HD
ATOM     62  C   UNL A   1      45.056  27.638  29.310  1.00  0.00     0.074 A 
ATOM     63  C   UNL A   1      44.730  26.479  30.148  1.00  0.00     0.031 C 
ATOM     64  C   UNL A   1      45.145  28.968  29.606  1.00  0.00     0.037 A 
BRANCH  51  65
ATOM     65  C   UNL A   1      44.050  27.408  34.671  1.00  0.00     0.064 A 
ATOM     66  C   UNL A   1      43.931  26.115  34.121  1.00  0.00     0.173 A 
ATOM     67  C   UNL A   1      44.374  27.451  36.044  1.00  0.00     0.173 A 
ATOM     68  F   UNL A   1      43.615  25.950  32.827  1.00  0.00    -0.203 F 
ATOM     69  C   UNL A   1      44.030  24.964  34.907  1.00  0.00     0.198 A 
ATOM     70  C   UNL A   1      44.519  26.299  36.815  1.00  0.00     0.198 A 
ATOM     71  F   UNL A   1      44.454  28.593  36.735  1.00  0.00    -0.203 F 
ATOM     72  F   UNL A   1      43.774  23.766  34.366  1.00  0.00    -0.200 F 
ATOM     73  C   UNL A   1      44.315  25.058  36.256  1.00  0.00     0.200 A 
ATOM     74  F   UNL A   1      44.775  26.415  38.127  1.00  0.00    -0.200 F 
ATOM     75  F   UNL A   1      44.346  23.963  37.025  1.00  0.00    -0.200 F 
ENDBRANCH  51  65
BRANCH  52  76
ATOM     76  C   UNL A   1      42.869  24.413  26.670  1.00  0.00     0.064 A 
ATOM     77  C   UNL A   1      43.508  24.147  25.440  1.00  0.00     0.173 A 
ATOM     78  C   UNL A   1      42.405  23.287  27.374  1.00  0.00     0.173 A 
ATOM     79  F   UNL A   1      44.031  25.151  24.721  1.00  0.00    -0.203 F 
ATOM     80  C   UNL A   1      43.697  22.840  24.967  1.00  0.00     0.198 A 
ATOM     81  C   UNL A   1      42.599  21.983  26.905  1.00  0.00     0.198 A 
ATOM     82  F   UNL A   1      41.847  23.426  28.585  1.00  0.00    -0.203 F 
ATOM     83  F   UNL A   1      44.365  22.627  23.823  1.00  0.00    -0.200 F 
ATOM     84  C   UNL A   1      43.256  21.757  25.709  1.00  0.00     0.200 A 
ATOM     85  F   UNL A   1      42.208  20.943  27.654  1.00  0.00    -0.200 F 
ATOM     86  F   UNL A   1      43.499  20.505  25.297  1.00  0.00    -0.200 F 
ENDBRANCH  52  76
BRANCH  64  87
ATOM     87  C   UNL A   1      45.250  29.940  28.461  1.00  0.00     0.064 A 
ATOM     88  C   UNL A   1      44.162  30.590  27.848  1.00  0.00     0.173 A 
ATOM     89  C   UNL A   1      46.534  30.328  28.060  1.00  0.00     0.173 A 
ATOM     90  F   UNL A   1      42.906  30.345  28.235  1.00  0.00    -0.203 F 
ATOM     91  C   UNL A   1      44.358  31.554  26.856  1.00  0.00     0.198 A 
ATOM     92  C   UNL A   1      46.728  31.312  27.096  1.00  0.00     0.198 A 
ATOM     93  F   UNL A   1      47.610  29.782  28.647  1.00  0.00    -0.203 F 
ATOM     94  F   UNL A   1      43.305  32.157  26.282  1.00  0.00    -0.200 F 
ATOM     95  C   UNL A   1      45.642  31.916  26.485  1.00  0.00     0.200 A 
ATOM     96  F   UNL A   1      47.974  31.692  26.780  1.00  0.00    -0.200 F 
ATOM     97  F   UNL A   1      45.836  32.864  25.557  1.00  0.00    -0.200 F 
ENDBRANCH  64  87
ENDBRANCH  38  39
ENDBRANCH  30  33
ENDBRANCH  28  29
ENDBRANCH  27  28
ENDBRANCH   1  27
TORSDOF 13
ENDMDL
