MODEL 1
REMARK VINA RESULT:     -11.4      0.000      0.000
REMARK SMILES CC[NH2+]C(C)(C)C(=O)N[C@@](C)(C(=O)NCCCNC(=O)c1ccc(-c2c3nc(c(-c4c(F)c(F)c(F)c(F)c4F)c4ccc([nH]4)c(-c4c(F)c(F)c(F)c(F)c4F)c4nc(c(-c5c(F)c(F)c(F)c(F)c5F)c5ccc2[nH]5)C=C4)C=C3)cc1)C(F)(F)F
REMARK SMILES IDX 15 1 14 2 12 3 13 4 10 6 11 7 9 8 7 9 8 10 4 12 5 13 6 14
REMARK SMILES IDX 3 15 2 18 1 19 84 20 85 21 86 22 87 23 16 24 17 25 18 26
REMARK SMILES IDX 19 27 20 29 21 30 22 31 83 32 23 33 82 34 24 35 25 36 26 37
REMARK SMILES IDX 76 38 27 39 81 40 75 41 77 42 28 43 80 44 74 45 73 46 29 48
REMARK SMILES IDX 61 49 41 50 60 51 42 52 45 53 59 54 78 55 43 56 44 57 58 59
REMARK SMILES IDX 79 60 46 61 30 62 31 63 39 64 32 65 33 66 37 67 40 68 34 69
REMARK SMILES IDX 35 70 38 71 36 72 62 73 63 74 71 75 64 76 65 77 69 78 72 79
REMARK SMILES IDX 66 80 67 81 70 82 68 83 47 84 48 85 56 86 49 87 50 88 54 89
REMARK SMILES IDX 57 90 51 91 52 92 55 93 53 94
REMARK H PARENT 14 5 9 11 3 16 3 17 18 28 77 47 45 58
REMARK Flexibility Score: inf
ROOT
ATOM      1  C   UNL A   1      36.555  20.651  25.004  1.00  0.00     0.117 C 
ENDROOT
BRANCH   1   2
ATOM      2  N   UNL A   1      35.331  19.875  25.123  1.00  0.00    -0.354 N 
ATOM      3  C   UNL A   1      34.012  20.193  25.255  1.00  0.00     0.254 C 
ATOM      4  O   UNL A   1      33.265  19.216  25.359  1.00  0.00    -0.272 OA
ATOM      5  H   UNL A   1      35.491  18.904  25.106  1.00  0.00     0.163 HD
BRANCH   3   6
ATOM      6  C   UNL A   1      33.489  21.646  25.337  1.00  0.00     0.212 C 
ATOM      7  C   UNL A   1      31.945  21.711  25.374  1.00  0.00     0.056 C 
BRANCH   6   8
ATOM      8  N   UNL A   1      33.944  22.297  24.036  1.00  0.00    -0.329 N 
ATOM      9  C   UNL A   1      34.116  23.501  23.422  1.00  0.00     0.281 C 
ATOM     10  O   UNL A   1      34.778  23.422  22.380  1.00  0.00    -0.268 OA
ATOM     11  H   UNL A   1      34.214  21.587  23.410  1.00  0.00     0.165 HD
BRANCH   9  12
ATOM     12  C   UNL A   1      33.531  24.842  23.940  1.00  0.00     0.169 C 
ATOM     13  C   UNL A   1      33.507  25.860  22.795  1.00  0.00     0.090 C 
ATOM     14  C   UNL A   1      34.401  25.268  25.144  1.00  0.00     0.090 C 
BRANCH  12  15
ATOM     15  N   UNL A   1      32.181  24.726  24.569  1.00  0.00    -0.334 N 
ATOM     16  H   UNL A   1      31.496  24.958  23.849  1.00  0.00     0.347 HD
ATOM     17  H   UNL A   1      32.162  23.772  24.929  1.00  0.00     0.347 HD
BRANCH  15  18
ATOM     18  C   UNL A   1      31.870  25.546  25.735  1.00  0.00     0.257 C 
ATOM     19  C   UNL A   1      30.639  26.392  25.413  1.00  0.00     0.071 C 
ENDBRANCH  15  18
ENDBRANCH  12  15
ENDBRANCH   9  12
ENDBRANCH   6   8
BRANCH   6  20
ATOM     20  C   UNL A   1      33.908  22.131  26.763  1.00  0.00     0.420 C 
ATOM     21  F   UNL A   1      33.096  23.027  27.343  1.00  0.00    -0.168 F 
ATOM     22  F   UNL A   1      34.027  21.094  27.627  1.00  0.00    -0.168 F 
ATOM     23  F   UNL A   1      35.147  22.696  26.728  1.00  0.00    -0.168 F 
ENDBRANCH   6  20
ENDBRANCH   3   6
ENDBRANCH   1   2
BRANCH   1  24
ATOM     24  C   UNL A   1      37.790  19.770  24.898  1.00  0.00     0.042 C 
BRANCH  24  25
ATOM     25  C   UNL A   1      38.969  20.231  25.743  1.00  0.00     0.118 C 
BRANCH  25  26
ATOM     26  N   UNL A   1      39.981  19.197  25.916  1.00  0.00    -0.352 N 
ATOM     27  C   UNL A   1      41.332  19.308  26.126  1.00  0.00     0.251 C 
ATOM     28  H   UNL A   1      39.641  18.273  25.876  1.00  0.00     0.163 HD
ATOM     29  O   UNL A   1      42.044  18.306  26.058  1.00  0.00    -0.269 OA
BRANCH  27  30
ATOM     30  C   UNL A   1      41.941  20.624  26.408  1.00  0.00     0.039 A 
ATOM     31  C   UNL A   1      42.233  21.478  25.341  1.00  0.00     0.014 A 
ATOM     32  C   UNL A   1      42.230  21.018  27.716  1.00  0.00     0.014 A 
ATOM     33  C   UNL A   1      42.747  22.752  25.594  1.00  0.00     0.010 A 
ATOM     34  C   UNL A   1      42.647  22.319  27.972  1.00  0.00     0.010 A 
ATOM     35  C   UNL A   1      42.917  23.199  26.914  1.00  0.00    -0.014 A 
BRANCH  35  36
ATOM     36  C   UNL A   1      43.380  24.578  27.211  1.00  0.00     0.031 A 
ATOM     37  C   UNL A   1      42.419  25.597  27.757  1.00  0.00     0.074 A 
ATOM     38  C   UNL A   1      44.649  24.931  26.921  1.00  0.00     0.049 A 
ATOM     39  N   UNL A   1      42.613  26.867  28.009  1.00  0.00    -0.248 NA
ATOM     40  C   UNL A   1      41.049  25.135  28.029  1.00  0.00     0.031 C 
ATOM     41  C   UNL A   1      45.661  24.048  26.341  1.00  0.00     0.029 A 
ATOM     42  N   UNL A   1      45.299  26.132  27.066  1.00  0.00    -0.354 N 
ATOM     43  C   UNL A   1      41.390  27.355  28.451  1.00  0.00     0.074 A 
ATOM     44  C   UNL A   1      40.446  26.261  28.375  1.00  0.00     0.031 C 
ATOM     45  C   UNL A   1      46.811  24.727  26.205  1.00  0.00     0.029 A 
ATOM     46  C   UNL A   1      46.605  26.104  26.645  1.00  0.00     0.049 A 
ATOM     47  H   UNL A   1      44.869  26.936  27.437  1.00  0.00     0.167 HD
ATOM     48  C   UNL A   1      41.086  28.595  28.903  1.00  0.00     0.037 A 
ATOM     49  C   UNL A   1      47.531  27.082  26.606  1.00  0.00     0.037 A 
ATOM     50  C   UNL A   1      42.036  29.674  28.997  1.00  0.00     0.049 A 
ATOM     51  C   UNL A   1      47.164  28.456  27.100  1.00  0.00     0.074 A 
ATOM     52  C   UNL A   1      41.846  30.948  29.499  1.00  0.00     0.029 A 
ATOM     53  N   UNL A   1      43.355  29.604  28.571  1.00  0.00    -0.354 N 
ATOM     54  N   UNL A   1      46.025  28.885  27.588  1.00  0.00    -0.248 NA
ATOM     55  C   UNL A   1      48.216  29.481  27.043  1.00  0.00     0.031 C 
ATOM     56  C   UNL A   1      43.033  31.668  29.326  1.00  0.00     0.029 A 
ATOM     57  C   UNL A   1      43.982  30.824  28.773  1.00  0.00     0.049 A 
ATOM     58  H   UNL A   1      43.782  28.808  28.182  1.00  0.00     0.167 HD
ATOM     59  C   UNL A   1      46.231  30.217  27.923  1.00  0.00     0.074 A 
ATOM     60  C   UNL A   1      47.610  30.520  27.599  1.00  0.00     0.031 C 
ATOM     61  C   UNL A   1      45.357  31.108  28.453  1.00  0.00     0.037 A 
BRANCH  48  62
ATOM     62  C   UNL A   1      39.669  28.854  29.328  1.00  0.00     0.064 A 
ATOM     63  C   UNL A   1      39.241  28.630  30.646  1.00  0.00     0.173 A 
ATOM     64  C   UNL A   1      38.734  29.366  28.415  1.00  0.00     0.173 A 
ATOM     65  F   UNL A   1      40.091  28.132  31.557  1.00  0.00    -0.203 F 
ATOM     66  C   UNL A   1      37.923  28.874  31.025  1.00  0.00     0.198 A 
ATOM     67  C   UNL A   1      37.426  29.642  28.806  1.00  0.00     0.198 A 
ATOM     68  F   UNL A   1      39.090  29.606  27.144  1.00  0.00    -0.203 F 
ATOM     69  F   UNL A   1      37.525  28.598  32.274  1.00  0.00    -0.200 F 
ATOM     70  C   UNL A   1      37.019  29.388  30.107  1.00  0.00     0.200 A 
ATOM     71  F   UNL A   1      36.558  30.153  27.922  1.00  0.00    -0.200 F 
ATOM     72  F   UNL A   1      35.754  29.629  30.474  1.00  0.00    -0.200 F 
ENDBRANCH  48  62
BRANCH  49  73
ATOM     73  C   UNL A   1      48.900  26.793  26.102  1.00  0.00     0.064 A 
ATOM     74  C   UNL A   1      49.231  27.006  24.757  1.00  0.00     0.173 A 
ATOM     75  C   UNL A   1      49.899  26.289  26.946  1.00  0.00     0.173 A 
ATOM     76  F   UNL A   1      48.303  27.468  23.905  1.00  0.00    -0.203 F 
ATOM     77  C   UNL A   1      50.501  26.705  24.270  1.00  0.00     0.198 A 
ATOM     78  C   UNL A   1      51.179  26.018  26.466  1.00  0.00     0.198 A 
ATOM     79  F   UNL A   1      49.637  26.071  28.244  1.00  0.00    -0.203 F 
ATOM     80  F   UNL A   1      50.775  26.871  22.969  1.00  0.00    -0.200 F 
ATOM     81  C   UNL A   1      51.476  26.217  25.127  1.00  0.00     0.200 A 
ATOM     82  F   UNL A   1      52.123  25.562  27.301  1.00  0.00    -0.200 F 
ATOM     83  F   UNL A   1      52.699  25.930  24.659  1.00  0.00    -0.200 F 
ENDBRANCH  49  73
BRANCH  61  84
ATOM     84  C   UNL A   1      45.876  32.485  28.755  1.00  0.00     0.064 A 
ATOM     85  C   UNL A   1      45.774  33.534  27.828  1.00  0.00     0.173 A 
ATOM     86  C   UNL A   1      46.445  32.769  30.007  1.00  0.00     0.173 A 
ATOM     87  F   UNL A   1      45.251  33.312  26.613  1.00  0.00    -0.203 F 
ATOM     88  C   UNL A   1      46.250  34.806  28.132  1.00  0.00     0.198 A 
ATOM     89  C   UNL A   1      46.887  34.050  30.320  1.00  0.00     0.198 A 
ATOM     90  F   UNL A   1      46.558  31.805  30.932  1.00  0.00    -0.203 F 
ATOM     91  F   UNL A   1      46.192  35.779  27.212  1.00  0.00    -0.200 F 
ATOM     92  C   UNL A   1      46.799  35.066  29.380  1.00  0.00     0.200 A 
ATOM     93  F   UNL A   1      47.401  34.303  31.532  1.00  0.00    -0.200 F 
ATOM     94  F   UNL A   1      47.247  36.293  29.674  1.00  0.00    -0.200 F 
ENDBRANCH  61  84
ENDBRANCH  35  36
ENDBRANCH  27  30
ENDBRANCH  25  26
ENDBRANCH  24  25
ENDBRANCH   1  24
TORSDOF 15
ENDMDL
MODEL 2
REMARK VINA RESULT:     -11.4      0.457      2.106
REMARK SMILES CC[NH2+]C(C)(C)C(=O)N[C@@](C)(C(=O)NCCCNC(=O)c1ccc(-c2c3nc(c(-c4c(F)c(F)c(F)c(F)c4F)c4ccc([nH]4)c(-c4c(F)c(F)c(F)c(F)c4F)c4nc(c(-c5c(F)c(F)c(F)c(F)c5F)c5ccc2[nH]5)C=C4)C=C3)cc1)C(F)(F)F
REMARK SMILES IDX 15 1 14 2 12 3 13 4 10 6 11 7 9 8 7 9 8 10 4 12 5 13 6 14
REMARK SMILES IDX 3 15 2 18 1 19 84 20 85 21 86 22 87 23 16 24 17 25 18 26
REMARK SMILES IDX 19 27 20 29 21 30 22 31 83 32 23 33 82 34 24 35 25 36 26 37
REMARK SMILES IDX 76 38 27 39 81 40 75 41 77 42 28 43 80 44 74 45 73 46 29 48
REMARK SMILES IDX 61 49 41 50 60 51 42 52 45 53 59 54 78 55 43 56 44 57 58 59
REMARK SMILES IDX 79 60 46 61 30 62 31 63 39 64 32 65 33 66 37 67 40 68 34 69
REMARK SMILES IDX 35 70 38 71 36 72 62 73 63 74 71 75 64 76 65 77 69 78 72 79
REMARK SMILES IDX 66 80 67 81 70 82 68 83 47 84 48 85 56 86 49 87 50 88 54 89
REMARK SMILES IDX 57 90 51 91 52 92 55 93 53 94
REMARK H PARENT 14 5 9 11 3 16 3 17 18 28 77 47 45 58
REMARK Flexibility Score: inf
ROOT
ATOM      1  C   UNL A   1      36.540  20.692  25.071  1.00  0.00     0.117 C 
ENDROOT
BRANCH   1   2
ATOM      2  N   UNL A   1      35.322  19.903  25.155  1.00  0.00    -0.354 N 
ATOM      3  C   UNL A   1      33.995  20.206  25.243  1.00  0.00     0.254 C 
ATOM      4  O   UNL A   1      33.257  19.221  25.328  1.00  0.00    -0.272 OA
ATOM      5  H   UNL A   1      35.493  18.934  25.148  1.00  0.00     0.163 HD
BRANCH   3   6
ATOM      6  C   UNL A   1      33.453  21.653  25.299  1.00  0.00     0.212 C 
ATOM      7  C   UNL A   1      31.908  21.700  25.292  1.00  0.00     0.056 C 
BRANCH   6   8
ATOM      8  N   UNL A   1      33.938  22.300  24.008  1.00  0.00    -0.329 N 
ATOM      9  C   UNL A   1      33.869  23.444  23.269  1.00  0.00     0.281 C 
ATOM     10  O   UNL A   1      34.708  23.484  22.361  1.00  0.00    -0.268 OA
ATOM     11  H   UNL A   1      34.511  21.657  23.533  1.00  0.00     0.165 HD
BRANCH   9  12
ATOM     12  C   UNL A   1      32.838  24.580  23.504  1.00  0.00     0.169 C 
ATOM     13  C   UNL A   1      31.439  24.079  23.130  1.00  0.00     0.090 C 
ATOM     14  C   UNL A   1      33.318  25.790  22.672  1.00  0.00     0.090 C 
BRANCH  12  15
ATOM     15  N   UNL A   1      32.843  25.142  24.887  1.00  0.00    -0.334 N 
ATOM     16  H   UNL A   1      32.069  25.804  24.944  1.00  0.00     0.347 HD
ATOM     17  H   UNL A   1      32.785  24.318  25.485  1.00  0.00     0.347 HD
BRANCH  15  18
ATOM     18  C   UNL A   1      34.034  25.837  25.366  1.00  0.00     0.257 C 
ATOM     19  C   UNL A   1      33.589  27.087  26.123  1.00  0.00     0.071 C 
ENDBRANCH  15  18
ENDBRANCH  12  15
ENDBRANCH   9  12
ENDBRANCH   6   8
BRANCH   6  20
ATOM     20  C   UNL A   1      33.826  22.152  26.733  1.00  0.00     0.420 C 
ATOM     21  F   UNL A   1      34.027  21.199  27.654  1.00  0.00    -0.168 F 
ATOM     22  F   UNL A   1      34.940  22.924  26.719  1.00  0.00    -0.168 F 
ATOM     23  F   UNL A   1      32.849  22.965  27.223  1.00  0.00    -0.168 F 
ENDBRANCH   6  20
ENDBRANCH   3   6
ENDBRANCH   1   2
BRANCH   1  24
ATOM     24  C   UNL A   1      37.780  19.827  24.913  1.00  0.00     0.042 C 
BRANCH  24  25
ATOM     25  C   UNL A   1      38.985  20.299  25.713  1.00  0.00     0.118 C 
BRANCH  25  26
ATOM     26  N   UNL A   1      39.983  19.254  25.904  1.00  0.00    -0.352 N 
ATOM     27  C   UNL A   1      41.334  19.351  26.128  1.00  0.00     0.251 C 
ATOM     28  H   UNL A   1      39.633  18.334  25.867  1.00  0.00     0.163 HD
ATOM     29  O   UNL A   1      42.034  18.340  26.074  1.00  0.00    -0.269 OA
BRANCH  27  30
ATOM     30  C   UNL A   1      41.954  20.661  26.408  1.00  0.00     0.039 A 
ATOM     31  C   UNL A   1      42.280  21.499  25.338  1.00  0.00     0.014 A 
ATOM     32  C   UNL A   1      42.223  21.066  27.717  1.00  0.00     0.014 A 
ATOM     33  C   UNL A   1      42.805  22.769  25.587  1.00  0.00     0.010 A 
ATOM     34  C   UNL A   1      42.652  22.363  27.968  1.00  0.00     0.010 A 
ATOM     35  C   UNL A   1      42.955  23.228  26.905  1.00  0.00    -0.014 A 
BRANCH  35  36
ATOM     36  C   UNL A   1      43.432  24.604  27.196  1.00  0.00     0.031 A 
ATOM     37  C   UNL A   1      42.484  25.631  27.752  1.00  0.00     0.074 A 
ATOM     38  C   UNL A   1      44.700  24.947  26.894  1.00  0.00     0.049 A 
ATOM     39  N   UNL A   1      42.689  26.899  28.001  1.00  0.00    -0.248 NA
ATOM     40  C   UNL A   1      41.113  25.179  28.038  1.00  0.00     0.031 C 
ATOM     41  C   UNL A   1      45.700  24.057  26.305  1.00  0.00     0.029 A 
ATOM     42  N   UNL A   1      45.360  26.144  27.032  1.00  0.00    -0.354 N 
ATOM     43  C   UNL A   1      41.474  27.397  28.454  1.00  0.00     0.074 A 
ATOM     44  C   UNL A   1      40.522  26.309  28.389  1.00  0.00     0.031 C 
ATOM     45  C   UNL A   1      46.854  24.727  26.156  1.00  0.00     0.029 A 
ATOM     46  C   UNL A   1      46.662  26.106  26.597  1.00  0.00     0.049 A 
ATOM     47  H   UNL A   1      44.940  26.951  27.406  1.00  0.00     0.167 HD
ATOM     48  C   UNL A   1      41.185  28.639  28.908  1.00  0.00     0.037 A 
ATOM     49  C   UNL A   1      47.594  27.078  26.549  1.00  0.00     0.037 A 
ATOM     50  C   UNL A   1      42.143  29.711  28.992  1.00  0.00     0.049 A 
ATOM     51  C   UNL A   1      47.243  28.454  27.045  1.00  0.00     0.074 A 
ATOM     52  C   UNL A   1      41.967  30.987  29.496  1.00  0.00     0.029 A 
ATOM     53  N   UNL A   1      43.457  29.632  28.553  1.00  0.00    -0.354 N 
ATOM     54  N   UNL A   1      46.112  28.892  27.543  1.00  0.00    -0.248 NA
ATOM     55  C   UNL A   1      48.302  29.471  26.976  1.00  0.00     0.031 C 
ATOM     56  C   UNL A   1      43.157  31.698  29.310  1.00  0.00     0.029 A 
ATOM     57  C   UNL A   1      44.095  30.846  28.748  1.00  0.00     0.049 A 
ATOM     58  H   UNL A   1      43.874  28.831  28.161  1.00  0.00     0.167 HD
ATOM     59  C   UNL A   1      46.331  30.223  27.876  1.00  0.00     0.074 A 
ATOM     60  C   UNL A   1      47.709  30.516  27.538  1.00  0.00     0.031 C 
ATOM     61  C   UNL A   1      45.469  31.120  28.414  1.00  0.00     0.037 A 
BRANCH  48  62
ATOM     62  C   UNL A   1      39.774  28.909  29.347  1.00  0.00     0.064 A 
ATOM     63  C   UNL A   1      38.801  29.386  28.454  1.00  0.00     0.173 A 
ATOM     64  C   UNL A   1      39.379  28.656  30.670  1.00  0.00     0.173 A 
ATOM     65  F   UNL A   1      39.126  29.655  27.181  1.00  0.00    -0.203 F 
ATOM     66  C   UNL A   1      37.497  29.633  28.878  1.00  0.00     0.198 A 
ATOM     67  C   UNL A   1      38.066  28.871  31.081  1.00  0.00     0.198 A 
ATOM     68  F   UNL A   1      40.265  28.193  31.564  1.00  0.00    -0.203 F 
ATOM     69  F   UNL A   1      36.602  30.142  28.021  1.00  0.00    -0.200 F 
ATOM     70  C   UNL A   1      37.128  29.367  30.188  1.00  0.00     0.200 A 
ATOM     71  F   UNL A   1      37.707  28.599  32.344  1.00  0.00    -0.200 F 
ATOM     72  F   UNL A   1      35.872  29.597  30.592  1.00  0.00    -0.200 F 
ENDBRANCH  48  62
BRANCH  49  73
ATOM     73  C   UNL A   1      48.956  26.778  26.031  1.00  0.00     0.064 A 
ATOM     74  C   UNL A   1      49.951  26.270  26.878  1.00  0.00     0.173 A 
ATOM     75  C   UNL A   1      49.295  27.001  24.689  1.00  0.00     0.173 A 
ATOM     76  F   UNL A   1      49.682  26.058  28.175  1.00  0.00    -0.203 F 
ATOM     77  C   UNL A   1      51.239  26.019  26.408  1.00  0.00     0.198 A 
ATOM     78  C   UNL A   1      50.574  26.719  24.212  1.00  0.00     0.198 A 
ATOM     79  F   UNL A   1      48.379  27.480  23.835  1.00  0.00    -0.203 F 
ATOM     80  F   UNL A   1      52.184  25.582  27.251  1.00  0.00    -0.200 F 
ATOM     81  C   UNL A   1      51.547  26.238  25.074  1.00  0.00     0.200 A 
ATOM     82  F   UNL A   1      50.862  26.917  22.919  1.00  0.00    -0.200 F 
ATOM     83  F   UNL A   1      52.784  25.993  24.622  1.00  0.00    -0.200 F 
ENDBRANCH  49  73
BRANCH  61  84
ATOM     84  C   UNL A   1      46.000  32.494  28.710  1.00  0.00     0.064 A 
ATOM     85  C   UNL A   1      46.624  32.800  29.928  1.00  0.00     0.173 A 
ATOM     86  C   UNL A   1      45.920  33.507  27.740  1.00  0.00     0.173 A 
ATOM     87  F   UNL A   1      46.712  31.873  30.894  1.00  0.00    -0.203 F 
ATOM     88  C   UNL A   1      47.120  34.078  30.177  1.00  0.00     0.198 A 
ATOM     89  C   UNL A   1      46.450  34.772  27.979  1.00  0.00     0.198 A 
ATOM     90  F   UNL A   1      45.343  33.264  26.554  1.00  0.00    -0.203 F 
ATOM     91  F   UNL A   1      47.663  34.363  31.369  1.00  0.00    -0.200 F 
ATOM     92  C   UNL A   1      47.041  35.059  29.200  1.00  0.00     0.200 A 
ATOM     93  F   UNL A   1      46.387  35.713  27.027  1.00  0.00    -0.200 F 
ATOM     94  F   UNL A   1      47.528  36.284  29.438  1.00  0.00    -0.200 F 
ENDBRANCH  61  84
ENDBRANCH  35  36
ENDBRANCH  27  30
ENDBRANCH  25  26
ENDBRANCH  24  25
ENDBRANCH   1  24
TORSDOF 15
ENDMDL
MODEL 3
REMARK VINA RESULT:     -11.4      5.770     11.143
REMARK SMILES CC[NH2+]C(C)(C)C(=O)N[C@@](C)(C(=O)NCCCNC(=O)c1ccc(-c2c3nc(c(-c4c(F)c(F)c(F)c(F)c4F)c4ccc([nH]4)c(-c4c(F)c(F)c(F)c(F)c4F)c4nc(c(-c5c(F)c(F)c(F)c(F)c5F)c5ccc2[nH]5)C=C4)C=C3)cc1)C(F)(F)F
REMARK SMILES IDX 15 1 14 2 12 3 13 4 10 6 11 7 9 8 7 9 8 10 4 12 5 13 6 14
REMARK SMILES IDX 3 15 2 18 1 19 84 20 85 21 86 22 87 23 16 24 17 25 18 26
REMARK SMILES IDX 19 27 20 29 21 30 22 31 83 32 23 33 82 34 24 35 25 36 26 37
REMARK SMILES IDX 76 38 27 39 81 40 75 41 77 42 28 43 80 44 74 45 73 46 29 48
REMARK SMILES IDX 61 49 41 50 60 51 42 52 45 53 59 54 78 55 43 56 44 57 58 59
REMARK SMILES IDX 79 60 46 61 30 62 31 63 39 64 32 65 33 66 37 67 40 68 34 69
REMARK SMILES IDX 35 70 38 71 36 72 62 73 63 74 71 75 64 76 65 77 69 78 72 79
REMARK SMILES IDX 66 80 67 81 70 82 68 83 47 84 48 85 56 86 49 87 50 88 54 89
REMARK SMILES IDX 57 90 51 91 52 92 55 93 53 94
REMARK H PARENT 14 5 9 11 3 16 3 17 18 28 77 47 45 58
REMARK Flexibility Score: inf
ROOT
ATOM      1  C   UNL A   1      31.675  30.620  26.061  1.00  0.00     0.117 C 
ENDROOT
BRANCH   1   2
ATOM      2  N   UNL A   1      31.536  29.693  27.172  1.00  0.00    -0.354 N 
ATOM      3  C   UNL A   1      31.664  28.342  27.307  1.00  0.00     0.254 C 
ATOM      4  O   UNL A   1      31.427  27.924  28.443  1.00  0.00    -0.272 OA
ATOM      5  H   UNL A   1      31.295  30.140  28.015  1.00  0.00     0.163 HD
BRANCH   3   6
ATOM      6  C   UNL A   1      32.011  27.397  26.133  1.00  0.00     0.212 C 
ATOM      7  C   UNL A   1      31.315  27.816  24.818  1.00  0.00     0.056 C 
BRANCH   6   8
ATOM      8  N   UNL A   1      31.442  26.044  26.542  1.00  0.00    -0.329 N 
ATOM      9  C   UNL A   1      31.303  24.751  26.134  1.00  0.00     0.281 C 
ATOM     10  O   UNL A   1      30.930  23.996  27.039  1.00  0.00    -0.268 OA
ATOM     11  H   UNL A   1      31.019  26.139  27.426  1.00  0.00     0.165 HD
BRANCH   9  12
ATOM     12  C   UNL A   1      31.555  24.257  24.684  1.00  0.00     0.169 C 
ATOM     13  C   UNL A   1      30.434  24.769  23.773  1.00  0.00     0.090 C 
ATOM     14  C   UNL A   1      31.658  22.717  24.754  1.00  0.00     0.090 C 
BRANCH  12  15
ATOM     15  N   UNL A   1      32.892  24.625  24.130  1.00  0.00    -0.334 N 
ATOM     16  H   UNL A   1      33.117  25.555  24.483  1.00  0.00     0.347 HD
ATOM     17  H   UNL A   1      33.499  23.863  24.430  1.00  0.00     0.347 HD
BRANCH  15  18
ATOM     18  C   UNL A   1      33.072  24.664  22.682  1.00  0.00     0.257 C 
ATOM     19  C   UNL A   1      33.485  26.081  22.286  1.00  0.00     0.071 C 
ENDBRANCH  15  18
ENDBRANCH  12  15
ENDBRANCH   9  12
ENDBRANCH   6   8
BRANCH   6  20
ATOM     20  C   UNL A   1      33.524  27.671  25.848  1.00  0.00     0.420 C 
ATOM     21  F   UNL A   1      33.792  28.458  24.796  1.00  0.00    -0.168 F 
ATOM     22  F   UNL A   1      34.141  28.226  26.920  1.00  0.00    -0.168 F 
ATOM     23  F   UNL A   1      34.188  26.501  25.636  1.00  0.00    -0.168 F 
ENDBRANCH   6  20
ENDBRANCH   3   6
ENDBRANCH   1   2
BRANCH   1  24
ATOM     24  C   UNL A   1      31.461  32.065  26.483  1.00  0.00     0.042 C 
BRANCH  24  25
ATOM     25  C   UNL A   1      32.623  32.676  27.253  1.00  0.00     0.118 C 
BRANCH  25  26
ATOM     26  N   UNL A   1      32.403  34.076  27.594  1.00  0.00    -0.352 N 
ATOM     27  C   UNL A   1      32.996  34.856  28.554  1.00  0.00     0.251 C 
ATOM     28  H   UNL A   1      31.721  34.533  27.050  1.00  0.00     0.163 HD
ATOM     29  O   UNL A   1      32.534  35.968  28.806  1.00  0.00    -0.269 OA
BRANCH  27  30
ATOM     30  C   UNL A   1      34.170  34.361  29.301  1.00  0.00     0.039 A 
ATOM     31  C   UNL A   1      33.971  33.715  30.524  1.00  0.00     0.014 A 
ATOM     32  C   UNL A   1      35.464  34.536  28.807  1.00  0.00     0.014 A 
ATOM     33  C   UNL A   1      35.064  33.181  31.211  1.00  0.00     0.010 A 
ATOM     34  C   UNL A   1      36.538  33.920  29.440  1.00  0.00     0.010 A 
ATOM     35  C   UNL A   1      36.351  33.242  30.653  1.00  0.00    -0.014 A 
BRANCH  35  36
ATOM     36  C   UNL A   1      37.515  32.609  31.323  1.00  0.00     0.031 A 
ATOM     37  C   UNL A   1      38.245  31.474  30.658  1.00  0.00     0.074 A 
ATOM     38  C   UNL A   1      37.871  33.009  32.560  1.00  0.00     0.049 A 
ATOM     39  N   UNL A   1      39.233  30.745  31.111  1.00  0.00    -0.248 NA
ATOM     40  C   UNL A   1      37.782  31.087  29.316  1.00  0.00     0.031 C 
ATOM     41  C   UNL A   1      37.211  34.064  33.330  1.00  0.00     0.029 A 
ATOM     42  N   UNL A   1      38.871  32.567  33.391  1.00  0.00    -0.354 N 
ATOM     43  C   UNL A   1      39.497  29.808  30.121  1.00  0.00     0.074 A 
ATOM     44  C   UNL A   1      38.526  30.021  29.069  1.00  0.00     0.031 C 
ATOM     45  C   UNL A   1      37.839  34.206  34.509  1.00  0.00     0.029 A 
ATOM     46  C   UNL A   1      38.916  33.224  34.596  1.00  0.00     0.049 A 
ATOM     47  H   UNL A   1      39.496  31.846  33.146  1.00  0.00     0.167 HD
ATOM     48  C   UNL A   1      40.474  28.872  30.080  1.00  0.00     0.037 A 
ATOM     49  C   UNL A   1      39.726  33.047  35.657  1.00  0.00     0.037 A 
ATOM     50  C   UNL A   1      41.451  28.680  31.121  1.00  0.00     0.049 A 
ATOM     51  C   UNL A   1      40.795  31.989  35.593  1.00  0.00     0.074 A 
ATOM     52  C   UNL A   1      42.520  27.803  31.148  1.00  0.00     0.029 A 
ATOM     53  N   UNL A   1      41.472  29.374  32.322  1.00  0.00    -0.354 N 
ATOM     54  N   UNL A   1      41.084  31.160  34.618  1.00  0.00    -0.248 NA
ATOM     55  C   UNL A   1      41.656  31.847  36.775  1.00  0.00     0.031 C 
ATOM     56  C   UNL A   1      43.155  27.925  32.389  1.00  0.00     0.029 A 
ATOM     57  C   UNL A   1      42.519  28.923  33.110  1.00  0.00     0.049 A 
ATOM     58  H   UNL A   1      40.837  30.080  32.577  1.00  0.00     0.167 HD
ATOM     59  C   UNL A   1      42.175  30.421  35.056  1.00  0.00     0.074 A 
ATOM     60  C   UNL A   1      42.508  30.912  36.378  1.00  0.00     0.031 C 
ATOM     61  C   UNL A   1      42.842  29.427  34.420  1.00  0.00     0.037 A 
BRANCH  48  62
ATOM     62  C   UNL A   1      40.535  27.981  28.872  1.00  0.00     0.064 A 
ATOM     63  C   UNL A   1      41.322  28.304  27.755  1.00  0.00     0.173 A 
ATOM     64  C   UNL A   1      39.825  26.770  28.843  1.00  0.00     0.173 A 
ATOM     65  F   UNL A   1      42.012  29.454  27.725  1.00  0.00    -0.203 F 
ATOM     66  C   UNL A   1      41.367  27.468  26.642  1.00  0.00     0.198 A 
ATOM     67  C   UNL A   1      39.901  25.920  27.743  1.00  0.00     0.198 A 
ATOM     68  F   UNL A   1      39.064  26.407  29.886  1.00  0.00    -0.203 F 
ATOM     69  F   UNL A   1      42.079  27.827  25.565  1.00  0.00    -0.200 F 
ATOM     70  C   UNL A   1      40.664  26.273  26.640  1.00  0.00     0.200 A 
ATOM     71  F   UNL A   1      39.233  24.758  27.749  1.00  0.00    -0.200 F 
ATOM     72  F   UNL A   1      40.714  25.466  25.572  1.00  0.00    -0.200 F 
ENDBRANCH  48  62
BRANCH  49  73
ATOM     73  C   UNL A   1      39.574  33.905  36.862  1.00  0.00     0.064 A 
ATOM     74  C   UNL A   1      38.803  33.481  37.953  1.00  0.00     0.173 A 
ATOM     75  C   UNL A   1      40.183  35.165  36.945  1.00  0.00     0.173 A 
ATOM     76  F   UNL A   1      38.184  32.292  37.914  1.00  0.00    -0.203 F 
ATOM     77  C   UNL A   1      38.627  34.294  39.071  1.00  0.00     0.198 A 
ATOM     78  C   UNL A   1      40.033  35.964  38.077  1.00  0.00     0.198 A 
ATOM     79  F   UNL A   1      40.935  35.616  35.931  1.00  0.00    -0.203 F 
ATOM     80  F   UNL A   1      37.843  33.885  40.078  1.00  0.00    -0.200 F 
ATOM     81  C   UNL A   1      39.248  35.533  39.134  1.00  0.00     0.200 A 
ATOM     82  F   UNL A   1      40.648  37.153  38.140  1.00  0.00    -0.200 F 
ATOM     83  F   UNL A   1      39.082  36.313  40.211  1.00  0.00    -0.200 F 
ENDBRANCH  49  73
BRANCH  61  84
ATOM     84  C   UNL A   1      44.026  28.829  35.127  1.00  0.00     0.064 A 
ATOM     85  C   UNL A   1      43.895  27.732  35.991  1.00  0.00     0.173 A 
ATOM     86  C   UNL A   1      45.315  29.339  34.904  1.00  0.00     0.173 A 
ATOM     87  F   UNL A   1      42.683  27.217  36.251  1.00  0.00    -0.203 F 
ATOM     88  C   UNL A   1      45.006  27.186  36.628  1.00  0.00     0.198 A 
ATOM     89  C   UNL A   1      46.428  28.767  35.514  1.00  0.00     0.198 A 
ATOM     90  F   UNL A   1      45.497  30.381  34.080  1.00  0.00    -0.203 F 
ATOM     91  F   UNL A   1      44.850  26.172  37.491  1.00  0.00    -0.200 F 
ATOM     92  C   UNL A   1      46.272  27.697  36.383  1.00  0.00     0.200 A 
ATOM     93  F   UNL A   1      47.651  29.252  35.262  1.00  0.00    -0.200 F 
ATOM     94  F   UNL A   1      47.341  27.164  36.988  1.00  0.00    -0.200 F 
ENDBRANCH  61  84
ENDBRANCH  35  36
ENDBRANCH  27  30
ENDBRANCH  25  26
ENDBRANCH  24  25
ENDBRANCH   1  24
TORSDOF 15
ENDMDL
