MODEL 1
REMARK VINA RESULT:     -12.1      0.000      0.000
REMARK SMILES O=C(CCC(=O)N1CCN(S(=O)(=O)c2cccs2)CC1)NCCCNC(=O)c1ccc(-c2c3nc(c(-c4c(F)c(F)c(F)c(F)c4F)c4ccc([nH]4)c(-c4c(F)c(F)c(F)c(F)c4F)c4nc(c(-c5c(F)c(F)c(F)c(F)c5F)c5ccc2[nH]5)C=C4)C=C3)cc1
REMARK SMILES IDX 22 1 21 2 1 3 2 4 3 6 4 7 5 8 6 9 7 10 8 11 20 12 9 13 19 14
REMARK SMILES IDX 10 15 11 16 12 17 13 18 14 19 15 20 18 21 16 22 17 23 23 24
REMARK SMILES IDX 24 25 25 26 26 27 27 29 28 30 29 31 90 32 30 33 89 34 31 35
REMARK SMILES IDX 32 36 33 37 83 38 34 39 88 40 82 41 84 42 35 43 87 44 81 45
REMARK SMILES IDX 80 46 36 48 68 49 48 50 67 51 49 52 52 53 66 54 85 55 50 56
REMARK SMILES IDX 51 57 65 59 86 60 53 61 37 62 38 63 46 64 39 65 40 66 44 67
REMARK SMILES IDX 47 68 41 69 42 70 45 71 43 72 69 73 70 74 78 75 71 76 72 77
REMARK SMILES IDX 76 78 79 79 73 80 74 81 77 82 75 83 54 84 55 85 63 86 56 87
REMARK SMILES IDX 57 88 61 89 64 90 58 91 59 92 62 93 60 94
REMARK H PARENT 21 5 25 28 84 47 52 58
REMARK Flexibility Score: inf
ROOT
ATOM      1  C   UNL A   1      34.403  32.933  28.943  1.00  0.00     0.117 C 
ENDROOT
BRANCH   1   2
ATOM      2  N   UNL A   1      34.160  31.654  28.310  1.00  0.00    -0.356 N 
ATOM      3  O   UNL A   1      36.355  31.292  27.760  1.00  0.00    -0.275 OA
ATOM      4  C   UNL A   1      35.203  30.877  27.866  1.00  0.00     0.220 C 
ATOM      5  H   UNL A   1      33.236  31.337  28.195  1.00  0.00     0.163 HD
BRANCH   4   6
ATOM      6  C   UNL A   1      34.822  29.441  27.583  1.00  0.00     0.110 C 
BRANCH   6   7
ATOM      7  C   UNL A   1      33.885  29.352  26.380  1.00  0.00     0.110 C 
BRANCH   7   8
ATOM      8  C   UNL A   1      32.606  28.595  26.712  1.00  0.00     0.223 C 
ATOM      9  O   UNL A   1      31.893  29.012  27.628  1.00  0.00    -0.275 OA
ATOM     10  N   UNL A   1      32.269  27.454  25.986  1.00  0.00    -0.340 N 
ATOM     11  C   UNL A   1      31.049  26.745  26.416  1.00  0.00     0.136 C 
ATOM     12  C   UNL A   1      33.245  26.706  25.180  1.00  0.00     0.136 C 
ATOM     13  C   UNL A   1      30.558  25.640  25.464  1.00  0.00     0.124 C 
ATOM     14  C   UNL A   1      32.667  25.606  24.288  1.00  0.00     0.124 C 
ATOM     15  N   UNL A   1      31.683  24.755  25.000  1.00  0.00    -0.194 NA
BRANCH  15  16
ATOM     16  S   UNL A   1      32.224  23.696  26.234  1.00  0.00     0.252 S 
ATOM     17  O   UNL A   1      33.557  24.140  26.618  1.00  0.00    -0.206 OA
ATOM     18  O   UNL A   1      31.153  23.603  27.185  1.00  0.00    -0.206 OA
BRANCH  16  19
ATOM     19  C   UNL A   1      32.533  22.053  25.600  1.00  0.00     0.135 A 
ATOM     20  C   UNL A   1      32.146  21.413  24.433  1.00  0.00     0.033 A 
ATOM     21  S   UNL A   1      33.651  21.092  26.477  1.00  0.00    -0.131 S 
ATOM     22  C   UNL A   1      32.769  20.142  24.264  1.00  0.00     0.013 A 
ATOM     23  C   UNL A   1      33.621  19.850  25.303  1.00  0.00     0.066 A 
ENDBRANCH  16  19
ENDBRANCH  15  16
ENDBRANCH   7   8
ENDBRANCH   6   7
ENDBRANCH   4   6
ENDBRANCH   1   2
BRANCH   1  24
ATOM     24  C   UNL A   1      33.334  33.982  28.683  1.00  0.00     0.042 C 
BRANCH  24  25
ATOM     25  C   UNL A   1      33.645  35.391  29.175  1.00  0.00     0.118 C 
BRANCH  25  26
ATOM     26  N   UNL A   1      32.694  35.936  30.129  1.00  0.00    -0.352 N 
ATOM     27  C   UNL A   1      32.684  35.919  31.505  1.00  0.00     0.251 C 
ATOM     28  H   UNL A   1      31.926  36.396  29.722  1.00  0.00     0.163 HD
ATOM     29  O   UNL A   1      31.778  36.455  32.135  1.00  0.00    -0.269 OA
BRANCH  27  30
ATOM     30  C   UNL A   1      33.721  35.182  32.248  1.00  0.00     0.039 A 
ATOM     31  C   UNL A   1      33.426  33.884  32.677  1.00  0.00     0.014 A 
ATOM     32  C   UNL A   1      34.980  35.731  32.486  1.00  0.00     0.014 A 
ATOM     33  C   UNL A   1      34.431  33.093  33.233  1.00  0.00     0.010 A 
ATOM     34  C   UNL A   1      36.003  34.913  32.950  1.00  0.00     0.010 A 
ATOM     35  C   UNL A   1      35.743  33.579  33.305  1.00  0.00    -0.014 A 
BRANCH  35  36
ATOM     36  C   UNL A   1      36.879  32.721  33.721  1.00  0.00     0.031 A 
ATOM     37  C   UNL A   1      37.507  32.931  35.067  1.00  0.00     0.074 A 
ATOM     38  C   UNL A   1      37.425  31.852  32.848  1.00  0.00     0.049 A 
ATOM     39  N   UNL A   1      38.673  32.535  35.505  1.00  0.00    -0.248 NA
ATOM     40  C   UNL A   1      36.744  33.742  36.027  1.00  0.00     0.031 C 
ATOM     41  C   UNL A   1      36.941  31.582  31.494  1.00  0.00     0.029 A 
ATOM     42  N   UNL A   1      38.532  31.049  32.970  1.00  0.00    -0.354 N 
ATOM     43  C   UNL A   1      38.828  33.135  36.747  1.00  0.00     0.074 A 
ATOM     44  C   UNL A   1      37.622  33.892  37.008  1.00  0.00     0.031 C 
ATOM     45  C   UNL A   1      37.727  30.657  30.921  1.00  0.00     0.029 A 
ATOM     46  C   UNL A   1      38.798  30.308  31.846  1.00  0.00     0.049 A 
ATOM     47  H   UNL A   1      39.081  31.008  33.786  1.00  0.00     0.167 HD
ATOM     48  C   UNL A   1      39.894  33.075  37.578  1.00  0.00     0.037 A 
ATOM     49  C   UNL A   1      39.806  29.455  31.587  1.00  0.00     0.037 A 
ATOM     50  C   UNL A   1      41.047  32.245  37.354  1.00  0.00     0.049 A 
ATOM     51  C   UNL A   1      40.873  29.244  32.621  1.00  0.00     0.074 A 
ATOM     52  C   UNL A   1      42.178  32.098  38.137  1.00  0.00     0.029 A 
ATOM     53  N   UNL A   1      41.189  31.383  36.278  1.00  0.00    -0.354 N 
ATOM     54  N   UNL A   1      41.046  29.866  33.760  1.00  0.00    -0.248 NA
ATOM     55  C   UNL A   1      41.888  28.223  32.330  1.00  0.00     0.031 C 
ATOM     56  C   UNL A   1      42.997  31.130  37.542  1.00  0.00     0.029 A 
ATOM     57  C   UNL A   1      42.370  30.672  36.396  1.00  0.00     0.049 A 
ATOM     58  H   UNL A   1      40.545  31.291  35.538  1.00  0.00     0.167 HD
ATOM     59  C   UNL A   1      42.187  29.318  34.323  1.00  0.00     0.074 A 
ATOM     60  C   UNL A   1      42.657  28.296  33.409  1.00  0.00     0.031 C 
ATOM     61  C   UNL A   1      42.801  29.646  35.485  1.00  0.00     0.037 A 
BRANCH  48  62
ATOM     62  C   UNL A   1      39.869  33.959  38.783  1.00  0.00     0.064 A 
ATOM     63  C   UNL A   1      39.300  33.544  39.994  1.00  0.00     0.173 A 
ATOM     64  C   UNL A   1      40.422  35.247  38.719  1.00  0.00     0.173 A 
ATOM     65  F   UNL A   1      38.739  32.330  40.093  1.00  0.00    -0.203 F 
ATOM     66  C   UNL A   1      39.265  34.396  41.095  1.00  0.00     0.198 A 
ATOM     67  C   UNL A   1      40.403  36.089  39.827  1.00  0.00     0.198 A 
ATOM     68  F   UNL A   1      40.975  35.691  37.581  1.00  0.00    -0.203 F 
ATOM     69  F   UNL A   1      38.678  33.997  42.231  1.00  0.00    -0.200 F 
ATOM     70  C   UNL A   1      39.820  35.666  41.012  1.00  0.00     0.200 A 
ATOM     71  F   UNL A   1      40.940  37.314  39.746  1.00  0.00    -0.200 F 
ATOM     72  F   UNL A   1      39.781  36.486  42.071  1.00  0.00    -0.200 F 
ENDBRANCH  48  62
BRANCH  49  73
ATOM     73  C   UNL A   1      39.833  28.722  30.299  1.00  0.00     0.064 A 
ATOM     74  C   UNL A   1      40.468  29.278  29.182  1.00  0.00     0.173 A 
ATOM     75  C   UNL A   1      39.263  27.450  30.169  1.00  0.00     0.173 A 
ATOM     76  F   UNL A   1      41.013  30.501  29.261  1.00  0.00    -0.203 F 
ATOM     77  C   UNL A   1      40.526  28.588  27.973  1.00  0.00     0.198 A 
ATOM     78  C   UNL A   1      39.333  26.755  28.964  1.00  0.00     0.198 A 
ATOM     79  F   UNL A   1      38.652  26.877  31.217  1.00  0.00    -0.203 F 
ATOM     80  F   UNL A   1      41.122  29.149  26.912  1.00  0.00    -0.200 F 
ATOM     81  C   UNL A   1      39.963  27.325  27.866  1.00  0.00     0.200 A 
ATOM     82  F   UNL A   1      38.796  25.531  28.865  1.00  0.00    -0.200 F 
ATOM     83  F   UNL A   1      40.024  26.658  26.706  1.00  0.00    -0.200 F 
ENDBRANCH  49  73
BRANCH  61  84
ATOM     84  C   UNL A   1      44.030  28.875  35.841  1.00  0.00     0.064 A 
ATOM     85  C   UNL A   1      45.300  29.321  35.453  1.00  0.00     0.173 A 
ATOM     86  C   UNL A   1      43.939  27.707  36.607  1.00  0.00     0.173 A 
ATOM     87  F   UNL A   1      45.428  30.429  34.708  1.00  0.00    -0.203 F 
ATOM     88  C   UNL A   1      46.443  28.615  35.818  1.00  0.00     0.198 A 
ATOM     89  C   UNL A   1      45.083  27.007  36.976  1.00  0.00     0.198 A 
ATOM     90  F   UNL A   1      42.739  27.244  36.994  1.00  0.00    -0.203 F 
ATOM     91  F   UNL A   1      47.649  29.046  35.424  1.00  0.00    -0.200 F 
ATOM     92  C   UNL A   1      46.333  27.461  36.582  1.00  0.00     0.200 A 
ATOM     93  F   UNL A   1      44.978  25.891  37.711  1.00  0.00    -0.200 F 
ATOM     94  F   UNL A   1      47.435  26.782  36.930  1.00  0.00    -0.200 F 
ENDBRANCH  61  84
ENDBRANCH  35  36
ENDBRANCH  27  30
ENDBRANCH  25  26
ENDBRANCH  24  25
ENDBRANCH   1  24
TORSDOF 14
ENDMDL
MODEL 2
REMARK VINA RESULT:     -11.9      5.060      7.109
REMARK SMILES O=C(CCC(=O)N1CCN(S(=O)(=O)c2cccs2)CC1)NCCCNC(=O)c1ccc(-c2c3nc(c(-c4c(F)c(F)c(F)c(F)c4F)c4ccc([nH]4)c(-c4c(F)c(F)c(F)c(F)c4F)c4nc(c(-c5c(F)c(F)c(F)c(F)c5F)c5ccc2[nH]5)C=C4)C=C3)cc1
REMARK SMILES IDX 22 1 21 2 1 3 2 4 3 6 4 7 5 8 6 9 7 10 8 11 20 12 9 13 19 14
REMARK SMILES IDX 10 15 11 16 12 17 13 18 14 19 15 20 18 21 16 22 17 23 23 24
REMARK SMILES IDX 24 25 25 26 26 27 27 29 28 30 29 31 90 32 30 33 89 34 31 35
REMARK SMILES IDX 32 36 33 37 83 38 34 39 88 40 82 41 84 42 35 43 87 44 81 45
REMARK SMILES IDX 80 46 36 48 68 49 48 50 67 51 49 52 52 53 66 54 85 55 50 56
REMARK SMILES IDX 51 57 65 59 86 60 53 61 37 62 38 63 46 64 39 65 40 66 44 67
REMARK SMILES IDX 47 68 41 69 42 70 45 71 43 72 69 73 70 74 78 75 71 76 72 77
REMARK SMILES IDX 76 78 79 79 73 80 74 81 77 82 75 83 54 84 55 85 63 86 56 87
REMARK SMILES IDX 57 88 61 89 64 90 58 91 59 92 62 93 60 94
REMARK H PARENT 21 5 25 28 84 47 52 58
REMARK Flexibility Score: inf
ROOT
ATOM      1  C   UNL A   1      32.805  29.228  24.680  1.00  0.00     0.117 C 
ENDROOT
BRANCH   1   2
ATOM      2  N   UNL A   1      31.459  28.703  24.768  1.00  0.00    -0.356 N 
ATOM      3  O   UNL A   1      31.545  27.613  22.754  1.00  0.00    -0.275 OA
ATOM      4  C   UNL A   1      30.980  27.826  23.824  1.00  0.00     0.220 C 
ATOM      5  H   UNL A   1      30.878  28.978  25.513  1.00  0.00     0.163 HD
BRANCH   4   6
ATOM      6  C   UNL A   1      29.728  27.090  24.248  1.00  0.00     0.110 C 
BRANCH   6   7
ATOM      7  C   UNL A   1      29.992  25.591  24.370  1.00  0.00     0.110 C 
BRANCH   7   8
ATOM      8  C   UNL A   1      31.022  25.281  25.448  1.00  0.00     0.223 C 
ATOM      9  O   UNL A   1      31.029  25.968  26.474  1.00  0.00    -0.275 OA
ATOM     10  N   UNL A   1      31.931  24.243  25.258  1.00  0.00    -0.340 N 
ATOM     11  C   UNL A   1      32.936  24.054  26.322  1.00  0.00     0.136 C 
ATOM     12  C   UNL A   1      32.222  23.671  23.936  1.00  0.00     0.136 C 
ATOM     13  C   UNL A   1      33.771  22.764  26.220  1.00  0.00     0.124 C 
ATOM     14  C   UNL A   1      33.085  22.408  23.932  1.00  0.00     0.124 C 
ATOM     15  N   UNL A   1      34.267  22.524  24.820  1.00  0.00    -0.194 NA
BRANCH  15  16
ATOM     16  S   UNL A   1      35.538  23.590  24.393  1.00  0.00     0.252 S 
ATOM     17  O   UNL A   1      35.788  23.402  22.970  1.00  0.00    -0.206 OA
ATOM     18  O   UNL A   1      35.192  24.872  24.938  1.00  0.00    -0.206 OA
BRANCH  16  19
ATOM     19  C   UNL A   1      37.090  23.089  25.127  1.00  0.00     0.135 A 
ATOM     20  C   UNL A   1      37.969  23.731  25.984  1.00  0.00     0.033 A 
ATOM     21  S   UNL A   1      37.550  21.452  24.900  1.00  0.00    -0.131 S 
ATOM     22  C   UNL A   1      39.012  22.879  26.450  1.00  0.00     0.013 A 
ATOM     23  C   UNL A   1      38.896  21.606  25.943  1.00  0.00     0.066 A 
ENDBRANCH  16  19
ENDBRANCH  15  16
ENDBRANCH   7   8
ENDBRANCH   6   7
ENDBRANCH   4   6
ENDBRANCH   1   2
BRANCH   1  24
ATOM     24  C   UNL A   1      33.787  28.622  25.669  1.00  0.00     0.042 C 
BRANCH  24  25
ATOM     25  C   UNL A   1      33.402  28.723  27.142  1.00  0.00     0.118 C 
BRANCH  25  26
ATOM     26  N   UNL A   1      33.461  30.062  27.704  1.00  0.00    -0.352 N 
ATOM     27  C   UNL A   1      34.513  30.774  28.234  1.00  0.00     0.251 C 
ATOM     28  H   UNL A   1      32.602  30.542  27.706  1.00  0.00     0.163 HD
ATOM     29  O   UNL A   1      34.353  31.915  28.654  1.00  0.00    -0.269 OA
BRANCH  27  30
ATOM     30  C   UNL A   1      35.837  30.145  28.385  1.00  0.00     0.039 A 
ATOM     31  C   UNL A   1      36.734  30.233  27.315  1.00  0.00     0.014 A 
ATOM     32  C   UNL A   1      36.216  29.516  29.569  1.00  0.00     0.014 A 
ATOM     33  C   UNL A   1      38.050  29.802  27.477  1.00  0.00     0.010 A 
ATOM     34  C   UNL A   1      37.550  29.175  29.762  1.00  0.00     0.010 A 
ATOM     35  C   UNL A   1      38.484  29.338  28.726  1.00  0.00    -0.014 A 
BRANCH  35  36
ATOM     36  C   UNL A   1      39.909  29.034  29.000  1.00  0.00     0.031 A 
ATOM     37  C   UNL A   1      40.768  30.067  29.666  1.00  0.00     0.074 A 
ATOM     38  C   UNL A   1      40.459  27.894  28.537  1.00  0.00     0.049 A 
ATOM     39  N   UNL A   1      42.072  30.150  29.717  1.00  0.00    -0.248 NA
ATOM     40  C   UNL A   1      40.066  31.185  30.314  1.00  0.00     0.031 C 
ATOM     41  C   UNL A   1      39.747  26.825  27.835  1.00  0.00     0.029 A 
ATOM     42  N   UNL A   1      41.760  27.459  28.572  1.00  0.00    -0.354 N 
ATOM     43  C   UNL A   1      42.344  31.376  30.306  1.00  0.00     0.074 A 
ATOM     44  C   UNL A   1      41.072  31.987  30.629  1.00  0.00     0.031 C 
ATOM     45  C   UNL A   1      40.613  25.845  27.530  1.00  0.00     0.029 A 
ATOM     46  C   UNL A   1      41.947  26.239  27.969  1.00  0.00     0.049 A 
ATOM     47  H   UNL A   1      42.490  27.971  28.989  1.00  0.00     0.167 HD
ATOM     48  C   UNL A   1      43.551  31.946  30.532  1.00  0.00     0.037 A 
ATOM     49  C   UNL A   1      43.073  25.529  27.777  1.00  0.00     0.037 A 
ATOM     50  C   UNL A   1      44.810  31.292  30.296  1.00  0.00     0.049 A 
ATOM     51  C   UNL A   1      44.385  26.097  28.232  1.00  0.00     0.074 A 
ATOM     52  C   UNL A   1      46.092  31.773  30.501  1.00  0.00     0.029 A 
ATOM     53  N   UNL A   1      44.937  29.989  29.841  1.00  0.00    -0.354 N 
ATOM     54  N   UNL A   1      44.640  27.283  28.725  1.00  0.00    -0.248 NA
ATOM     55  C   UNL A   1      45.566  25.233  28.096  1.00  0.00     0.031 C 
ATOM     56  C   UNL A   1      46.996  30.750  30.187  1.00  0.00     0.029 A 
ATOM     57  C   UNL A   1      46.274  29.634  29.796  1.00  0.00     0.049 A 
ATOM     58  H   UNL A   1      44.188  29.403  29.586  1.00  0.00     0.167 HD
ATOM     59  C   UNL A   1      46.006  27.314  28.956  1.00  0.00     0.074 A 
ATOM     60  C   UNL A   1      46.526  26.018  28.568  1.00  0.00     0.031 C 
ATOM     61  C   UNL A   1      46.762  28.332  29.429  1.00  0.00     0.037 A 
BRANCH  48  62
ATOM     62  C   UNL A   1      43.556  33.357  31.027  1.00  0.00     0.064 A 
ATOM     63  C   UNL A   1      43.615  33.663  32.392  1.00  0.00     0.173 A 
ATOM     64  C   UNL A   1      43.497  34.421  30.113  1.00  0.00     0.173 A 
ATOM     65  F   UNL A   1      43.649  32.677  33.302  1.00  0.00    -0.203 F 
ATOM     66  C   UNL A   1      43.592  34.984  32.830  1.00  0.00     0.198 A 
ATOM     67  C   UNL A   1      43.494  35.741  30.553  1.00  0.00     0.198 A 
ATOM     68  F   UNL A   1      43.436  34.178  28.796  1.00  0.00    -0.203 F 
ATOM     69  F   UNL A   1      43.605  35.255  34.142  1.00  0.00    -0.200 F 
ATOM     70  C   UNL A   1      43.535  36.022  31.910  1.00  0.00     0.200 A 
ATOM     71  F   UNL A   1      43.440  36.742  29.663  1.00  0.00    -0.200 F 
ATOM     72  F   UNL A   1      43.508  37.293  32.333  1.00  0.00    -0.200 F 
ENDBRANCH  48  62
BRANCH  49  73
ATOM     73  C   UNL A   1      42.996  24.191  27.143  1.00  0.00     0.064 A 
ATOM     74  C   UNL A   1      43.363  24.021  25.803  1.00  0.00     0.173 A 
ATOM     75  C   UNL A   1      42.594  23.062  27.866  1.00  0.00     0.173 A 
ATOM     76  F   UNL A   1      43.739  25.081  25.072  1.00  0.00    -0.203 F 
ATOM     77  C   UNL A   1      43.323  22.765  25.203  1.00  0.00     0.198 A 
ATOM     78  C   UNL A   1      42.567  21.803  27.268  1.00  0.00     0.198 A 
ATOM     79  F   UNL A   1      42.242  23.178  29.155  1.00  0.00    -0.203 F 
ATOM     80  F   UNL A   1      43.660  22.630  23.912  1.00  0.00    -0.200 F 
ATOM     81  C   UNL A   1      42.930  21.656  25.937  1.00  0.00     0.200 A 
ATOM     82  F   UNL A   1      42.195  20.731  27.983  1.00  0.00    -0.200 F 
ATOM     83  F   UNL A   1      42.898  20.446  25.362  1.00  0.00    -0.200 F 
ENDBRANCH  49  73
BRANCH  61  84
ATOM     84  C   UNL A   1      48.226  28.074  29.576  1.00  0.00     0.064 A 
ATOM     85  C   UNL A   1      48.757  27.583  30.776  1.00  0.00     0.173 A 
ATOM     86  C   UNL A   1      49.095  28.282  28.498  1.00  0.00     0.173 A 
ATOM     87  F   UNL A   1      47.958  27.382  31.835  1.00  0.00    -0.203 F 
ATOM     88  C   UNL A   1      50.117  27.313  30.893  1.00  0.00     0.198 A 
ATOM     89  C   UNL A   1      50.453  28.005  28.615  1.00  0.00     0.198 A 
ATOM     90  F   UNL A   1      48.626  28.757  27.333  1.00  0.00    -0.203 F 
ATOM     91  F   UNL A   1      50.611  26.860  32.053  1.00  0.00    -0.200 F 
ATOM     92  C   UNL A   1      50.963  27.521  29.812  1.00  0.00     0.200 A 
ATOM     93  F   UNL A   1      51.272  28.209  27.574  1.00  0.00    -0.200 F 
ATOM     94  F   UNL A   1      52.273  27.263  29.928  1.00  0.00    -0.200 F 
ENDBRANCH  61  84
ENDBRANCH  35  36
ENDBRANCH  27  30
ENDBRANCH  25  26
ENDBRANCH  24  25
ENDBRANCH   1  24
TORSDOF 14
ENDMDL
MODEL 3
REMARK VINA RESULT:     -11.8      1.241      1.827
REMARK SMILES O=C(CCC(=O)N1CCN(S(=O)(=O)c2cccs2)CC1)NCCCNC(=O)c1ccc(-c2c3nc(c(-c4c(F)c(F)c(F)c(F)c4F)c4ccc([nH]4)c(-c4c(F)c(F)c(F)c(F)c4F)c4nc(c(-c5c(F)c(F)c(F)c(F)c5F)c5ccc2[nH]5)C=C4)C=C3)cc1
REMARK SMILES IDX 22 1 21 2 1 3 2 4 3 6 4 7 5 8 6 9 7 10 8 11 20 12 9 13 19 14
REMARK SMILES IDX 10 15 11 16 12 17 13 18 14 19 15 20 18 21 16 22 17 23 23 24
REMARK SMILES IDX 24 25 25 26 26 27 27 29 28 30 29 31 90 32 30 33 89 34 31 35
REMARK SMILES IDX 32 36 33 37 83 38 34 39 88 40 82 41 84 42 35 43 87 44 81 45
REMARK SMILES IDX 80 46 36 48 68 49 48 50 67 51 49 52 52 53 66 54 85 55 50 56
REMARK SMILES IDX 51 57 65 59 86 60 53 61 37 62 38 63 46 64 39 65 40 66 44 67
REMARK SMILES IDX 47 68 41 69 42 70 45 71 43 72 69 73 70 74 78 75 71 76 72 77
REMARK SMILES IDX 76 78 79 79 73 80 74 81 77 82 75 83 54 84 55 85 63 86 56 87
REMARK SMILES IDX 57 88 61 89 64 90 58 91 59 92 62 93 60 94
REMARK H PARENT 21 5 25 28 84 47 52 58
REMARK Flexibility Score: inf
ROOT
ATOM      1  C   UNL A   1      34.217  33.091  28.596  1.00  0.00     0.117 C 
ENDROOT
BRANCH   1   2
ATOM      2  N   UNL A   1      33.773  31.895  27.913  1.00  0.00    -0.356 N 
ATOM      3  O   UNL A   1      35.873  31.006  27.697  1.00  0.00    -0.275 OA
ATOM      4  C   UNL A   1      34.654  30.882  27.620  1.00  0.00     0.220 C 
ATOM      5  H   UNL A   1      32.828  31.806  27.654  1.00  0.00     0.163 HD
BRANCH   4   6
ATOM      6  C   UNL A   1      33.987  29.573  27.258  1.00  0.00     0.110 C 
BRANCH   6   7
ATOM      7  C   UNL A   1      32.478  29.752  27.112  1.00  0.00     0.110 C 
BRANCH   7   8
ATOM      8  C   UNL A   1      31.780  28.441  26.779  1.00  0.00     0.223 C 
ATOM      9  O   UNL A   1      31.587  27.626  27.686  1.00  0.00    -0.275 OA
ATOM     10  N   UNL A   1      31.379  28.183  25.470  1.00  0.00    -0.340 N 
ATOM     11  C   UNL A   1      30.770  26.862  25.222  1.00  0.00     0.136 C 
ATOM     12  C   UNL A   1      31.919  28.912  24.314  1.00  0.00     0.136 C 
ATOM     13  C   UNL A   1      30.116  26.685  23.840  1.00  0.00     0.124 C 
ATOM     14  C   UNL A   1      31.225  28.649  22.976  1.00  0.00     0.124 C 
ATOM     15  N   UNL A   1      30.990  27.205  22.732  1.00  0.00    -0.194 NA
BRANCH  15  16
ATOM     16  S   UNL A   1      32.326  26.177  22.426  1.00  0.00     0.252 S 
ATOM     17  O   UNL A   1      32.198  25.713  21.051  1.00  0.00    -0.206 OA
ATOM     18  O   UNL A   1      33.492  26.881  22.882  1.00  0.00    -0.206 OA
BRANCH  16  19
ATOM     19  C   UNL A   1      32.211  24.655  23.359  1.00  0.00     0.135 A 
ATOM     20  C   UNL A   1      31.388  23.546  23.240  1.00  0.00     0.033 A 
ATOM     21  S   UNL A   1      33.433  24.383  24.531  1.00  0.00    -0.131 S 
ATOM     22  C   UNL A   1      31.764  22.481  24.109  1.00  0.00     0.013 A 
ATOM     23  C   UNL A   1      32.870  22.802  24.861  1.00  0.00     0.066 A 
ENDBRANCH  16  19
ENDBRANCH  15  16
ENDBRANCH   7   8
ENDBRANCH   6   7
ENDBRANCH   4   6
ENDBRANCH   1   2
BRANCH   1  24
ATOM     24  C   UNL A   1      33.269  34.274  28.484  1.00  0.00     0.042 C 
BRANCH  24  25
ATOM     25  C   UNL A   1      33.676  35.532  29.244  1.00  0.00     0.118 C 
BRANCH  25  26
ATOM     26  N   UNL A   1      32.700  36.012  30.208  1.00  0.00    -0.352 N 
ATOM     27  C   UNL A   1      32.678  35.943  31.582  1.00  0.00     0.251 C 
ATOM     28  H   UNL A   1      31.922  36.465  29.811  1.00  0.00     0.163 HD
ATOM     29  O   UNL A   1      31.751  36.428  32.223  1.00  0.00    -0.269 OA
BRANCH  27  30
ATOM     30  C   UNL A   1      33.730  35.209  32.308  1.00  0.00     0.039 A 
ATOM     31  C   UNL A   1      33.443  33.913  32.749  1.00  0.00     0.014 A 
ATOM     32  C   UNL A   1      34.993  35.758  32.518  1.00  0.00     0.014 A 
ATOM     33  C   UNL A   1      34.459  33.124  33.287  1.00  0.00     0.010 A 
ATOM     34  C   UNL A   1      36.025  34.942  32.965  1.00  0.00     0.010 A 
ATOM     35  C   UNL A   1      35.772  33.610  33.330  1.00  0.00    -0.014 A 
BRANCH  35  36
ATOM     36  C   UNL A   1      36.916  32.753  33.728  1.00  0.00     0.031 A 
ATOM     37  C   UNL A   1      37.559  32.956  35.067  1.00  0.00     0.074 A 
ATOM     38  C   UNL A   1      37.455  31.893  32.842  1.00  0.00     0.049 A 
ATOM     39  N   UNL A   1      38.731  32.561  35.490  1.00  0.00    -0.248 NA
ATOM     40  C   UNL A   1      36.803  33.757  36.042  1.00  0.00     0.031 C 
ATOM     41  C   UNL A   1      36.956  31.631  31.491  1.00  0.00     0.029 A 
ATOM     42  N   UNL A   1      38.566  31.093  32.946  1.00  0.00    -0.354 N 
ATOM     43  C   UNL A   1      38.897  33.152  36.734  1.00  0.00     0.074 A 
ATOM     44  C   UNL A   1      37.692  33.903  37.014  1.00  0.00     0.031 C 
ATOM     45  C   UNL A   1      37.739  30.712  30.903  1.00  0.00     0.029 A 
ATOM     46  C   UNL A   1      38.823  30.361  31.813  1.00  0.00     0.049 A 
ATOM     47  H   UNL A   1      39.125  31.048  33.755  1.00  0.00     0.167 HD
ATOM     48  C   UNL A   1      39.973  33.090  37.552  1.00  0.00     0.037 A 
ATOM     49  C   UNL A   1      39.831  29.514  31.537  1.00  0.00     0.037 A 
ATOM     50  C   UNL A   1      41.126  32.266  37.309  1.00  0.00     0.049 A 
ATOM     51  C   UNL A   1      40.910  29.300  32.556  1.00  0.00     0.074 A 
ATOM     52  C   UNL A   1      42.267  32.118  38.079  1.00  0.00     0.029 A 
ATOM     53  N   UNL A   1      41.259  31.413  36.225  1.00  0.00    -0.354 N 
ATOM     54  N   UNL A   1      41.094  29.914  33.698  1.00  0.00    -0.248 NA
ATOM     55  C   UNL A   1      41.926  28.284  32.247  1.00  0.00     0.031 C 
ATOM     56  C   UNL A   1      43.083  31.158  37.467  1.00  0.00     0.029 A 
ATOM     57  C   UNL A   1      42.444  30.705  36.324  1.00  0.00     0.049 A 
ATOM     58  H   UNL A   1      40.608  31.324  35.492  1.00  0.00     0.167 HD
ATOM     59  C   UNL A   1      42.243  29.366  34.244  1.00  0.00     0.074 A 
ATOM     60  C   UNL A   1      42.707  28.353  33.317  1.00  0.00     0.031 C 
ATOM     61  C   UNL A   1      42.869  29.688  35.401  1.00  0.00     0.037 A 
BRANCH  48  62
ATOM     62  C   UNL A   1      39.958  33.966  38.764  1.00  0.00     0.064 A 
ATOM     63  C   UNL A   1      39.402  33.541  39.977  1.00  0.00     0.173 A 
ATOM     64  C   UNL A   1      40.510  35.255  38.705  1.00  0.00     0.173 A 
ATOM     65  F   UNL A   1      38.842  32.326  40.073  1.00  0.00    -0.203 F 
ATOM     66  C   UNL A   1      39.376  34.385  41.085  1.00  0.00     0.198 A 
ATOM     67  C   UNL A   1      40.500  36.088  39.819  1.00  0.00     0.198 A 
ATOM     68  F   UNL A   1      41.052  35.707  37.565  1.00  0.00    -0.203 F 
ATOM     69  F   UNL A   1      38.800  33.977  42.223  1.00  0.00    -0.200 F 
ATOM     70  C   UNL A   1      39.928  35.656  41.006  1.00  0.00     0.200 A 
ATOM     71  F   UNL A   1      41.035  37.315  39.742  1.00  0.00    -0.200 F 
ATOM     72  F   UNL A   1      39.898  36.468  42.072  1.00  0.00    -0.200 F 
ENDBRANCH  48  62
BRANCH  49  73
ATOM     73  C   UNL A   1      39.846  28.791  30.243  1.00  0.00     0.064 A 
ATOM     74  C   UNL A   1      40.459  29.360  29.120  1.00  0.00     0.173 A 
ATOM     75  C   UNL A   1      39.286  27.514  30.112  1.00  0.00     0.173 A 
ATOM     76  F   UNL A   1      40.992  30.588  29.200  1.00  0.00    -0.203 F 
ATOM     77  C   UNL A   1      40.506  28.680  27.906  1.00  0.00     0.198 A 
ATOM     78  C   UNL A   1      39.345  26.828  28.901  1.00  0.00     0.198 A 
ATOM     79  F   UNL A   1      38.697  26.928  31.164  1.00  0.00    -0.203 F 
ATOM     80  F   UNL A   1      41.080  29.255  26.840  1.00  0.00    -0.200 F 
ATOM     81  C   UNL A   1      39.953  27.412  27.798  1.00  0.00     0.200 A 
ATOM     82  F   UNL A   1      38.819  25.599  28.801  1.00  0.00    -0.200 F 
ATOM     83  F   UNL A   1      40.004  26.754  26.632  1.00  0.00    -0.200 F 
ENDBRANCH  49  73
BRANCH  61  84
ATOM     84  C   UNL A   1      44.105  28.919  35.737  1.00  0.00     0.064 A 
ATOM     85  C   UNL A   1      44.038  27.730  36.476  1.00  0.00     0.173 A 
ATOM     86  C   UNL A   1      45.357  29.353  35.284  1.00  0.00     0.173 A 
ATOM     87  F   UNL A   1      42.859  27.288  36.938  1.00  0.00    -0.203 F 
ATOM     88  C   UNL A   1      45.191  27.003  36.756  1.00  0.00     0.198 A 
ATOM     89  C   UNL A   1      46.506  28.620  35.559  1.00  0.00     0.198 A 
ATOM     90  F   UNL A   1      45.463  30.490  34.578  1.00  0.00    -0.203 F 
ATOM     91  F   UNL A   1      45.112  25.877  37.478  1.00  0.00    -0.200 F 
ATOM     92  C   UNL A   1      46.423  27.446  36.295  1.00  0.00     0.200 A 
ATOM     93  F   UNL A   1      47.697  29.049  35.118  1.00  0.00    -0.200 F 
ATOM     94  F   UNL A   1      47.531  26.745  36.567  1.00  0.00    -0.200 F 
ENDBRANCH  61  84
ENDBRANCH  35  36
ENDBRANCH  27  30
ENDBRANCH  25  26
ENDBRANCH  24  25
ENDBRANCH   1  24
TORSDOF 14
ENDMDL
