MODEL 1
REMARK VINA RESULT:     -13.4      0.000      0.000
REMARK SMILES O=C(C[C@H](C1CCCCC1)N1Cc2ccccc2C1=O)NCCCNC(=O)c1ccc(-c2c3nc(c(-c4c(F)c(F)c(F)c(F)c4F)c4ccc([nH]4)c(-c4c(F)c(F)c(F)c(F)c4F)c4nc(c(-c5c(F)c(F)c(F)c(F)c5F)c5ccc2[nH]5)C=C4)C=C3)cc1
REMARK SMILES IDX 23 1 22 2 21 3 1 4 2 5 3 7 4 8 11 9 12 10 19 11 13 12 18 13
REMARK SMILES IDX 20 14 14 15 17 16 15 17 16 18 5 19 6 20 10 21 7 22 9 23 8 24
REMARK SMILES IDX 24 25 25 26 26 27 27 29 28 30 29 31 90 32 30 33 89 34 31 35
REMARK SMILES IDX 32 36 33 37 83 38 34 39 88 40 82 41 84 42 35 43 87 44 81 45
REMARK SMILES IDX 80 46 36 48 68 49 48 50 67 51 49 52 52 53 66 54 85 55 50 56
REMARK SMILES IDX 51 57 65 59 86 60 53 61 37 62 38 63 46 64 39 65 40 66 44 67
REMARK SMILES IDX 47 68 41 69 42 70 45 71 43 72 69 73 70 74 78 75 71 76 72 77
REMARK SMILES IDX 76 78 79 79 73 80 74 81 77 82 75 83 54 84 55 85 63 86 56 87
REMARK SMILES IDX 57 88 61 89 64 90 58 91 59 92 62 93 60 94
REMARK H PARENT 21 6 25 28 84 47 52 58
REMARK Flexibility Score: inf
ROOT
ATOM      1  C   UNL A   1      31.496  32.091  26.578  1.00  0.00     0.042 C 
ENDROOT
BRANCH   1   2
ATOM      2  C   UNL A   1      31.672  30.587  26.522  1.00  0.00     0.117 C 
BRANCH   2   3
ATOM      3  N   UNL A   1      32.397  30.130  25.358  1.00  0.00    -0.356 N 
ATOM      4  O   UNL A   1      34.059  29.045  26.468  1.00  0.00    -0.275 OA
ATOM      5  C   UNL A   1      33.440  29.246  25.424  1.00  0.00     0.222 C 
ATOM      6  H   UNL A   1      32.128  30.470  24.475  1.00  0.00     0.163 HD
BRANCH   5   7
ATOM      7  C   UNL A   1      33.811  28.507  24.136  1.00  0.00     0.125 C 
BRANCH   7   8
ATOM      8  C   UNL A   1      33.056  27.219  23.681  1.00  0.00     0.098 C 
BRANCH   8   9
ATOM      9  N   UNL A   1      33.762  25.963  24.021  1.00  0.00    -0.331 N 
ATOM     10  C   UNL A   1      34.232  25.577  25.352  1.00  0.00     0.156 C 
ATOM     11  C   UNL A   1      33.935  24.915  23.113  1.00  0.00     0.254 C 
ATOM     12  C   UNL A   1      35.110  24.411  25.043  1.00  0.00    -0.016 A 
ATOM     13  C   UNL A   1      34.893  23.991  23.731  1.00  0.00     0.045 A 
ATOM     14  O   UNL A   1      33.501  24.814  21.983  1.00  0.00    -0.269 OA
ATOM     15  C   UNL A   1      36.089  23.813  25.815  1.00  0.00     0.006 A 
ATOM     16  C   UNL A   1      35.648  23.003  23.127  1.00  0.00     0.014 A 
ATOM     17  C   UNL A   1      36.868  22.809  25.226  1.00  0.00     0.000 A 
ATOM     18  C   UNL A   1      36.653  22.410  23.893  1.00  0.00     0.001 A 
ENDBRANCH   8   9
BRANCH   8  19
ATOM     19  C   UNL A   1      31.536  27.229  24.051  1.00  0.00     0.012 C 
ATOM     20  C   UNL A   1      30.605  27.673  22.906  1.00  0.00     0.006 C 
ATOM     21  C   UNL A   1      31.082  25.851  24.587  1.00  0.00     0.006 C 
ATOM     22  C   UNL A   1      29.142  27.691  23.349  1.00  0.00     0.000 C 
ATOM     23  C   UNL A   1      29.610  25.852  25.002  1.00  0.00     0.000 C 
ATOM     24  C   UNL A   1      28.704  26.329  23.874  1.00  0.00     0.000 C 
ENDBRANCH   8  19
ENDBRANCH   7   8
ENDBRANCH   5   7
ENDBRANCH   2   3
ENDBRANCH   1   2
BRANCH   1  25
ATOM     25  C   UNL A   1      32.678  32.848  27.168  1.00  0.00     0.118 C 
BRANCH  25  26
ATOM     26  N   UNL A   1      32.365  34.197  27.626  1.00  0.00    -0.352 N 
ATOM     27  C   UNL A   1      32.980  34.972  28.581  1.00  0.00     0.251 C 
ATOM     28  H   UNL A   1      31.593  34.619  27.182  1.00  0.00     0.163 HD
ATOM     29  O   UNL A   1      32.538  36.087  28.844  1.00  0.00    -0.269 OA
BRANCH  27  30
ATOM     30  C   UNL A   1      34.142  34.445  29.333  1.00  0.00     0.039 A 
ATOM     31  C   UNL A   1      33.914  33.798  30.552  1.00  0.00     0.014 A 
ATOM     32  C   UNL A   1      35.441  34.546  28.832  1.00  0.00     0.014 A 
ATOM     33  C   UNL A   1      34.971  33.165  31.213  1.00  0.00     0.010 A 
ATOM     34  C   UNL A   1      36.476  33.844  29.444  1.00  0.00     0.010 A 
ATOM     35  C   UNL A   1      36.251  33.137  30.635  1.00  0.00    -0.014 A 
BRANCH  35  36
ATOM     36  C   UNL A   1      37.361  32.358  31.246  1.00  0.00     0.031 A 
ATOM     37  C   UNL A   1      37.864  32.702  32.621  1.00  0.00     0.074 A 
ATOM     38  C   UNL A   1      37.974  31.392  30.531  1.00  0.00     0.049 A 
ATOM     39  N   UNL A   1      38.881  32.206  33.280  1.00  0.00    -0.248 NA
ATOM     40  C   UNL A   1      37.147  33.769  33.336  1.00  0.00     0.031 C 
ATOM     41  C   UNL A   1      37.624  30.997  29.166  1.00  0.00     0.029 A 
ATOM     42  N   UNL A   1      39.034  30.579  30.849  1.00  0.00    -0.354 N 
ATOM     43  C   UNL A   1      38.940  32.915  34.472  1.00  0.00     0.074 A 
ATOM     44  C   UNL A   1      37.885  33.906  34.427  1.00  0.00     0.031 C 
ATOM     45  C   UNL A   1      38.437  30.004  28.773  1.00  0.00     0.029 A 
ATOM     46  C   UNL A   1      39.390  29.716  29.841  1.00  0.00     0.049 A 
ATOM     47  H   UNL A   1      39.495  30.610  31.718  1.00  0.00     0.167 HD
ATOM     48  C   UNL A   1      39.781  32.741  35.519  1.00  0.00     0.037 A 
ATOM     49  C   UNL A   1      40.377  28.802  29.780  1.00  0.00     0.037 A 
ATOM     50  C   UNL A   1      40.804  31.732  35.582  1.00  0.00     0.049 A 
ATOM     51  C   UNL A   1      41.285  28.616  30.965  1.00  0.00     0.074 A 
ATOM     52  C   UNL A   1      41.660  31.434  36.628  1.00  0.00     0.029 A 
ATOM     53  N   UNL A   1      41.109  30.853  34.554  1.00  0.00    -0.354 N 
ATOM     54  N   UNL A   1      41.286  29.248  32.113  1.00  0.00    -0.248 NA
ATOM     55  C   UNL A   1      42.324  27.584  30.846  1.00  0.00     0.031 C 
ATOM     56  C   UNL A   1      42.507  30.398  36.220  1.00  0.00     0.029 A 
ATOM     57  C   UNL A   1      42.150  30.021  34.936  1.00  0.00     0.049 A 
ATOM     58  H   UNL A   1      40.654  30.824  33.682  1.00  0.00     0.167 HD
ATOM     59  C   UNL A   1      42.305  28.674  32.861  1.00  0.00     0.074 A 
ATOM     60  C   UNL A   1      42.892  27.634  32.043  1.00  0.00     0.031 C 
ATOM     61  C   UNL A   1      42.717  28.983  34.115  1.00  0.00     0.037 A 
BRANCH  48  62
ATOM     62  C   UNL A   1      39.620  33.662  36.694  1.00  0.00     0.064 A 
ATOM     63  C   UNL A   1      40.268  34.904  36.748  1.00  0.00     0.173 A 
ATOM     64  C   UNL A   1      38.781  33.312  37.763  1.00  0.00     0.173 A 
ATOM     65  F   UNL A   1      41.091  35.280  35.756  1.00  0.00    -0.203 F 
ATOM     66  C   UNL A   1      40.106  35.750  37.841  1.00  0.00     0.198 A 
ATOM     67  C   UNL A   1      38.599  34.174  38.842  1.00  0.00     0.198 A 
ATOM     68  F   UNL A   1      38.133  32.137  37.758  1.00  0.00    -0.203 F 
ATOM     69  F   UNL A   1      40.775  36.911  37.893  1.00  0.00    -0.200 F 
ATOM     70  C   UNL A   1      39.267  35.388  38.884  1.00  0.00     0.200 A 
ATOM     71  F   UNL A   1      37.779  33.827  39.843  1.00  0.00    -0.200 F 
ATOM     72  F   UNL A   1      39.108  36.206  39.934  1.00  0.00    -0.200 F 
ENDBRANCH  48  62
BRANCH  49  73
ATOM     73  C   UNL A   1      40.542  27.968  28.561  1.00  0.00     0.064 A 
ATOM     74  C   UNL A   1      41.326  28.417  27.488  1.00  0.00     0.173 A 
ATOM     75  C   UNL A   1      39.920  26.719  28.439  1.00  0.00     0.173 A 
ATOM     76  F   UNL A   1      41.921  29.616  27.550  1.00  0.00    -0.203 F 
ATOM     77  C   UNL A   1      41.465  27.653  26.332  1.00  0.00     0.198 A 
ATOM     78  C   UNL A   1      40.081  25.945  27.291  1.00  0.00     0.198 A 
ATOM     79  F   UNL A   1      39.163  26.245  29.439  1.00  0.00    -0.203 F 
ATOM     80  F   UNL A   1      42.185  28.124  25.304  1.00  0.00    -0.200 F 
ATOM     81  C   UNL A   1      40.847  26.416  26.236  1.00  0.00     0.200 A 
ATOM     82  F   UNL A   1      39.492  24.744  27.206  1.00  0.00    -0.200 F 
ATOM     83  F   UNL A   1      40.985  25.681  25.124  1.00  0.00    -0.200 F 
ENDBRANCH  49  73
BRANCH  61  84
ATOM     84  C   UNL A   1      43.832  28.163  34.694  1.00  0.00     0.064 A 
ATOM     85  C   UNL A   1      45.172  28.561  34.582  1.00  0.00     0.173 A 
ATOM     86  C   UNL A   1      43.551  26.985  35.402  1.00  0.00     0.173 A 
ATOM     87  F   UNL A   1      45.491  29.671  33.901  1.00  0.00    -0.203 F 
ATOM     88  C   UNL A   1      46.193  27.796  35.138  1.00  0.00     0.198 A 
ATOM     89  C   UNL A   1      44.572  26.236  35.980  1.00  0.00     0.198 A 
ATOM     90  F   UNL A   1      42.284  26.565  35.542  1.00  0.00    -0.203 F 
ATOM     91  F   UNL A   1      47.470  28.171  34.982  1.00  0.00    -0.200 F 
ATOM     92  C   UNL A   1      45.892  26.638  35.842  1.00  0.00     0.200 A 
ATOM     93  F   UNL A   1      44.279  25.125  36.669  1.00  0.00    -0.200 F 
ATOM     94  F   UNL A   1      46.876  25.907  36.382  1.00  0.00    -0.200 F 
ENDBRANCH  61  84
ENDBRANCH  35  36
ENDBRANCH  27  30
ENDBRANCH  25  26
ENDBRANCH   1  25
TORSDOF 13
ENDMDL
MODEL 2
REMARK VINA RESULT:     -13.3      0.598      7.366
REMARK SMILES O=C(C[C@H](C1CCCCC1)N1Cc2ccccc2C1=O)NCCCNC(=O)c1ccc(-c2c3nc(c(-c4c(F)c(F)c(F)c(F)c4F)c4ccc([nH]4)c(-c4c(F)c(F)c(F)c(F)c4F)c4nc(c(-c5c(F)c(F)c(F)c(F)c5F)c5ccc2[nH]5)C=C4)C=C3)cc1
REMARK SMILES IDX 23 1 22 2 21 3 1 4 2 5 3 7 4 8 11 9 12 10 19 11 13 12 18 13
REMARK SMILES IDX 20 14 14 15 17 16 15 17 16 18 5 19 6 20 10 21 7 22 9 23 8 24
REMARK SMILES IDX 24 25 25 26 26 27 27 29 28 30 29 31 90 32 30 33 89 34 31 35
REMARK SMILES IDX 32 36 33 37 83 38 34 39 88 40 82 41 84 42 35 43 87 44 81 45
REMARK SMILES IDX 80 46 36 48 68 49 48 50 67 51 49 52 52 53 66 54 85 55 50 56
REMARK SMILES IDX 51 57 65 59 86 60 53 61 37 62 38 63 46 64 39 65 40 66 44 67
REMARK SMILES IDX 47 68 41 69 42 70 45 71 43 72 69 73 70 74 78 75 71 76 72 77
REMARK SMILES IDX 76 78 79 79 73 80 74 81 77 82 75 83 54 84 55 85 63 86 56 87
REMARK SMILES IDX 57 88 61 89 64 90 58 91 59 92 62 93 60 94
REMARK H PARENT 21 6 25 28 84 47 52 58
REMARK Flexibility Score: inf
ROOT
ATOM      1  C   UNL A   1      31.696  31.869  26.874  1.00  0.00     0.042 C 
ENDROOT
BRANCH   1   2
ATOM      2  C   UNL A   1      32.052  30.397  26.810  1.00  0.00     0.117 C 
BRANCH   2   3
ATOM      3  N   UNL A   1      32.654  29.998  25.557  1.00  0.00    -0.356 N 
ATOM      4  O   UNL A   1      34.397  28.834  26.437  1.00  0.00    -0.275 OA
ATOM      5  C   UNL A   1      33.684  29.102  25.472  1.00  0.00     0.222 C 
ATOM      6  H   UNL A   1      32.305  30.391  24.725  1.00  0.00     0.163 HD
BRANCH   5   7
ATOM      7  C   UNL A   1      33.915  28.432  24.115  1.00  0.00     0.125 C 
BRANCH   7   8
ATOM      8  C   UNL A   1      33.145  27.143  23.691  1.00  0.00     0.098 C 
BRANCH   8   9
ATOM      9  N   UNL A   1      33.841  25.888  24.051  1.00  0.00    -0.331 N 
ATOM     10  C   UNL A   1      34.251  25.490  25.397  1.00  0.00     0.156 C 
ATOM     11  C   UNL A   1      34.061  24.850  23.141  1.00  0.00     0.254 C 
ATOM     12  C   UNL A   1      35.147  24.331  25.117  1.00  0.00    -0.016 A 
ATOM     13  C   UNL A   1      34.994  23.923  23.793  1.00  0.00     0.045 A 
ATOM     14  O   UNL A   1      33.679  24.758  21.991  1.00  0.00    -0.269 OA
ATOM     15  C   UNL A   1      36.093  23.730  25.927  1.00  0.00     0.006 A 
ATOM     16  C   UNL A   1      35.780  22.945  23.214  1.00  0.00     0.014 A 
ATOM     17  C   UNL A   1      36.903  22.735  25.365  1.00  0.00     0.000 A 
ATOM     18  C   UNL A   1      36.752  22.349  24.020  1.00  0.00     0.001 A 
ENDBRANCH   8   9
BRANCH   8  19
ATOM     19  C   UNL A   1      31.627  27.176  24.072  1.00  0.00     0.012 C 
ATOM     20  C   UNL A   1      30.709  27.756  22.979  1.00  0.00     0.006 C 
ATOM     21  C   UNL A   1      31.124  25.773  24.485  1.00  0.00     0.006 C 
ATOM     22  C   UNL A   1      29.249  27.788  23.433  1.00  0.00     0.000 C 
ATOM     23  C   UNL A   1      29.655  25.791  24.909  1.00  0.00     0.000 C 
ATOM     24  C   UNL A   1      28.763  26.402  23.836  1.00  0.00     0.000 C 
ENDBRANCH   8  19
ENDBRANCH   7   8
ENDBRANCH   5   7
ENDBRANCH   2   3
ENDBRANCH   1   2
BRANCH   1  25
ATOM     25  C   UNL A   1      32.843  32.783  27.284  1.00  0.00     0.118 C 
BRANCH  25  26
ATOM     26  N   UNL A   1      32.436  34.129  27.669  1.00  0.00    -0.352 N 
ATOM     27  C   UNL A   1      32.987  34.991  28.588  1.00  0.00     0.251 C 
ATOM     28  H   UNL A   1      31.643  34.475  27.197  1.00  0.00     0.163 HD
ATOM     29  O   UNL A   1      32.469  36.086  28.790  1.00  0.00    -0.269 OA
BRANCH  27  30
ATOM     30  C   UNL A   1      34.172  34.582  29.377  1.00  0.00     0.039 A 
ATOM     31  C   UNL A   1      33.978  34.088  30.671  1.00  0.00     0.014 A 
ATOM     32  C   UNL A   1      35.460  34.640  28.841  1.00  0.00     0.014 A 
ATOM     33  C   UNL A   1      35.058  33.560  31.384  1.00  0.00     0.010 A 
ATOM     34  C   UNL A   1      36.518  34.038  29.515  1.00  0.00     0.010 A 
ATOM     35  C   UNL A   1      36.328  33.481  30.789  1.00  0.00    -0.014 A 
BRANCH  35  36
ATOM     36  C   UNL A   1      37.464  32.803  31.470  1.00  0.00     0.031 A 
ATOM     37  C   UNL A   1      38.146  31.631  30.822  1.00  0.00     0.074 A 
ATOM     38  C   UNL A   1      37.828  33.190  32.710  1.00  0.00     0.049 A 
ATOM     39  N   UNL A   1      39.085  30.851  31.299  1.00  0.00    -0.248 NA
ATOM     40  C   UNL A   1      37.691  31.267  29.472  1.00  0.00     0.031 C 
ATOM     41  C   UNL A   1      37.212  34.274  33.475  1.00  0.00     0.029 A 
ATOM     42  N   UNL A   1      38.796  32.701  33.551  1.00  0.00    -0.354 N 
ATOM     43  C   UNL A   1      39.312  29.893  30.320  1.00  0.00     0.074 A 
ATOM     44  C   UNL A   1      38.384  30.162  29.242  1.00  0.00     0.031 C 
ATOM     45  C   UNL A   1      37.829  34.383  34.661  1.00  0.00     0.029 A 
ATOM     46  C   UNL A   1      38.860  33.354  34.759  1.00  0.00     0.049 A 
ATOM     47  H   UNL A   1      39.390  31.952  33.313  1.00  0.00     0.167 HD
ATOM     48  C   UNL A   1      40.228  28.895  30.309  1.00  0.00     0.037 A 
ATOM     49  C   UNL A   1      39.654  33.143  35.826  1.00  0.00     0.037 A 
ATOM     50  C   UNL A   1      41.177  28.651  31.362  1.00  0.00     0.049 A 
ATOM     51  C   UNL A   1      40.676  32.040  35.780  1.00  0.00     0.074 A 
ATOM     52  C   UNL A   1      42.189  27.707  31.410  1.00  0.00     0.029 A 
ATOM     53  N   UNL A   1      41.234  29.359  32.553  1.00  0.00    -0.354 N 
ATOM     54  N   UNL A   1      40.926  31.185  34.820  1.00  0.00    -0.248 NA
ATOM     55  C   UNL A   1      41.530  31.880  36.966  1.00  0.00     0.031 C 
ATOM     56  C   UNL A   1      42.835  27.821  32.646  1.00  0.00     0.029 A 
ATOM     57  C   UNL A   1      42.254  28.863  33.349  1.00  0.00     0.049 A 
ATOM     58  H   UNL A   1      40.638  30.103  32.797  1.00  0.00     0.167 HD
ATOM     59  C   UNL A   1      41.980  30.403  35.273  1.00  0.00     0.074 A 
ATOM     60  C   UNL A   1      42.332  30.894  36.588  1.00  0.00     0.031 C 
ATOM     61  C   UNL A   1      42.600  29.370  34.652  1.00  0.00     0.037 A 
BRANCH  48  62
ATOM     62  C   UNL A   1      40.253  27.995  29.108  1.00  0.00     0.064 A 
ATOM     63  C   UNL A   1      39.524  26.797  29.073  1.00  0.00     0.173 A 
ATOM     64  C   UNL A   1      40.988  28.350  27.967  1.00  0.00     0.173 A 
ATOM     65  F   UNL A   1      38.814  26.407  30.143  1.00  0.00    -0.203 F 
ATOM     66  C   UNL A   1      39.553  25.974  27.951  1.00  0.00     0.198 A 
ATOM     67  C   UNL A   1      40.991  27.538  26.836  1.00  0.00     0.198 A 
ATOM     68  F   UNL A   1      41.699  29.488  27.947  1.00  0.00    -0.203 F 
ATOM     69  F   UNL A   1      38.887  24.810  27.959  1.00  0.00    -0.200 F 
ATOM     70  C   UNL A   1      40.281  26.348  26.831  1.00  0.00     0.200 A 
ATOM     71  F   UNL A   1      41.686  27.906  25.751  1.00  0.00    -0.200 F 
ATOM     72  F   UNL A   1      40.303  25.556  25.750  1.00  0.00    -0.200 F 
ENDBRANCH  48  62
BRANCH  49  73
ATOM     73  C   UNL A   1      39.536  34.016  37.022  1.00  0.00     0.064 A 
ATOM     74  C   UNL A   1      38.779  33.611  38.131  1.00  0.00     0.173 A 
ATOM     75  C   UNL A   1      40.164  35.267  37.081  1.00  0.00     0.173 A 
ATOM     76  F   UNL A   1      38.141  32.432  38.111  1.00  0.00    -0.203 F 
ATOM     77  C   UNL A   1      38.642  34.434  39.247  1.00  0.00     0.198 A 
ATOM     78  C   UNL A   1      40.046  36.078  38.209  1.00  0.00     0.198 A 
ATOM     79  F   UNL A   1      40.900  35.698  36.047  1.00  0.00    -0.203 F 
ATOM     80  F   UNL A   1      37.879  34.040  40.276  1.00  0.00    -0.200 F 
ATOM     81  C   UNL A   1      39.279  35.664  39.287  1.00  0.00     0.200 A 
ATOM     82  F   UNL A   1      40.672  37.263  38.248  1.00  0.00    -0.200 F 
ATOM     83  F   UNL A   1      39.149  36.454  40.362  1.00  0.00    -0.200 F 
ENDBRANCH  49  73
BRANCH  61  84
ATOM     84  C   UNL A   1      43.747  28.724  35.372  1.00  0.00     0.064 A 
ATOM     85  C   UNL A   1      45.070  29.143  35.174  1.00  0.00     0.173 A 
ATOM     86  C   UNL A   1      43.513  27.698  36.300  1.00  0.00     0.173 A 
ATOM     87  F   UNL A   1      45.345  30.110  34.285  1.00  0.00    -0.203 F 
ATOM     88  C   UNL A   1      46.121  28.543  35.861  1.00  0.00     0.198 A 
ATOM     89  C   UNL A   1      44.564  27.118  37.006  1.00  0.00     0.198 A 
ATOM     90  F   UNL A   1      42.264  27.265  36.530  1.00  0.00    -0.203 F 
ATOM     91  F   UNL A   1      47.382  28.930  35.624  1.00  0.00    -0.200 F 
ATOM     92  C   UNL A   1      45.867  27.536  36.782  1.00  0.00     0.200 A 
ATOM     93  F   UNL A   1      44.315  26.154  37.903  1.00  0.00    -0.200 F 
ATOM     94  F   UNL A   1      46.879  26.964  37.447  1.00  0.00    -0.200 F 
ENDBRANCH  61  84
ENDBRANCH  35  36
ENDBRANCH  27  30
ENDBRANCH  25  26
ENDBRANCH   1  25
TORSDOF 13
ENDMDL
MODEL 3
REMARK VINA RESULT:     -13.3      0.545      7.275
REMARK SMILES O=C(C[C@H](C1CCCCC1)N1Cc2ccccc2C1=O)NCCCNC(=O)c1ccc(-c2c3nc(c(-c4c(F)c(F)c(F)c(F)c4F)c4ccc([nH]4)c(-c4c(F)c(F)c(F)c(F)c4F)c4nc(c(-c5c(F)c(F)c(F)c(F)c5F)c5ccc2[nH]5)C=C4)C=C3)cc1
REMARK SMILES IDX 23 1 22 2 21 3 1 4 2 5 3 7 4 8 11 9 12 10 19 11 13 12 18 13
REMARK SMILES IDX 20 14 14 15 17 16 15 17 16 18 5 19 6 20 10 21 7 22 9 23 8 24
REMARK SMILES IDX 24 25 25 26 26 27 27 29 28 30 29 31 90 32 30 33 89 34 31 35
REMARK SMILES IDX 32 36 33 37 83 38 34 39 88 40 82 41 84 42 35 43 87 44 81 45
REMARK SMILES IDX 80 46 36 48 68 49 48 50 67 51 49 52 52 53 66 54 85 55 50 56
REMARK SMILES IDX 51 57 65 59 86 60 53 61 37 62 38 63 46 64 39 65 40 66 44 67
REMARK SMILES IDX 47 68 41 69 42 70 45 71 43 72 69 73 70 74 78 75 71 76 72 77
REMARK SMILES IDX 76 78 79 79 73 80 74 81 77 82 75 83 54 84 55 85 63 86 56 87
REMARK SMILES IDX 57 88 61 89 64 90 58 91 59 92 62 93 60 94
REMARK H PARENT 21 6 25 28 84 47 52 58
REMARK Flexibility Score: inf
ROOT
ATOM      1  C   UNL A   1      31.653  31.917  26.796  1.00  0.00     0.042 C 
ENDROOT
BRANCH   1   2
ATOM      2  C   UNL A   1      31.986  30.440  26.724  1.00  0.00     0.117 C 
BRANCH   2   3
ATOM      3  N   UNL A   1      32.560  30.035  25.461  1.00  0.00    -0.356 N 
ATOM      4  O   UNL A   1      34.334  28.893  26.308  1.00  0.00    -0.275 OA
ATOM      5  C   UNL A   1      33.595  29.146  25.358  1.00  0.00     0.222 C 
ATOM      6  H   UNL A   1      32.189  30.418  24.633  1.00  0.00     0.163 HD
BRANCH   5   7
ATOM      7  C   UNL A   1      33.799  28.466  24.002  1.00  0.00     0.125 C 
BRANCH   7   8
ATOM      8  C   UNL A   1      33.043  27.157  23.616  1.00  0.00     0.098 C 
BRANCH   8   9
ATOM      9  N   UNL A   1      33.769  25.920  23.983  1.00  0.00    -0.331 N 
ATOM     10  C   UNL A   1      34.199  25.545  25.330  1.00  0.00     0.156 C 
ATOM     11  C   UNL A   1      34.003  24.877  23.082  1.00  0.00     0.254 C 
ATOM     12  C   UNL A   1      35.118  24.402  25.054  1.00  0.00    -0.016 A 
ATOM     13  C   UNL A   1      34.961  23.978  23.735  1.00  0.00     0.045 A 
ATOM     14  O   UNL A   1      33.613  24.765  21.936  1.00  0.00    -0.269 OA
ATOM     15  C   UNL A   1      36.083  23.830  25.862  1.00  0.00     0.006 A 
ATOM     16  C   UNL A   1      35.764  23.011  23.160  1.00  0.00     0.014 A 
ATOM     17  C   UNL A   1      36.909  22.847  25.302  1.00  0.00     0.000 A 
ATOM     18  C   UNL A   1      36.755  22.444  23.963  1.00  0.00     0.001 A 
ENDBRANCH   8   9
BRANCH   8  19
ATOM     19  C   UNL A   1      31.534  27.169  24.028  1.00  0.00     0.012 C 
ATOM     20  C   UNL A   1      30.612  27.913  23.042  1.00  0.00     0.006 C 
ATOM     21  C   UNL A   1      31.004  25.733  24.255  1.00  0.00     0.006 C 
ATOM     22  C   UNL A   1      29.161  27.913  23.525  1.00  0.00     0.000 C 
ATOM     23  C   UNL A   1      29.543  25.725  24.707  1.00  0.00     0.000 C 
ATOM     24  C   UNL A   1      28.648  26.495  23.745  1.00  0.00     0.000 C 
ENDBRANCH   8  19
ENDBRANCH   7   8
ENDBRANCH   5   7
ENDBRANCH   2   3
ENDBRANCH   1   2
BRANCH   1  25
ATOM     25  C   UNL A   1      32.797  32.804  27.269  1.00  0.00     0.118 C 
BRANCH  25  26
ATOM     26  N   UNL A   1      32.396  34.152  27.656  1.00  0.00    -0.352 N 
ATOM     27  C   UNL A   1      32.958  35.013  28.570  1.00  0.00     0.251 C 
ATOM     28  H   UNL A   1      31.600  34.500  27.192  1.00  0.00     0.163 HD
ATOM     29  O   UNL A   1      32.445  36.110  28.775  1.00  0.00    -0.269 OA
BRANCH  27  30
ATOM     30  C   UNL A   1      34.150  34.602  29.347  1.00  0.00     0.039 A 
ATOM     31  C   UNL A   1      33.966  34.109  30.644  1.00  0.00     0.014 A 
ATOM     32  C   UNL A   1      35.432  34.658  28.799  1.00  0.00     0.014 A 
ATOM     33  C   UNL A   1      35.053  33.580  31.347  1.00  0.00     0.010 A 
ATOM     34  C   UNL A   1      36.496  34.054  29.464  1.00  0.00     0.010 A 
ATOM     35  C   UNL A   1      36.317  33.498  30.740  1.00  0.00    -0.014 A 
BRANCH  35  36
ATOM     36  C   UNL A   1      37.457  32.818  31.411  1.00  0.00     0.031 A 
ATOM     37  C   UNL A   1      38.131  31.644  30.758  1.00  0.00     0.074 A 
ATOM     38  C   UNL A   1      37.834  33.205  32.647  1.00  0.00     0.049 A 
ATOM     39  N   UNL A   1      39.072  30.862  31.226  1.00  0.00    -0.248 NA
ATOM     40  C   UNL A   1      37.662  31.279  29.412  1.00  0.00     0.031 C 
ATOM     41  C   UNL A   1      37.227  34.292  33.417  1.00  0.00     0.029 A 
ATOM     42  N   UNL A   1      38.809  32.714  33.479  1.00  0.00    -0.354 N 
ATOM     43  C   UNL A   1      39.288  29.903  30.246  1.00  0.00     0.074 A 
ATOM     44  C   UNL A   1      38.350  30.173  29.176  1.00  0.00     0.031 C 
ATOM     45  C   UNL A   1      37.857  34.400  34.597  1.00  0.00     0.029 A 
ATOM     46  C   UNL A   1      38.886  33.369  34.686  1.00  0.00     0.049 A 
ATOM     47  H   UNL A   1      39.399  31.964  33.237  1.00  0.00     0.167 HD
ATOM     48  C   UNL A   1      40.202  28.903  30.227  1.00  0.00     0.037 A 
ATOM     49  C   UNL A   1      39.689  33.157  35.745  1.00  0.00     0.037 A 
ATOM     50  C   UNL A   1      41.160  28.657  31.271  1.00  0.00     0.049 A 
ATOM     51  C   UNL A   1      40.708  32.052  35.691  1.00  0.00     0.074 A 
ATOM     52  C   UNL A   1      42.170  27.711  31.311  1.00  0.00     0.029 A 
ATOM     53  N   UNL A   1      41.230  29.366  32.461  1.00  0.00    -0.354 N 
ATOM     54  N   UNL A   1      40.948  31.195  34.729  1.00  0.00    -0.248 NA
ATOM     55  C   UNL A   1      41.573  31.890  36.868  1.00  0.00     0.031 C 
ATOM     56  C   UNL A   1      42.828  27.824  32.540  1.00  0.00     0.029 A 
ATOM     57  C   UNL A   1      42.257  28.869  33.248  1.00  0.00     0.049 A 
ATOM     58  H   UNL A   1      40.638  30.112  32.710  1.00  0.00     0.167 HD
ATOM     59  C   UNL A   1      42.004  30.411  35.172  1.00  0.00     0.074 A 
ATOM     60  C   UNL A   1      42.370  30.902  36.484  1.00  0.00     0.031 C 
ATOM     61  C   UNL A   1      42.616  29.375  34.547  1.00  0.00     0.037 A 
BRANCH  48  62
ATOM     62  C   UNL A   1      40.213  28.001  29.027  1.00  0.00     0.064 A 
ATOM     63  C   UNL A   1      40.947  28.321  27.875  1.00  0.00     0.173 A 
ATOM     64  C   UNL A   1      39.510  26.787  29.041  1.00  0.00     0.173 A 
ATOM     65  F   UNL A   1      41.627  29.477  27.808  1.00  0.00    -0.203 F 
ATOM     66  C   UNL A   1      40.953  27.474  26.771  1.00  0.00     0.198 A 
ATOM     67  C   UNL A   1      39.542  25.928  27.945  1.00  0.00     0.198 A 
ATOM     68  F   UNL A   1      38.797  26.431  30.120  1.00  0.00    -0.203 F 
ATOM     69  F   UNL A   1      41.621  27.825  25.663  1.00  0.00    -0.200 F 
ATOM     70  C   UNL A   1      40.256  26.275  26.809  1.00  0.00     0.200 A 
ATOM     71  F   UNL A   1      38.877  24.766  27.988  1.00  0.00    -0.200 F 
ATOM     72  F   UNL A   1      40.267  25.459  25.747  1.00  0.00    -0.200 F 
ENDBRANCH  48  62
BRANCH  49  73
ATOM     73  C   UNL A   1      39.584  34.031  36.942  1.00  0.00     0.064 A 
ATOM     74  C   UNL A   1      40.267  35.255  36.996  1.00  0.00     0.173 A 
ATOM     75  C   UNL A   1      38.812  33.663  38.052  1.00  0.00     0.173 A 
ATOM     76  F   UNL A   1      41.036  35.638  35.967  1.00  0.00    -0.203 F 
ATOM     77  C   UNL A   1      40.195  36.069  38.124  1.00  0.00     0.198 A 
ATOM     78  C   UNL A   1      38.721  34.491  39.170  1.00  0.00     0.198 A 
ATOM     79  F   UNL A   1      38.139  32.504  38.048  1.00  0.00    -0.203 F 
ATOM     80  F   UNL A   1      40.891  37.213  38.167  1.00  0.00    -0.200 F 
ATOM     81  C   UNL A   1      39.418  35.689  39.208  1.00  0.00     0.200 A 
ATOM     82  F   UNL A   1      37.961  34.126  40.212  1.00  0.00    -0.200 F 
ATOM     83  F   UNL A   1      39.347  36.474  40.292  1.00  0.00    -0.200 F 
ENDBRANCH  49  73
BRANCH  61  84
ATOM     84  C   UNL A   1      43.768  28.728  35.257  1.00  0.00     0.064 A 
ATOM     85  C   UNL A   1      43.578  27.659  36.144  1.00  0.00     0.173 A 
ATOM     86  C   UNL A   1      45.082  29.158  35.015  1.00  0.00     0.173 A 
ATOM     87  F   UNL A   1      42.340  27.223  36.419  1.00  0.00    -0.203 F 
ATOM     88  C   UNL A   1      44.660  27.059  36.783  1.00  0.00     0.198 A 
ATOM     89  C   UNL A   1      46.163  28.539  35.635  1.00  0.00     0.198 A 
ATOM     90  F   UNL A   1      45.316  30.174  34.170  1.00  0.00    -0.203 F 
ATOM     91  F   UNL A   1      44.452  26.068  37.661  1.00  0.00    -0.200 F 
ATOM     92  C   UNL A   1      45.951  27.495  36.523  1.00  0.00     0.200 A 
ATOM     93  F   UNL A   1      47.411  28.954  35.374  1.00  0.00    -0.200 F 
ATOM     94  F   UNL A   1      46.992  26.913  37.134  1.00  0.00    -0.200 F 
ENDBRANCH  61  84
ENDBRANCH  35  36
ENDBRANCH  27  30
ENDBRANCH  25  26
ENDBRANCH   1  25
TORSDOF 13
ENDMDL
