MODEL 1
REMARK VINA RESULT:     -14.3      0.000      0.000
REMARK SMILES Cc1ccc(C(F)(F)F)cc1-c1ccc(/C=C/C(=O)NCCCNC(=O)c2ccc(-c3c4nc(c(-c5c(F)c(F)c(F)c(F)c5F)c5ccc([nH]5)c(-c5c(F)c(F)c(F)c(F)c5F)c5nc(c(-c6c(F)c(F)c(F)c(F)c6F)c6ccc3[nH]6)C=C5)C=C4)cc2)s1
REMARK SMILES IDX 21 1 20 2 18 3 19 4 17 6 16 7 15 8 12 9 13 10 90 11 14 12
REMARK SMILES IDX 11 13 1 14 2 15 3 16 4 17 10 18 5 19 6 20 7 21 8 22 9 23
REMARK SMILES IDX 22 24 23 25 24 26 25 27 26 29 27 30 28 31 89 32 29 33 88 34
REMARK SMILES IDX 30 35 31 36 32 37 82 38 33 39 87 40 81 41 83 42 34 43 86 44
REMARK SMILES IDX 80 45 79 46 35 48 67 49 47 50 66 51 48 52 51 53 65 54 84 55
REMARK SMILES IDX 49 56 50 57 64 59 85 60 52 61 36 62 37 63 45 64 38 65 39 66
REMARK SMILES IDX 43 67 46 68 40 69 41 70 44 71 42 72 68 73 69 74 77 75 70 76
REMARK SMILES IDX 71 77 75 78 78 79 72 80 73 81 76 82 74 83 53 84 54 85 62 86
REMARK SMILES IDX 55 87 56 88 60 89 63 90 57 91 58 92 61 93 59 94
REMARK H PARENT 20 5 24 28 83 47 51 58
REMARK Flexibility Score: inf
ROOT
ATOM      1  C   UNL A   1      32.014  29.690  25.895  1.00  0.00     0.118 C 
ENDROOT
BRANCH   1   2
ATOM      2  N   UNL A   1      32.795  29.676  24.664  1.00  0.00    -0.352 N 
ATOM      3  C   UNL A   1      33.432  28.637  24.046  1.00  0.00     0.244 C 
ATOM      4  O   UNL A   1      33.943  28.800  22.942  1.00  0.00    -0.270 OA
ATOM      5  H   UNL A   1      32.875  30.546  24.210  1.00  0.00     0.163 HD
BRANCH   3   6
ATOM      6  C   UNL A   1      33.437  27.296  24.672  1.00  0.00     0.072 C 
ATOM      7  C   UNL A   1      33.947  26.231  24.041  1.00  0.00     0.024 C 
BRANCH   7   8
ATOM      8  C   UNL A   1      34.026  24.928  24.605  1.00  0.00     0.028 A 
ATOM      9  C   UNL A   1      34.446  22.527  25.072  1.00  0.00     0.035 A 
ATOM     10  C   UNL A   1      34.099  23.223  26.209  1.00  0.00     0.021 A 
ATOM     11  S   UNL A   1      34.424  23.533  23.688  1.00  0.00    -0.136 S 
ATOM     12  C   UNL A   1      33.866  24.601  25.941  1.00  0.00     0.020 A 
BRANCH   9  13
ATOM     13  C   UNL A   1      34.823  21.118  24.943  1.00  0.00    -0.005 A 
ATOM     14  C   UNL A   1      37.314  21.618  25.282  1.00  0.00     0.045 C 
ATOM     15  C   UNL A   1      36.160  20.684  25.027  1.00  0.00    -0.042 A 
ATOM     16  C   UNL A   1      36.447  19.323  24.826  1.00  0.00     0.005 A 
ATOM     17  C   UNL A   1      35.429  18.402  24.573  1.00  0.00     0.013 A 
ATOM     18  C   UNL A   1      33.807  20.179  24.685  1.00  0.00     0.023 A 
ATOM     19  C   UNL A   1      34.095  18.820  24.504  1.00  0.00     0.056 A 
BRANCH  19  20
ATOM     20  C   UNL A   1      32.999  17.823  24.228  1.00  0.00     0.416 C 
ATOM     21  F   UNL A   1      31.866  18.414  23.757  1.00  0.00    -0.166 F 
ATOM     22  F   UNL A   1      33.356  16.902  23.290  1.00  0.00    -0.166 F 
ATOM     23  F   UNL A   1      32.617  17.110  25.324  1.00  0.00    -0.166 F 
ENDBRANCH  19  20
ENDBRANCH   9  13
ENDBRANCH   7   8
ENDBRANCH   3   6
ENDBRANCH   1   2
BRANCH   1  24
ATOM     24  C   UNL A   1      32.584  30.672  26.918  1.00  0.00     0.042 C 
BRANCH  24  25
ATOM     25  C   UNL A   1      33.879  30.208  27.567  1.00  0.00     0.118 C 
BRANCH  25  26
ATOM     26  N   UNL A   1      34.493  31.206  28.433  1.00  0.00    -0.352 N 
ATOM     27  C   UNL A   1      35.719  31.138  29.096  1.00  0.00     0.251 C 
ATOM     28  H   UNL A   1      33.977  32.033  28.568  1.00  0.00     0.163 HD
ATOM     29  O   UNL A   1      36.137  32.057  29.753  1.00  0.00    -0.269 OA
BRANCH  27  30
ATOM     30  C   UNL A   1      36.545  29.932  28.854  1.00  0.00     0.039 A 
ATOM     31  C   UNL A   1      36.834  29.122  29.954  1.00  0.00     0.014 A 
ATOM     32  C   UNL A   1      37.247  29.805  27.658  1.00  0.00     0.014 A 
ATOM     33  C   UNL A   1      38.004  28.371  29.941  1.00  0.00     0.010 A 
ATOM     34  C   UNL A   1      38.454  29.135  27.679  1.00  0.00     0.010 A 
ATOM     35  C   UNL A   1      38.869  28.493  28.853  1.00  0.00    -0.014 A 
BRANCH  35  36
ATOM     36  C   UNL A   1      40.275  28.107  28.922  1.00  0.00     0.031 A 
ATOM     37  C   UNL A   1      40.706  26.770  28.471  1.00  0.00     0.074 A 
ATOM     38  C   UNL A   1      41.187  29.002  29.364  1.00  0.00     0.049 A 
ATOM     39  N   UNL A   1      41.822  26.215  28.803  1.00  0.00    -0.248 NA
ATOM     40  C   UNL A   1      39.849  25.901  27.676  1.00  0.00     0.031 C 
ATOM     41  C   UNL A   1      42.641  28.912  29.261  1.00  0.00     0.029 A 
ATOM     42  N   UNL A   1      40.965  30.097  30.219  1.00  0.00    -0.354 N 
ATOM     43  C   UNL A   1      41.961  25.063  28.065  1.00  0.00     0.074 A 
ATOM     44  C   UNL A   1      40.657  24.853  27.485  1.00  0.00     0.031 C 
ATOM     45  C   UNL A   1      43.190  29.670  30.223  1.00  0.00     0.029 A 
ATOM     46  C   UNL A   1      42.103  30.149  31.058  1.00  0.00     0.049 A 
ATOM     47  H   UNL A   1      40.186  30.698  30.232  1.00  0.00     0.167 HD
ATOM     48  C   UNL A   1      43.205  24.515  27.938  1.00  0.00     0.037 A 
ATOM     49  C   UNL A   1      42.018  29.966  32.406  1.00  0.00     0.037 A 
ATOM     50  C   UNL A   1      44.129  25.113  28.908  1.00  0.00     0.049 A 
ATOM     51  C   UNL A   1      42.880  28.844  32.932  1.00  0.00     0.074 A 
ATOM     52  C   UNL A   1      45.146  26.049  28.807  1.00  0.00     0.029 A 
ATOM     53  N   UNL A   1      43.881  24.951  30.270  1.00  0.00    -0.354 N 
ATOM     54  N   UNL A   1      43.335  27.870  32.193  1.00  0.00    -0.248 NA
ATOM     55  C   UNL A   1      43.260  28.710  34.334  1.00  0.00     0.031 C 
ATOM     56  C   UNL A   1      45.467  26.494  30.116  1.00  0.00     0.029 A 
ATOM     57  C   UNL A   1      44.665  25.810  31.015  1.00  0.00     0.049 A 
ATOM     58  H   UNL A   1      43.236  24.312  30.649  1.00  0.00     0.167 HD
ATOM     59  C   UNL A   1      44.029  26.987  32.982  1.00  0.00     0.074 A 
ATOM     60  C   UNL A   1      43.972  27.570  34.309  1.00  0.00     0.031 C 
ATOM     61  C   UNL A   1      44.571  25.842  32.469  1.00  0.00     0.037 A 
BRANCH  48  62
ATOM     62  C   UNL A   1      43.671  23.634  26.781  1.00  0.00     0.064 A 
ATOM     63  C   UNL A   1      43.277  22.274  26.717  1.00  0.00     0.173 A 
ATOM     64  C   UNL A   1      44.586  24.003  25.775  1.00  0.00     0.173 A 
ATOM     65  F   UNL A   1      42.358  21.772  27.553  1.00  0.00    -0.203 F 
ATOM     66  C   UNL A   1      43.818  21.365  25.798  1.00  0.00     0.198 A 
ATOM     67  C   UNL A   1      45.131  23.096  24.858  1.00  0.00     0.198 A 
ATOM     68  F   UNL A   1      44.998  25.258  25.602  1.00  0.00    -0.203 F 
ATOM     69  F   UNL A   1      43.429  20.083  25.821  1.00  0.00    -0.200 F 
ATOM     70  C   UNL A   1      44.761  21.773  24.880  1.00  0.00     0.200 A 
ATOM     71  F   UNL A   1      46.029  23.527  23.960  1.00  0.00    -0.200 F 
ATOM     72  F   UNL A   1      45.299  20.904  24.014  1.00  0.00    -0.200 F 
ENDBRANCH  48  62
BRANCH  49  73
ATOM     73  C   UNL A   1      40.711  30.373  32.984  1.00  0.00     0.064 A 
ATOM     74  C   UNL A   1      40.410  31.746  33.059  1.00  0.00     0.173 A 
ATOM     75  C   UNL A   1      39.652  29.469  33.118  1.00  0.00     0.173 A 
ATOM     76  F   UNL A   1      41.389  32.656  32.930  1.00  0.00    -0.203 F 
ATOM     77  C   UNL A   1      39.095  32.196  33.148  1.00  0.00     0.198 A 
ATOM     78  C   UNL A   1      38.336  29.924  33.222  1.00  0.00     0.198 A 
ATOM     79  F   UNL A   1      39.870  28.149  33.032  1.00  0.00    -0.203 F 
ATOM     80  F   UNL A   1      38.832  33.510  33.097  1.00  0.00    -0.200 F 
ATOM     81  C   UNL A   1      38.056  31.283  33.203  1.00  0.00     0.200 A 
ATOM     82  F   UNL A   1      37.326  29.042  33.239  1.00  0.00    -0.200 F 
ATOM     83  F   UNL A   1      36.786  31.710  33.190  1.00  0.00    -0.200 F 
ENDBRANCH  49  73
BRANCH  61  84
ATOM     84  C   UNL A   1      45.142  24.689  33.266  1.00  0.00     0.064 A 
ATOM     85  C   UNL A   1      44.474  23.472  33.486  1.00  0.00     0.173 A 
ATOM     86  C   UNL A   1      46.482  24.731  33.722  1.00  0.00     0.173 A 
ATOM     87  F   UNL A   1      43.249  23.248  32.992  1.00  0.00    -0.203 F 
ATOM     88  C   UNL A   1      45.071  22.410  34.172  1.00  0.00     0.198 A 
ATOM     89  C   UNL A   1      47.096  23.648  34.352  1.00  0.00     0.198 A 
ATOM     90  F   UNL A   1      47.250  25.817  33.546  1.00  0.00    -0.203 F 
ATOM     91  F   UNL A   1      44.372  21.288  34.393  1.00  0.00    -0.200 F 
ATOM     92  C   UNL A   1      46.384  22.493  34.594  1.00  0.00     0.200 A 
ATOM     93  F   UNL A   1      48.387  23.726  34.705  1.00  0.00    -0.200 F 
ATOM     94  F   UNL A   1      46.968  21.455  35.208  1.00  0.00    -0.200 F 
ENDBRANCH  61  84
ENDBRANCH  35  36
ENDBRANCH  27  30
ENDBRANCH  25  26
ENDBRANCH  24  25
ENDBRANCH   1  24
TORSDOF 13
ENDMDL
MODEL 2
REMARK VINA RESULT:     -14.2      1.652      2.042
REMARK SMILES Cc1ccc(C(F)(F)F)cc1-c1ccc(/C=C/C(=O)NCCCNC(=O)c2ccc(-c3c4nc(c(-c5c(F)c(F)c(F)c(F)c5F)c5ccc([nH]5)c(-c5c(F)c(F)c(F)c(F)c5F)c5nc(c(-c6c(F)c(F)c(F)c(F)c6F)c6ccc3[nH]6)C=C5)C=C4)cc2)s1
REMARK SMILES IDX 21 1 20 2 18 3 19 4 17 6 16 7 15 8 12 9 13 10 90 11 14 12
REMARK SMILES IDX 11 13 1 14 2 15 3 16 4 17 10 18 5 19 6 20 7 21 8 22 9 23
REMARK SMILES IDX 22 24 23 25 24 26 25 27 26 29 27 30 28 31 89 32 29 33 88 34
REMARK SMILES IDX 30 35 31 36 32 37 82 38 33 39 87 40 81 41 83 42 34 43 86 44
REMARK SMILES IDX 80 45 79 46 35 48 67 49 47 50 66 51 48 52 51 53 65 54 84 55
REMARK SMILES IDX 49 56 50 57 64 59 85 60 52 61 36 62 37 63 45 64 38 65 39 66
REMARK SMILES IDX 43 67 46 68 40 69 41 70 44 71 42 72 68 73 69 74 77 75 70 76
REMARK SMILES IDX 71 77 75 78 78 79 72 80 73 81 76 82 74 83 53 84 54 85 62 86
REMARK SMILES IDX 55 87 56 88 60 89 63 90 57 91 58 92 61 93 59 94
REMARK H PARENT 20 5 24 28 83 47 51 58
REMARK Flexibility Score: inf
ROOT
ATOM      1  C   UNL A   1      31.817  29.864  26.119  1.00  0.00     0.118 C 
ENDROOT
BRANCH   1   2
ATOM      2  N   UNL A   1      32.133  29.825  24.697  1.00  0.00    -0.352 N 
ATOM      3  C   UNL A   1      32.781  28.864  23.973  1.00  0.00     0.244 C 
ATOM      4  O   UNL A   1      32.849  28.956  22.752  1.00  0.00    -0.270 OA
ATOM      5  H   UNL A   1      31.837  30.608  24.180  1.00  0.00     0.163 HD
BRANCH   3   6
ATOM      6  C   UNL A   1      33.333  27.671  24.656  1.00  0.00     0.072 C 
ATOM      7  C   UNL A   1      33.115  26.435  24.190  1.00  0.00     0.024 C 
BRANCH   7   8
ATOM      8  C   UNL A   1      33.656  25.255  24.769  1.00  0.00     0.028 A 
ATOM      9  C   UNL A   1      34.968  23.217  25.304  1.00  0.00     0.035 A 
ATOM     10  C   UNL A   1      34.231  23.657  26.382  1.00  0.00     0.021 A 
ATOM     11  S   UNL A   1      34.700  24.188  23.921  1.00  0.00    -0.136 S 
ATOM     12  C   UNL A   1      33.486  24.829  26.077  1.00  0.00     0.020 A 
BRANCH   9  13
ATOM     13  C   UNL A   1      35.904  22.093  25.235  1.00  0.00    -0.005 A 
ATOM     14  C   UNL A   1      34.103  20.475  24.393  1.00  0.00     0.045 C 
ATOM     15  C   UNL A   1      35.508  20.806  24.823  1.00  0.00    -0.042 A 
ATOM     16  C   UNL A   1      36.451  19.764  24.849  1.00  0.00     0.005 A 
ATOM     17  C   UNL A   1      37.768  19.994  25.249  1.00  0.00     0.013 A 
ATOM     18  C   UNL A   1      37.235  22.310  25.638  1.00  0.00     0.023 A 
ATOM     19  C   UNL A   1      38.176  21.273  25.644  1.00  0.00     0.056 A 
BRANCH  19  20
ATOM     20  C   UNL A   1      39.599  21.517  26.077  1.00  0.00     0.416 C 
ATOM     21  F   UNL A   1      39.694  21.823  27.401  1.00  0.00    -0.166 F 
ATOM     22  F   UNL A   1      40.396  20.428  25.889  1.00  0.00    -0.166 F 
ATOM     23  F   UNL A   1      40.207  22.541  25.416  1.00  0.00    -0.166 F 
ENDBRANCH  19  20
ENDBRANCH   9  13
ENDBRANCH   7   8
ENDBRANCH   3   6
ENDBRANCH   1   2
BRANCH   1  24
ATOM     24  C   UNL A   1      32.622  30.938  26.851  1.00  0.00     0.042 C 
BRANCH  24  25
ATOM     25  C   UNL A   1      33.807  30.396  27.634  1.00  0.00     0.118 C 
BRANCH  25  26
ATOM     26  N   UNL A   1      34.425  31.376  28.518  1.00  0.00    -0.352 N 
ATOM     27  C   UNL A   1      35.639  31.280  29.200  1.00  0.00     0.251 C 
ATOM     28  H   UNL A   1      33.923  32.212  28.651  1.00  0.00     0.163 HD
ATOM     29  O   UNL A   1      36.063  32.186  29.871  1.00  0.00    -0.269 OA
BRANCH  27  30
ATOM     30  C   UNL A   1      36.447  30.061  28.962  1.00  0.00     0.039 A 
ATOM     31  C   UNL A   1      36.747  29.266  30.070  1.00  0.00     0.014 A 
ATOM     32  C   UNL A   1      37.125  29.907  27.756  1.00  0.00     0.014 A 
ATOM     33  C   UNL A   1      37.908  28.501  30.047  1.00  0.00     0.010 A 
ATOM     34  C   UNL A   1      38.324  29.224  27.765  1.00  0.00     0.010 A 
ATOM     35  C   UNL A   1      38.754  28.596  28.942  1.00  0.00    -0.014 A 
BRANCH  35  36
ATOM     36  C   UNL A   1      40.156  28.194  28.991  1.00  0.00     0.031 A 
ATOM     37  C   UNL A   1      40.566  26.850  28.540  1.00  0.00     0.074 A 
ATOM     38  C   UNL A   1      41.085  29.081  29.413  1.00  0.00     0.049 A 
ATOM     39  N   UNL A   1      41.681  26.285  28.858  1.00  0.00    -0.248 NA
ATOM     40  C   UNL A   1      39.686  25.985  27.764  1.00  0.00     0.031 C 
ATOM     41  C   UNL A   1      42.536  28.974  29.288  1.00  0.00     0.029 A 
ATOM     42  N   UNL A   1      40.889  30.183  30.266  1.00  0.00    -0.354 N 
ATOM     43  C   UNL A   1      41.794  25.126  28.124  1.00  0.00     0.074 A 
ATOM     44  C   UNL A   1      40.480  24.928  27.566  1.00  0.00     0.031 C 
ATOM     45  C   UNL A   1      43.109  29.731  30.237  1.00  0.00     0.029 A 
ATOM     46  C   UNL A   1      42.041  30.227  31.085  1.00  0.00     0.049 A 
ATOM     47  H   UNL A   1      40.117  30.793  30.286  1.00  0.00     0.167 HD
ATOM     48  C   UNL A   1      43.030  24.564  27.982  1.00  0.00     0.037 A 
ATOM     49  C   UNL A   1      41.975  30.052  32.436  1.00  0.00     0.037 A 
ATOM     50  C   UNL A   1      43.977  25.157  28.933  1.00  0.00     0.049 A 
ATOM     51  C   UNL A   1      42.832  28.924  32.954  1.00  0.00     0.074 A 
ATOM     52  C   UNL A   1      45.002  26.081  28.811  1.00  0.00     0.029 A 
ATOM     53  N   UNL A   1      43.748  25.006  30.300  1.00  0.00    -0.354 N 
ATOM     54  N   UNL A   1      43.265  27.941  32.215  1.00  0.00    -0.248 NA
ATOM     55  C   UNL A   1      43.233  28.793  34.352  1.00  0.00     0.031 C 
ATOM     56  C   UNL A   1      45.348  26.530  30.112  1.00  0.00     0.029 A 
ATOM     57  C   UNL A   1      44.553  25.860  31.028  1.00  0.00     0.049 A 
ATOM     58  H   UNL A   1      43.102  24.375  30.693  1.00  0.00     0.167 HD
ATOM     59  C   UNL A   1      43.961  27.054  32.997  1.00  0.00     0.074 A 
ATOM     60  C   UNL A   1      43.932  27.645  34.322  1.00  0.00     0.031 C 
ATOM     61  C   UNL A   1      44.483  25.901  32.482  1.00  0.00     0.037 A 
BRANCH  48  62
ATOM     62  C   UNL A   1      43.468  23.671  26.822  1.00  0.00     0.064 A 
ATOM     63  C   UNL A   1      43.180  22.284  26.842  1.00  0.00     0.173 A 
ATOM     64  C   UNL A   1      44.266  24.065  25.729  1.00  0.00     0.173 A 
ATOM     65  F   UNL A   1      42.376  21.750  27.772  1.00  0.00    -0.203 F 
ATOM     66  C   UNL A   1      43.715  21.379  25.915  1.00  0.00     0.198 A 
ATOM     67  C   UNL A   1      44.803  23.163  24.803  1.00  0.00     0.198 A 
ATOM     68  F   UNL A   1      44.560  25.339  25.475  1.00  0.00    -0.203 F 
ATOM     69  F   UNL A   1      43.432  20.074  26.019  1.00  0.00    -0.200 F 
ATOM     70  C   UNL A   1      44.543  21.818  24.905  1.00  0.00     0.200 A 
ATOM     71  F   UNL A   1      45.587  23.622  23.816  1.00  0.00    -0.200 F 
ATOM     72  F   UNL A   1      45.076  20.955  24.030  1.00  0.00    -0.200 F 
ENDBRANCH  48  62
BRANCH  49  73
ATOM     73  C   UNL A   1      40.682  30.477  33.032  1.00  0.00     0.064 A 
ATOM     74  C   UNL A   1      40.407  31.855  33.125  1.00  0.00     0.173 A 
ATOM     75  C   UNL A   1      39.607  29.592  33.168  1.00  0.00     0.173 A 
ATOM     76  F   UNL A   1      41.401  32.748  32.995  1.00  0.00    -0.203 F 
ATOM     77  C   UNL A   1      39.101  32.328  33.232  1.00  0.00     0.198 A 
ATOM     78  C   UNL A   1      38.301  30.070  33.290  1.00  0.00     0.198 A 
ATOM     79  F   UNL A   1      39.799  28.269  33.064  1.00  0.00    -0.203 F 
ATOM     80  F   UNL A   1      38.863  33.648  33.199  1.00  0.00    -0.200 F 
ATOM     81  C   UNL A   1      38.047  31.434  33.289  1.00  0.00     0.200 A 
ATOM     82  F   UNL A   1      37.275  29.206  33.308  1.00  0.00    -0.200 F 
ATOM     83  F   UNL A   1      36.784  31.885  33.294  1.00  0.00    -0.200 F 
ENDBRANCH  49  73
BRANCH  61  84
ATOM     84  C   UNL A   1      45.054  24.746  33.277  1.00  0.00     0.064 A 
ATOM     85  C   UNL A   1      44.375  23.539  33.515  1.00  0.00     0.173 A 
ATOM     86  C   UNL A   1      46.401  24.776  33.712  1.00  0.00     0.173 A 
ATOM     87  F   UNL A   1      43.140  23.325  33.042  1.00  0.00    -0.203 F 
ATOM     88  C   UNL A   1      44.971  22.473  34.197  1.00  0.00     0.198 A 
ATOM     89  C   UNL A   1      47.013  23.690  34.338  1.00  0.00     0.198 A 
ATOM     90  F   UNL A   1      47.178  25.851  33.516  1.00  0.00    -0.203 F 
ATOM     91  F   UNL A   1      44.263  21.360  34.436  1.00  0.00    -0.200 F 
ATOM     92  C   UNL A   1      46.292  22.544  34.598  1.00  0.00     0.200 A 
ATOM     93  F   UNL A   1      48.310  23.755  34.670  1.00  0.00    -0.200 F 
ATOM     94  F   UNL A   1      46.873  21.503  35.209  1.00  0.00    -0.200 F 
ENDBRANCH  61  84
ENDBRANCH  35  36
ENDBRANCH  27  30
ENDBRANCH  25  26
ENDBRANCH  24  25
ENDBRANCH   1  24
TORSDOF 13
ENDMDL
MODEL 3
REMARK VINA RESULT:     -13.8      4.359     10.510
REMARK SMILES Cc1ccc(C(F)(F)F)cc1-c1ccc(/C=C/C(=O)NCCCNC(=O)c2ccc(-c3c4nc(c(-c5c(F)c(F)c(F)c(F)c5F)c5ccc([nH]5)c(-c5c(F)c(F)c(F)c(F)c5F)c5nc(c(-c6c(F)c(F)c(F)c(F)c6F)c6ccc3[nH]6)C=C5)C=C4)cc2)s1
REMARK SMILES IDX 21 1 20 2 18 3 19 4 17 6 16 7 15 8 12 9 13 10 90 11 14 12
REMARK SMILES IDX 11 13 1 14 2 15 3 16 4 17 10 18 5 19 6 20 7 21 8 22 9 23
REMARK SMILES IDX 22 24 23 25 24 26 25 27 26 29 27 30 28 31 89 32 29 33 88 34
REMARK SMILES IDX 30 35 31 36 32 37 82 38 33 39 87 40 81 41 83 42 34 43 86 44
REMARK SMILES IDX 80 45 79 46 35 48 67 49 47 50 66 51 48 52 51 53 65 54 84 55
REMARK SMILES IDX 49 56 50 57 64 59 85 60 52 61 36 62 37 63 45 64 38 65 39 66
REMARK SMILES IDX 43 67 46 68 40 69 41 70 44 71 42 72 68 73 69 74 77 75 70 76
REMARK SMILES IDX 71 77 75 78 78 79 72 80 73 81 76 82 74 83 53 84 54 85 62 86
REMARK SMILES IDX 55 87 56 88 60 89 63 90 57 91 58 92 61 93 59 94
REMARK H PARENT 20 5 24 28 83 47 51 58
REMARK Flexibility Score: inf
ROOT
ATOM      1  C   UNL A   1      37.195  20.870  24.668  1.00  0.00     0.118 C 
ENDROOT
BRANCH   1   2
ATOM      2  N   UNL A   1      35.948  20.281  25.140  1.00  0.00    -0.352 N 
ATOM      3  C   UNL A   1      34.678  20.784  25.109  1.00  0.00     0.244 C 
ATOM      4  O   UNL A   1      33.731  20.082  25.450  1.00  0.00    -0.270 OA
ATOM      5  H   UNL A   1      36.034  19.386  25.541  1.00  0.00     0.163 HD
BRANCH   3   6
ATOM      6  C   UNL A   1      34.437  22.149  24.591  1.00  0.00     0.072 C 
ATOM      7  C   UNL A   1      33.852  23.090  25.343  1.00  0.00     0.024 C 
BRANCH   7   8
ATOM      8  C   UNL A   1      33.636  24.431  24.922  1.00  0.00     0.028 A 
ATOM      9  C   UNL A   1      32.975  26.815  24.718  1.00  0.00     0.035 A 
ATOM     10  C   UNL A   1      33.946  26.466  23.804  1.00  0.00     0.021 A 
ATOM     11  S   UNL A   1      32.496  25.474  25.668  1.00  0.00    -0.136 S 
ATOM     12  C   UNL A   1      34.330  25.102  23.928  1.00  0.00     0.020 A 
BRANCH   9  13
ATOM     13  C   UNL A   1      32.370  28.127  24.951  1.00  0.00    -0.005 A 
ATOM     14  C   UNL A   1      33.933  28.645  26.915  1.00  0.00     0.045 C 
ATOM     15  C   UNL A   1      32.801  28.985  25.981  1.00  0.00    -0.042 A 
ATOM     16  C   UNL A   1      32.124  30.200  26.183  1.00  0.00     0.005 A 
ATOM     17  C   UNL A   1      31.057  30.574  25.365  1.00  0.00     0.013 A 
ATOM     18  C   UNL A   1      31.291  28.517  24.135  1.00  0.00     0.023 A 
ATOM     19  C   UNL A   1      30.631  29.738  24.327  1.00  0.00     0.056 A 
BRANCH  19  20
ATOM     20  C   UNL A   1      29.477  30.145  23.447  1.00  0.00     0.416 C 
ATOM     21  F   UNL A   1      28.877  31.291  23.874  1.00  0.00    -0.166 F 
ATOM     22  F   UNL A   1      29.860  30.382  22.161  1.00  0.00    -0.166 F 
ATOM     23  F   UNL A   1      28.487  29.213  23.374  1.00  0.00    -0.166 F 
ENDBRANCH  19  20
ENDBRANCH   9  13
ENDBRANCH   7   8
ENDBRANCH   3   6
ENDBRANCH   1   2
BRANCH   1  24
ATOM     24  C   UNL A   1      38.188  21.088  25.809  1.00  0.00     0.042 C 
BRANCH  24  25
ATOM     25  C   UNL A   1      38.740  22.504  25.887  1.00  0.00     0.118 C 
BRANCH  25  26
ATOM     26  N   UNL A   1      40.180  22.562  26.101  1.00  0.00    -0.352 N 
ATOM     27  C   UNL A   1      40.949  23.651  26.512  1.00  0.00     0.251 C 
ATOM     28  H   UNL A   1      40.673  21.727  25.934  1.00  0.00     0.163 HD
ATOM     29  O   UNL A   1      42.136  23.557  26.695  1.00  0.00    -0.269 OA
BRANCH  27  30
ATOM     30  C   UNL A   1      40.222  24.900  26.836  1.00  0.00     0.039 A 
ATOM     31  C   UNL A   1      40.617  26.063  26.171  1.00  0.00     0.014 A 
ATOM     32  C   UNL A   1      39.415  24.955  27.970  1.00  0.00     0.014 A 
ATOM     33  C   UNL A   1      40.424  27.290  26.797  1.00  0.00     0.010 A 
ATOM     34  C   UNL A   1      39.306  26.160  28.635  1.00  0.00     0.010 A 
ATOM     35  C   UNL A   1      39.890  27.309  28.086  1.00  0.00    -0.014 A 
BRANCH  35  36
ATOM     36  C   UNL A   1      40.040  28.454  28.979  1.00  0.00     0.031 A 
ATOM     37  C   UNL A   1      39.027  29.526  28.996  1.00  0.00     0.074 A 
ATOM     38  C   UNL A   1      41.095  28.502  29.823  1.00  0.00     0.049 A 
ATOM     39  N   UNL A   1      39.230  30.710  29.468  1.00  0.00    -0.248 NA
ATOM     40  C   UNL A   1      37.716  29.372  28.380  1.00  0.00     0.031 C 
ATOM     41  C   UNL A   1      41.284  29.401  30.958  1.00  0.00     0.029 A 
ATOM     42  N   UNL A   1      42.342  27.867  29.670  1.00  0.00    -0.354 N 
ATOM     43  C   UNL A   1      38.025  31.376  29.476  1.00  0.00     0.074 A 
ATOM     44  C   UNL A   1      37.157  30.550  28.675  1.00  0.00     0.031 C 
ATOM     45  C   UNL A   1      42.598  29.510  31.210  1.00  0.00     0.029 A 
ATOM     46  C   UNL A   1      43.292  28.797  30.153  1.00  0.00     0.049 A 
ATOM     47  H   UNL A   1      42.516  26.970  29.306  1.00  0.00     0.167 HD
ATOM     48  C   UNL A   1      37.893  32.474  30.276  1.00  0.00     0.037 A 
ATOM     49  C   UNL A   1      44.248  29.340  29.347  1.00  0.00     0.037 A 
ATOM     50  C   UNL A   1      39.207  32.925  30.749  1.00  0.00     0.049 A 
ATOM     51  C   UNL A   1      44.232  30.848  29.298  1.00  0.00     0.074 A 
ATOM     52  C   UNL A   1      39.874  32.820  31.959  1.00  0.00     0.029 A 
ATOM     53  N   UNL A   1      40.150  33.359  29.819  1.00  0.00    -0.354 N 
ATOM     54  N   UNL A   1      43.197  31.574  29.622  1.00  0.00    -0.248 NA
ATOM     55  C   UNL A   1      45.362  31.652  28.843  1.00  0.00     0.031 C 
ATOM     56  C   UNL A   1      41.240  33.137  31.738  1.00  0.00     0.029 A 
ATOM     57  C   UNL A   1      41.399  33.460  30.400  1.00  0.00     0.049 A 
ATOM     58  H   UNL A   1      39.953  33.566  28.878  1.00  0.00     0.167 HD
ATOM     59  C   UNL A   1      43.487  32.898  29.411  1.00  0.00     0.074 A 
ATOM     60  C   UNL A   1      44.862  32.895  28.945  1.00  0.00     0.031 C 
ATOM     61  C   UNL A   1      42.557  33.877  29.622  1.00  0.00     0.037 A 
BRANCH  48  62
ATOM     62  C   UNL A   1      36.579  32.996  30.853  1.00  0.00     0.064 A 
ATOM     63  C   UNL A   1      35.730  33.812  30.066  1.00  0.00     0.173 A 
ATOM     64  C   UNL A   1      36.140  32.846  32.184  1.00  0.00     0.173 A 
ATOM     65  F   UNL A   1      35.957  34.004  28.759  1.00  0.00    -0.203 F 
ATOM     66  C   UNL A   1      34.613  34.480  30.588  1.00  0.00     0.198 A 
ATOM     67  C   UNL A   1      35.028  33.514  32.709  1.00  0.00     0.198 A 
ATOM     68  F   UNL A   1      36.743  32.036  33.053  1.00  0.00    -0.203 F 
ATOM     69  F   UNL A   1      33.878  35.270  29.794  1.00  0.00    -0.200 F 
ATOM     70  C   UNL A   1      34.273  34.345  31.916  1.00  0.00     0.200 A 
ATOM     71  F   UNL A   1      34.706  33.345  34.000  1.00  0.00    -0.200 F 
ATOM     72  F   UNL A   1      33.221  34.999  32.427  1.00  0.00    -0.200 F 
ENDBRANCH  48  62
BRANCH  49  73
ATOM     73  C   UNL A   1      44.649  28.460  28.218  1.00  0.00     0.064 A 
ATOM     74  C   UNL A   1      45.444  27.332  28.496  1.00  0.00     0.173 A 
ATOM     75  C   UNL A   1      43.991  28.500  26.984  1.00  0.00     0.173 A 
ATOM     76  F   UNL A   1      46.092  27.241  29.669  1.00  0.00    -0.203 F 
ATOM     77  C   UNL A   1      45.486  26.243  27.630  1.00  0.00     0.198 A 
ATOM     78  C   UNL A   1      44.048  27.412  26.111  1.00  0.00     0.198 A 
ATOM     79  F   UNL A   1      43.200  29.535  26.669  1.00  0.00    -0.203 F 
ATOM     80  F   UNL A   1      46.158  25.136  27.979  1.00  0.00    -0.200 F 
ATOM     81  C   UNL A   1      44.766  26.274  26.448  1.00  0.00     0.200 A 
ATOM     82  F   UNL A   1      43.322  27.424  24.983  1.00  0.00    -0.200 F 
ATOM     83  F   UNL A   1      44.726  25.191  25.659  1.00  0.00    -0.200 F 
ENDBRANCH  49  73
BRANCH  61  84
ATOM     84  C   UNL A   1      42.676  35.327  29.203  1.00  0.00     0.064 A 
ATOM     85  C   UNL A   1      43.234  36.338  30.004  1.00  0.00     0.173 A 
ATOM     86  C   UNL A   1      42.347  35.718  27.882  1.00  0.00     0.173 A 
ATOM     87  F   UNL A   1      43.711  36.077  31.229  1.00  0.00    -0.203 F 
ATOM     88  C   UNL A   1      43.385  37.651  29.546  1.00  0.00     0.198 A 
ATOM     89  C   UNL A   1      42.555  37.013  27.408  1.00  0.00     0.198 A 
ATOM     90  F   UNL A   1      41.841  34.846  26.998  1.00  0.00    -0.203 F 
ATOM     91  F   UNL A   1      43.883  38.586  30.367  1.00  0.00    -0.200 F 
ATOM     92  C   UNL A   1      43.057  37.986  28.246  1.00  0.00     0.200 A 
ATOM     93  F   UNL A   1      42.283  37.307  26.128  1.00  0.00    -0.200 F 
ATOM     94  F   UNL A   1      43.247  39.234  27.797  1.00  0.00    -0.200 F 
ENDBRANCH  61  84
ENDBRANCH  35  36
ENDBRANCH  27  30
ENDBRANCH  25  26
ENDBRANCH  24  25
ENDBRANCH   1  24
TORSDOF 13
ENDMDL
