MODEL 1
REMARK VINA RESULT:     -12.7      0.000      0.000
REMARK SMILES CSCc1ccc(C(=O)Nc2cc(C)c(C(=O)NCCCNC(=O)c3ccc(-c4c5nc(c(-c6c(F)c(F)c(F)c(F)c6F)c6ccc([nH]6)c(-c6c(F)c(F)c(F)c(F)c6F)c6nc(c(-c7c(F)c(F)c(F)c(F)c7F)c7ccc4[nH]7)C=C6)C=C5)cc3)s2)cc1
REMARK SMILES IDX 19 1 18 2 16 3 17 4 15 6 11 7 12 8 88 9 13 10 14 11 10 12
REMARK SMILES IDX 8 13 9 14 7 16 4 17 5 18 90 19 6 20 89 21 3 22 2 23 1 24
REMARK SMILES IDX 20 25 21 26 22 27 23 28 24 30 25 31 26 32 87 33 27 34 86 35
REMARK SMILES IDX 28 36 29 37 30 38 80 39 31 40 85 41 79 42 81 43 32 44 84 45
REMARK SMILES IDX 78 46 77 47 33 49 65 50 45 51 64 52 46 53 49 54 63 55 82 56
REMARK SMILES IDX 47 57 48 58 62 60 83 61 50 62 34 63 35 64 43 65 36 66 37 67
REMARK SMILES IDX 41 68 44 69 38 70 39 71 42 72 40 73 66 74 67 75 75 76 68 77
REMARK SMILES IDX 69 78 73 79 76 80 70 81 71 82 74 83 72 84 51 85 52 86 60 87
REMARK SMILES IDX 53 88 54 89 58 90 61 91 55 92 56 93 59 94 57 95
REMARK H PARENT 18 5 10 15 22 29 81 48 49 59
REMARK Flexibility Score: inf
ROOT
ATOM      1  C   UNL A   1      31.100  30.823  25.497  1.00  0.00     0.118 C 
ENDROOT
BRANCH   1   2
ATOM      2  N   UNL A   1      32.359  30.130  25.384  1.00  0.00    -0.351 N 
ATOM      3  C   UNL A   1      32.704  28.830  25.138  1.00  0.00     0.261 C 
ATOM      4  O   UNL A   1      33.932  28.669  25.112  1.00  0.00    -0.268 OA
ATOM      5  H   UNL A   1      33.137  30.719  25.511  1.00  0.00     0.163 HD
BRANCH   3   6
ATOM      6  C   UNL A   1      31.766  27.723  24.925  1.00  0.00     0.097 A 
ATOM      7  C   UNL A   1      30.483  25.770  25.726  1.00  0.00     0.096 A 
ATOM      8  C   UNL A   1      30.034  26.186  24.509  1.00  0.00     0.042 A 
ATOM      9  S   UNL A   1      32.004  26.404  26.067  1.00  0.00    -0.112 S 
ATOM     10  C   UNL A   1      30.659  27.427  24.115  1.00  0.00    -0.025 A 
ATOM     11  C   UNL A   1      29.969  28.205  23.050  1.00  0.00     0.046 C 
BRANCH   7  12
ATOM     12  N   UNL A   1      29.890  24.854  26.545  1.00  0.00    -0.314 N 
ATOM     13  C   UNL A   1      30.268  23.552  26.806  1.00  0.00     0.256 C 
ATOM     14  O   UNL A   1      29.567  22.928  27.609  1.00  0.00    -0.269 OA
ATOM     15  H   UNL A   1      29.082  25.164  27.015  1.00  0.00     0.171 HD
BRANCH  13  16
ATOM     16  C   UNL A   1      31.497  22.872  26.276  1.00  0.00     0.040 A 
ATOM     17  C   UNL A   1      33.925  21.621  25.482  1.00  0.00    -0.038 A 
ATOM     18  C   UNL A   1      33.858  22.373  26.660  1.00  0.00     0.005 A 
ATOM     19  C   UNL A   1      32.780  21.543  24.682  1.00  0.00     0.005 A 
ATOM     20  C   UNL A   1      32.662  22.986  27.050  1.00  0.00     0.014 A 
ATOM     21  C   UNL A   1      31.602  22.207  25.050  1.00  0.00     0.014 A 
BRANCH  17  22
ATOM     22  C   UNL A   1      35.174  20.869  25.091  1.00  0.00     0.104 C 
BRANCH  22  23
ATOM     23  S   UNL A   1      36.713  21.835  25.201  1.00  0.00    -0.161 SA
ATOM     24  C   UNL A   1      36.681  22.639  23.580  1.00  0.00     0.085 C 
ENDBRANCH  22  23
ENDBRANCH  17  22
ENDBRANCH  13  16
ENDBRANCH   7  12
ENDBRANCH   3   6
ENDBRANCH   1   2
BRANCH   1  25
ATOM     25  C   UNL A   1      31.135  31.793  26.678  1.00  0.00     0.042 C 
BRANCH  25  26
ATOM     26  C   UNL A   1      32.484  32.458  26.882  1.00  0.00     0.118 C 
BRANCH  26  27
ATOM     27  N   UNL A   1      32.325  33.843  27.307  1.00  0.00    -0.352 N 
ATOM     28  C   UNL A   1      32.948  34.524  28.323  1.00  0.00     0.251 C 
ATOM     29  H   UNL A   1      31.673  34.368  26.789  1.00  0.00     0.163 HD
ATOM     30  O   UNL A   1      32.489  35.590  28.716  1.00  0.00    -0.269 OA
BRANCH  28  31
ATOM     31  C   UNL A   1      34.169  33.968  28.945  1.00  0.00     0.039 A 
ATOM     32  C   UNL A   1      35.417  34.478  28.576  1.00  0.00     0.014 A 
ATOM     33  C   UNL A   1      34.082  32.923  29.867  1.00  0.00     0.014 A 
ATOM     34  C   UNL A   1      36.576  33.974  29.173  1.00  0.00     0.010 A 
ATOM     35  C   UNL A   1      35.222  32.489  30.527  1.00  0.00     0.010 A 
ATOM     36  C   UNL A   1      36.483  32.994  30.174  1.00  0.00    -0.014 A 
BRANCH  36  37
ATOM     37  C   UNL A   1      37.679  32.432  30.844  1.00  0.00     0.031 A 
ATOM     38  C   UNL A   1      38.437  31.319  30.176  1.00  0.00     0.074 A 
ATOM     39  C   UNL A   1      38.012  32.839  32.083  1.00  0.00     0.049 A 
ATOM     40  N   UNL A   1      39.389  30.558  30.654  1.00  0.00    -0.248 NA
ATOM     41  C   UNL A   1      38.039  30.989  28.798  1.00  0.00     0.031 C 
ATOM     42  C   UNL A   1      37.331  33.890  32.839  1.00  0.00     0.029 A 
ATOM     43  N   UNL A   1      38.992  32.395  32.934  1.00  0.00    -0.354 N 
ATOM     44  C   UNL A   1      39.675  29.643  29.649  1.00  0.00     0.074 A 
ATOM     45  C   UNL A   1      38.761  29.907  28.560  1.00  0.00     0.031 C 
ATOM     46  C   UNL A   1      37.918  34.015  34.040  1.00  0.00     0.029 A 
ATOM     47  C   UNL A   1      38.981  33.021  34.156  1.00  0.00     0.049 A 
ATOM     48  H   UNL A   1      39.641  31.696  32.691  1.00  0.00     0.167 HD
ATOM     49  C   UNL A   1      40.629  28.683  29.631  1.00  0.00     0.037 A 
ATOM     50  C   UNL A   1      39.729  32.798  35.253  1.00  0.00     0.037 A 
ATOM     51  C   UNL A   1      41.550  28.452  30.712  1.00  0.00     0.049 A 
ATOM     52  C   UNL A   1      40.778  31.719  35.217  1.00  0.00     0.074 A 
ATOM     53  C   UNL A   1      42.595  27.547  30.776  1.00  0.00     0.029 A 
ATOM     54  N   UNL A   1      41.533  29.132  31.921  1.00  0.00    -0.354 N 
ATOM     55  N   UNL A   1      41.078  30.892  34.244  1.00  0.00    -0.248 NA
ATOM     56  C   UNL A   1      41.594  31.544  36.426  1.00  0.00     0.031 C 
ATOM     57  C   UNL A   1      43.172  27.640  32.047  1.00  0.00     0.029 A 
ATOM     58  C   UNL A   1      42.534  28.652  32.748  1.00  0.00     0.049 A 
ATOM     59  H   UNL A   1      40.902  29.851  32.156  1.00  0.00     0.167 HD
ATOM     60  C   UNL A   1      42.143  30.129  34.706  1.00  0.00     0.074 A 
ATOM     61  C   UNL A   1      42.434  30.589  36.049  1.00  0.00     0.031 C 
ATOM     62  C   UNL A   1      42.823  29.142  34.073  1.00  0.00     0.037 A 
BRANCH  49  63
ATOM     63  C   UNL A   1      40.711  27.807  28.413  1.00  0.00     0.064 A 
ATOM     64  C   UNL A   1      40.059  26.565  28.346  1.00  0.00     0.173 A 
ATOM     65  C   UNL A   1      41.446  28.219  27.290  1.00  0.00     0.173 A 
ATOM     66  F   UNL A   1      39.352  26.116  29.394  1.00  0.00    -0.203 F 
ATOM     67  C   UNL A   1      40.176  25.751  27.222  1.00  0.00     0.198 A 
ATOM     68  C   UNL A   1      41.529  27.420  26.153  1.00  0.00     0.198 A 
ATOM     69  F   UNL A   1      42.084  29.398  27.294  1.00  0.00    -0.203 F 
ATOM     70  F   UNL A   1      39.602  24.540  27.211  1.00  0.00    -0.200 F 
ATOM     71  C   UNL A   1      40.905  26.182  26.124  1.00  0.00     0.200 A 
ATOM     72  F   UNL A   1      42.220  27.845  25.087  1.00  0.00    -0.200 F 
ATOM     73  F   UNL A   1      41.016  25.399  25.042  1.00  0.00    -0.200 F 
ENDBRANCH  49  63
BRANCH  50  74
ATOM     74  C   UNL A   1      39.523  33.630  36.468  1.00  0.00     0.064 A 
ATOM     75  C   UNL A   1      40.153  34.875  36.602  1.00  0.00     0.173 A 
ATOM     76  C   UNL A   1      38.679  33.212  37.508  1.00  0.00     0.173 A 
ATOM     77  F   UNL A   1      40.982  35.311  35.641  1.00  0.00    -0.203 F 
ATOM     78  C   UNL A   1      39.961  35.662  37.735  1.00  0.00     0.198 A 
ATOM     79  C   UNL A   1      38.464  34.014  38.628  1.00  0.00     0.198 A 
ATOM     80  F   UNL A   1      38.043  32.034  37.426  1.00  0.00    -0.203 F 
ATOM     81  F   UNL A   1      40.607  36.830  37.854  1.00  0.00    -0.200 F 
ATOM     82  C   UNL A   1      39.111  35.234  38.744  1.00  0.00     0.200 A 
ATOM     83  F   UNL A   1      37.626  33.605  39.590  1.00  0.00    -0.200 F 
ATOM     84  F   UNL A   1      38.918  35.998  39.829  1.00  0.00    -0.200 F 
ENDBRANCH  50  74
BRANCH  62  85
ATOM     85  C   UNL A   1      43.993  28.531  34.787  1.00  0.00     0.064 A 
ATOM     86  C   UNL A   1      45.275  29.094  34.730  1.00  0.00     0.173 A 
ATOM     87  C   UNL A   1      43.803  27.408  35.608  1.00  0.00     0.173 A 
ATOM     88  F   UNL A   1      45.512  30.158  33.950  1.00  0.00    -0.203 F 
ATOM     89  C   UNL A   1      46.328  28.547  35.460  1.00  0.00     0.198 A 
ATOM     90  C   UNL A   1      44.849  26.884  36.360  1.00  0.00     0.198 A 
ATOM     91  F   UNL A   1      42.593  26.837  35.702  1.00  0.00    -0.203 F 
ATOM     92  F   UNL A   1      47.555  29.079  35.365  1.00  0.00    -0.200 F 
ATOM     93  C   UNL A   1      46.111  27.451  36.283  1.00  0.00     0.200 A 
ATOM     94  F   UNL A   1      44.632  25.837  37.169  1.00  0.00    -0.200 F 
ATOM     95  F   UNL A   1      47.121  26.940  37.001  1.00  0.00    -0.200 F 
ENDBRANCH  62  85
ENDBRANCH  36  37
ENDBRANCH  28  31
ENDBRANCH  26  27
ENDBRANCH  25  26
ENDBRANCH   1  25
TORSDOF 14
ENDMDL
MODEL 2
REMARK VINA RESULT:     -12.7      0.128      1.666
REMARK SMILES CSCc1ccc(C(=O)Nc2cc(C)c(C(=O)NCCCNC(=O)c3ccc(-c4c5nc(c(-c6c(F)c(F)c(F)c(F)c6F)c6ccc([nH]6)c(-c6c(F)c(F)c(F)c(F)c6F)c6nc(c(-c7c(F)c(F)c(F)c(F)c7F)c7ccc4[nH]7)C=C6)C=C5)cc3)s2)cc1
REMARK SMILES IDX 19 1 18 2 16 3 17 4 15 6 11 7 12 8 88 9 13 10 14 11 10 12
REMARK SMILES IDX 8 13 9 14 7 16 4 17 5 18 90 19 6 20 89 21 3 22 2 23 1 24
REMARK SMILES IDX 20 25 21 26 22 27 23 28 24 30 25 31 26 32 87 33 27 34 86 35
REMARK SMILES IDX 28 36 29 37 30 38 80 39 31 40 85 41 79 42 81 43 32 44 84 45
REMARK SMILES IDX 78 46 77 47 33 49 65 50 45 51 64 52 46 53 49 54 63 55 82 56
REMARK SMILES IDX 47 57 48 58 62 60 83 61 50 62 34 63 35 64 43 65 36 66 37 67
REMARK SMILES IDX 41 68 44 69 38 70 39 71 42 72 40 73 66 74 67 75 75 76 68 77
REMARK SMILES IDX 69 78 73 79 76 80 70 81 71 82 74 83 72 84 51 85 52 86 60 87
REMARK SMILES IDX 53 88 54 89 58 90 61 91 55 92 56 93 59 94 57 95
REMARK H PARENT 18 5 10 15 22 29 81 48 49 59
REMARK Flexibility Score: inf
ROOT
ATOM      1  C   UNL A   1      31.147  30.748  25.384  1.00  0.00     0.118 C 
ENDROOT
BRANCH   1   2
ATOM      2  N   UNL A   1      32.420  30.072  25.408  1.00  0.00    -0.351 N 
ATOM      3  C   UNL A   1      32.803  28.770  25.239  1.00  0.00     0.261 C 
ATOM      4  O   UNL A   1      34.030  28.628  25.327  1.00  0.00    -0.268 OA
ATOM      5  H   UNL A   1      33.176  30.677  25.584  1.00  0.00     0.163 HD
BRANCH   3   6
ATOM      6  C   UNL A   1      31.902  27.642  24.980  1.00  0.00     0.097 A 
ATOM      7  C   UNL A   1      30.573  25.700  25.731  1.00  0.00     0.096 A 
ATOM      8  C   UNL A   1      30.235  26.064  24.462  1.00  0.00     0.042 A 
ATOM      9  S   UNL A   1      32.047  26.370  26.189  1.00  0.00    -0.112 S 
ATOM     10  C   UNL A   1      30.881  27.300  24.082  1.00  0.00    -0.025 A 
ATOM     11  C   UNL A   1      30.285  28.027  22.928  1.00  0.00     0.046 C 
BRANCH   7  12
ATOM     12  N   UNL A   1      29.915  24.806  26.525  1.00  0.00    -0.314 N 
ATOM     13  C   UNL A   1      30.283  23.520  26.869  1.00  0.00     0.256 C 
ATOM     14  O   UNL A   1      29.517  22.915  27.627  1.00  0.00    -0.269 OA
ATOM     15  H   UNL A   1      29.063  25.120  26.904  1.00  0.00     0.171 HD
BRANCH  13  16
ATOM     16  C   UNL A   1      31.565  22.841  26.485  1.00  0.00     0.040 A 
ATOM     17  C   UNL A   1      33.909  21.535  25.540  1.00  0.00    -0.038 A 
ATOM     18  C   UNL A   1      32.739  21.554  24.772  1.00  0.00     0.005 A 
ATOM     19  C   UNL A   1      33.879  22.133  26.804  1.00  0.00     0.005 A 
ATOM     20  C   UNL A   1      31.588  22.199  25.238  1.00  0.00     0.014 A 
ATOM     21  C   UNL A   1      32.705  22.728  27.288  1.00  0.00     0.014 A 
BRANCH  17  22
ATOM     22  C   UNL A   1      35.190  20.934  25.017  1.00  0.00     0.104 C 
BRANCH  22  23
ATOM     23  S   UNL A   1      36.629  22.050  25.052  1.00  0.00    -0.161 SA
ATOM     24  C   UNL A   1      36.334  22.968  23.520  1.00  0.00     0.085 C 
ENDBRANCH  22  23
ENDBRANCH  17  22
ENDBRANCH  13  16
ENDBRANCH   7  12
ENDBRANCH   3   6
ENDBRANCH   1   2
BRANCH   1  25
ATOM     25  C   UNL A   1      31.069  31.768  26.521  1.00  0.00     0.042 C 
BRANCH  25  26
ATOM     26  C   UNL A   1      32.412  32.370  26.894  1.00  0.00     0.118 C 
BRANCH  26  27
ATOM     27  N   UNL A   1      32.269  33.770  27.271  1.00  0.00    -0.352 N 
ATOM     28  C   UNL A   1      32.909  34.480  28.257  1.00  0.00     0.251 C 
ATOM     29  H   UNL A   1      31.617  34.283  26.741  1.00  0.00     0.163 HD
ATOM     30  O   UNL A   1      32.464  35.564  28.616  1.00  0.00    -0.269 OA
BRANCH  28  31
ATOM     31  C   UNL A   1      34.130  33.936  28.886  1.00  0.00     0.039 A 
ATOM     32  C   UNL A   1      35.377  34.458  28.527  1.00  0.00     0.014 A 
ATOM     33  C   UNL A   1      34.048  32.888  29.806  1.00  0.00     0.014 A 
ATOM     34  C   UNL A   1      36.536  33.964  29.130  1.00  0.00     0.010 A 
ATOM     35  C   UNL A   1      35.187  32.464  30.473  1.00  0.00     0.010 A 
ATOM     36  C   UNL A   1      36.445  32.982  30.129  1.00  0.00    -0.014 A 
BRANCH  36  37
ATOM     37  C   UNL A   1      37.642  32.430  30.807  1.00  0.00     0.031 A 
ATOM     38  C   UNL A   1      38.407  31.315  30.149  1.00  0.00     0.074 A 
ATOM     39  C   UNL A   1      37.970  32.847  32.043  1.00  0.00     0.049 A 
ATOM     40  N   UNL A   1      39.361  30.562  30.635  1.00  0.00    -0.248 NA
ATOM     41  C   UNL A   1      38.015  30.974  28.772  1.00  0.00     0.031 C 
ATOM     42  C   UNL A   1      37.282  33.901  32.790  1.00  0.00     0.029 A 
ATOM     43  N   UNL A   1      38.950  32.414  32.900  1.00  0.00    -0.354 N 
ATOM     44  C   UNL A   1      39.654  29.642  29.637  1.00  0.00     0.074 A 
ATOM     45  C   UNL A   1      38.742  29.893  28.544  1.00  0.00     0.031 C 
ATOM     46  C   UNL A   1      37.865  34.037  33.992  1.00  0.00     0.029 A 
ATOM     47  C   UNL A   1      38.933  33.048  34.118  1.00  0.00     0.049 A 
ATOM     48  H   UNL A   1      39.603  31.716  32.664  1.00  0.00     0.167 HD
ATOM     49  C   UNL A   1      40.613  28.686  29.629  1.00  0.00     0.037 A 
ATOM     50  C   UNL A   1      39.679  32.837  35.219  1.00  0.00     0.037 A 
ATOM     51  C   UNL A   1      41.532  28.467  30.713  1.00  0.00     0.049 A 
ATOM     52  C   UNL A   1      40.732  31.763  35.193  1.00  0.00     0.074 A 
ATOM     53  C   UNL A   1      42.581  27.567  30.787  1.00  0.00     0.029 A 
ATOM     54  N   UNL A   1      41.509  29.156  31.917  1.00  0.00    -0.354 N 
ATOM     55  N   UNL A   1      41.039  30.930  34.227  1.00  0.00    -0.248 NA
ATOM     56  C   UNL A   1      41.546  31.600  36.406  1.00  0.00     0.031 C 
ATOM     57  C   UNL A   1      43.154  27.672  32.059  1.00  0.00     0.029 A 
ATOM     58  C   UNL A   1      42.510  28.686  32.750  1.00  0.00     0.049 A 
ATOM     59  H   UNL A   1      40.873  29.873  32.146  1.00  0.00     0.167 HD
ATOM     60  C   UNL A   1      42.106  30.175  34.697  1.00  0.00     0.074 A 
ATOM     61  C   UNL A   1      42.391  30.647  36.037  1.00  0.00     0.031 C 
ATOM     62  C   UNL A   1      42.792  29.187  34.073  1.00  0.00     0.037 A 
BRANCH  49  63
ATOM     63  C   UNL A   1      40.702  27.802  28.417  1.00  0.00     0.064 A 
ATOM     64  C   UNL A   1      41.447  28.168  27.284  1.00  0.00     0.173 A 
ATOM     65  C   UNL A   1      40.042  26.563  28.391  1.00  0.00     0.173 A 
ATOM     66  F   UNL A   1      42.089  29.346  27.249  1.00  0.00    -0.203 F 
ATOM     67  C   UNL A   1      41.488  27.351  26.157  1.00  0.00     0.198 A 
ATOM     68  C   UNL A   1      40.118  25.731  27.278  1.00  0.00     0.198 A 
ATOM     69  F   UNL A   1      39.322  26.158  29.448  1.00  0.00    -0.203 F 
ATOM     70  F   UNL A   1      42.147  27.756  25.062  1.00  0.00    -0.200 F 
ATOM     71  C   UNL A   1      40.830  26.131  26.157  1.00  0.00     0.200 A 
ATOM     72  F   UNL A   1      39.494  24.545  27.286  1.00  0.00    -0.200 F 
ATOM     73  F   UNL A   1      40.872  25.344  25.072  1.00  0.00    -0.200 F 
ENDBRANCH  49  63
BRANCH  50  74
ATOM     74  C   UNL A   1      39.465  33.677  36.427  1.00  0.00     0.064 A 
ATOM     75  C   UNL A   1      38.661  33.227  37.483  1.00  0.00     0.173 A 
ATOM     76  C   UNL A   1      40.075  34.934  36.563  1.00  0.00     0.173 A 
ATOM     77  F   UNL A   1      38.044  32.039  37.393  1.00  0.00    -0.203 F 
ATOM     78  C   UNL A   1      38.461  34.006  38.619  1.00  0.00     0.198 A 
ATOM     79  C   UNL A   1      39.898  35.699  37.714  1.00  0.00     0.198 A 
ATOM     80  F   UNL A   1      40.864  35.408  35.587  1.00  0.00    -0.203 F 
ATOM     81  F   UNL A   1      37.655  33.567  39.596  1.00  0.00    -0.200 F 
ATOM     82  C   UNL A   1      39.085  35.238  38.737  1.00  0.00     0.200 A 
ATOM     83  F   UNL A   1      40.520  36.881  37.831  1.00  0.00    -0.200 F 
ATOM     84  F   UNL A   1      38.901  35.983  39.837  1.00  0.00    -0.200 F 
ENDBRANCH  50  74
BRANCH  62  85
ATOM     85  C   UNL A   1      43.963  28.586  34.795  1.00  0.00     0.064 A 
ATOM     86  C   UNL A   1      45.245  29.150  34.730  1.00  0.00     0.173 A 
ATOM     87  C   UNL A   1      43.774  27.475  35.630  1.00  0.00     0.173 A 
ATOM     88  F   UNL A   1      45.481  30.204  33.935  1.00  0.00    -0.203 F 
ATOM     89  C   UNL A   1      46.298  28.614  35.466  1.00  0.00     0.198 A 
ATOM     90  C   UNL A   1      44.821  26.961  36.389  1.00  0.00     0.198 A 
ATOM     91  F   UNL A   1      42.565  26.903  35.732  1.00  0.00    -0.203 F 
ATOM     92  F   UNL A   1      47.525  29.145  35.364  1.00  0.00    -0.200 F 
ATOM     93  C   UNL A   1      46.083  27.528  36.304  1.00  0.00     0.200 A 
ATOM     94  F   UNL A   1      44.606  25.925  37.211  1.00  0.00    -0.200 F 
ATOM     95  F   UNL A   1      47.094  27.028  37.028  1.00  0.00    -0.200 F 
ENDBRANCH  62  85
ENDBRANCH  36  37
ENDBRANCH  28  31
ENDBRANCH  26  27
ENDBRANCH  25  26
ENDBRANCH   1  25
TORSDOF 14
ENDMDL
MODEL 3
REMARK VINA RESULT:     -12.5      1.446      2.565
REMARK SMILES CSCc1ccc(C(=O)Nc2cc(C)c(C(=O)NCCCNC(=O)c3ccc(-c4c5nc(c(-c6c(F)c(F)c(F)c(F)c6F)c6ccc([nH]6)c(-c6c(F)c(F)c(F)c(F)c6F)c6nc(c(-c7c(F)c(F)c(F)c(F)c7F)c7ccc4[nH]7)C=C6)C=C5)cc3)s2)cc1
REMARK SMILES IDX 19 1 18 2 16 3 17 4 15 6 11 7 12 8 88 9 13 10 14 11 10 12
REMARK SMILES IDX 8 13 9 14 7 16 4 17 5 18 90 19 6 20 89 21 3 22 2 23 1 24
REMARK SMILES IDX 20 25 21 26 22 27 23 28 24 30 25 31 26 32 87 33 27 34 86 35
REMARK SMILES IDX 28 36 29 37 30 38 80 39 31 40 85 41 79 42 81 43 32 44 84 45
REMARK SMILES IDX 78 46 77 47 33 49 65 50 45 51 64 52 46 53 49 54 63 55 82 56
REMARK SMILES IDX 47 57 48 58 62 60 83 61 50 62 34 63 35 64 43 65 36 66 37 67
REMARK SMILES IDX 41 68 44 69 38 70 39 71 42 72 40 73 66 74 67 75 75 76 68 77
REMARK SMILES IDX 69 78 73 79 76 80 70 81 71 82 74 83 72 84 51 85 52 86 60 87
REMARK SMILES IDX 53 88 54 89 58 90 61 91 55 92 56 93 59 94 57 95
REMARK H PARENT 18 5 10 15 22 29 81 48 49 59
REMARK Flexibility Score: inf
ROOT
ATOM      1  C   UNL A   1      31.280  30.995  26.516  1.00  0.00     0.118 C 
ENDROOT
BRANCH   1   2
ATOM      2  N   UNL A   1      32.565  30.345  26.490  1.00  0.00    -0.351 N 
ATOM      3  C   UNL A   1      33.060  29.254  25.830  1.00  0.00     0.261 C 
ATOM      4  O   UNL A   1      34.253  29.049  26.094  1.00  0.00    -0.268 OA
ATOM      5  H   UNL A   1      33.230  30.778  27.074  1.00  0.00     0.163 HD
BRANCH   3   6
ATOM      6  C   UNL A   1      32.306  28.399  24.908  1.00  0.00     0.097 A 
ATOM      7  C   UNL A   1      32.048  27.209  22.759  1.00  0.00     0.096 A 
ATOM      8  C   UNL A   1      31.121  26.789  23.667  1.00  0.00     0.042 A 
ATOM      9  S   UNL A   1      32.742  28.670  23.224  1.00  0.00    -0.112 S 
ATOM     10  C   UNL A   1      31.376  27.351  24.973  1.00  0.00    -0.025 A 
ATOM     11  C   UNL A   1      30.732  26.662  26.124  1.00  0.00     0.046 C 
BRANCH   7  12
ATOM     12  N   UNL A   1      32.321  26.639  21.550  1.00  0.00    -0.314 N 
ATOM     13  C   UNL A   1      32.903  25.415  21.282  1.00  0.00     0.256 C 
ATOM     14  O   UNL A   1      33.025  25.116  20.089  1.00  0.00    -0.269 OA
ATOM     15  H   UNL A   1      32.070  27.172  20.762  1.00  0.00     0.171 HD
BRANCH  13  16
ATOM     16  C   UNL A   1      33.304  24.391  22.303  1.00  0.00     0.040 A 
ATOM     17  C   UNL A   1      33.918  22.302  24.133  1.00  0.00    -0.038 A 
ATOM     18  C   UNL A   1      32.816  22.204  23.276  1.00  0.00     0.005 A 
ATOM     19  C   UNL A   1      34.678  23.475  24.100  1.00  0.00     0.005 A 
ATOM     20  C   UNL A   1      32.517  23.232  22.375  1.00  0.00     0.014 A 
ATOM     21  C   UNL A   1      34.339  24.524  23.234  1.00  0.00     0.014 A 
BRANCH  17  22
ATOM     22  C   UNL A   1      34.318  21.166  25.042  1.00  0.00     0.104 C 
BRANCH  22  23
ATOM     23  S   UNL A   1      34.445  21.606  26.805  1.00  0.00    -0.161 SA
ATOM     24  C   UNL A   1      32.815  22.356  27.046  1.00  0.00     0.085 C 
ENDBRANCH  22  23
ENDBRANCH  17  22
ENDBRANCH  13  16
ENDBRANCH   7  12
ENDBRANCH   3   6
ENDBRANCH   1   2
BRANCH   1  25
ATOM     25  C   UNL A   1      31.456  32.514  26.501  1.00  0.00     0.042 C 
BRANCH  25  26
ATOM     26  C   UNL A   1      32.666  32.996  27.282  1.00  0.00     0.118 C 
BRANCH  26  27
ATOM     27  N   UNL A   1      32.502  34.385  27.693  1.00  0.00    -0.352 N 
ATOM     28  C   UNL A   1      33.063  35.056  28.751  1.00  0.00     0.251 C 
ATOM     29  H   UNL A   1      31.900  34.921  27.128  1.00  0.00     0.163 HD
ATOM     30  O   UNL A   1      32.598  36.131  29.108  1.00  0.00    -0.269 OA
BRANCH  28  31
ATOM     31  C   UNL A   1      34.224  34.478  29.460  1.00  0.00     0.039 A 
ATOM     32  C   UNL A   1      34.028  33.841  30.689  1.00  0.00     0.014 A 
ATOM     33  C   UNL A   1      35.511  34.595  28.928  1.00  0.00     0.014 A 
ATOM     34  C   UNL A   1      35.115  33.275  31.359  1.00  0.00     0.010 A 
ATOM     35  C   UNL A   1      36.574  33.951  29.545  1.00  0.00     0.010 A 
ATOM     36  C   UNL A   1      36.392  33.302  30.776  1.00  0.00    -0.014 A 
BRANCH  36  37
ATOM     37  C   UNL A   1      37.578  32.709  31.439  1.00  0.00     0.031 A 
ATOM     38  C   UNL A   1      38.282  31.554  30.784  1.00  0.00     0.074 A 
ATOM     39  C   UNL A   1      37.946  33.130  32.663  1.00  0.00     0.049 A 
ATOM     40  N   UNL A   1      39.212  30.768  31.263  1.00  0.00    -0.248 NA
ATOM     41  C   UNL A   1      37.848  31.210  29.420  1.00  0.00     0.031 C 
ATOM     42  C   UNL A   1      37.318  34.222  33.407  1.00  0.00     0.029 A 
ATOM     43  N   UNL A   1      38.923  32.668  33.508  1.00  0.00    -0.354 N 
ATOM     44  C   UNL A   1      39.446  29.822  30.274  1.00  0.00     0.074 A 
ATOM     45  C   UNL A   1      38.525  30.096  29.195  1.00  0.00     0.031 C 
ATOM     46  C   UNL A   1      37.930  34.351  34.595  1.00  0.00     0.029 A 
ATOM     47  C   UNL A   1      38.957  33.319  34.716  1.00  0.00     0.049 A 
ATOM     48  H   UNL A   1      39.541  31.939  33.271  1.00  0.00     0.167 HD
ATOM     49  C   UNL A   1      40.363  28.825  30.262  1.00  0.00     0.037 A 
ATOM     50  C   UNL A   1      39.714  33.092  35.806  1.00  0.00     0.037 A 
ATOM     51  C   UNL A   1      41.293  28.583  31.333  1.00  0.00     0.049 A 
ATOM     52  C   UNL A   1      40.721  31.973  35.777  1.00  0.00     0.074 A 
ATOM     53  C   UNL A   1      42.304  27.641  31.400  1.00  0.00     0.029 A 
ATOM     54  N   UNL A   1      41.322  29.289  32.527  1.00  0.00    -0.354 N 
ATOM     55  N   UNL A   1      40.973  31.115  34.818  1.00  0.00    -0.248 NA
ATOM     56  C   UNL A   1      41.550  31.793  36.976  1.00  0.00     0.031 C 
ATOM     57  C   UNL A   1      42.906  27.739  32.659  1.00  0.00     0.029 A 
ATOM     58  C   UNL A   1      42.318  28.790  33.348  1.00  0.00     0.049 A 
ATOM     59  H   UNL A   1      40.723  30.036  32.756  1.00  0.00     0.167 HD
ATOM     60  C   UNL A   1      42.016  30.322  35.279  1.00  0.00     0.074 A 
ATOM     61  C   UNL A   1      42.346  30.800  36.606  1.00  0.00     0.031 C 
ATOM     62  C   UNL A   1      42.647  29.297  34.657  1.00  0.00     0.037 A 
BRANCH  49  63
ATOM     63  C   UNL A   1      40.392  27.921  29.063  1.00  0.00     0.064 A 
ATOM     64  C   UNL A   1      41.159  28.220  27.925  1.00  0.00     0.173 A 
ATOM     65  C   UNL A   1      39.649  26.730  29.053  1.00  0.00     0.173 A 
ATOM     66  F   UNL A   1      41.880  29.351  27.875  1.00  0.00    -0.203 F 
ATOM     67  C   UNL A   1      41.144  27.387  26.809  1.00  0.00     0.198 A 
ATOM     68  C   UNL A   1      39.667  25.880  27.951  1.00  0.00     0.198 A 
ATOM     69  F   UNL A   1      38.903  26.389  30.115  1.00  0.00    -0.203 F 
ATOM     70  F   UNL A   1      41.829  27.732  25.709  1.00  0.00    -0.200 F 
ATOM     71  C   UNL A   1      40.405  26.216  26.825  1.00  0.00     0.200 A 
ATOM     72  F   UNL A   1      38.964  24.740  27.974  1.00  0.00    -0.200 F 
ATOM     73  F   UNL A   1      40.393  25.413  25.751  1.00  0.00    -0.200 F 
ENDBRANCH  49  63
BRANCH  50  74
ATOM     74  C   UNL A   1      39.560  33.957  37.005  1.00  0.00     0.064 A 
ATOM     75  C   UNL A   1      40.186  35.209  37.073  1.00  0.00     0.173 A 
ATOM     76  C   UNL A   1      38.770  33.564  38.096  1.00  0.00     0.173 A 
ATOM     77  F   UNL A   1      40.964  35.623  36.062  1.00  0.00    -0.203 F 
ATOM     78  C   UNL A   1      40.042  36.027  38.191  1.00  0.00     0.198 A 
ATOM     79  C   UNL A   1      38.603  34.396  39.201  1.00  0.00     0.198 A 
ATOM     80  F   UNL A   1      38.140  32.380  38.078  1.00  0.00    -0.203 F 
ATOM     81  F   UNL A   1      40.684  37.202  38.246  1.00  0.00    -0.200 F 
ATOM     82  C   UNL A   1      39.245  35.623  39.251  1.00  0.00     0.200 A 
ATOM     83  F   UNL A   1      37.815  34.009  40.214  1.00  0.00    -0.200 F 
ATOM     84  F   UNL A   1      39.098  36.416  40.322  1.00  0.00    -0.200 F 
ENDBRANCH  50  74
BRANCH  62  85
ATOM     85  C   UNL A   1      43.806  28.657  35.366  1.00  0.00     0.064 A 
ATOM     86  C   UNL A   1      43.634  27.585  36.253  1.00  0.00     0.173 A 
ATOM     87  C   UNL A   1      45.116  29.075  35.084  1.00  0.00     0.173 A 
ATOM     88  F   UNL A   1      42.403  27.157  36.566  1.00  0.00    -0.203 F 
ATOM     89  C   UNL A   1      44.733  26.964  36.842  1.00  0.00     0.198 A 
ATOM     90  C   UNL A   1      46.212  28.432  35.649  1.00  0.00     0.198 A 
ATOM     91  F   UNL A   1      45.333  30.091  34.236  1.00  0.00    -0.203 F 
ATOM     92  F   UNL A   1      44.546  25.964  37.715  1.00  0.00    -0.200 F 
ATOM     93  C   UNL A   1      46.020  27.379  36.531  1.00  0.00     0.200 A 
ATOM     94  F   UNL A   1      47.454  28.822  35.332  1.00  0.00    -0.200 F 
ATOM     95  F   UNL A   1      47.075  26.765  37.083  1.00  0.00    -0.200 F 
ENDBRANCH  62  85
ENDBRANCH  36  37
ENDBRANCH  28  31
ENDBRANCH  26  27
ENDBRANCH  25  26
ENDBRANCH   1  25
TORSDOF 14
ENDMDL
