MODEL 1
REMARK VINA RESULT:     -13.6      0.000      0.000
REMARK SMILES CCc1cc(S(F)(F)(F)(F)F)cc2c1O[C@@H](C(F)(F)F)C(C(=O)NCCCNC(=O)c1ccc(-c3c4nc(c(-c5c(F)c(F)c(F)c(F)c5F)c5ccc([nH]5)c(-c5c(F)c(F)c(F)c(F)c5F)c5nc(c(-c6c(F)c(F)c(F)c(F)c6F)c6ccc3[nH]6)C=C5)C=C4)cc1)=C2
REMARK SMILES IDX 26 1 25 2 24 3 22 4 23 5 21 7 3 8 4 9 14 10 5 11 13 12 15 13
REMARK SMILES IDX 12 14 94 15 16 16 2 17 1 18 6 19 7 20 8 21 9 22 10 23 11 24
REMARK SMILES IDX 17 25 18 26 19 27 20 28 27 29 28 30 29 31 30 33 31 34 32 35
REMARK SMILES IDX 93 36 33 37 92 38 34 39 35 40 36 41 86 42 37 43 91 44 85 45
REMARK SMILES IDX 87 46 38 47 90 48 84 49 83 50 39 52 71 53 51 54 70 55 52 56
REMARK SMILES IDX 55 57 69 58 88 59 53 60 54 61 68 63 89 64 56 65 40 66 41 67
REMARK SMILES IDX 49 68 42 69 43 70 47 71 50 72 44 73 45 74 48 75 46 76 72 77
REMARK SMILES IDX 73 78 81 79 74 80 75 81 79 82 82 83 76 84 77 85 80 86 78 87
REMARK SMILES IDX 57 88 58 89 66 90 59 91 60 92 64 93 67 94 61 95 62 96 65 97
REMARK SMILES IDX 63 98
REMARK H PARENT 24 6 28 32 87 51 55 62
REMARK Flexibility Score: inf
ROOT
ATOM      1  C   UNL A   1      32.873  27.982  25.988  1.00  0.00     0.042 C 
ENDROOT
BRANCH   1   2
ATOM      2  C   UNL A   1      33.362  26.801  25.165  1.00  0.00     0.118 C 
BRANCH   2   3
ATOM      3  N   UNL A   1      33.450  27.192  23.751  1.00  0.00    -0.352 N 
ATOM      4  C   UNL A   1      33.608  26.164  22.712  1.00  0.00     0.251 C 
ATOM      5  O   UNL A   1      33.684  26.502  21.489  1.00  0.00    -0.270 OA
ATOM      6  H   UNL A   1      33.403  28.143  23.499  1.00  0.00     0.163 HD
BRANCH   4   7
ATOM      7  C   UNL A   1      33.681  24.696  23.100  1.00  0.00     0.067 C 
ATOM      8  C   UNL A   1      33.663  20.801  24.608  1.00  0.00    -0.004 A 
ATOM      9  C   UNL A   1      34.857  20.175  24.917  1.00  0.00     0.032 A 
ATOM     10  C   UNL A   1      33.695  22.101  24.164  1.00  0.00     0.131 A 
ATOM     11  C   UNL A   1      36.052  20.834  24.791  1.00  0.00     0.108 A 
ATOM     12  C   UNL A   1      34.883  22.791  24.007  1.00  0.00     0.019 A 
ATOM     13  O   UNL A   1      32.498  22.744  23.968  1.00  0.00    -0.475 OA
ATOM     14  C   UNL A   1      36.064  22.135  24.331  1.00  0.00     0.036 A 
ATOM     15  C   UNL A   1      34.809  24.175  23.569  1.00  0.00     0.025 C 
ATOM     16  C   UNL A   1      32.464  23.792  22.959  1.00  0.00     0.314 C 
BRANCH   8  17
ATOM     17  C   UNL A   1      32.385  19.986  24.727  1.00  0.00     0.036 C 
ATOM     18  C   UNL A   1      32.729  18.505  24.746  1.00  0.00     0.009 C 
ENDBRANCH   8  17
BRANCH  11  19
ATOM     19  S   UNL A   1      37.600  20.005  25.225  1.00  0.00     0.310 S 
ATOM     20  F   UNL A   1      37.994  19.910  23.692  1.00  0.00    -0.094 F 
ATOM     21  F   UNL A   1      36.808  18.656  25.034  1.00  0.00    -0.094 F 
ATOM     22  F   UNL A   1      38.907  19.224  25.546  1.00  0.00    -0.094 F 
ATOM     23  F   UNL A   1      38.408  21.361  25.274  1.00  0.00    -0.094 F 
ATOM     24  F   UNL A   1      36.310  20.807  24.790  1.00  0.00    -0.094 F 
ENDBRANCH  11  19
BRANCH  16  25
ATOM     25  C   UNL A   1      31.205  24.622  23.148  1.00  0.00     0.429 C 
ATOM     26  F   UNL A   1      31.219  25.180  24.355  1.00  0.00    -0.167 F 
ATOM     27  F   UNL A   1      31.158  25.573  22.221  1.00  0.00    -0.167 F 
ATOM     28  F   UNL A   1      30.136  23.839  23.036  1.00  0.00    -0.167 F 
ENDBRANCH  16  25
ENDBRANCH   4   7
ENDBRANCH   2   3
ENDBRANCH   1   2
BRANCH   1  29
ATOM     29  C   UNL A   1      34.001  28.484  26.874  1.00  0.00     0.118 C 
BRANCH  29  30
ATOM     30  N   UNL A   1      33.645  29.802  27.419  1.00  0.00    -0.352 N 
ATOM     31  C   UNL A   1      34.649  30.593  28.144  1.00  0.00     0.251 C 
ATOM     32  H   UNL A   1      32.734  30.156  27.297  1.00  0.00     0.163 HD
ATOM     33  O   UNL A   1      34.342  31.733  28.614  1.00  0.00    -0.269 OA
BRANCH  31  34
ATOM     34  C   UNL A   1      36.056  30.048  28.331  1.00  0.00     0.039 A 
ATOM     35  C   UNL A   1      37.059  30.239  27.396  1.00  0.00     0.014 A 
ATOM     36  C   UNL A   1      36.313  29.504  29.516  1.00  0.00     0.014 A 
ATOM     37  C   UNL A   1      38.260  29.552  27.695  1.00  0.00     0.010 A 
ATOM     38  C   UNL A   1      37.550  28.973  29.787  1.00  0.00     0.010 A 
ATOM     39  C   UNL A   1      38.573  29.072  28.885  1.00  0.00    -0.014 A 
BRANCH  39  40
ATOM     40  C   UNL A   1      39.992  28.653  29.232  1.00  0.00     0.031 A 
ATOM     41  C   UNL A   1      40.746  29.596  29.932  1.00  0.00     0.074 A 
ATOM     42  C   UNL A   1      40.500  27.460  28.748  1.00  0.00     0.049 A 
ATOM     43  N   UNL A   1      42.029  29.512  30.283  1.00  0.00    -0.248 NA
ATOM     44  C   UNL A   1      40.217  30.880  30.416  1.00  0.00     0.031 C 
ATOM     45  C   UNL A   1      39.743  26.499  28.048  1.00  0.00     0.029 A 
ATOM     46  N   UNL A   1      41.790  26.988  28.849  1.00  0.00    -0.354 N 
ATOM     47  C   UNL A   1      42.394  30.602  30.962  1.00  0.00     0.074 A 
ATOM     48  C   UNL A   1      41.234  31.499  31.052  1.00  0.00     0.031 C 
ATOM     49  C   UNL A   1      40.568  25.470  27.721  1.00  0.00     0.029 A 
ATOM     50  C   UNL A   1      41.853  25.769  28.212  1.00  0.00     0.049 A 
ATOM     51  H   UNL A   1      42.537  27.444  29.298  1.00  0.00     0.167 HD
ATOM     52  C   UNL A   1      43.646  30.881  31.511  1.00  0.00     0.037 A 
ATOM     53  C   UNL A   1      42.960  24.950  28.056  1.00  0.00     0.037 A 
ATOM     54  C   UNL A   1      44.742  30.042  31.392  1.00  0.00     0.049 A 
ATOM     55  C   UNL A   1      44.228  25.255  28.555  1.00  0.00     0.074 A 
ATOM     56  C   UNL A   1      46.010  30.304  31.947  1.00  0.00     0.029 A 
ATOM     57  N   UNL A   1      44.811  28.834  30.734  1.00  0.00    -0.354 N 
ATOM     58  N   UNL A   1      44.582  26.326  29.267  1.00  0.00    -0.248 NA
ATOM     59  C   UNL A   1      45.415  24.410  28.368  1.00  0.00     0.031 C 
ATOM     60  C   UNL A   1      46.835  29.275  31.620  1.00  0.00     0.029 A 
ATOM     61  C   UNL A   1      46.097  28.351  30.855  1.00  0.00     0.049 A 
ATOM     62  H   UNL A   1      44.071  28.392  30.259  1.00  0.00     0.167 HD
ATOM     63  C   UNL A   1      45.877  26.262  29.582  1.00  0.00     0.074 A 
ATOM     64  C   UNL A   1      46.433  25.032  29.002  1.00  0.00     0.031 C 
ATOM     65  C   UNL A   1      46.616  27.177  30.334  1.00  0.00     0.037 A 
BRANCH  52  66
ATOM     66  C   UNL A   1      43.818  32.180  32.284  1.00  0.00     0.064 A 
ATOM     67  C   UNL A   1      44.220  33.322  31.612  1.00  0.00     0.173 A 
ATOM     68  C   UNL A   1      43.579  32.197  33.590  1.00  0.00     0.173 A 
ATOM     69  F   UNL A   1      44.225  33.419  30.285  1.00  0.00    -0.203 F 
ATOM     70  C   UNL A   1      44.624  34.376  32.463  1.00  0.00     0.198 A 
ATOM     71  C   UNL A   1      43.873  33.311  34.340  1.00  0.00     0.198 A 
ATOM     72  F   UNL A   1      43.051  31.127  34.178  1.00  0.00    -0.203 F 
ATOM     73  F   UNL A   1      45.352  35.355  31.934  1.00  0.00    -0.200 F 
ATOM     74  C   UNL A   1      44.330  34.455  33.749  1.00  0.00     0.200 A 
ATOM     75  F   UNL A   1      43.709  33.274  35.659  1.00  0.00    -0.200 F 
ATOM     76  F   UNL A   1      44.471  35.588  34.432  1.00  0.00    -0.200 F 
ENDBRANCH  52  66
BRANCH  53  77
ATOM     77  C   UNL A   1      42.784  23.643  27.298  1.00  0.00     0.064 A 
ATOM     78  C   UNL A   1      42.242  22.547  27.950  1.00  0.00     0.173 A 
ATOM     79  C   UNL A   1      43.152  23.575  26.024  1.00  0.00     0.173 A 
ATOM     80  F   UNL A   1      41.631  22.633  29.129  1.00  0.00    -0.203 F 
ATOM     81  C   UNL A   1      42.397  21.328  27.247  1.00  0.00     0.198 A 
ATOM     82  C   UNL A   1      43.150  22.372  25.360  1.00  0.00     0.198 A 
ATOM     83  F   UNL A   1      43.527  24.680  25.386  1.00  0.00    -0.203 F 
ATOM     84  F   UNL A   1      42.243  20.198  27.930  1.00  0.00    -0.200 F 
ATOM     85  C   UNL A   1      42.684  21.236  25.962  1.00  0.00     0.200 A 
ATOM     86  F   UNL A   1      43.609  22.311  24.113  1.00  0.00    -0.200 F 
ATOM     87  F   UNL A   1      42.528  20.100  25.289  1.00  0.00    -0.200 F 
ENDBRANCH  53  77
BRANCH  65  88
ATOM     88  C   UNL A   1      48.080  26.866  30.597  1.00  0.00     0.064 A 
ATOM     89  C   UNL A   1      49.080  27.424  29.817  1.00  0.00     0.173 A 
ATOM     90  C   UNL A   1      48.371  26.127  31.661  1.00  0.00     0.173 A 
ATOM     91  F   UNL A   1      48.849  28.365  28.906  1.00  0.00    -0.203 F 
ATOM     92  C   UNL A   1      50.369  26.902  30.076  1.00  0.00     0.198 A 
ATOM     93  C   UNL A   1      49.668  25.767  31.930  1.00  0.00     0.198 A 
ATOM     94  F   UNL A   1      47.394  25.732  32.474  1.00  0.00    -0.203 F 
ATOM     95  F   UNL A   1      51.313  27.098  29.159  1.00  0.00    -0.200 F 
ATOM     96  C   UNL A   1      50.700  26.233  31.166  1.00  0.00     0.200 A 
ATOM     97  F   UNL A   1      49.925  24.952  32.951  1.00  0.00    -0.200 F 
ATOM     98  F   UNL A   1      51.971  26.025  31.501  1.00  0.00    -0.200 F 
ENDBRANCH  65  88
ENDBRANCH  39  40
ENDBRANCH  31  34
ENDBRANCH  29  30
ENDBRANCH   1  29
TORSDOF 13
ENDMDL
MODEL 2
REMARK VINA RESULT:     -13.6      0.339      7.038
REMARK SMILES CCc1cc(S(F)(F)(F)(F)F)cc2c1O[C@@H](C(F)(F)F)C(C(=O)NCCCNC(=O)c1ccc(-c3c4nc(c(-c5c(F)c(F)c(F)c(F)c5F)c5ccc([nH]5)c(-c5c(F)c(F)c(F)c(F)c5F)c5nc(c(-c6c(F)c(F)c(F)c(F)c6F)c6ccc3[nH]6)C=C5)C=C4)cc1)=C2
REMARK SMILES IDX 26 1 25 2 24 3 22 4 23 5 21 7 3 8 4 9 14 10 5 11 13 12 15 13
REMARK SMILES IDX 12 14 94 15 16 16 2 17 1 18 6 19 7 20 8 21 9 22 10 23 11 24
REMARK SMILES IDX 17 25 18 26 19 27 20 28 27 29 28 30 29 31 30 33 31 34 32 35
REMARK SMILES IDX 93 36 33 37 92 38 34 39 35 40 36 41 86 42 37 43 91 44 85 45
REMARK SMILES IDX 87 46 38 47 90 48 84 49 83 50 39 52 71 53 51 54 70 55 52 56
REMARK SMILES IDX 55 57 69 58 88 59 53 60 54 61 68 63 89 64 56 65 40 66 41 67
REMARK SMILES IDX 49 68 42 69 43 70 47 71 50 72 44 73 45 74 48 75 46 76 72 77
REMARK SMILES IDX 73 78 81 79 74 80 75 81 79 82 82 83 76 84 77 85 80 86 78 87
REMARK SMILES IDX 57 88 58 89 66 90 59 91 60 92 64 93 67 94 61 95 62 96 65 97
REMARK SMILES IDX 63 98
REMARK H PARENT 24 6 28 32 87 51 55 62
REMARK Flexibility Score: inf
ROOT
ATOM      1  C   UNL A   1      33.101  27.972  25.852  1.00  0.00     0.042 C 
ENDROOT
BRANCH   1   2
ATOM      2  C   UNL A   1      33.643  26.809  25.036  1.00  0.00     0.118 C 
BRANCH   2   3
ATOM      3  N   UNL A   1      33.595  27.148  23.607  1.00  0.00    -0.352 N 
ATOM      4  C   UNL A   1      33.618  26.081  22.597  1.00  0.00     0.251 C 
ATOM      5  O   UNL A   1      33.578  26.374  21.361  1.00  0.00    -0.270 OA
ATOM      6  H   UNL A   1      33.549  28.091  23.326  1.00  0.00     0.163 HD
BRANCH   4   7
ATOM      7  C   UNL A   1      33.691  24.625  23.030  1.00  0.00     0.067 C 
ATOM      8  C   UNL A   1      33.683  20.780  24.663  1.00  0.00    -0.004 A 
ATOM      9  C   UNL A   1      34.880  20.156  24.963  1.00  0.00     0.032 A 
ATOM     10  C   UNL A   1      33.713  22.065  24.177  1.00  0.00     0.131 A 
ATOM     11  C   UNL A   1      36.075  20.801  24.788  1.00  0.00     0.108 A 
ATOM     12  C   UNL A   1      34.902  22.741  23.969  1.00  0.00     0.019 A 
ATOM     13  O   UNL A   1      32.515  22.710  23.989  1.00  0.00    -0.475 OA
ATOM     14  C   UNL A   1      36.086  22.086  24.287  1.00  0.00     0.036 A 
ATOM     15  C   UNL A   1      34.826  24.111  23.489  1.00  0.00     0.025 C 
ATOM     16  C   UNL A   1      32.465  23.726  22.948  1.00  0.00     0.314 C 
BRANCH   8  17
ATOM     17  C   UNL A   1      32.403  19.980  24.839  1.00  0.00     0.036 C 
ATOM     18  C   UNL A   1      32.624  18.558  24.347  1.00  0.00     0.009 C 
ENDBRANCH   8  17
BRANCH  11  19
ATOM     19  S   UNL A   1      37.628  19.975  25.211  1.00  0.00     0.310 S 
ATOM     20  F   UNL A   1      38.026  19.908  23.678  1.00  0.00    -0.094 F 
ATOM     21  F   UNL A   1      36.845  18.625  24.997  1.00  0.00    -0.094 F 
ATOM     22  F   UNL A   1      38.939  19.198  25.523  1.00  0.00    -0.094 F 
ATOM     23  F   UNL A   1      38.427  21.335  25.284  1.00  0.00    -0.094 F 
ATOM     24  F   UNL A   1      36.334  20.776  24.788  1.00  0.00    -0.094 F 
ENDBRANCH  11  19
BRANCH  16  25
ATOM     25  C   UNL A   1      31.216  24.571  23.140  1.00  0.00     0.429 C 
ATOM     26  F   UNL A   1      30.140  23.791  23.082  1.00  0.00    -0.167 F 
ATOM     27  F   UNL A   1      31.265  25.171  24.325  1.00  0.00    -0.167 F 
ATOM     28  F   UNL A   1      31.149  25.488  22.179  1.00  0.00    -0.167 F 
ENDBRANCH  16  25
ENDBRANCH   4   7
ENDBRANCH   2   3
ENDBRANCH   1   2
BRANCH   1  29
ATOM     29  C   UNL A   1      34.136  28.396  26.880  1.00  0.00     0.118 C 
BRANCH  29  30
ATOM     30  N   UNL A   1      33.718  29.660  27.503  1.00  0.00    -0.352 N 
ATOM     31  C   UNL A   1      34.700  30.489  28.217  1.00  0.00     0.251 C 
ATOM     32  H   UNL A   1      32.780  29.953  27.440  1.00  0.00     0.163 HD
ATOM     33  O   UNL A   1      34.338  31.582  28.754  1.00  0.00    -0.269 OA
BRANCH  31  34
ATOM     34  C   UNL A   1      36.149  30.037  28.312  1.00  0.00     0.039 A 
ATOM     35  C   UNL A   1      37.081  30.312  27.325  1.00  0.00     0.014 A 
ATOM     36  C   UNL A   1      36.510  29.492  29.468  1.00  0.00     0.014 A 
ATOM     37  C   UNL A   1      38.340  29.703  27.541  1.00  0.00     0.010 A 
ATOM     38  C   UNL A   1      37.794  29.041  29.658  1.00  0.00     0.010 A 
ATOM     39  C   UNL A   1      38.753  29.226  28.700  1.00  0.00    -0.014 A 
BRANCH  39  40
ATOM     40  C   UNL A   1      40.215  28.899  28.957  1.00  0.00     0.031 A 
ATOM     41  C   UNL A   1      40.640  27.644  28.517  1.00  0.00     0.074 A 
ATOM     42  C   UNL A   1      40.999  29.766  29.699  1.00  0.00     0.049 A 
ATOM     43  N   UNL A   1      41.838  27.085  28.690  1.00  0.00    -0.248 NA
ATOM     44  C   UNL A   1      39.797  26.708  27.758  1.00  0.00     0.031 C 
ATOM     45  C   UNL A   1      40.580  31.037  30.140  1.00  0.00     0.029 A 
ATOM     46  N   UNL A   1      42.290  29.572  30.139  1.00  0.00    -0.354 N 
ATOM     47  C   UNL A   1      41.875  25.884  28.109  1.00  0.00     0.074 A 
ATOM     48  C   UNL A   1      40.560  25.623  27.507  1.00  0.00     0.031 C 
ATOM     49  C   UNL A   1      41.599  31.595  30.845  1.00  0.00     0.029 A 
ATOM     50  C   UNL A   1      42.672  30.684  30.856  1.00  0.00     0.049 A 
ATOM     51  H   UNL A   1      42.843  28.776  29.970  1.00  0.00     0.167 HD
ATOM     52  C   UNL A   1      42.952  24.999  28.055  1.00  0.00     0.037 A 
ATOM     53  C   UNL A   1      43.882  30.908  31.492  1.00  0.00     0.037 A 
ATOM     54  C   UNL A   1      44.177  25.242  28.655  1.00  0.00     0.049 A 
ATOM     55  C   UNL A   1      44.941  29.998  31.488  1.00  0.00     0.074 A 
ATOM     56  C   UNL A   1      45.277  24.364  28.604  1.00  0.00     0.029 A 
ATOM     57  N   UNL A   1      44.551  26.344  29.393  1.00  0.00    -0.354 N 
ATOM     58  N   UNL A   1      44.991  28.815  30.874  1.00  0.00    -0.248 NA
ATOM     59  C   UNL A   1      46.216  30.211  32.185  1.00  0.00     0.031 C 
ATOM     60  C   UNL A   1      46.296  24.923  29.309  1.00  0.00     0.029 A 
ATOM     61  C   UNL A   1      45.851  26.160  29.813  1.00  0.00     0.049 A 
ATOM     62  H   UNL A   1      43.987  27.127  29.587  1.00  0.00     0.167 HD
ATOM     63  C   UNL A   1      46.175  28.237  31.082  1.00  0.00     0.074 A 
ATOM     64  C   UNL A   1      46.977  29.124  31.935  1.00  0.00     0.031 C 
ATOM     65  C   UNL A   1      46.620  27.008  30.592  1.00  0.00     0.037 A 
BRANCH  52  66
ATOM     66  C   UNL A   1      42.771  23.693  27.297  1.00  0.00     0.064 A 
ATOM     67  C   UNL A   1      42.236  22.597  27.950  1.00  0.00     0.173 A 
ATOM     68  C   UNL A   1      43.130  23.627  26.020  1.00  0.00     0.173 A 
ATOM     69  F   UNL A   1      41.634  22.680  29.134  1.00  0.00    -0.203 F 
ATOM     70  C   UNL A   1      42.386  21.379  27.245  1.00  0.00     0.198 A 
ATOM     71  C   UNL A   1      43.124  22.426  25.352  1.00  0.00     0.198 A 
ATOM     72  F   UNL A   1      43.498  24.734  25.380  1.00  0.00    -0.203 F 
ATOM     73  F   UNL A   1      42.239  20.247  27.927  1.00  0.00    -0.200 F 
ATOM     74  C   UNL A   1      42.663  21.289  25.957  1.00  0.00     0.200 A 
ATOM     75  F   UNL A   1      43.572  22.368  24.102  1.00  0.00    -0.200 F 
ATOM     76  F   UNL A   1      42.503  20.154  25.282  1.00  0.00    -0.200 F 
ENDBRANCH  52  66
BRANCH  53  77
ATOM     77  C   UNL A   1      44.068  32.221  32.236  1.00  0.00     0.064 A 
ATOM     78  C   UNL A   1      43.704  32.303  33.571  1.00  0.00     0.173 A 
ATOM     79  C   UNL A   1      44.579  33.266  31.596  1.00  0.00     0.173 A 
ATOM     80  F   UNL A   1      43.432  31.235  34.316  1.00  0.00    -0.203 F 
ATOM     81  C   UNL A   1      43.647  33.627  34.068  1.00  0.00     0.198 A 
ATOM     82  C   UNL A   1      44.615  34.503  32.193  1.00  0.00     0.198 A 
ATOM     83  F   UNL A   1      45.057  33.114  30.364  1.00  0.00    -0.203 F 
ATOM     84  F   UNL A   1      42.974  33.835  35.196  1.00  0.00    -0.200 F 
ATOM     85  C   UNL A   1      44.215  34.669  33.490  1.00  0.00     0.200 A 
ATOM     86  F   UNL A   1      45.046  35.553  31.500  1.00  0.00    -0.200 F 
ATOM     87  F   UNL A   1      44.388  35.820  34.135  1.00  0.00    -0.200 F 
ENDBRANCH  53  77
BRANCH  65  88
ATOM     88  C   UNL A   1      48.036  26.574  30.934  1.00  0.00     0.064 A 
ATOM     89  C   UNL A   1      49.117  27.008  30.185  1.00  0.00     0.173 A 
ATOM     90  C   UNL A   1      48.209  25.851  32.035  1.00  0.00     0.173 A 
ATOM     91  F   UNL A   1      49.015  27.932  29.233  1.00  0.00    -0.203 F 
ATOM     92  C   UNL A   1      50.339  26.380  30.521  1.00  0.00     0.198 A 
ATOM     93  C   UNL A   1      49.454  25.383  32.377  1.00  0.00     0.198 A 
ATOM     94  F   UNL A   1      47.165  25.578  32.813  1.00  0.00    -0.203 F 
ATOM     95  F   UNL A   1      51.336  26.454  29.644  1.00  0.00    -0.200 F 
ATOM     96  C   UNL A   1      50.558  25.724  31.647  1.00  0.00     0.200 A 
ATOM     97  F   UNL A   1      49.588  24.587  33.434  1.00  0.00    -0.200 F 
ATOM     98  F   UNL A   1      51.787  25.413  32.048  1.00  0.00    -0.200 F 
ENDBRANCH  65  88
ENDBRANCH  39  40
ENDBRANCH  31  34
ENDBRANCH  29  30
ENDBRANCH   1  29
TORSDOF 13
ENDMDL
MODEL 3
REMARK VINA RESULT:     -13.6      3.267      7.795
REMARK SMILES CCc1cc(S(F)(F)(F)(F)F)cc2c1O[C@@H](C(F)(F)F)C(C(=O)NCCCNC(=O)c1ccc(-c3c4nc(c(-c5c(F)c(F)c(F)c(F)c5F)c5ccc([nH]5)c(-c5c(F)c(F)c(F)c(F)c5F)c5nc(c(-c6c(F)c(F)c(F)c(F)c6F)c6ccc3[nH]6)C=C5)C=C4)cc1)=C2
REMARK SMILES IDX 26 1 25 2 24 3 22 4 23 5 21 7 3 8 4 9 14 10 5 11 13 12 15 13
REMARK SMILES IDX 12 14 94 15 16 16 2 17 1 18 6 19 7 20 8 21 9 22 10 23 11 24
REMARK SMILES IDX 17 25 18 26 19 27 20 28 27 29 28 30 29 31 30 33 31 34 32 35
REMARK SMILES IDX 93 36 33 37 92 38 34 39 35 40 36 41 86 42 37 43 91 44 85 45
REMARK SMILES IDX 87 46 38 47 90 48 84 49 83 50 39 52 71 53 51 54 70 55 52 56
REMARK SMILES IDX 55 57 69 58 88 59 53 60 54 61 68 63 89 64 56 65 40 66 41 67
REMARK SMILES IDX 49 68 42 69 43 70 47 71 50 72 44 73 45 74 48 75 46 76 72 77
REMARK SMILES IDX 73 78 81 79 74 80 75 81 79 82 82 83 76 84 77 85 80 86 78 87
REMARK SMILES IDX 57 88 58 89 66 90 59 91 60 92 64 93 67 94 61 95 62 96 65 97
REMARK SMILES IDX 63 98
REMARK H PARENT 24 6 28 32 87 51 55 62
REMARK Flexibility Score: inf
ROOT
ATOM      1  C   UNL A   1      31.805  30.165  25.531  1.00  0.00     0.042 C 
ENDROOT
BRANCH   1   2
ATOM      2  C   UNL A   1      32.672  29.289  24.640  1.00  0.00     0.118 C 
BRANCH   2   3
ATOM      3  N   UNL A   1      32.001  29.089  23.347  1.00  0.00    -0.352 N 
ATOM      4  C   UNL A   1      31.724  27.729  22.866  1.00  0.00     0.251 C 
ATOM      5  O   UNL A   1      31.144  27.555  21.748  1.00  0.00    -0.270 OA
ATOM      6  H   UNL A   1      31.737  29.867  22.804  1.00  0.00     0.163 HD
BRANCH   4   7
ATOM      7  C   UNL A   1      32.131  26.528  23.704  1.00  0.00     0.067 C 
ATOM      8  C   UNL A   1      33.187  23.531  26.416  1.00  0.00    -0.004 A 
ATOM      9  C   UNL A   1      34.486  23.058  26.450  1.00  0.00     0.032 A 
ATOM     10  C   UNL A   1      32.879  24.554  25.551  1.00  0.00     0.131 A 
ATOM     11  C   UNL A   1      35.454  23.598  25.646  1.00  0.00     0.108 A 
ATOM     12  C   UNL A   1      33.827  25.111  24.711  1.00  0.00     0.019 A 
ATOM     13  O   UNL A   1      31.615  25.087  25.608  1.00  0.00    -0.475 OA
ATOM     14  C   UNL A   1      35.124  24.616  24.775  1.00  0.00     0.036 A 
ATOM     15  C   UNL A   1      33.412  26.215  23.862  1.00  0.00     0.025 C 
ATOM     16  C   UNL A   1      31.080  25.658  24.381  1.00  0.00     0.314 C 
BRANCH   8  17
ATOM     17  C   UNL A   1      32.160  22.846  27.304  1.00  0.00     0.036 C 
ATOM     18  C   UNL A   1      31.056  22.258  26.439  1.00  0.00     0.009 C 
ENDBRANCH   8  17
BRANCH  11  19
ATOM     19  S   UNL A   1      37.154  22.982  25.725  1.00  0.00     0.310 S 
ATOM     20  F   UNL A   1      37.579  23.966  24.558  1.00  0.00    -0.094 F 
ATOM     21  F   UNL A   1      36.721  21.956  24.610  1.00  0.00    -0.094 F 
ATOM     22  F   UNL A   1      38.608  22.430  25.708  1.00  0.00    -0.094 F 
ATOM     23  F   UNL A   1      37.601  24.107  26.739  1.00  0.00    -0.094 F 
ATOM     24  F   UNL A   1      35.711  23.625  25.672  1.00  0.00    -0.094 F 
ENDBRANCH  11  19
BRANCH  16  25
ATOM     25  C   UNL A   1      29.870  26.514  24.719  1.00  0.00     0.429 C 
ATOM     26  F   UNL A   1      29.063  25.839  25.532  1.00  0.00    -0.167 F 
ATOM     27  F   UNL A   1      30.271  27.630  25.319  1.00  0.00    -0.167 F 
ATOM     28  F   UNL A   1      29.217  26.821  23.602  1.00  0.00    -0.167 F 
ENDBRANCH  16  25
ENDBRANCH   4   7
ENDBRANCH   2   3
ENDBRANCH   1   2
BRANCH   1  29
ATOM     29  C   UNL A   1      32.663  30.783  26.623  1.00  0.00     0.118 C 
BRANCH  29  30
ATOM     30  N   UNL A   1      32.230  32.167  26.861  1.00  0.00    -0.352 N 
ATOM     31  C   UNL A   1      33.084  33.082  27.633  1.00  0.00     0.251 C 
ATOM     32  H   UNL A   1      31.369  32.482  26.502  1.00  0.00     0.163 HD
ATOM     33  O   UNL A   1      32.709  34.279  27.838  1.00  0.00    -0.269 OA
BRANCH  31  34
ATOM     34  C   UNL A   1      34.413  32.596  28.187  1.00  0.00     0.039 A 
ATOM     35  C   UNL A   1      35.538  33.402  28.238  1.00  0.00     0.014 A 
ATOM     36  C   UNL A   1      34.398  31.397  28.759  1.00  0.00     0.014 A 
ATOM     37  C   UNL A   1      36.706  32.730  28.671  1.00  0.00     0.010 A 
ATOM     38  C   UNL A   1      35.548  30.858  29.284  1.00  0.00     0.010 A 
ATOM     39  C   UNL A   1      36.712  31.576  29.314  1.00  0.00    -0.014 A 
BRANCH  39  40
ATOM     40  C   UNL A   1      37.945  31.073  30.046  1.00  0.00     0.031 A 
ATOM     41  C   UNL A   1      38.706  30.123  29.365  1.00  0.00     0.074 A 
ATOM     42  C   UNL A   1      38.181  31.464  31.353  1.00  0.00     0.049 A 
ATOM     43  N   UNL A   1      39.779  29.468  29.812  1.00  0.00    -0.248 NA
ATOM     44  C   UNL A   1      38.436  29.682  27.988  1.00  0.00     0.031 C 
ATOM     45  C   UNL A   1      37.422  32.428  32.045  1.00  0.00     0.029 A 
ATOM     46  N   UNL A   1      39.163  31.009  32.206  1.00  0.00    -0.354 N 
ATOM     47  C   UNL A   1      40.250  28.653  28.865  1.00  0.00     0.074 A 
ATOM     48  C   UNL A   1      39.389  28.776  27.681  1.00  0.00     0.031 C 
ATOM     49  C   UNL A   1      37.931  32.545  33.299  1.00  0.00     0.029 A 
ATOM     50  C   UNL A   1      39.017  31.656  33.413  1.00  0.00     0.049 A 
ATOM     51  H   UNL A   1      39.849  30.338  31.990  1.00  0.00     0.167 HD
ATOM     52  C   UNL A   1      41.364  27.817  28.942  1.00  0.00     0.037 A 
ATOM     53  C   UNL A   1      39.777  31.492  34.560  1.00  0.00     0.037 A 
ATOM     54  C   UNL A   1      42.149  27.685  30.075  1.00  0.00     0.049 A 
ATOM     55  C   UNL A   1      40.857  30.612  34.657  1.00  0.00     0.074 A 
ATOM     56  C   UNL A   1      43.281  26.852  30.167  1.00  0.00     0.029 A 
ATOM     57  N   UNL A   1      41.989  28.314  31.291  1.00  0.00    -0.354 N 
ATOM     58  N   UNL A   1      41.351  29.827  33.698  1.00  0.00    -0.248 NA
ATOM     59  C   UNL A   1      41.648  30.407  35.877  1.00  0.00     0.031 C 
ATOM     60  C   UNL A   1      43.790  26.968  31.422  1.00  0.00     0.029 A 
ATOM     61  C   UNL A   1      42.985  27.876  32.137  1.00  0.00     0.049 A 
ATOM     62  H   UNL A   1      41.284  28.963  31.516  1.00  0.00     0.167 HD
ATOM     63  C   UNL A   1      42.398  29.141  34.159  1.00  0.00     0.074 A 
ATOM     64  C   UNL A   1      42.599  29.498  35.569  1.00  0.00     0.031 C 
ATOM     65  C   UNL A   1      43.195  28.234  33.458  1.00  0.00     0.037 A 
BRANCH  52  66
ATOM     66  C   UNL A   1      41.736  27.003  27.712  1.00  0.00     0.064 A 
ATOM     67  C   UNL A   1      41.174  25.751  27.531  1.00  0.00     0.173 A 
ATOM     68  C   UNL A   1      42.595  27.507  26.833  1.00  0.00     0.173 A 
ATOM     69  F   UNL A   1      40.134  25.313  28.236  1.00  0.00    -0.203 F 
ATOM     70  C   UNL A   1      41.806  24.978  26.528  1.00  0.00     0.198 A 
ATOM     71  C   UNL A   1      43.068  26.738  25.798  1.00  0.00     0.198 A 
ATOM     72  F   UNL A   1      43.000  28.768  26.956  1.00  0.00    -0.203 F 
ATOM     73  F   UNL A   1      41.586  23.667  26.526  1.00  0.00    -0.200 F 
ATOM     74  C   UNL A   1      42.599  25.470  25.594  1.00  0.00     0.200 A 
ATOM     75  F   UNL A   1      43.994  27.234  24.982  1.00  0.00    -0.200 F 
ATOM     76  F   UNL A   1      42.926  24.768  24.511  1.00  0.00    -0.200 F 
ENDBRANCH  52  66
BRANCH  53  77
ATOM     77  C   UNL A   1      39.414  32.318  35.785  1.00  0.00     0.064 A 
ATOM     78  C   UNL A   1      38.463  31.839  36.671  1.00  0.00     0.173 A 
ATOM     79  C   UNL A   1      40.017  33.485  35.984  1.00  0.00     0.173 A 
ATOM     80  F   UNL A   1      38.024  30.584  36.655  1.00  0.00    -0.203 F 
ATOM     81  C   UNL A   1      38.001  32.807  37.594  1.00  0.00     0.198 A 
ATOM     82  C   UNL A   1      39.602  34.322  36.991  1.00  0.00     0.198 A 
ATOM     83  F   UNL A   1      41.029  33.846  35.201  1.00  0.00    -0.203 F 
ATOM     84  F   UNL A   1      36.860  32.561  38.230  1.00  0.00    -0.200 F 
ATOM     85  C   UNL A   1      38.625  33.938  37.868  1.00  0.00     0.200 A 
ATOM     86  F   UNL A   1      40.159  35.524  37.116  1.00  0.00    -0.200 F 
ATOM     87  F   UNL A   1      38.320  34.665  38.940  1.00  0.00    -0.200 F 
ENDBRANCH  53  77
BRANCH  65  88
ATOM     88  C   UNL A   1      44.367  27.601  34.191  1.00  0.00     0.064 A 
ATOM     89  C   UNL A   1      45.590  28.246  34.276  1.00  0.00     0.173 A 
ATOM     90  C   UNL A   1      44.147  26.459  34.832  1.00  0.00     0.173 A 
ATOM     91  F   UNL A   1      45.778  29.498  33.867  1.00  0.00    -0.203 F 
ATOM     92  C   UNL A   1      46.620  27.454  34.834  1.00  0.00     0.198 A 
ATOM     93  C   UNL A   1      45.172  25.807  35.473  1.00  0.00     0.198 A 
ATOM     94  F   UNL A   1      42.921  25.942  34.854  1.00  0.00    -0.203 F 
ATOM     95  F   UNL A   1      47.877  27.839  34.630  1.00  0.00    -0.200 F 
ATOM     96  C   UNL A   1      46.420  26.359  35.544  1.00  0.00     0.200 A 
ATOM     97  F   UNL A   1      44.947  24.621  36.032  1.00  0.00    -0.200 F 
ATOM     98  F   UNL A   1      47.382  25.822  36.290  1.00  0.00    -0.200 F 
ENDBRANCH  65  88
ENDBRANCH  39  40
ENDBRANCH  31  34
ENDBRANCH  29  30
ENDBRANCH   1  29
TORSDOF 13
ENDMDL
