MODEL 1
REMARK VINA RESULT:     -13.9      0.000      0.000
REMARK SMILES O=C(NCCCNC(=O)[C@H](c1c[nH]c2ccc(Br)cc12)[N@H+]1CCC[C@H](c2nc3ccccc3s2)C1)c1ccc(-c2c3nc(c(-c4c(F)c(F)c(F)c(F)c4F)c4ccc([nH]4)c(-c4c(F)c(F)c(F)c(F)c4F)c4nc(c(-c5c(F)c(F)c(F)c(F)c5F)c5ccc2[nH]5)C=C4)C=C3)cc1
REMARK SMILES IDX 5 1 4 2 3 3 1 4 2 5 36 7 37 8 98 9 38 10 97 11 39 12 40 13
REMARK SMILES IDX 41 14 91 15 42 16 96 17 90 18 92 19 43 20 95 21 89 22 88 23
REMARK SMILES IDX 44 25 76 26 56 27 75 28 57 29 60 30 74 31 93 32 58 33 59 34
REMARK SMILES IDX 73 36 94 37 61 38 45 39 46 40 54 41 47 42 48 43 52 44 55 45
REMARK SMILES IDX 49 46 50 47 53 48 51 49 77 50 78 51 86 52 79 53 80 54 84 55
REMARK SMILES IDX 87 56 81 57 82 58 85 59 83 60 62 61 63 62 71 63 64 64 65 65
REMARK SMILES IDX 69 66 72 67 66 68 67 69 70 70 68 71 6 72 7 73 8 74 9 76
REMARK SMILES IDX 10 77 21 78 22 79 35 80 23 82 25 83 24 84 26 85 27 86 34 87
REMARK SMILES IDX 28 88 33 89 29 90 32 91 30 92 31 93 11 94 12 95 20 96 13 97
REMARK SMILES IDX 14 98 19 99 15 101 17 102 16 103 18 104
REMARK H PARENT 3 6 92 24 60 35 7 75 21 81 13 100
REMARK Flexibility Score: inf
ROOT
ATOM      1  C   UNL A   1      37.804  20.361  24.741  1.00  0.00     0.042 C 
ENDROOT
BRANCH   1   2
ATOM      2  C   UNL A   1      38.859  20.692  25.780  1.00  0.00     0.118 C 
BRANCH   2   3
ATOM      3  N   UNL A   1      39.833  19.616  25.885  1.00  0.00    -0.352 N 
ATOM      4  O   UNL A   1      41.881  18.702  25.727  1.00  0.00    -0.269 OA
ATOM      5  C   UNL A   1      41.200  19.682  26.012  1.00  0.00     0.251 C 
ATOM      6  H   UNL A   1      39.458  18.705  25.863  1.00  0.00     0.163 HD
BRANCH   5   7
ATOM      7  C   UNL A   1      41.851  20.920  26.498  1.00  0.00     0.039 A 
ATOM      8  C   UNL A   1      42.140  21.957  25.614  1.00  0.00     0.014 A 
ATOM      9  C   UNL A   1      42.096  21.091  27.865  1.00  0.00     0.014 A 
ATOM     10  C   UNL A   1      42.811  23.085  26.056  1.00  0.00     0.010 A 
ATOM     11  C   UNL A   1      42.634  22.296  28.334  1.00  0.00     0.010 A 
ATOM     12  C   UNL A   1      43.000  23.302  27.430  1.00  0.00    -0.014 A 
BRANCH  12  13
ATOM     13  C   UNL A   1      43.450  24.653  27.855  1.00  0.00     0.031 A 
ATOM     14  C   UNL A   1      44.893  25.054  27.818  1.00  0.00     0.074 A 
ATOM     15  C   UNL A   1      42.500  25.545  28.203  1.00  0.00     0.049 A 
ATOM     16  N   UNL A   1      45.424  26.223  28.077  1.00  0.00    -0.248 NA
ATOM     17  C   UNL A   1      45.871  24.018  27.460  1.00  0.00     0.031 C 
ATOM     18  C   UNL A   1      41.066  25.249  28.304  1.00  0.00     0.029 A 
ATOM     19  N   UNL A   1      42.574  26.885  28.486  1.00  0.00    -0.354 N 
ATOM     20  C   UNL A   1      46.793  26.062  27.925  1.00  0.00     0.074 A 
ATOM     21  C   UNL A   1      47.018  24.674  27.580  1.00  0.00     0.031 C 
ATOM     22  C   UNL A   1      40.392  26.383  28.532  1.00  0.00     0.029 A 
ATOM     23  C   UNL A   1      41.347  27.471  28.686  1.00  0.00     0.049 A 
ATOM     24  H   UNL A   1      43.424  27.379  28.541  1.00  0.00     0.167 HD
ATOM     25  C   UNL A   1      47.768  26.995  28.054  1.00  0.00     0.037 A 
ATOM     26  C   UNL A   1      41.022  28.743  28.977  1.00  0.00     0.037 A 
ATOM     27  C   UNL A   1      47.527  28.377  28.391  1.00  0.00     0.049 A 
ATOM     28  C   UNL A   1      42.126  29.750  29.110  1.00  0.00     0.074 A 
ATOM     29  C   UNL A   1      48.446  29.401  28.548  1.00  0.00     0.029 A 
ATOM     30  N   UNL A   1      46.274  28.930  28.622  1.00  0.00    -0.354 N 
ATOM     31  N   UNL A   1      43.416  29.584  28.952  1.00  0.00    -0.248 NA
ATOM     32  C   UNL A   1      41.732  31.117  29.468  1.00  0.00     0.031 C 
ATOM     33  C   UNL A   1      47.754  30.562  28.911  1.00  0.00     0.029 A 
ATOM     34  C   UNL A   1      46.399  30.276  28.931  1.00  0.00     0.049 A 
ATOM     35  H   UNL A   1      45.423  28.438  28.573  1.00  0.00     0.167 HD
ATOM     36  C   UNL A   1      43.991  30.822  29.193  1.00  0.00     0.074 A 
ATOM     37  C   UNL A   1      42.901  31.739  29.463  1.00  0.00     0.031 C 
ATOM     38  C   UNL A   1      45.301  31.167  29.208  1.00  0.00     0.037 A 
BRANCH  25  39
ATOM     39  C   UNL A   1      49.187  26.557  27.840  1.00  0.00     0.064 A 
ATOM     40  C   UNL A   1      49.722  26.397  26.553  1.00  0.00     0.173 A 
ATOM     41  C   UNL A   1      50.041  26.349  28.935  1.00  0.00     0.173 A 
ATOM     42  F   UNL A   1      48.945  26.572  25.473  1.00  0.00    -0.203 F 
ATOM     43  C   UNL A   1      51.054  26.035  26.369  1.00  0.00     0.198 A 
ATOM     44  C   UNL A   1      51.380  26.012  28.747  1.00  0.00     0.198 A 
ATOM     45  F   UNL A   1      49.583  26.492  30.187  1.00  0.00    -0.203 F 
ATOM     46  F   UNL A   1      51.534  25.857  25.131  1.00  0.00    -0.200 F 
ATOM     47  C   UNL A   1      51.884  25.851  27.466  1.00  0.00     0.200 A 
ATOM     48  F   UNL A   1      52.183  25.849  29.808  1.00  0.00    -0.200 F 
ATOM     49  F   UNL A   1      53.169  25.516  27.287  1.00  0.00    -0.200 F 
ENDBRANCH  25  39
BRANCH  26  50
ATOM     50  C   UNL A   1      39.599  29.119  29.189  1.00  0.00     0.064 A 
ATOM     51  C   UNL A   1      39.027  29.121  30.468  1.00  0.00     0.173 A 
ATOM     52  C   UNL A   1      38.781  29.488  28.109  1.00  0.00     0.173 A 
ATOM     53  F   UNL A   1      39.760  28.760  31.531  1.00  0.00    -0.203 F 
ATOM     54  C   UNL A   1      37.685  29.452  30.655  1.00  0.00     0.198 A 
ATOM     55  C   UNL A   1      37.452  29.857  28.302  1.00  0.00     0.198 A 
ATOM     56  F   UNL A   1      39.281  29.510  26.865  1.00  0.00    -0.203 F 
ATOM     57  F   UNL A   1      37.149  29.394  31.881  1.00  0.00    -0.200 F 
ATOM     58  C   UNL A   1      36.902  29.828  29.574  1.00  0.00     0.200 A 
ATOM     59  F   UNL A   1      36.708  30.238  27.257  1.00  0.00    -0.200 F 
ATOM     60  F   UNL A   1      35.615  30.153  29.756  1.00  0.00    -0.200 F 
ENDBRANCH  26  50
BRANCH  38  61
ATOM     61  C   UNL A   1      45.612  32.601  29.519  1.00  0.00     0.064 A 
ATOM     62  C   UNL A   1      45.689  33.570  28.507  1.00  0.00     0.173 A 
ATOM     63  C   UNL A   1      45.844  33.009  30.841  1.00  0.00     0.173 A 
ATOM     64  F   UNL A   1      45.494  33.224  27.226  1.00  0.00    -0.203 F 
ATOM     65  C   UNL A   1      46.025  34.887  28.804  1.00  0.00     0.198 A 
ATOM     66  C   UNL A   1      46.148  34.334  31.137  1.00  0.00     0.198 A 
ATOM     67  F   UNL A   1      45.778  32.121  31.845  1.00  0.00    -0.203 F 
ATOM     68  F   UNL A   1      46.157  35.781  27.814  1.00  0.00    -0.200 F 
ATOM     69  C   UNL A   1      46.251  35.269  30.118  1.00  0.00     0.200 A 
ATOM     70  F   UNL A   1      46.356  34.703  32.408  1.00  0.00    -0.200 F 
ATOM     71  F   UNL A   1      46.580  36.537  30.401  1.00  0.00    -0.200 F 
ENDBRANCH  38  61
ENDBRANCH  12  13
ENDBRANCH   5   7
ENDBRANCH   2   3
ENDBRANCH   1   2
BRANCH   1  72
ATOM     72  C   UNL A   1      36.450  20.942  25.128  1.00  0.00     0.118 C 
BRANCH  72  73
ATOM     73  N   UNL A   1      36.183  22.126  24.336  1.00  0.00    -0.351 N 
ATOM     74  C   UNL A   1      34.958  22.560  23.885  1.00  0.00     0.283 C 
ATOM     75  H   UNL A   1      36.961  22.679  24.096  1.00  0.00     0.163 HD
ATOM     76  O   UNL A   1      34.967  23.409  22.992  1.00  0.00    -0.268 OA
BRANCH  74  77
ATOM     77  C   UNL A   1      33.673  21.997  24.568  1.00  0.00     0.307 C 
BRANCH  77  78
ATOM     78  N   UNL A   1      32.769  23.045  25.113  1.00  0.00    -0.320 N 
ATOM     79  C   UNL A   1      31.583  22.448  25.736  1.00  0.00     0.263 C 
ATOM     80  C   UNL A   1      33.421  24.027  26.004  1.00  0.00     0.274 C 
ATOM     81  H   UNL A   1      32.475  23.591  24.303  1.00  0.00     0.349 HD
ATOM     82  C   UNL A   1      30.583  23.498  26.217  1.00  0.00     0.062 C 
ATOM     83  C   UNL A   1      32.476  25.158  26.475  1.00  0.00     0.104 C 
ATOM     84  C   UNL A   1      31.242  24.523  27.136  1.00  0.00     0.022 C 
BRANCH  83  85
ATOM     85  C   UNL A   1      32.143  26.085  25.323  1.00  0.00     0.103 A 
ATOM     86  N   UNL A   1      30.915  26.358  24.943  1.00  0.00    -0.241 NA
ATOM     87  S   UNL A   1      33.370  26.831  24.374  1.00  0.00    -0.118 S 
ATOM     88  C   UNL A   1      30.910  27.337  23.981  1.00  0.00     0.082 A 
ATOM     89  C   UNL A   1      32.168  27.737  23.534  1.00  0.00     0.055 A 
ATOM     90  C   UNL A   1      29.761  27.948  23.445  1.00  0.00     0.030 A 
ATOM     91  C   UNL A   1      32.318  28.733  22.558  1.00  0.00     0.021 A 
ATOM     92  C   UNL A   1      29.898  28.953  22.487  1.00  0.00     0.002 A 
ATOM     93  C   UNL A   1      31.163  29.338  22.049  1.00  0.00     0.002 A 
ENDBRANCH  83  85
ENDBRANCH  77  78
BRANCH  77  94
ATOM     94  C   UNL A   1      32.944  21.035  23.661  1.00  0.00     0.044 A 
ATOM     95  C   UNL A   1      32.107  21.319  22.597  1.00  0.00     0.094 A 
ATOM     96  C   UNL A   1      33.088  19.601  23.684  1.00  0.00     0.010 A 
ATOM     97  N   UNL A   1      31.803  20.150  21.954  1.00  0.00    -0.361 N 
ATOM     98  C   UNL A   1      32.432  19.090  22.565  1.00  0.00     0.046 A 
ATOM     99  C   UNL A   1      33.774  18.698  24.526  1.00  0.00     0.026 A 
ATOM    100  H   UNL A   1      31.219  20.078  21.165  1.00  0.00     0.166 HD
ATOM    101  C   UNL A   1      32.479  17.733  22.213  1.00  0.00     0.028 A 
ATOM    102  C   UNL A   1      33.851  17.348  24.173  1.00  0.00     0.018 A 
ATOM    103  C   UNL A   1      33.221  16.871  23.029  1.00  0.00     0.018 A 
ATOM    104  Br  UNL A   1      34.869  16.170  25.251  1.00  0.00    -0.051 Br
ENDBRANCH  77  94
ENDBRANCH  74  77
ENDBRANCH  72  73
ENDBRANCH   1  72
TORSDOF 13
ENDMDL
MODEL 2
REMARK VINA RESULT:     -13.7      0.660      1.681
REMARK SMILES O=C(NCCCNC(=O)[C@H](c1c[nH]c2ccc(Br)cc12)[N@H+]1CCC[C@H](c2nc3ccccc3s2)C1)c1ccc(-c2c3nc(c(-c4c(F)c(F)c(F)c(F)c4F)c4ccc([nH]4)c(-c4c(F)c(F)c(F)c(F)c4F)c4nc(c(-c5c(F)c(F)c(F)c(F)c5F)c5ccc2[nH]5)C=C4)C=C3)cc1
REMARK SMILES IDX 5 1 4 2 3 3 1 4 2 5 36 7 37 8 98 9 38 10 97 11 39 12 40 13
REMARK SMILES IDX 41 14 91 15 42 16 96 17 90 18 92 19 43 20 95 21 89 22 88 23
REMARK SMILES IDX 44 25 76 26 56 27 75 28 57 29 60 30 74 31 93 32 58 33 59 34
REMARK SMILES IDX 73 36 94 37 61 38 45 39 46 40 54 41 47 42 48 43 52 44 55 45
REMARK SMILES IDX 49 46 50 47 53 48 51 49 77 50 78 51 86 52 79 53 80 54 84 55
REMARK SMILES IDX 87 56 81 57 82 58 85 59 83 60 62 61 63 62 71 63 64 64 65 65
REMARK SMILES IDX 69 66 72 67 66 68 67 69 70 70 68 71 6 72 7 73 8 74 9 76
REMARK SMILES IDX 10 77 21 78 22 79 35 80 23 82 25 83 24 84 26 85 27 86 34 87
REMARK SMILES IDX 28 88 33 89 29 90 32 91 30 92 31 93 11 94 12 95 20 96 13 97
REMARK SMILES IDX 14 98 19 99 15 101 17 102 16 103 18 104
REMARK H PARENT 3 6 92 24 60 35 7 75 21 81 13 100
REMARK Flexibility Score: inf
ROOT
ATOM      1  C   UNL A   1      37.658  20.417  24.876  1.00  0.00     0.042 C 
ENDROOT
BRANCH   1   2
ATOM      2  C   UNL A   1      38.871  20.878  25.663  1.00  0.00     0.118 C 
BRANCH   2   3
ATOM      3  N   UNL A   1      39.815  19.786  25.844  1.00  0.00    -0.352 N 
ATOM      4  O   UNL A   1      41.839  18.811  25.764  1.00  0.00    -0.269 OA
ATOM      5  C   UNL A   1      41.182  19.824  25.983  1.00  0.00     0.251 C 
ATOM      6  H   UNL A   1      39.415  18.886  25.870  1.00  0.00     0.163 HD
BRANCH   5   7
ATOM      7  C   UNL A   1      41.860  21.071  26.402  1.00  0.00     0.039 A 
ATOM      8  C   UNL A   1      42.045  22.112  25.496  1.00  0.00     0.014 A 
ATOM      9  C   UNL A   1      42.237  21.246  27.739  1.00  0.00     0.014 A 
ATOM     10  C   UNL A   1      42.741  23.249  25.870  1.00  0.00     0.010 A 
ATOM     11  C   UNL A   1      42.802  22.459  28.153  1.00  0.00     0.010 A 
ATOM     12  C   UNL A   1      43.063  23.469  27.218  1.00  0.00    -0.014 A 
BRANCH  12  13
ATOM     13  C   UNL A   1      43.534  24.827  27.597  1.00  0.00     0.031 A 
ATOM     14  C   UNL A   1      44.930  25.288  27.311  1.00  0.00     0.074 A 
ATOM     15  C   UNL A   1      42.631  25.670  28.142  1.00  0.00     0.049 A 
ATOM     16  N   UNL A   1      45.456  26.471  27.507  1.00  0.00    -0.248 NA
ATOM     17  C   UNL A   1      45.863  24.302  26.748  1.00  0.00     0.031 C 
ATOM     18  C   UNL A   1      41.252  25.311  28.492  1.00  0.00     0.029 A 
ATOM     19  N   UNL A   1      42.708  27.004  28.450  1.00  0.00    -0.354 N 
ATOM     20  C   UNL A   1      46.780  26.371  27.103  1.00  0.00     0.074 A 
ATOM     21  C   UNL A   1      46.988  25.002  26.678  1.00  0.00     0.031 C 
ATOM     22  C   UNL A   1      40.591  26.411  28.875  1.00  0.00     0.029 A 
ATOM     23  C   UNL A   1      41.518  27.534  28.888  1.00  0.00     0.049 A 
ATOM     24  H   UNL A   1      43.535  27.531  28.365  1.00  0.00     0.167 HD
ATOM     25  C   UNL A   1      47.727  27.340  27.083  1.00  0.00     0.037 A 
ATOM     26  C   UNL A   1      41.206  28.783  29.275  1.00  0.00     0.037 A 
ATOM     27  C   UNL A   1      47.502  28.702  27.503  1.00  0.00     0.049 A 
ATOM     28  C   UNL A   1      42.278  29.831  29.237  1.00  0.00     0.074 A 
ATOM     29  C   UNL A   1      48.397  29.759  27.523  1.00  0.00     0.029 A 
ATOM     30  N   UNL A   1      46.294  29.196  27.975  1.00  0.00    -0.354 N 
ATOM     31  N   UNL A   1      43.523  29.723  28.841  1.00  0.00    -0.248 NA
ATOM     32  C   UNL A   1      41.907  31.171  29.705  1.00  0.00     0.031 C 
ATOM     33  C   UNL A   1      47.742  30.881  28.043  1.00  0.00     0.029 A 
ATOM     34  C   UNL A   1      46.424  30.538  28.300  1.00  0.00     0.049 A 
ATOM     35  H   UNL A   1      45.466  28.671  28.066  1.00  0.00     0.167 HD
ATOM     36  C   UNL A   1      44.086  30.977  29.013  1.00  0.00     0.074 A 
ATOM     37  C   UNL A   1      43.032  31.841  29.507  1.00  0.00     0.031 C 
ATOM     38  C   UNL A   1      45.364  31.375  28.801  1.00  0.00     0.037 A 
BRANCH  25  39
ATOM     39  C   UNL A   1      49.098  26.966  26.600  1.00  0.00     0.064 A 
ATOM     40  C   UNL A   1      50.078  26.476  27.477  1.00  0.00     0.173 A 
ATOM     41  C   UNL A   1      49.419  27.044  25.236  1.00  0.00     0.173 A 
ATOM     42  F   UNL A   1      49.826  26.393  28.792  1.00  0.00    -0.203 F 
ATOM     43  C   UNL A   1      51.331  26.089  27.008  1.00  0.00     0.198 A 
ATOM     44  C   UNL A   1      50.664  26.631  24.767  1.00  0.00     0.198 A 
ATOM     45  F   UNL A   1      48.518  27.501  24.354  1.00  0.00    -0.203 F 
ATOM     46  F   UNL A   1      52.261  25.654  27.868  1.00  0.00    -0.200 F 
ATOM     47  C   UNL A   1      51.620  26.159  25.653  1.00  0.00     0.200 A 
ATOM     48  F   UNL A   1      50.937  26.686  23.456  1.00  0.00    -0.200 F 
ATOM     49  F   UNL A   1      52.821  25.773  25.202  1.00  0.00    -0.200 F 
ENDBRANCH  25  39
BRANCH  26  50
ATOM     50  C   UNL A   1      39.833  29.094  29.754  1.00  0.00     0.064 A 
ATOM     51  C   UNL A   1      39.483  28.958  31.104  1.00  0.00     0.173 A 
ATOM     52  C   UNL A   1      38.841  29.537  28.865  1.00  0.00     0.173 A 
ATOM     53  F   UNL A   1      40.388  28.522  31.991  1.00  0.00    -0.203 F 
ATOM     54  C   UNL A   1      38.187  29.230  31.541  1.00  0.00     0.198 A 
ATOM     55  C   UNL A   1      37.558  29.846  29.310  1.00  0.00     0.198 A 
ATOM     56  F   UNL A   1      39.125  29.692  27.564  1.00  0.00    -0.203 F 
ATOM     57  F   UNL A   1      37.863  29.041  32.828  1.00  0.00    -0.200 F 
ATOM     58  C   UNL A   1      37.228  29.681  30.646  1.00  0.00     0.200 A 
ATOM     59  F   UNL A   1      36.644  30.302  28.444  1.00  0.00    -0.200 F 
ATOM     60  F   UNL A   1      35.986  29.949  31.069  1.00  0.00    -0.200 F 
ENDBRANCH  26  50
BRANCH  38  61
ATOM     61  C   UNL A   1      45.675  32.813  29.097  1.00  0.00     0.064 A 
ATOM     62  C   UNL A   1      46.131  33.219  30.360  1.00  0.00     0.173 A 
ATOM     63  C   UNL A   1      45.506  33.796  28.111  1.00  0.00     0.173 A 
ATOM     64  F   UNL A   1      46.289  32.317  31.341  1.00  0.00    -0.203 F 
ATOM     65  C   UNL A   1      46.370  34.561  30.636  1.00  0.00     0.198 A 
ATOM     66  C   UNL A   1      45.776  35.133  28.381  1.00  0.00     0.198 A 
ATOM     67  F   UNL A   1      45.075  33.459  26.885  1.00  0.00    -0.203 F 
ATOM     68  F   UNL A   1      46.742  34.933  31.869  1.00  0.00    -0.200 F 
ATOM     69  C   UNL A   1      46.196  35.517  29.647  1.00  0.00     0.200 A 
ATOM     70  F   UNL A   1      45.618  36.055  27.421  1.00  0.00    -0.200 F 
ATOM     71  F   UNL A   1      46.421  36.811  29.915  1.00  0.00    -0.200 F 
ENDBRANCH  38  61
ENDBRANCH  12  13
ENDBRANCH   5   7
ENDBRANCH   2   3
ENDBRANCH   1   2
BRANCH   1  72
ATOM     72  C   UNL A   1      36.398  21.141  25.332  1.00  0.00     0.118 C 
BRANCH  72  73
ATOM     73  N   UNL A   1      36.132  22.259  24.449  1.00  0.00    -0.351 N 
ATOM     74  C   UNL A   1      34.917  22.619  23.915  1.00  0.00     0.283 C 
ATOM     75  H   UNL A   1      36.903  22.821  24.207  1.00  0.00     0.163 HD
ATOM     76  O   UNL A   1      34.941  23.406  22.967  1.00  0.00    -0.268 OA
BRANCH  74  77
ATOM     77  C   UNL A   1      33.619  22.058  24.576  1.00  0.00     0.307 C 
BRANCH  77  78
ATOM     78  N   UNL A   1      32.709  23.108  25.107  1.00  0.00    -0.320 N 
ATOM     79  C   UNL A   1      31.519  22.513  25.723  1.00  0.00     0.263 C 
ATOM     80  C   UNL A   1      33.351  24.096  25.998  1.00  0.00     0.274 C 
ATOM     81  H   UNL A   1      32.421  23.649  24.291  1.00  0.00     0.349 HD
ATOM     82  C   UNL A   1      30.513  23.564  26.189  1.00  0.00     0.062 C 
ATOM     83  C   UNL A   1      32.401  25.229  26.454  1.00  0.00     0.104 C 
ATOM     84  C   UNL A   1      31.163  24.595  27.107  1.00  0.00     0.022 C 
BRANCH  83  85
ATOM     85  C   UNL A   1      32.077  26.149  25.294  1.00  0.00     0.103 A 
ATOM     86  N   UNL A   1      30.851  26.444  24.922  1.00  0.00    -0.241 NA
ATOM     87  S   UNL A   1      33.310  26.856  24.324  1.00  0.00    -0.118 S 
ATOM     88  C   UNL A   1      30.858  27.411  23.948  1.00  0.00     0.082 A 
ATOM     89  C   UNL A   1      32.120  27.778  23.485  1.00  0.00     0.055 A 
ATOM     90  C   UNL A   1      29.718  28.040  23.416  1.00  0.00     0.030 A 
ATOM     91  C   UNL A   1      32.283  28.758  22.495  1.00  0.00     0.021 A 
ATOM     92  C   UNL A   1      29.867  29.030  22.444  1.00  0.00     0.002 A 
ATOM     93  C   UNL A   1      31.136  29.382  21.990  1.00  0.00     0.002 A 
ENDBRANCH  83  85
ENDBRANCH  77  78
BRANCH  77  94
ATOM     94  C   UNL A   1      32.903  21.099  23.655  1.00  0.00     0.044 A 
ATOM     95  C   UNL A   1      32.069  21.387  22.590  1.00  0.00     0.094 A 
ATOM     96  C   UNL A   1      33.059  19.666  23.666  1.00  0.00     0.010 A 
ATOM     97  N   UNL A   1      31.778  20.221  21.934  1.00  0.00    -0.361 N 
ATOM     98  C   UNL A   1      32.413  19.161  22.539  1.00  0.00     0.046 A 
ATOM     99  C   UNL A   1      33.748  18.761  24.503  1.00  0.00     0.026 A 
ATOM    100  H   UNL A   1      31.198  20.152  21.142  1.00  0.00     0.166 HD
ATOM    101  C   UNL A   1      32.473  17.808  22.174  1.00  0.00     0.028 A 
ATOM    102  C   UNL A   1      33.837  17.415  24.137  1.00  0.00     0.018 A 
ATOM    103  C   UNL A   1      33.218  16.944  22.986  1.00  0.00     0.018 A 
ATOM    104  Br  UNL A   1      34.860  16.236  25.209  1.00  0.00    -0.051 Br
ENDBRANCH  77  94
ENDBRANCH  74  77
ENDBRANCH  72  73
ENDBRANCH   1  72
TORSDOF 13
ENDMDL
MODEL 3
REMARK VINA RESULT:     -13.2      4.376      9.116
REMARK SMILES O=C(NCCCNC(=O)[C@H](c1c[nH]c2ccc(Br)cc12)[N@H+]1CCC[C@H](c2nc3ccccc3s2)C1)c1ccc(-c2c3nc(c(-c4c(F)c(F)c(F)c(F)c4F)c4ccc([nH]4)c(-c4c(F)c(F)c(F)c(F)c4F)c4nc(c(-c5c(F)c(F)c(F)c(F)c5F)c5ccc2[nH]5)C=C4)C=C3)cc1
REMARK SMILES IDX 5 1 4 2 3 3 1 4 2 5 36 7 37 8 98 9 38 10 97 11 39 12 40 13
REMARK SMILES IDX 41 14 91 15 42 16 96 17 90 18 92 19 43 20 95 21 89 22 88 23
REMARK SMILES IDX 44 25 76 26 56 27 75 28 57 29 60 30 74 31 93 32 58 33 59 34
REMARK SMILES IDX 73 36 94 37 61 38 45 39 46 40 54 41 47 42 48 43 52 44 55 45
REMARK SMILES IDX 49 46 50 47 53 48 51 49 77 50 78 51 86 52 79 53 80 54 84 55
REMARK SMILES IDX 87 56 81 57 82 58 85 59 83 60 62 61 63 62 71 63 64 64 65 65
REMARK SMILES IDX 69 66 72 67 66 68 67 69 70 70 68 71 6 72 7 73 8 74 9 76
REMARK SMILES IDX 10 77 21 78 22 79 35 80 23 82 25 83 24 84 26 85 27 86 34 87
REMARK SMILES IDX 28 88 33 89 29 90 32 91 30 92 31 93 11 94 12 95 20 96 13 97
REMARK SMILES IDX 14 98 19 99 15 101 17 102 16 103 18 104
REMARK H PARENT 3 6 92 24 60 35 7 75 21 81 13 100
REMARK Flexibility Score: inf
ROOT
ATOM      1  C   UNL A   1      31.801  28.482  26.680  1.00  0.00     0.042 C 
ENDROOT
BRANCH   1   2
ATOM      2  C   UNL A   1      32.818  29.327  25.934  1.00  0.00     0.118 C 
BRANCH   2   3
ATOM      3  N   UNL A   1      32.623  30.740  26.219  1.00  0.00    -0.352 N 
ATOM      4  O   UNL A   1      32.717  32.592  27.489  1.00  0.00    -0.269 OA
ATOM      5  C   UNL A   1      33.248  31.542  27.144  1.00  0.00     0.251 C 
ATOM      6  H   UNL A   1      31.941  31.189  25.667  1.00  0.00     0.163 HD
BRANCH   5   7
ATOM      7  C   UNL A   1      34.556  31.150  27.715  1.00  0.00     0.039 A 
ATOM      8  C   UNL A   1      35.528  32.113  27.976  1.00  0.00     0.014 A 
ATOM      9  C   UNL A   1      34.790  29.820  28.081  1.00  0.00     0.014 A 
ATOM     10  C   UNL A   1      36.776  31.738  28.445  1.00  0.00     0.010 A 
ATOM     11  C   UNL A   1      35.995  29.465  28.698  1.00  0.00     0.010 A 
ATOM     12  C   UNL A   1      37.001  30.424  28.881  1.00  0.00    -0.014 A 
BRANCH  12  13
ATOM     13  C   UNL A   1      38.248  30.159  29.644  1.00  0.00     0.031 A 
ATOM     14  C   UNL A   1      38.438  30.651  31.046  1.00  0.00     0.074 A 
ATOM     15  C   UNL A   1      39.185  29.384  29.058  1.00  0.00     0.049 A 
ATOM     16  N   UNL A   1      39.435  30.425  31.864  1.00  0.00    -0.248 NA
ATOM     17  C   UNL A   1      37.389  31.517  31.603  1.00  0.00     0.031 C 
ATOM     18  C   UNL A   1      39.115  28.878  27.681  1.00  0.00     0.029 A 
ATOM     19  N   UNL A   1      40.346  28.841  29.544  1.00  0.00    -0.354 N 
ATOM     20  C   UNL A   1      39.142  31.126  33.025  1.00  0.00     0.074 A 
ATOM     21  C   UNL A   1      37.886  31.812  32.797  1.00  0.00     0.031 C 
ATOM     22  C   UNL A   1      40.129  28.030  27.468  1.00  0.00     0.029 A 
ATOM     23  C   UNL A   1      40.973  28.002  28.654  1.00  0.00     0.049 A 
ATOM     24  H   UNL A   1      40.697  29.033  30.444  1.00  0.00     0.167 HD
ATOM     25  C   UNL A   1      39.855  31.180  34.176  1.00  0.00     0.037 A 
ATOM     26  C   UNL A   1      42.112  27.297  28.769  1.00  0.00     0.037 A 
ATOM     27  C   UNL A   1      41.101  30.485  34.391  1.00  0.00     0.049 A 
ATOM     28  C   UNL A   1      42.875  27.378  30.058  1.00  0.00     0.074 A 
ATOM     29  C   UNL A   1      41.902  30.477  35.520  1.00  0.00     0.029 A 
ATOM     30  N   UNL A   1      41.726  29.672  33.455  1.00  0.00    -0.354 N 
ATOM     31  N   UNL A   1      42.578  28.037  31.152  1.00  0.00    -0.248 NA
ATOM     32  C   UNL A   1      44.132  26.626  30.129  1.00  0.00     0.031 C 
ATOM     33  C   UNL A   1      43.029  29.691  35.255  1.00  0.00     0.029 A 
ATOM     34  C   UNL A   1      42.907  29.168  33.977  1.00  0.00     0.049 A 
ATOM     35  H   UNL A   1      41.381  29.481  32.553  1.00  0.00     0.167 HD
ATOM     36  C   UNL A   1      43.610  27.782  32.040  1.00  0.00     0.074 A 
ATOM     37  C   UNL A   1      44.518  26.871  31.372  1.00  0.00     0.031 C 
ATOM     38  C   UNL A   1      43.801  28.272  33.290  1.00  0.00     0.037 A 
BRANCH  25  39
ATOM     39  C   UNL A   1      39.315  32.025  35.293  1.00  0.00     0.064 A 
ATOM     40  C   UNL A   1      38.500  31.483  36.298  1.00  0.00     0.173 A 
ATOM     41  C   UNL A   1      39.665  33.381  35.393  1.00  0.00     0.173 A 
ATOM     42  F   UNL A   1      38.126  30.195  36.243  1.00  0.00    -0.203 F 
ATOM     43  C   UNL A   1      38.044  32.269  37.354  1.00  0.00     0.198 A 
ATOM     44  C   UNL A   1      39.229  34.157  36.465  1.00  0.00     0.198 A 
ATOM     45  F   UNL A   1      40.446  33.949  34.463  1.00  0.00    -0.203 F 
ATOM     46  F   UNL A   1      37.240  31.737  38.284  1.00  0.00    -0.200 F 
ATOM     47  C   UNL A   1      38.416  33.602  37.441  1.00  0.00     0.200 A 
ATOM     48  F   UNL A   1      39.601  35.442  36.555  1.00  0.00    -0.200 F 
ATOM     49  F   UNL A   1      37.988  34.353  38.465  1.00  0.00    -0.200 F 
ENDBRANCH  25  39
BRANCH  26  50
ATOM     50  C   UNL A   1      42.606  26.484  27.625  1.00  0.00     0.064 A 
ATOM     51  C   UNL A   1      42.137  25.184  27.397  1.00  0.00     0.173 A 
ATOM     52  C   UNL A   1      43.560  26.998  26.734  1.00  0.00     0.173 A 
ATOM     53  F   UNL A   1      41.237  24.640  28.229  1.00  0.00    -0.203 F 
ATOM     54  C   UNL A   1      42.621  24.420  26.336  1.00  0.00     0.198 A 
ATOM     55  C   UNL A   1      44.015  26.249  25.651  1.00  0.00     0.198 A 
ATOM     56  F   UNL A   1      44.038  28.240  26.902  1.00  0.00    -0.203 F 
ATOM     57  F   UNL A   1      42.196  23.161  26.172  1.00  0.00    -0.200 F 
ATOM     58  C   UNL A   1      43.553  24.956  25.460  1.00  0.00     0.200 A 
ATOM     59  F   UNL A   1      44.899  26.780  24.797  1.00  0.00    -0.200 F 
ATOM     60  F   UNL A   1      44.013  24.224  24.436  1.00  0.00    -0.200 F 
ENDBRANCH  26  50
BRANCH  38  61
ATOM     61  C   UNL A   1      45.038  27.815  34.005  1.00  0.00     0.064 A 
ATOM     62  C   UNL A   1      46.244  28.526  33.910  1.00  0.00     0.173 A 
ATOM     63  C   UNL A   1      45.021  26.650  34.786  1.00  0.00     0.173 A 
ATOM     64  F   UNL A   1      46.315  29.636  33.159  1.00  0.00    -0.203 F 
ATOM     65  C   UNL A   1      47.396  28.067  34.539  1.00  0.00     0.198 A 
ATOM     66  C   UNL A   1      46.167  26.211  35.440  1.00  0.00     0.198 A 
ATOM     67  F   UNL A   1      43.891  25.937  34.912  1.00  0.00    -0.203 F 
ATOM     68  F   UNL A   1      48.552  28.726  34.381  1.00  0.00    -0.200 F 
ATOM     69  C   UNL A   1      47.357  26.912  35.306  1.00  0.00     0.200 A 
ATOM     70  F   UNL A   1      46.125  25.101  36.189  1.00  0.00    -0.200 F 
ATOM     71  F   UNL A   1      48.469  26.467  35.908  1.00  0.00    -0.200 F 
ENDBRANCH  38  61
ENDBRANCH  12  13
ENDBRANCH   5   7
ENDBRANCH   2   3
ENDBRANCH   1   2
BRANCH   1  72
ATOM     72  C   UNL A   1      31.409  27.252  25.872  1.00  0.00     0.118 C 
BRANCH  72  73
ATOM     73  N   UNL A   1      31.182  26.134  26.766  1.00  0.00    -0.351 N 
ATOM     74  C   UNL A   1      31.202  24.798  26.439  1.00  0.00     0.283 C 
ATOM     75  H   UNL A   1      30.996  26.354  27.707  1.00  0.00     0.163 HD
ATOM     76  O   UNL A   1      30.700  24.022  27.256  1.00  0.00    -0.268 OA
BRANCH  74  77
ATOM     77  C   UNL A   1      31.896  24.368  25.111  1.00  0.00     0.307 C 
BRANCH  77  78
ATOM     78  N   UNL A   1      32.022  25.463  24.112  1.00  0.00    -0.320 N 
ATOM     79  C   UNL A   1      33.419  25.888  23.968  1.00  0.00     0.263 C 
ATOM     80  C   UNL A   1      31.396  25.187  22.803  1.00  0.00     0.274 C 
ATOM     81  H   UNL A   1      31.481  26.238  24.496  1.00  0.00     0.349 HD
ATOM     82  C   UNL A   1      33.574  27.081  23.025  1.00  0.00     0.062 C 
ATOM     83  C   UNL A   1      31.459  26.382  21.822  1.00  0.00     0.104 C 
ATOM     84  C   UNL A   1      32.927  26.813  21.670  1.00  0.00     0.022 C 
BRANCH  83  85
ATOM     85  C   UNL A   1      30.540  27.496  22.282  1.00  0.00     0.103 A 
ATOM     86  N   UNL A   1      30.753  28.767  22.021  1.00  0.00    -0.241 NA
ATOM     87  S   UNL A   1      29.144  27.185  23.239  1.00  0.00    -0.118 S 
ATOM     88  C   UNL A   1      29.688  29.531  22.427  1.00  0.00     0.082 A 
ATOM     89  C   UNL A   1      28.691  28.843  23.117  1.00  0.00     0.055 A 
ATOM     90  C   UNL A   1      29.537  30.910  22.191  1.00  0.00     0.030 A 
ATOM     91  C   UNL A   1      27.541  29.492  23.586  1.00  0.00     0.021 A 
ATOM     92  C   UNL A   1      28.388  31.564  22.637  1.00  0.00     0.002 A 
ATOM     93  C   UNL A   1      27.404  30.862  23.327  1.00  0.00     0.002 A 
ENDBRANCH  83  85
ENDBRANCH  77  78
BRANCH  77  94
ATOM     94  C   UNL A   1      33.218  23.687  25.375  1.00  0.00     0.044 A 
ATOM     95  C   UNL A   1      34.302  24.158  26.093  1.00  0.00     0.094 A 
ATOM     96  C   UNL A   1      33.544  22.334  24.999  1.00  0.00     0.010 A 
ATOM     97  N   UNL A   1      35.216  23.147  26.219  1.00  0.00    -0.361 N 
ATOM     98  C   UNL A   1      34.755  22.005  25.606  1.00  0.00     0.046 A 
ATOM     99  C   UNL A   1      32.882  21.338  24.246  1.00  0.00     0.026 A 
ATOM    100  H   UNL A   1      36.080  23.226  26.685  1.00  0.00     0.166 HD
ATOM    101  C   UNL A   1      35.306  20.716  25.549  1.00  0.00     0.028 A 
ATOM    102  C   UNL A   1      33.407  20.044  24.203  1.00  0.00     0.018 A 
ATOM    103  C   UNL A   1      34.596  19.732  24.851  1.00  0.00     0.018 A 
ATOM    104  Br  UNL A   1      32.449  18.693  23.284  1.00  0.00    -0.051 Br
ENDBRANCH  77  94
ENDBRANCH  74  77
ENDBRANCH  72  73
ENDBRANCH   1  72
TORSDOF 13
ENDMDL
