MODEL 1
REMARK VINA RESULT:     -13.2      0.000      0.000
REMARK SMILES COc1ccc(C)cc1[C@@H](C)NC(=O)CC1(C(=O)NCCCNC(=O)c2ccc(-c3c4nc(c(-c5c(F)c(F)c(F)c(F)c5F)c5ccc([nH]5)c(-c5c(F)c(F)c(F)c(F)c5F)c5nc(c(-c6c(F)c(F)c(F)c(F)c6F)c6ccc3[nH]6)C=C5)C=C4)cc2)CCCC1
REMARK SMILES IDX 17 1 18 2 19 3 16 5 89 6 92 7 90 8 91 9 15 10 13 11 12 12
REMARK SMILES IDX 14 14 10 15 11 16 9 17 3 18 4 19 5 20 8 21 6 22 7 23 2 24
REMARK SMILES IDX 1 25 20 26 21 27 22 28 23 29 24 30 25 32 26 33 27 34 88 35
REMARK SMILES IDX 28 36 87 37 29 38 30 39 31 40 81 41 32 42 86 43 80 44 82 45
REMARK SMILES IDX 33 46 85 47 79 48 78 49 34 51 66 52 46 53 65 54 47 55 50 56
REMARK SMILES IDX 64 57 83 58 48 59 49 60 63 62 84 63 51 64 35 65 36 66 44 67
REMARK SMILES IDX 37 68 38 69 42 70 45 71 39 72 40 73 43 74 41 75 67 76 68 77
REMARK SMILES IDX 76 78 69 79 70 80 74 81 77 82 71 83 72 84 75 85 73 86 52 87
REMARK SMILES IDX 53 88 61 89 54 90 55 91 59 92 62 93 56 94 57 95 60 96 58 97
REMARK H PARENT 19 4 12 13 23 31 82 50 50 61
REMARK Flexibility Score: inf
ROOT
ATOM      1  C   UNL A   1      32.840  28.702  23.946  1.00  0.00     0.226 C 
ATOM      2  O   UNL A   1      33.218  28.949  22.790  1.00  0.00    -0.274 OA
ATOM      3  N   UNL A   1      32.481  29.821  24.620  1.00  0.00    -0.356 N 
ATOM      4  H   UNL A   1      32.896  30.629  24.239  1.00  0.00     0.163 HD
ENDROOT
BRANCH   1   5
ATOM      5  C   UNL A   1      32.736  27.223  24.427  1.00  0.00     0.058 C 
ATOM      6  C   UNL A   1      31.249  26.898  24.716  1.00  0.00     0.017 C 
ATOM      7  C   UNL A   1      33.446  26.865  25.739  1.00  0.00     0.017 C 
ATOM      8  C   UNL A   1      31.044  26.921  26.224  1.00  0.00     0.001 C 
ATOM      9  C   UNL A   1      32.418  26.870  26.864  1.00  0.00     0.001 C 
BRANCH   5  10
ATOM     10  C   UNL A   1      33.238  26.307  23.236  1.00  0.00     0.117 C 
BRANCH  10  11
ATOM     11  C   UNL A   1      32.189  25.628  22.366  1.00  0.00     0.221 C 
ATOM     12  N   UNL A   1      32.081  24.278  22.285  1.00  0.00    -0.349 N 
ATOM     13  H   UNL A   1      31.373  23.956  21.682  1.00  0.00     0.164 HD
ATOM     14  O   UNL A   1      31.403  26.302  21.693  1.00  0.00    -0.275 OA
BRANCH  12  15
ATOM     15  C   UNL A   1      32.845  23.229  22.946  1.00  0.00     0.113 C 
ATOM     16  C   UNL A   1      32.528  21.862  22.340  1.00  0.00     0.036 C 
BRANCH  15  17
ATOM     17  C   UNL A   1      32.586  23.234  24.445  1.00  0.00     0.016 A 
ATOM     18  C   UNL A   1      33.656  23.187  25.349  1.00  0.00     0.124 A 
ATOM     19  C   UNL A   1      33.428  23.263  26.723  1.00  0.00     0.047 A 
ATOM     20  C   UNL A   1      32.130  23.290  27.226  1.00  0.00     0.007 A 
ATOM     21  C   UNL A   1      31.278  23.231  24.968  1.00  0.00     0.013 A 
ATOM     22  C   UNL A   1      31.043  23.255  26.351  1.00  0.00    -0.051 A 
ATOM     23  C   UNL A   1      29.642  23.181  26.885  1.00  0.00     0.044 C 
BRANCH  18  24
ATOM     24  O   UNL A   1      34.913  23.092  24.824  1.00  0.00    -0.496 OA
ATOM     25  C   UNL A   1      35.829  24.079  25.272  1.00  0.00     0.278 C 
ENDBRANCH  18  24
ENDBRANCH  15  17
ENDBRANCH  12  15
ENDBRANCH  10  11
ENDBRANCH   5  10
ENDBRANCH   1   5
BRANCH   3  26
ATOM     26  C   UNL A   1      31.642  30.131  25.763  1.00  0.00     0.117 C 
BRANCH  26  27
ATOM     27  C   UNL A   1      32.235  31.140  26.736  1.00  0.00     0.042 C 
BRANCH  27  28
ATOM     28  C   UNL A   1      33.392  30.619  27.576  1.00  0.00     0.118 C 
BRANCH  28  29
ATOM     29  N   UNL A   1      34.048  31.636  28.393  1.00  0.00    -0.352 N 
ATOM     30  C   UNL A   1      35.271  31.585  29.048  1.00  0.00     0.251 C 
ATOM     31  H   UNL A   1      33.551  32.479  28.495  1.00  0.00     0.163 HD
ATOM     32  O   UNL A   1      35.680  32.538  29.677  1.00  0.00    -0.269 OA
BRANCH  30  33
ATOM     33  C   UNL A   1      36.127  30.385  28.870  1.00  0.00     0.039 A 
ATOM     34  C   UNL A   1      36.450  29.626  30.000  1.00  0.00     0.014 A 
ATOM     35  C   UNL A   1      36.738  30.119  27.650  1.00  0.00     0.014 A 
ATOM     36  C   UNL A   1      37.565  28.789  29.964  1.00  0.00     0.010 A 
ATOM     37  C   UNL A   1      37.889  29.355  27.636  1.00  0.00     0.010 A 
ATOM     38  C   UNL A   1      38.353  28.762  28.813  1.00  0.00    -0.014 A 
BRANCH  38  39
ATOM     39  C   UNL A   1      39.750  28.329  28.817  1.00  0.00     0.031 A 
ATOM     40  C   UNL A   1      40.153  26.970  28.399  1.00  0.00     0.074 A 
ATOM     41  C   UNL A   1      40.710  29.244  29.087  1.00  0.00     0.049 A 
ATOM     42  N   UNL A   1      41.257  26.403  28.760  1.00  0.00    -0.248 NA
ATOM     43  C   UNL A   1      39.326  26.122  27.554  1.00  0.00     0.031 C 
ATOM     44  C   UNL A   1      42.142  29.135  28.817  1.00  0.00     0.029 A 
ATOM     45  N   UNL A   1      40.585  30.435  29.809  1.00  0.00    -0.354 N 
ATOM     46  C   UNL A   1      41.422  25.271  27.994  1.00  0.00     0.074 A 
ATOM     47  C   UNL A   1      40.161  25.107  27.308  1.00  0.00     0.031 C 
ATOM     48  C   UNL A   1      42.796  30.052  29.544  1.00  0.00     0.029 A 
ATOM     49  C   UNL A   1      41.828  30.681  30.423  1.00  0.00     0.049 A 
ATOM     50  H   UNL A   1      39.778  30.995  29.877  1.00  0.00     0.167 HD
ATOM     51  C   UNL A   1      42.655  24.682  27.926  1.00  0.00     0.037 A 
ATOM     52  C   UNL A   1      41.933  30.747  31.782  1.00  0.00     0.037 A 
ATOM     53  C   UNL A   1      43.625  25.384  28.767  1.00  0.00     0.049 A 
ATOM     54  C   UNL A   1      42.812  29.671  32.374  1.00  0.00     0.074 A 
ATOM     55  C   UNL A   1      44.607  26.317  28.475  1.00  0.00     0.029 A 
ATOM     56  N   UNL A   1      43.479  25.390  30.152  1.00  0.00    -0.354 N 
ATOM     57  N   UNL A   1      43.178  28.600  31.728  1.00  0.00    -0.248 NA
ATOM     58  C   UNL A   1      43.303  29.690  33.749  1.00  0.00     0.031 C 
ATOM     59  C   UNL A   1      45.024  26.915  29.688  1.00  0.00     0.029 A 
ATOM     60  C   UNL A   1      44.306  26.339  30.722  1.00  0.00     0.049 A 
ATOM     61  H   UNL A   1      42.871  24.800  30.654  1.00  0.00     0.167 HD
ATOM     62  C   UNL A   1      43.888  27.783  32.566  1.00  0.00     0.074 A 
ATOM     63  C   UNL A   1      43.961  28.520  33.813  1.00  0.00     0.031 C 
ATOM     64  C   UNL A   1      44.333  26.558  32.160  1.00  0.00     0.037 A 
BRANCH  51  65
ATOM     65  C   UNL A   1      43.063  23.675  26.863  1.00  0.00     0.064 A 
ATOM     66  C   UNL A   1      42.706  22.312  26.977  1.00  0.00     0.173 A 
ATOM     67  C   UNL A   1      43.852  23.974  25.737  1.00  0.00     0.173 A 
ATOM     68  F   UNL A   1      41.840  21.887  27.904  1.00  0.00    -0.203 F 
ATOM     69  C   UNL A   1      43.224  21.322  26.134  1.00  0.00     0.198 A 
ATOM     70  C   UNL A   1      44.414  22.982  24.926  1.00  0.00     0.198 A 
ATOM     71  F   UNL A   1      44.049  25.236  25.341  1.00  0.00    -0.203 F 
ATOM     72  F   UNL A   1      42.859  20.044  26.307  1.00  0.00    -0.200 F 
ATOM     73  C   UNL A   1      44.115  21.652  25.136  1.00  0.00     0.200 A 
ATOM     74  F   UNL A   1      45.249  23.328  23.935  1.00  0.00    -0.200 F 
ATOM     75  F   UNL A   1      44.651  20.701  24.361  1.00  0.00    -0.200 F 
ENDBRANCH  51  65
BRANCH  52  76
ATOM     76  C   UNL A   1      40.713  31.302  32.425  1.00  0.00     0.064 A 
ATOM     77  C   UNL A   1      40.474  32.685  32.305  1.00  0.00     0.173 A 
ATOM     78  C   UNL A   1      39.628  30.483  32.763  1.00  0.00     0.173 A 
ATOM     79  F   UNL A   1      41.479  33.509  31.966  1.00  0.00    -0.203 F 
ATOM     80  C   UNL A   1      39.187  33.207  32.394  1.00  0.00     0.198 A 
ATOM     81  C   UNL A   1      38.341  31.013  32.865  1.00  0.00     0.198 A 
ATOM     82  F   UNL A   1      39.785  29.155  32.858  1.00  0.00    -0.203 F 
ATOM     83  F   UNL A   1      38.975  34.508  32.144  1.00  0.00    -0.200 F 
ATOM     84  C   UNL A   1      38.117  32.367  32.645  1.00  0.00     0.200 A 
ATOM     85  F   UNL A   1      37.297  30.195  33.065  1.00  0.00    -0.200 F 
ATOM     86  F   UNL A   1      36.866  32.846  32.620  1.00  0.00    -0.200 F 
ENDBRANCH  52  76
BRANCH  64  87
ATOM     87  C   UNL A   1      44.923  25.498  33.053  1.00  0.00     0.064 A 
ATOM     88  C   UNL A   1      46.294  25.198  33.109  1.00  0.00     0.173 A 
ATOM     89  C   UNL A   1      44.113  24.836  34.007  1.00  0.00     0.173 A 
ATOM     90  F   UNL A   1      47.179  25.845  32.338  1.00  0.00    -0.203 F 
ATOM     91  C   UNL A   1      46.809  24.258  34.007  1.00  0.00     0.198 A 
ATOM     92  C   UNL A   1      44.639  23.942  34.939  1.00  0.00     0.198 A 
ATOM     93  F   UNL A   1      42.793  25.058  34.079  1.00  0.00    -0.203 F 
ATOM     94  F   UNL A   1      48.120  23.977  33.991  1.00  0.00    -0.200 F 
ATOM     95  C   UNL A   1      45.985  23.640  34.927  1.00  0.00     0.200 A 
ATOM     96  F   UNL A   1      43.836  23.388  35.859  1.00  0.00    -0.200 F 
ATOM     97  F   UNL A   1      46.490  22.773  35.815  1.00  0.00    -0.200 F 
ENDBRANCH  64  87
ENDBRANCH  38  39
ENDBRANCH  30  33
ENDBRANCH  28  29
ENDBRANCH  27  28
ENDBRANCH  26  27
ENDBRANCH   3  26
TORSDOF 15
ENDMDL
MODEL 2
REMARK VINA RESULT:     -12.8      2.999      9.232
REMARK SMILES COc1ccc(C)cc1[C@@H](C)NC(=O)CC1(C(=O)NCCCNC(=O)c2ccc(-c3c4nc(c(-c5c(F)c(F)c(F)c(F)c5F)c5ccc([nH]5)c(-c5c(F)c(F)c(F)c(F)c5F)c5nc(c(-c6c(F)c(F)c(F)c(F)c6F)c6ccc3[nH]6)C=C5)C=C4)cc2)CCCC1
REMARK SMILES IDX 17 1 18 2 19 3 16 5 89 6 92 7 90 8 91 9 15 10 13 11 12 12
REMARK SMILES IDX 14 14 10 15 11 16 9 17 3 18 4 19 5 20 8 21 6 22 7 23 2 24
REMARK SMILES IDX 1 25 20 26 21 27 22 28 23 29 24 30 25 32 26 33 27 34 88 35
REMARK SMILES IDX 28 36 87 37 29 38 30 39 31 40 81 41 32 42 86 43 80 44 82 45
REMARK SMILES IDX 33 46 85 47 79 48 78 49 34 51 66 52 46 53 65 54 47 55 50 56
REMARK SMILES IDX 64 57 83 58 48 59 49 60 63 62 84 63 51 64 35 65 36 66 44 67
REMARK SMILES IDX 37 68 38 69 42 70 45 71 39 72 40 73 43 74 41 75 67 76 68 77
REMARK SMILES IDX 76 78 69 79 70 80 74 81 77 82 71 83 72 84 75 85 73 86 52 87
REMARK SMILES IDX 53 88 61 89 54 90 55 91 59 92 62 93 56 94 57 95 60 96 58 97
REMARK H PARENT 19 4 12 13 23 31 82 50 50 61
REMARK Flexibility Score: inf
ROOT
ATOM      1  C   UNL A   1      34.540  22.115  26.501  1.00  0.00     0.226 C 
ATOM      2  O   UNL A   1      33.974  21.815  27.565  1.00  0.00    -0.274 OA
ATOM      3  N   UNL A   1      35.563  21.276  26.209  1.00  0.00    -0.356 N 
ATOM      4  H   UNL A   1      35.904  20.819  27.011  1.00  0.00     0.163 HD
ENDROOT
BRANCH   1   5
ATOM      5  C   UNL A   1      33.986  23.285  25.633  1.00  0.00     0.058 C 
ATOM      6  C   UNL A   1      33.662  22.744  24.219  1.00  0.00     0.017 C 
ATOM      7  C   UNL A   1      34.933  24.461  25.362  1.00  0.00     0.017 C 
ATOM      8  C   UNL A   1      34.776  23.181  23.278  1.00  0.00     0.001 C 
ATOM      9  C   UNL A   1      35.552  24.277  23.982  1.00  0.00     0.001 C 
BRANCH   5  10
ATOM     10  C   UNL A   1      32.642  23.777  26.313  1.00  0.00     0.117 C 
BRANCH  10  11
ATOM     11  C   UNL A   1      31.324  23.319  25.703  1.00  0.00     0.221 C 
ATOM     12  N   UNL A   1      30.435  24.192  25.167  1.00  0.00    -0.349 N 
ATOM     13  H   UNL A   1      29.614  23.779  24.813  1.00  0.00     0.164 HD
ATOM     14  O   UNL A   1      31.024  22.122  25.691  1.00  0.00    -0.275 OA
BRANCH  12  15
ATOM     15  C   UNL A   1      30.499  25.640  25.030  1.00  0.00     0.113 C 
ATOM     16  C   UNL A   1      29.139  26.208  24.626  1.00  0.00     0.036 C 
BRANCH  15  17
ATOM     17  C   UNL A   1      31.575  26.042  24.033  1.00  0.00     0.016 A 
ATOM     18  C   UNL A   1      32.552  26.984  24.386  1.00  0.00     0.124 A 
ATOM     19  C   UNL A   1      33.582  27.303  23.502  1.00  0.00     0.047 A 
ATOM     20  C   UNL A   1      33.606  26.766  22.218  1.00  0.00     0.007 A 
ATOM     21  C   UNL A   1      31.595  25.530  22.721  1.00  0.00     0.013 A 
ATOM     22  C   UNL A   1      32.601  25.889  21.810  1.00  0.00    -0.051 A 
ATOM     23  C   UNL A   1      32.560  25.384  20.397  1.00  0.00     0.044 C 
BRANCH  18  24
ATOM     24  O   UNL A   1      32.460  27.542  25.629  1.00  0.00    -0.496 OA
ATOM     25  C   UNL A   1      33.702  27.854  26.243  1.00  0.00     0.278 C 
ENDBRANCH  18  24
ENDBRANCH  15  17
ENDBRANCH  12  15
ENDBRANCH  10  11
ENDBRANCH   5  10
ENDBRANCH   1   5
BRANCH   3  26
ATOM     26  C   UNL A   1      36.285  20.883  25.013  1.00  0.00     0.117 C 
BRANCH  26  27
ATOM     27  C   UNL A   1      37.800  20.870  25.156  1.00  0.00     0.042 C 
BRANCH  27  28
ATOM     28  C   UNL A   1      38.398  22.130  25.764  1.00  0.00     0.118 C 
BRANCH  28  29
ATOM     29  N   UNL A   1      39.833  22.049  26.024  1.00  0.00    -0.352 N 
ATOM     30  C   UNL A   1      40.702  23.033  26.479  1.00  0.00     0.251 C 
ATOM     31  H   UNL A   1      40.244  21.171  25.853  1.00  0.00     0.163 HD
ATOM     32  O   UNL A   1      41.876  22.788  26.661  1.00  0.00    -0.269 OA
BRANCH  30  33
ATOM     33  C   UNL A   1      40.148  24.359  26.852  1.00  0.00     0.039 A 
ATOM     34  C   UNL A   1      40.618  25.488  26.173  1.00  0.00     0.014 A 
ATOM     35  C   UNL A   1      39.320  24.501  27.959  1.00  0.00     0.014 A 
ATOM     36  C   UNL A   1      40.474  26.745  26.761  1.00  0.00     0.010 A 
ATOM     37  C   UNL A   1      39.248  25.732  28.581  1.00  0.00     0.010 A 
ATOM     38  C   UNL A   1      39.901  26.837  28.029  1.00  0.00    -0.014 A 
BRANCH  38  39
ATOM     39  C   UNL A   1      40.126  27.973  28.922  1.00  0.00     0.031 A 
ATOM     40  C   UNL A   1      39.194  29.117  28.988  1.00  0.00     0.074 A 
ATOM     41  C   UNL A   1      41.150  27.908  29.805  1.00  0.00     0.049 A 
ATOM     42  N   UNL A   1      39.524  30.292  29.414  1.00  0.00    -0.248 NA
ATOM     43  C   UNL A   1      37.808  29.038  28.554  1.00  0.00     0.031 C 
ATOM     44  C   UNL A   1      41.353  28.737  30.991  1.00  0.00     0.029 A 
ATOM     45  N   UNL A   1      42.316  27.142  29.716  1.00  0.00    -0.354 N 
ATOM     46  C   UNL A   1      38.370  31.024  29.578  1.00  0.00     0.074 A 
ATOM     47  C   UNL A   1      37.338  30.220  28.966  1.00  0.00     0.031 C 
ATOM     48  C   UNL A   1      42.630  28.630  31.387  1.00  0.00     0.029 A 
ATOM     49  C   UNL A   1      43.332  27.853  30.384  1.00  0.00     0.049 A 
ATOM     50  H   UNL A   1      42.410  26.271  29.268  1.00  0.00     0.167 HD
ATOM     51  C   UNL A   1      38.401  32.163  30.335  1.00  0.00     0.037 A 
ATOM     52  C   UNL A   1      44.449  28.264  29.717  1.00  0.00     0.037 A 
ATOM     53  C   UNL A   1      39.751  32.436  30.829  1.00  0.00     0.049 A 
ATOM     54  C   UNL A   1      44.605  29.765  29.667  1.00  0.00     0.074 A 
ATOM     55  C   UNL A   1      40.359  32.204  32.052  1.00  0.00     0.029 A 
ATOM     56  N   UNL A   1      40.772  32.756  29.938  1.00  0.00    -0.354 N 
ATOM     57  N   UNL A   1      43.643  30.601  29.935  1.00  0.00    -0.248 NA
ATOM     58  C   UNL A   1      45.836  30.439  29.263  1.00  0.00     0.031 C 
ATOM     59  C   UNL A   1      41.757  32.347  31.886  1.00  0.00     0.029 A 
ATOM     60  C   UNL A   1      42.002  32.678  30.564  1.00  0.00     0.049 A 
ATOM     61  H   UNL A   1      40.637  33.004  28.995  1.00  0.00     0.167 HD
ATOM     62  C   UNL A   1      44.074  31.881  29.709  1.00  0.00     0.074 A 
ATOM     63  C   UNL A   1      45.462  31.729  29.314  1.00  0.00     0.031 C 
ATOM     64  C   UNL A   1      43.238  32.951  29.847  1.00  0.00     0.037 A 
BRANCH  51  65
ATOM     65  C   UNL A   1      37.165  32.852  30.892  1.00  0.00     0.064 A 
ATOM     66  C   UNL A   1      36.710  32.581  32.203  1.00  0.00     0.173 A 
ATOM     67  C   UNL A   1      36.352  33.745  30.171  1.00  0.00     0.173 A 
ATOM     68  F   UNL A   1      37.443  31.872  33.070  1.00  0.00    -0.203 F 
ATOM     69  C   UNL A   1      35.477  33.035  32.684  1.00  0.00     0.198 A 
ATOM     70  C   UNL A   1      35.095  34.156  30.628  1.00  0.00     0.198 A 
ATOM     71  F   UNL A   1      36.775  34.306  29.033  1.00  0.00    -0.203 F 
ATOM     72  F   UNL A   1      35.095  32.728  33.931  1.00  0.00    -0.200 F 
ATOM     73  C   UNL A   1      34.648  33.786  31.878  1.00  0.00     0.200 A 
ATOM     74  F   UNL A   1      34.320  34.919  29.842  1.00  0.00    -0.200 F 
ATOM     75  F   UNL A   1      33.445  34.178  32.318  1.00  0.00    -0.200 F 
ENDBRANCH  51  65
BRANCH  52  76
ATOM     76  C   UNL A   1      44.847  27.328  28.633  1.00  0.00     0.064 A 
ATOM     77  C   UNL A   1      45.436  26.103  29.002  1.00  0.00     0.173 A 
ATOM     78  C   UNL A   1      44.300  27.424  27.347  1.00  0.00     0.173 A 
ATOM     79  F   UNL A   1      45.959  25.956  30.230  1.00  0.00    -0.203 F 
ATOM     80  C   UNL A   1      45.368  24.988  28.170  1.00  0.00     0.198 A 
ATOM     81  C   UNL A   1      44.246  26.307  26.512  1.00  0.00     0.198 A 
ATOM     82  F   UNL A   1      43.694  28.552  26.951  1.00  0.00    -0.203 F 
ATOM     83  F   UNL A   1      45.822  23.803  28.604  1.00  0.00    -0.200 F 
ATOM     84  C   UNL A   1      44.748  25.084  26.937  1.00  0.00     0.200 A 
ATOM     85  F   UNL A   1      43.607  26.385  25.335  1.00  0.00    -0.200 F 
ATOM     86  F   UNL A   1      44.581  23.988  26.183  1.00  0.00    -0.200 F 
ENDBRANCH  52  76
BRANCH  64  87
ATOM     87  C   UNL A   1      43.540  34.363  29.415  1.00  0.00     0.064 A 
ATOM     88  C   UNL A   1      43.735  35.427  30.310  1.00  0.00     0.173 A 
ATOM     89  C   UNL A   1      43.788  34.655  28.053  1.00  0.00     0.173 A 
ATOM     90  F   UNL A   1      43.646  35.248  31.635  1.00  0.00    -0.203 F 
ATOM     91  C   UNL A   1      44.088  36.706  29.870  1.00  0.00     0.198 A 
ATOM     92  C   UNL A   1      44.195  35.918  27.624  1.00  0.00     0.198 A 
ATOM     93  F   UNL A   1      43.668  33.718  27.103  1.00  0.00    -0.203 F 
ATOM     94  F   UNL A   1      44.221  37.700  30.761  1.00  0.00    -0.200 F 
ATOM     95  C   UNL A   1      44.328  36.949  28.532  1.00  0.00     0.200 A 
ATOM     96  F   UNL A   1      44.474  36.125  26.329  1.00  0.00    -0.200 F 
ATOM     97  F   UNL A   1      44.709  38.166  28.120  1.00  0.00    -0.200 F 
ENDBRANCH  64  87
ENDBRANCH  38  39
ENDBRANCH  30  33
ENDBRANCH  28  29
ENDBRANCH  27  28
ENDBRANCH  26  27
ENDBRANCH   3  26
TORSDOF 15
ENDMDL
MODEL 3
REMARK VINA RESULT:     -12.7      1.097      2.238
REMARK SMILES COc1ccc(C)cc1[C@@H](C)NC(=O)CC1(C(=O)NCCCNC(=O)c2ccc(-c3c4nc(c(-c5c(F)c(F)c(F)c(F)c5F)c5ccc([nH]5)c(-c5c(F)c(F)c(F)c(F)c5F)c5nc(c(-c6c(F)c(F)c(F)c(F)c6F)c6ccc3[nH]6)C=C5)C=C4)cc2)CCCC1
REMARK SMILES IDX 17 1 18 2 19 3 16 5 89 6 92 7 90 8 91 9 15 10 13 11 12 12
REMARK SMILES IDX 14 14 10 15 11 16 9 17 3 18 4 19 5 20 8 21 6 22 7 23 2 24
REMARK SMILES IDX 1 25 20 26 21 27 22 28 23 29 24 30 25 32 26 33 27 34 88 35
REMARK SMILES IDX 28 36 87 37 29 38 30 39 31 40 81 41 32 42 86 43 80 44 82 45
REMARK SMILES IDX 33 46 85 47 79 48 78 49 34 51 66 52 46 53 65 54 47 55 50 56
REMARK SMILES IDX 64 57 83 58 48 59 49 60 63 62 84 63 51 64 35 65 36 66 44 67
REMARK SMILES IDX 37 68 38 69 42 70 45 71 39 72 40 73 43 74 41 75 67 76 68 77
REMARK SMILES IDX 76 78 69 79 70 80 74 81 77 82 71 83 72 84 75 85 73 86 52 87
REMARK SMILES IDX 53 88 61 89 54 90 55 91 59 92 62 93 56 94 57 95 60 96 58 97
REMARK H PARENT 19 4 12 13 23 31 82 50 50 61
REMARK Flexibility Score: inf
ROOT
ATOM      1  C   UNL A   1      33.362  28.637  23.933  1.00  0.00     0.226 C 
ATOM      2  O   UNL A   1      34.219  28.946  23.089  1.00  0.00    -0.274 OA
ATOM      3  N   UNL A   1      33.069  29.663  24.768  1.00  0.00    -0.356 N 
ATOM      4  H   UNL A   1      33.795  30.327  24.803  1.00  0.00     0.163 HD
ENDROOT
BRANCH   1   5
ATOM      5  C   UNL A   1      32.695  27.229  23.878  1.00  0.00     0.058 C 
ATOM      6  C   UNL A   1      33.029  26.573  22.517  1.00  0.00     0.017 C 
ATOM      7  C   UNL A   1      31.162  27.182  23.936  1.00  0.00     0.017 C 
ATOM      8  C   UNL A   1      31.802  26.684  21.623  1.00  0.00     0.001 C 
ATOM      9  C   UNL A   1      30.628  27.035  22.517  1.00  0.00     0.001 C 
BRANCH   5  10
ATOM     10  C   UNL A   1      33.338  26.361  25.037  1.00  0.00     0.117 C 
BRANCH  10  11
ATOM     11  C   UNL A   1      32.436  25.389  25.785  1.00  0.00     0.221 C 
ATOM     12  N   UNL A   1      32.121  24.167  25.286  1.00  0.00    -0.349 N 
ATOM     13  H   UNL A   1      31.521  23.632  25.854  1.00  0.00     0.164 HD
ATOM     14  O   UNL A   1      31.953  25.698  26.878  1.00  0.00    -0.275 OA
BRANCH  12  15
ATOM     15  C   UNL A   1      32.526  23.521  24.045  1.00  0.00     0.113 C 
ATOM     16  C   UNL A   1      31.324  23.308  23.126  1.00  0.00     0.036 C 
BRANCH  15  17
ATOM     17  C   UNL A   1      33.235  22.205  24.329  1.00  0.00     0.016 A 
ATOM     18  C   UNL A   1      34.591  22.193  24.685  1.00  0.00     0.124 A 
ATOM     19  C   UNL A   1      35.227  20.996  25.015  1.00  0.00     0.047 A 
ATOM     20  C   UNL A   1      34.556  19.782  24.903  1.00  0.00     0.007 A 
ATOM     21  C   UNL A   1      32.577  20.967  24.191  1.00  0.00     0.013 A 
ATOM     22  C   UNL A   1      33.228  19.756  24.472  1.00  0.00    -0.051 A 
ATOM     23  C   UNL A   1      32.528  18.448  24.251  1.00  0.00     0.044 C 
BRANCH  18  24
ATOM     24  O   UNL A   1      35.237  23.395  24.719  1.00  0.00    -0.496 OA
ATOM     25  C   UNL A   1      35.922  23.677  25.930  1.00  0.00     0.278 C 
ENDBRANCH  18  24
ENDBRANCH  15  17
ENDBRANCH  12  15
ENDBRANCH  10  11
ENDBRANCH   5  10
ENDBRANCH   1   5
BRANCH   3  26
ATOM     26  C   UNL A   1      31.956  30.031  25.624  1.00  0.00     0.117 C 
BRANCH  26  27
ATOM     27  C   UNL A   1      32.343  30.806  26.876  1.00  0.00     0.042 C 
BRANCH  27  28
ATOM     28  C   UNL A   1      33.663  30.388  27.508  1.00  0.00     0.118 C 
BRANCH  28  29
ATOM     29  N   UNL A   1      34.279  31.413  28.346  1.00  0.00    -0.352 N 
ATOM     30  C   UNL A   1      35.502  31.394  29.003  1.00  0.00     0.251 C 
ATOM     31  H   UNL A   1      33.751  32.235  28.462  1.00  0.00     0.163 HD
ATOM     32  O   UNL A   1      35.874  32.350  29.651  1.00  0.00    -0.269 OA
BRANCH  30  33
ATOM     33  C   UNL A   1      36.402  30.230  28.804  1.00  0.00     0.039 A 
ATOM     34  C   UNL A   1      36.646  29.387  29.894  1.00  0.00     0.014 A 
ATOM     35  C   UNL A   1      37.123  30.078  27.625  1.00  0.00     0.014 A 
ATOM     36  C   UNL A   1      37.782  28.578  29.888  1.00  0.00     0.010 A 
ATOM     37  C   UNL A   1      38.290  29.340  27.651  1.00  0.00     0.010 A 
ATOM     38  C   UNL A   1      38.667  28.661  28.813  1.00  0.00    -0.014 A 
BRANCH  38  39
ATOM     39  C   UNL A   1      40.070  28.257  28.904  1.00  0.00     0.031 A 
ATOM     40  C   UNL A   1      40.527  26.912  28.501  1.00  0.00     0.074 A 
ATOM     41  C   UNL A   1      40.990  29.189  29.247  1.00  0.00     0.049 A 
ATOM     42  N   UNL A   1      41.617  26.363  28.928  1.00  0.00    -0.248 NA
ATOM     43  C   UNL A   1      39.777  26.057  27.594  1.00  0.00     0.031 C 
ATOM     44  C   UNL A   1      42.439  29.111  29.071  1.00  0.00     0.029 A 
ATOM     45  N   UNL A   1      40.792  30.368  29.972  1.00  0.00    -0.354 N 
ATOM     46  C   UNL A   1      41.856  25.244  28.163  1.00  0.00     0.074 A 
ATOM     47  C   UNL A   1      40.647  25.062  27.394  1.00  0.00     0.031 C 
ATOM     48  C   UNL A   1      43.024  30.034  29.850  1.00  0.00     0.029 A 
ATOM     49  C   UNL A   1      41.987  30.632  30.669  1.00  0.00     0.049 A 
ATOM     50  H   UNL A   1      39.971  30.911  29.992  1.00  0.00     0.167 HD
ATOM     51  C   UNL A   1      43.104  24.681  28.171  1.00  0.00     0.037 A 
ATOM     52  C   UNL A   1      42.001  30.685  32.033  1.00  0.00     0.037 A 
ATOM     53  C   UNL A   1      44.001  25.393  29.082  1.00  0.00     0.049 A 
ATOM     54  C   UNL A   1      42.861  29.620  32.670  1.00  0.00     0.074 A 
ATOM     55  C   UNL A   1      44.980  26.349  28.865  1.00  0.00     0.029 A 
ATOM     56  N   UNL A   1      43.763  25.379  30.453  1.00  0.00    -0.354 N 
ATOM     57  N   UNL A   1      43.292  28.565  32.039  1.00  0.00    -0.248 NA
ATOM     58  C   UNL A   1      43.260  29.633  34.075  1.00  0.00     0.031 C 
ATOM     59  C   UNL A   1      45.304  26.942  30.108  1.00  0.00     0.029 A 
ATOM     60  C   UNL A   1      44.531  26.339  31.086  1.00  0.00     0.049 A 
ATOM     61  H   UNL A   1      43.137  24.772  30.908  1.00  0.00     0.167 HD
ATOM     62  C   UNL A   1      43.963  27.752  32.913  1.00  0.00     0.074 A 
ATOM     63  C   UNL A   1      43.938  28.476  34.170  1.00  0.00     0.031 C 
ATOM     64  C   UNL A   1      44.459  26.541  32.525  1.00  0.00     0.037 A 
BRANCH  51  65
ATOM     65  C   UNL A   1      43.602  23.695  27.127  1.00  0.00     0.064 A 
ATOM     66  C   UNL A   1      44.459  24.111  26.083  1.00  0.00     0.173 A 
ATOM     67  C   UNL A   1      43.230  22.340  27.063  1.00  0.00     0.173 A 
ATOM     68  F   UNL A   1      45.023  25.326  26.077  1.00  0.00    -0.203 F 
ATOM     69  C   UNL A   1      44.780  23.292  24.995  1.00  0.00     0.198 A 
ATOM     70  C   UNL A   1      43.503  21.535  25.951  1.00  0.00     0.198 A 
ATOM     71  F   UNL A   1      42.650  21.728  28.102  1.00  0.00    -0.203 F 
ATOM     72  F   UNL A   1      45.584  23.753  24.028  1.00  0.00    -0.200 F 
ATOM     73  C   UNL A   1      44.264  22.017  24.907  1.00  0.00     0.200 A 
ATOM     74  F   UNL A   1      43.023  20.283  25.904  1.00  0.00    -0.200 F 
ATOM     75  F   UNL A   1      44.528  21.248  23.843  1.00  0.00    -0.200 F 
ENDBRANCH  51  65
BRANCH  52  76
ATOM     76  C   UNL A   1      40.730  31.207  32.599  1.00  0.00     0.064 A 
ATOM     77  C   UNL A   1      40.480  32.590  32.497  1.00  0.00     0.173 A 
ATOM     78  C   UNL A   1      39.635  30.366  32.837  1.00  0.00     0.173 A 
ATOM     79  F   UNL A   1      41.494  33.435  32.252  1.00  0.00    -0.203 F 
ATOM     80  C   UNL A   1      39.182  33.093  32.505  1.00  0.00     0.198 A 
ATOM     81  C   UNL A   1      38.337  30.877  32.858  1.00  0.00     0.198 A 
ATOM     82  F   UNL A   1      39.804  29.038  32.909  1.00  0.00    -0.203 F 
ATOM     83  F   UNL A   1      38.970  34.397  32.273  1.00  0.00    -0.200 F 
ATOM     84  C   UNL A   1      38.109  32.233  32.657  1.00  0.00     0.200 A 
ATOM     85  F   UNL A   1      37.293  30.041  32.961  1.00  0.00    -0.200 F 
ATOM     86  F   UNL A   1      36.856  32.697  32.553  1.00  0.00    -0.200 F 
ENDBRANCH  52  76
BRANCH  64  87
ATOM     87  C   UNL A   1      45.011  25.483  33.445  1.00  0.00     0.064 A 
ATOM     88  C   UNL A   1      44.215  24.682  34.280  1.00  0.00     0.173 A 
ATOM     89  C   UNL A   1      46.385  25.144  33.399  1.00  0.00     0.173 A 
ATOM     90  F   UNL A   1      42.884  24.828  34.321  1.00  0.00    -0.203 F 
ATOM     91  C   UNL A   1      44.762  23.661  35.063  1.00  0.00     0.198 A 
ATOM     92  C   UNL A   1      46.916  24.088  34.139  1.00  0.00     0.198 A 
ATOM     93  F   UNL A   1      47.245  25.811  32.617  1.00  0.00    -0.203 F 
ATOM     94  F   UNL A   1      43.966  22.952  35.876  1.00  0.00    -0.200 F 
ATOM     95  C   UNL A   1      46.107  23.357  34.984  1.00  0.00     0.200 A 
ATOM     96  F   UNL A   1      48.213  23.772  34.012  1.00  0.00    -0.200 F 
ATOM     97  F   UNL A   1      46.618  22.349  35.702  1.00  0.00    -0.200 F 
ENDBRANCH  64  87
ENDBRANCH  38  39
ENDBRANCH  30  33
ENDBRANCH  28  29
ENDBRANCH  27  28
ENDBRANCH  26  27
ENDBRANCH   3  26
TORSDOF 15
ENDMDL
