MODEL 1
REMARK VINA RESULT:     -11.8      0.000      0.000
REMARK SMILES Cc1cc(C)n([C@@H](C(=O)NCCCNC(=O)c2ccc(-c3c4nc(c(-c5c(F)c(F)c(F)c(F)c5F)c5ccc([nH]5)c(-c5c(F)c(F)c(F)c(F)c5F)c5nc(c(-c6c(F)c(F)c(F)c(F)c6F)c6ccc3[nH]6)C=C5)C=C4)cc2)C(C)C)n1
REMARK SMILES IDX 12 1 11 2 10 3 8 4 9 5 7 7 6 8 1 9 2 10 3 11 83 12 4 13 5 14
REMARK SMILES IDX 80 15 81 16 82 17 13 18 14 19 15 20 16 22 17 23 18 24 79 25
REMARK SMILES IDX 19 26 78 27 20 28 21 29 22 30 72 31 23 32 77 33 71 34 73 35
REMARK SMILES IDX 24 36 76 37 70 38 69 39 25 41 57 42 37 43 56 44 38 45 41 46
REMARK SMILES IDX 55 47 74 48 39 49 40 50 54 52 75 53 42 54 26 55 27 56 35 57
REMARK SMILES IDX 28 58 29 59 33 60 36 61 30 62 31 63 34 64 32 65 58 66 59 67
REMARK SMILES IDX 67 68 60 69 61 70 65 71 68 72 62 73 63 74 66 75 64 76 43 77
REMARK SMILES IDX 44 78 52 79 45 80 46 81 50 82 53 83 47 84 48 85 51 86 49 87
REMARK H PARENT 10 6 14 21 73 40 41 51
REMARK Flexibility Score: inf
ROOT
ATOM      1  C   UNL A   1      37.422  19.897  24.974  1.00  0.00     0.042 C 
ENDROOT
BRANCH   1   2
ATOM      2  C   UNL A   1      36.380  21.020  24.993  1.00  0.00     0.117 C 
BRANCH   2   3
ATOM      3  N   UNL A   1      35.381  20.861  26.046  1.00  0.00    -0.354 N 
ATOM      4  C   UNL A   1      34.084  21.306  26.093  1.00  0.00     0.245 C 
ATOM      5  O   UNL A   1      33.451  21.091  27.129  1.00  0.00    -0.273 OA
ATOM      6  H   UNL A   1      35.682  20.360  26.839  1.00  0.00     0.163 HD
BRANCH   4   7
ATOM      7  C   UNL A   1      33.479  22.031  24.888  1.00  0.00     0.199 C 
BRANCH   7   8
ATOM      8  N   UNL A   1      33.048  23.370  25.296  1.00  0.00    -0.257 N 
ATOM      9  C   UNL A   1      30.270  25.485  25.941  1.00  0.00     0.069 C 
ATOM     10  C   UNL A   1      31.605  24.870  25.751  1.00  0.00     0.060 A 
ATOM     11  C   UNL A   1      32.860  25.507  25.768  1.00  0.00     0.048 A 
ATOM     12  N   UNL A   1      31.721  23.566  25.487  1.00  0.00    -0.177 NA
ATOM     13  C   UNL A   1      33.782  24.524  25.469  1.00  0.00     0.037 A 
ATOM     14  C   UNL A   1      35.255  24.637  25.330  1.00  0.00     0.066 C 
ENDBRANCH   7   8
BRANCH   7  15
ATOM     15  C   UNL A   1      32.370  21.237  24.140  1.00  0.00     0.017 C 
ATOM     16  C   UNL A   1      32.215  21.739  22.696  1.00  0.00     0.010 C 
ATOM     17  C   UNL A   1      32.669  19.731  24.089  1.00  0.00     0.010 C 
ENDBRANCH   7  15
ENDBRANCH   4   7
ENDBRANCH   2   3
ENDBRANCH   1   2
BRANCH   1  18
ATOM     18  C   UNL A   1      38.797  20.357  25.419  1.00  0.00     0.118 C 
BRANCH  18  19
ATOM     19  N   UNL A   1      39.763  19.265  25.584  1.00  0.00    -0.352 N 
ATOM     20  C   UNL A   1      41.115  19.352  25.883  1.00  0.00     0.251 C 
ATOM     21  H   UNL A   1      39.405  18.354  25.467  1.00  0.00     0.163 HD
ATOM     22  O   UNL A   1      41.874  18.421  25.674  1.00  0.00    -0.269 OA
BRANCH  20  23
ATOM     23  C   UNL A   1      41.614  20.608  26.471  1.00  0.00     0.039 A 
ATOM     24  C   UNL A   1      42.193  21.625  25.706  1.00  0.00     0.014 A 
ATOM     25  C   UNL A   1      41.427  20.769  27.836  1.00  0.00     0.014 A 
ATOM     26  C   UNL A   1      42.508  22.828  26.333  1.00  0.00     0.010 A 
ATOM     27  C   UNL A   1      41.480  22.018  28.376  1.00  0.00     0.010 A 
ATOM     28  C   UNL A   1      42.129  23.017  27.672  1.00  0.00    -0.014 A 
BRANCH  28  29
ATOM     29  C   UNL A   1      42.320  24.277  28.372  1.00  0.00     0.031 A 
ATOM     30  C   UNL A   1      41.225  25.251  28.144  1.00  0.00     0.074 A 
ATOM     31  C   UNL A   1      43.264  24.427  29.331  1.00  0.00     0.049 A 
ATOM     32  N   UNL A   1      41.277  26.348  27.467  1.00  0.00    -0.248 NA
ATOM     33  C   UNL A   1      39.864  24.886  28.575  1.00  0.00     0.031 C 
ATOM     34  C   UNL A   1      44.161  23.397  29.886  1.00  0.00     0.029 A 
ATOM     35  N   UNL A   1      43.559  25.513  30.100  1.00  0.00    -0.354 N 
ATOM     36  C   UNL A   1      40.018  26.931  27.597  1.00  0.00     0.074 A 
ATOM     37  C   UNL A   1      39.146  25.898  28.084  1.00  0.00     0.031 C 
ATOM     38  C   UNL A   1      44.708  23.835  31.041  1.00  0.00     0.029 A 
ATOM     39  C   UNL A   1      44.369  25.234  31.198  1.00  0.00     0.049 A 
ATOM     40  H   UNL A   1      43.227  26.417  29.896  1.00  0.00     0.167 HD
ATOM     41  C   UNL A   1      39.894  28.288  27.603  1.00  0.00     0.037 A 
ATOM     42  C   UNL A   1      44.734  26.105  32.171  1.00  0.00     0.037 A 
ATOM     43  C   UNL A   1      41.129  28.899  27.179  1.00  0.00     0.049 A 
ATOM     44  C   UNL A   1      44.558  27.465  31.617  1.00  0.00     0.074 A 
ATOM     45  C   UNL A   1      41.792  29.097  25.989  1.00  0.00     0.029 A 
ATOM     46  N   UNL A   1      42.045  29.029  28.190  1.00  0.00    -0.354 N 
ATOM     47  N   UNL A   1      45.261  27.930  30.621  1.00  0.00    -0.248 NA
ATOM     48  C   UNL A   1      43.333  28.197  31.917  1.00  0.00     0.031 C 
ATOM     49  C   UNL A   1      43.179  29.179  26.319  1.00  0.00     0.029 A 
ATOM     50  C   UNL A   1      43.321  29.085  27.702  1.00  0.00     0.049 A 
ATOM     51  H   UNL A   1      41.814  29.075  29.145  1.00  0.00     0.167 HD
ATOM     52  C   UNL A   1      44.376  28.727  29.921  1.00  0.00     0.074 A 
ATOM     53  C   UNL A   1      43.279  28.992  30.844  1.00  0.00     0.031 C 
ATOM     54  C   UNL A   1      44.451  28.821  28.564  1.00  0.00     0.037 A 
BRANCH  41  55
ATOM     55  C   UNL A   1      38.910  29.080  28.442  1.00  0.00     0.064 A 
ATOM     56  C   UNL A   1      38.903  28.883  29.841  1.00  0.00     0.173 A 
ATOM     57  C   UNL A   1      37.784  29.754  27.924  1.00  0.00     0.173 A 
ATOM     58  F   UNL A   1      39.912  28.241  30.446  1.00  0.00    -0.203 F 
ATOM     59  C   UNL A   1      37.819  29.263  30.639  1.00  0.00     0.198 A 
ATOM     60  C   UNL A   1      36.727  30.176  28.731  1.00  0.00     0.198 A 
ATOM     61  F   UNL A   1      37.596  29.933  26.613  1.00  0.00    -0.203 F 
ATOM     62  F   UNL A   1      37.804  28.947  31.940  1.00  0.00    -0.200 F 
ATOM     63  C   UNL A   1      36.728  29.904  30.082  1.00  0.00     0.200 A 
ATOM     64  F   UNL A   1      35.669  30.776  28.166  1.00  0.00    -0.200 F 
ATOM     65  F   UNL A   1      35.662  30.217  30.830  1.00  0.00    -0.200 F 
ENDBRANCH  41  55
BRANCH  42  66
ATOM     66  C   UNL A   1      44.960  25.860  33.613  1.00  0.00     0.064 A 
ATOM     67  C   UNL A   1      43.885  25.666  34.495  1.00  0.00     0.173 A 
ATOM     68  C   UNL A   1      46.235  25.500  34.088  1.00  0.00     0.173 A 
ATOM     69  F   UNL A   1      42.634  25.952  34.103  1.00  0.00    -0.203 F 
ATOM     70  C   UNL A   1      44.068  25.103  35.763  1.00  0.00     0.198 A 
ATOM     71  C   UNL A   1      46.417  24.938  35.353  1.00  0.00     0.198 A 
ATOM     72  F   UNL A   1      47.311  25.591  33.291  1.00  0.00    -0.203 F 
ATOM     73  F   UNL A   1      43.009  24.868  36.550  1.00  0.00    -0.200 F 
ATOM     74  C   UNL A   1      45.332  24.724  36.183  1.00  0.00     0.200 A 
ATOM     75  F   UNL A   1      47.639  24.536  35.733  1.00  0.00    -0.200 F 
ATOM     76  F   UNL A   1      45.498  24.113  37.365  1.00  0.00    -0.200 F 
ENDBRANCH  42  66
BRANCH  54  77
ATOM     77  C   UNL A   1      45.754  28.476  27.914  1.00  0.00     0.064 A 
ATOM     78  C   UNL A   1      46.064  27.227  27.356  1.00  0.00     0.173 A 
ATOM     79  C   UNL A   1      46.687  29.508  27.757  1.00  0.00     0.173 A 
ATOM     80  F   UNL A   1      45.194  26.212  27.408  1.00  0.00    -0.203 F 
ATOM     81  C   UNL A   1      47.270  27.021  26.684  1.00  0.00     0.198 A 
ATOM     82  C   UNL A   1      47.872  29.310  27.060  1.00  0.00     0.198 A 
ATOM     83  F   UNL A   1      46.420  30.731  28.243  1.00  0.00    -0.203 F 
ATOM     84  F   UNL A   1      47.551  25.818  26.160  1.00  0.00    -0.200 F 
ATOM     85  C   UNL A   1      48.167  28.065  26.529  1.00  0.00     0.200 A 
ATOM     86  F   UNL A   1      48.715  30.336  26.879  1.00  0.00    -0.200 F 
ATOM     87  F   UNL A   1      49.306  27.881  25.847  1.00  0.00    -0.200 F 
ENDBRANCH  54  77
ENDBRANCH  28  29
ENDBRANCH  20  23
ENDBRANCH  18  19
ENDBRANCH   1  18
TORSDOF 12
ENDMDL
MODEL 2
REMARK VINA RESULT:     -11.8      3.835      9.585
REMARK SMILES Cc1cc(C)n([C@@H](C(=O)NCCCNC(=O)c2ccc(-c3c4nc(c(-c5c(F)c(F)c(F)c(F)c5F)c5ccc([nH]5)c(-c5c(F)c(F)c(F)c(F)c5F)c5nc(c(-c6c(F)c(F)c(F)c(F)c6F)c6ccc3[nH]6)C=C5)C=C4)cc2)C(C)C)n1
REMARK SMILES IDX 12 1 11 2 10 3 8 4 9 5 7 7 6 8 1 9 2 10 3 11 83 12 4 13 5 14
REMARK SMILES IDX 80 15 81 16 82 17 13 18 14 19 15 20 16 22 17 23 18 24 79 25
REMARK SMILES IDX 19 26 78 27 20 28 21 29 22 30 72 31 23 32 77 33 71 34 73 35
REMARK SMILES IDX 24 36 76 37 70 38 69 39 25 41 57 42 37 43 56 44 38 45 41 46
REMARK SMILES IDX 55 47 74 48 39 49 40 50 54 52 75 53 42 54 26 55 27 56 35 57
REMARK SMILES IDX 28 58 29 59 33 60 36 61 30 62 31 63 34 64 32 65 58 66 59 67
REMARK SMILES IDX 67 68 60 69 61 70 65 71 68 72 62 73 63 74 66 75 64 76 43 77
REMARK SMILES IDX 44 78 52 79 45 80 46 81 50 82 53 83 47 84 48 85 51 86 49 87
REMARK H PARENT 10 6 14 21 73 40 41 51
REMARK Flexibility Score: inf
ROOT
ATOM      1  C   UNL A   1      41.937  21.261  26.832  1.00  0.00     0.042 C 
ENDROOT
BRANCH   1   2
ATOM      2  C   UNL A   1      42.749  22.277  26.022  1.00  0.00     0.117 C 
BRANCH   2   3
ATOM      3  N   UNL A   1      44.178  22.240  26.317  1.00  0.00    -0.354 N 
ATOM      4  C   UNL A   1      44.960  23.162  26.966  1.00  0.00     0.245 C 
ATOM      5  O   UNL A   1      46.167  22.925  27.043  1.00  0.00    -0.273 OA
ATOM      6  H   UNL A   1      44.651  21.434  26.006  1.00  0.00     0.163 HD
BRANCH   4   7
ATOM      7  C   UNL A   1      44.323  24.421  27.563  1.00  0.00     0.199 C 
BRANCH   7   8
ATOM      8  N   UNL A   1      45.052  25.601  27.091  1.00  0.00    -0.257 N 
ATOM      9  C   UNL A   1      47.601  27.959  27.828  1.00  0.00     0.069 C 
ATOM     10  C   UNL A   1      46.507  27.150  27.243  1.00  0.00     0.060 A 
ATOM     11  C   UNL A   1      45.749  27.427  26.089  1.00  0.00     0.048 A 
ATOM     12  N   UNL A   1      46.099  26.027  27.839  1.00  0.00    -0.177 NA
ATOM     13  C   UNL A   1      44.812  26.418  26.007  1.00  0.00     0.037 A 
ATOM     14  C   UNL A   1      43.738  26.220  25.001  1.00  0.00     0.066 C 
ENDBRANCH   7   8
BRANCH   7  15
ATOM     15  C   UNL A   1      44.149  24.392  29.107  1.00  0.00     0.017 C 
ATOM     16  C   UNL A   1      43.154  25.468  29.568  1.00  0.00     0.010 C 
ATOM     17  C   UNL A   1      43.641  23.031  29.609  1.00  0.00     0.010 C 
ENDBRANCH   7  15
ENDBRANCH   4   7
ENDBRANCH   2   3
ENDBRANCH   1   2
BRANCH   1  18
ATOM     18  C   UNL A   1      40.743  21.879  27.531  1.00  0.00     0.118 C 
BRANCH  18  19
ATOM     19  N   UNL A   1      39.607  22.146  26.641  1.00  0.00    -0.352 N 
ATOM     20  C   UNL A   1      38.883  23.321  26.502  1.00  0.00     0.251 C 
ATOM     21  H   UNL A   1      39.323  21.395  26.070  1.00  0.00     0.163 HD
ATOM     22  O   UNL A   1      37.777  23.330  25.988  1.00  0.00    -0.269 OA
BRANCH  20  23
ATOM     23  C   UNL A   1      39.492  24.572  26.990  1.00  0.00     0.039 A 
ATOM     24  C   UNL A   1      40.286  25.392  26.184  1.00  0.00     0.014 A 
ATOM     25  C   UNL A   1      39.187  24.941  28.292  1.00  0.00     0.014 A 
ATOM     26  C   UNL A   1      40.701  26.620  26.694  1.00  0.00     0.010 A 
ATOM     27  C   UNL A   1      39.360  26.234  28.679  1.00  0.00     0.010 A 
ATOM     28  C   UNL A   1      40.214  27.037  27.944  1.00  0.00    -0.014 A 
BRANCH  28  29
ATOM     29  C   UNL A   1      40.508  28.347  28.504  1.00  0.00     0.031 A 
ATOM     30  C   UNL A   1      41.734  28.966  27.944  1.00  0.00     0.074 A 
ATOM     31  C   UNL A   1      39.607  29.021  29.256  1.00  0.00     0.049 A 
ATOM     32  N   UNL A   1      42.861  29.159  28.542  1.00  0.00    -0.248 NA
ATOM     33  C   UNL A   1      41.774  29.256  26.500  1.00  0.00     0.031 C 
ATOM     34  C   UNL A   1      38.217  28.640  29.560  1.00  0.00     0.029 A 
ATOM     35  N   UNL A   1      39.701  30.254  29.828  1.00  0.00    -0.354 N 
ATOM     36  C   UNL A   1      43.669  29.820  27.618  1.00  0.00     0.074 A 
ATOM     37  C   UNL A   1      43.040  29.647  26.339  1.00  0.00     0.031 C 
ATOM     38  C   UNL A   1      37.539  29.707  30.037  1.00  0.00     0.029 A 
ATOM     39  C   UNL A   1      38.487  30.778  30.265  1.00  0.00     0.049 A 
ATOM     40  H   UNL A   1      40.555  30.734  29.924  1.00  0.00     0.167 HD
ATOM     41  C   UNL A   1      44.598  30.718  28.049  1.00  0.00     0.037 A 
ATOM     42  C   UNL A   1      38.281  32.014  30.781  1.00  0.00     0.037 A 
ATOM     43  C   UNL A   1      44.766  30.612  29.477  1.00  0.00     0.049 A 
ATOM     44  C   UNL A   1      39.593  32.503  31.258  1.00  0.00     0.074 A 
ATOM     45  C   UNL A   1      45.388  29.749  30.351  1.00  0.00     0.029 A 
ATOM     46  N   UNL A   1      43.830  31.317  30.186  1.00  0.00    -0.354 N 
ATOM     47  N   UNL A   1      40.248  31.952  32.243  1.00  0.00    -0.248 NA
ATOM     48  C   UNL A   1      40.375  33.382  30.397  1.00  0.00     0.031 C 
ATOM     49  C   UNL A   1      44.666  29.844  31.579  1.00  0.00     0.029 A 
ATOM     50  C   UNL A   1      43.660  30.799  31.440  1.00  0.00     0.049 A 
ATOM     51  H   UNL A   1      43.342  32.097  29.838  1.00  0.00     0.167 HD
ATOM     52  C   UNL A   1      41.575  32.074  31.880  1.00  0.00     0.074 A 
ATOM     53  C   UNL A   1      41.602  33.099  30.843  1.00  0.00     0.031 C 
ATOM     54  C   UNL A   1      42.476  31.106  32.210  1.00  0.00     0.037 A 
BRANCH  41  55
ATOM     55  C   UNL A   1      44.976  32.004  27.339  1.00  0.00     0.064 A 
ATOM     56  C   UNL A   1      46.285  32.133  26.823  1.00  0.00     0.173 A 
ATOM     57  C   UNL A   1      44.245  33.208  27.430  1.00  0.00     0.173 A 
ATOM     58  F   UNL A   1      47.082  31.061  26.705  1.00  0.00    -0.203 F 
ATOM     59  C   UNL A   1      46.837  33.377  26.501  1.00  0.00     0.198 A 
ATOM     60  C   UNL A   1      44.783  34.441  27.059  1.00  0.00     0.198 A 
ATOM     61  F   UNL A   1      43.030  33.269  27.984  1.00  0.00    -0.203 F 
ATOM     62  F   UNL A   1      48.122  33.461  26.131  1.00  0.00    -0.200 F 
ATOM     63  C   UNL A   1      46.087  34.530  26.625  1.00  0.00     0.200 A 
ATOM     64  F   UNL A   1      44.045  35.551  27.210  1.00  0.00    -0.200 F 
ATOM     65  F   UNL A   1      46.629  35.730  26.373  1.00  0.00    -0.200 F 
ENDBRANCH  41  55
BRANCH  42  66
ATOM     66  C   UNL A   1      37.105  32.903  30.647  1.00  0.00     0.064 A 
ATOM     67  C   UNL A   1      36.750  33.458  29.407  1.00  0.00     0.173 A 
ATOM     68  C   UNL A   1      36.135  32.967  31.666  1.00  0.00     0.173 A 
ATOM     69  F   UNL A   1      37.606  33.404  28.376  1.00  0.00    -0.203 F 
ATOM     70  C   UNL A   1      35.481  34.005  29.184  1.00  0.00     0.198 A 
ATOM     71  C   UNL A   1      34.870  33.513  31.443  1.00  0.00     0.198 A 
ATOM     72  F   UNL A   1      36.365  32.406  32.862  1.00  0.00    -0.203 F 
ATOM     73  F   UNL A   1      35.153  34.461  27.968  1.00  0.00    -0.200 F 
ATOM     74  C   UNL A   1      34.537  34.016  30.197  1.00  0.00     0.200 A 
ATOM     75  F   UNL A   1      33.950  33.480  32.418  1.00  0.00    -0.200 F 
ATOM     76  F   UNL A   1      33.297  34.468  29.963  1.00  0.00    -0.200 F 
ENDBRANCH  42  66
BRANCH  54  77
ATOM     77  C   UNL A   1      42.139  30.203  33.354  1.00  0.00     0.064 A 
ATOM     78  C   UNL A   1      41.619  28.907  33.225  1.00  0.00     0.173 A 
ATOM     79  C   UNL A   1      42.467  30.647  34.641  1.00  0.00     0.173 A 
ATOM     80  F   UNL A   1      41.344  28.390  32.021  1.00  0.00    -0.203 F 
ATOM     81  C   UNL A   1      41.422  28.097  34.344  1.00  0.00     0.198 A 
ATOM     82  C   UNL A   1      42.301  29.828  35.751  1.00  0.00     0.198 A 
ATOM     83  F   UNL A   1      43.000  31.867  34.813  1.00  0.00    -0.203 F 
ATOM     84  F   UNL A   1      40.920  26.861  34.201  1.00  0.00    -0.200 F 
ATOM     85  C   UNL A   1      41.772  28.556  35.604  1.00  0.00     0.200 A 
ATOM     86  F   UNL A   1      42.681  30.263  36.960  1.00  0.00    -0.200 F 
ATOM     87  F   UNL A   1      41.624  27.764  36.675  1.00  0.00    -0.200 F 
ENDBRANCH  54  77
ENDBRANCH  28  29
ENDBRANCH  20  23
ENDBRANCH  18  19
ENDBRANCH   1  18
TORSDOF 12
ENDMDL
MODEL 3
REMARK VINA RESULT:     -11.7      3.742      7.939
REMARK SMILES Cc1cc(C)n([C@@H](C(=O)NCCCNC(=O)c2ccc(-c3c4nc(c(-c5c(F)c(F)c(F)c(F)c5F)c5ccc([nH]5)c(-c5c(F)c(F)c(F)c(F)c5F)c5nc(c(-c6c(F)c(F)c(F)c(F)c6F)c6ccc3[nH]6)C=C5)C=C4)cc2)C(C)C)n1
REMARK SMILES IDX 12 1 11 2 10 3 8 4 9 5 7 7 6 8 1 9 2 10 3 11 83 12 4 13 5 14
REMARK SMILES IDX 80 15 81 16 82 17 13 18 14 19 15 20 16 22 17 23 18 24 79 25
REMARK SMILES IDX 19 26 78 27 20 28 21 29 22 30 72 31 23 32 77 33 71 34 73 35
REMARK SMILES IDX 24 36 76 37 70 38 69 39 25 41 57 42 37 43 56 44 38 45 41 46
REMARK SMILES IDX 55 47 74 48 39 49 40 50 54 52 75 53 42 54 26 55 27 56 35 57
REMARK SMILES IDX 28 58 29 59 33 60 36 61 30 62 31 63 34 64 32 65 58 66 59 67
REMARK SMILES IDX 67 68 60 69 61 70 65 71 68 72 62 73 63 74 66 75 64 76 43 77
REMARK SMILES IDX 44 78 52 79 45 80 46 81 50 82 53 83 47 84 48 85 51 86 49 87
REMARK H PARENT 10 6 14 21 73 40 41 51
REMARK Flexibility Score: inf
ROOT
ATOM      1  C   UNL A   1      34.008  30.054  27.677  1.00  0.00     0.042 C 
ENDROOT
BRANCH   1   2
ATOM      2  C   UNL A   1      32.640  29.956  26.993  1.00  0.00     0.117 C 
BRANCH   2   3
ATOM      3  N   UNL A   1      31.939  28.708  27.284  1.00  0.00    -0.354 N 
ATOM      4  C   UNL A   1      31.588  27.687  26.438  1.00  0.00     0.245 C 
ATOM      5  O   UNL A   1      30.942  26.753  26.918  1.00  0.00    -0.273 OA
ATOM      6  H   UNL A   1      31.681  28.581  28.226  1.00  0.00     0.163 HD
BRANCH   4   7
ATOM      7  C   UNL A   1      32.003  27.736  24.965  1.00  0.00     0.199 C 
BRANCH   7   8
ATOM      8  N   UNL A   1      30.845  28.110  24.149  1.00  0.00    -0.257 N 
ATOM      9  C   UNL A   1      29.020  30.789  22.701  1.00  0.00     0.069 C 
ATOM     10  C   UNL A   1      29.549  29.484  23.164  1.00  0.00     0.060 A 
ATOM     11  C   UNL A   1      28.943  28.218  23.055  1.00  0.00     0.048 A 
ATOM     12  N   UNL A   1      30.717  29.415  23.808  1.00  0.00    -0.177 NA
ATOM     13  C   UNL A   1      29.792  27.341  23.698  1.00  0.00     0.037 A 
ATOM     14  C   UNL A   1      29.640  25.880  23.909  1.00  0.00     0.066 C 
ENDBRANCH   7   8
BRANCH   7  15
ATOM     15  C   UNL A   1      32.722  26.458  24.448  1.00  0.00     0.017 C 
ATOM     16  C   UNL A   1      33.292  26.681  23.038  1.00  0.00     0.010 C 
ATOM     17  C   UNL A   1      33.879  26.033  25.365  1.00  0.00     0.010 C 
ENDBRANCH   7  15
ENDBRANCH   4   7
ENDBRANCH   2   3
ENDBRANCH   1   2
BRANCH   1  18
ATOM     18  C   UNL A   1      34.525  31.477  27.764  1.00  0.00     0.118 C 
BRANCH  18  19
ATOM     19  N   UNL A   1      34.450  32.054  29.111  1.00  0.00    -0.352 N 
ATOM     20  C   UNL A   1      35.277  31.809  30.198  1.00  0.00     0.251 C 
ATOM     21  H   UNL A   1      33.720  32.697  29.262  1.00  0.00     0.163 HD
ATOM     22  O   UNL A   1      34.931  32.083  31.335  1.00  0.00    -0.269 OA
BRANCH  20  23
ATOM     23  C   UNL A   1      36.598  31.207  29.942  1.00  0.00     0.039 A 
ATOM     24  C   UNL A   1      37.727  31.968  29.625  1.00  0.00     0.014 A 
ATOM     25  C   UNL A   1      36.691  29.831  30.090  1.00  0.00     0.014 A 
ATOM     26  C   UNL A   1      38.958  31.321  29.537  1.00  0.00     0.010 A 
ATOM     27  C   UNL A   1      37.912  29.259  30.271  1.00  0.00     0.010 A 
ATOM     28  C   UNL A   1      39.038  29.962  29.880  1.00  0.00    -0.014 A 
BRANCH  28  29
ATOM     29  C   UNL A   1      40.297  29.235  29.921  1.00  0.00     0.031 A 
ATOM     30  C   UNL A   1      40.840  29.071  31.291  1.00  0.00     0.074 A 
ATOM     31  C   UNL A   1      40.770  28.562  28.845  1.00  0.00     0.049 A 
ATOM     32  N   UNL A   1      41.881  29.639  31.798  1.00  0.00    -0.248 NA
ATOM     33  C   UNL A   1      40.041  28.317  32.273  1.00  0.00     0.031 C 
ATOM     34  C   UNL A   1      40.111  28.363  27.542  1.00  0.00     0.029 A 
ATOM     35  N   UNL A   1      41.900  27.812  28.716  1.00  0.00    -0.354 N 
ATOM     36  C   UNL A   1      42.005  29.120  33.085  1.00  0.00     0.074 A 
ATOM     37  C   UNL A   1      40.744  28.504  33.393  1.00  0.00     0.031 C 
ATOM     38  C   UNL A   1      40.723  27.369  26.862  1.00  0.00     0.029 A 
ATOM     39  C   UNL A   1      41.926  27.005  27.581  1.00  0.00     0.049 A 
ATOM     40  H   UNL A   1      42.636  27.839  29.369  1.00  0.00     0.167 HD
ATOM     41  C   UNL A   1      43.240  28.964  33.639  1.00  0.00     0.037 A 
ATOM     42  C   UNL A   1      42.880  26.099  27.259  1.00  0.00     0.037 A 
ATOM     43  C   UNL A   1      44.228  29.656  32.850  1.00  0.00     0.049 A 
ATOM     44  C   UNL A   1      44.094  26.464  28.022  1.00  0.00     0.074 A 
ATOM     45  C   UNL A   1      44.624  30.960  32.658  1.00  0.00     0.029 A 
ATOM     46  N   UNL A   1      44.672  28.926  31.778  1.00  0.00    -0.354 N 
ATOM     47  N   UNL A   1      44.757  27.571  27.826  1.00  0.00    -0.248 NA
ATOM     48  C   UNL A   1      44.372  25.779  29.278  1.00  0.00     0.031 C 
ATOM     49  C   UNL A   1      45.175  31.016  31.342  1.00  0.00     0.029 A 
ATOM     50  C   UNL A   1      45.152  29.737  30.788  1.00  0.00     0.049 A 
ATOM     51  H   UNL A   1      44.649  27.944  31.728  1.00  0.00     0.167 HD
ATOM     52  C   UNL A   1      45.199  27.931  29.084  1.00  0.00     0.074 A 
ATOM     53  C   UNL A   1      45.088  26.723  29.895  1.00  0.00     0.031 C 
ATOM     54  C   UNL A   1      45.296  29.243  29.437  1.00  0.00     0.037 A 
BRANCH  41  55
ATOM     55  C   UNL A   1      43.662  27.823  34.545  1.00  0.00     0.064 A 
ATOM     56  C   UNL A   1      43.584  26.502  34.050  1.00  0.00     0.173 A 
ATOM     57  C   UNL A   1      43.819  27.933  35.943  1.00  0.00     0.173 A 
ATOM     58  F   UNL A   1      43.418  26.273  32.739  1.00  0.00    -0.203 F 
ATOM     59  C   UNL A   1      43.584  25.390  34.897  1.00  0.00     0.198 A 
ATOM     60  C   UNL A   1      43.870  26.817  36.780  1.00  0.00     0.198 A 
ATOM     61  F   UNL A   1      43.814  29.110  36.575  1.00  0.00    -0.203 F 
ATOM     62  F   UNL A   1      43.386  24.166  34.392  1.00  0.00    -0.200 F 
ATOM     63  C   UNL A   1      43.721  25.549  36.263  1.00  0.00     0.200 A 
ATOM     64  F   UNL A   1      43.980  26.996  38.105  1.00  0.00    -0.200 F 
ATOM     65  F   UNL A   1      43.664  24.492  37.085  1.00  0.00    -0.200 F 
ENDBRANCH  41  55
BRANCH  42  66
ATOM     66  C   UNL A   1      42.744  24.800  26.562  1.00  0.00     0.064 A 
ATOM     67  C   UNL A   1      43.430  24.542  25.364  1.00  0.00     0.173 A 
ATOM     68  C   UNL A   1      42.192  23.686  27.223  1.00  0.00     0.173 A 
ATOM     69  F   UNL A   1      44.014  25.546  24.694  1.00  0.00    -0.203 F 
ATOM     70  C   UNL A   1      43.593  23.240  24.878  1.00  0.00     0.198 A 
ATOM     71  C   UNL A   1      42.356  22.387  26.737  1.00  0.00     0.198 A 
ATOM     72  F   UNL A   1      41.576  23.831  28.406  1.00  0.00    -0.203 F 
ATOM     73  F   UNL A   1      44.313  23.025  23.769  1.00  0.00    -0.200 F 
ATOM     74  C   UNL A   1      43.071  22.163  25.575  1.00  0.00     0.200 A 
ATOM     75  F   UNL A   1      41.882  21.349  27.442  1.00  0.00    -0.200 F 
ATOM     76  F   UNL A   1      43.293  20.910  25.152  1.00  0.00    -0.200 F 
ENDBRANCH  42  66
BRANCH  54  77
ATOM     77  C   UNL A   1      45.405  30.252  28.337  1.00  0.00     0.064 A 
ATOM     78  C   UNL A   1      44.321  30.942  27.773  1.00  0.00     0.173 A 
ATOM     79  C   UNL A   1      46.692  30.609  27.917  1.00  0.00     0.173 A 
ATOM     80  F   UNL A   1      43.067  30.702  28.173  1.00  0.00    -0.203 F 
ATOM     81  C   UNL A   1      44.523  31.936  26.815  1.00  0.00     0.198 A 
ATOM     82  C   UNL A   1      46.893  31.621  26.988  1.00  0.00     0.198 A 
ATOM     83  F   UNL A   1      47.763  30.002  28.453  1.00  0.00    -0.203 F 
ATOM     84  F   UNL A   1      43.474  32.583  26.285  1.00  0.00    -0.200 F 
ATOM     85  C   UNL A   1      45.810  32.281  26.432  1.00  0.00     0.200 A 
ATOM     86  F   UNL A   1      48.141  31.977  26.653  1.00  0.00    -0.200 F 
ATOM     87  F   UNL A   1      46.008  33.265  25.544  1.00  0.00    -0.200 F 
ENDBRANCH  54  77
ENDBRANCH  28  29
ENDBRANCH  20  23
ENDBRANCH  18  19
ENDBRANCH   1  18
TORSDOF 12
ENDMDL
