MODEL 1
REMARK VINA RESULT:     -10.3      0.000      0.000
REMARK SMILES C[C@H](C(=O)NCCCNC(=O)c1ccc(-c2c3nc(c(-c4c(F)c(F)c(F)c(F)c4F)c4ccc([nH]4)c(-c4c(F)c(F)c(F)c(F)c4F)c4nc(c(-c5c(F)c(F)c(F)c(F)c5F)c5ccc2[nH]5)C=C4)C=C3)cc1)[C@H](C)[NH+](Cc1ccsc1)C1CC1
REMARK SMILES IDX 6 1 5 2 3 3 4 4 2 6 1 7 75 8 76 9 77 10 78 12 79 13 80 14
REMARK SMILES IDX 83 15 81 16 82 17 84 18 85 19 86 20 7 21 8 22 9 23 10 24
REMARK SMILES IDX 11 26 12 27 13 28 74 29 14 30 73 31 15 32 16 33 17 34 67 35
REMARK SMILES IDX 18 36 72 37 66 38 68 39 19 40 71 41 65 42 64 43 20 45 52 46
REMARK SMILES IDX 32 47 51 48 33 49 36 50 50 51 69 52 34 53 35 54 49 56 70 57
REMARK SMILES IDX 37 58 21 59 22 60 30 61 23 62 24 63 28 64 31 65 25 66 26 67
REMARK SMILES IDX 29 68 27 69 53 70 54 71 62 72 55 73 56 74 60 75 63 76 57 77
REMARK SMILES IDX 58 78 61 79 59 80 38 81 39 82 47 83 40 84 41 85 45 86 48 87
REMARK SMILES IDX 42 88 43 89 46 90 44 91
REMARK H PARENT 5 5 77 11 9 25 68 44 36 55
REMARK Flexibility Score: inf
ROOT
ATOM      1  C   UNL A   1      41.953  19.607  26.922  1.00  0.00     0.117 C 
ENDROOT
BRANCH   1   2
ATOM      2  N   UNL A   1      42.975  19.265  25.954  1.00  0.00    -0.356 N 
ATOM      3  C   UNL A   1      43.832  19.943  25.165  1.00  0.00     0.228 C 
ATOM      4  O   UNL A   1      44.285  19.227  24.256  1.00  0.00    -0.275 OA
ATOM      5  H   UNL A   1      43.067  18.291  25.847  1.00  0.00     0.163 HD
BRANCH   3   6
ATOM      6  C   UNL A   1      44.411  21.351  25.401  1.00  0.00     0.133 C 
ATOM      7  C   UNL A   1      44.979  21.814  24.035  1.00  0.00     0.024 C 
BRANCH   6   8
ATOM      8  C   UNL A   1      43.666  22.556  26.054  1.00  0.00     0.193 C 
ATOM      9  C   UNL A   1      43.123  23.583  25.046  1.00  0.00     0.076 C 
BRANCH   8  10
ATOM     10  N   UNL A   1      44.214  23.185  27.262  1.00  0.00    -0.326 N 
ATOM     11  H   UNL A   1      43.771  22.708  28.048  1.00  0.00     0.348 HD
BRANCH  10  12
ATOM     12  C   UNL A   1      45.661  23.335  27.358  1.00  0.00     0.300 C 
BRANCH  12  13
ATOM     13  C   UNL A   1      46.117  24.580  26.651  1.00  0.00     0.017 A 
ATOM     14  C   UNL A   1      45.824  25.929  27.053  1.00  0.00     0.021 A 
ATOM     15  C   UNL A   1      46.903  24.584  25.510  1.00  0.00     0.074 A 
ATOM     16  C   UNL A   1      46.352  26.872  26.201  1.00  0.00     0.065 A 
ATOM     17  S   UNL A   1      47.237  26.157  24.930  1.00  0.00    -0.152 S 
ENDBRANCH  12  13
ENDBRANCH  10  12
BRANCH  10  18
ATOM     18  C   UNL A   1      43.342  23.686  28.311  1.00  0.00     0.184 C 
ATOM     19  C   UNL A   1      42.612  22.691  29.184  1.00  0.00     0.071 C 
ATOM     20  C   UNL A   1      43.630  23.603  29.789  1.00  0.00     0.071 C 
ENDBRANCH  10  18
ENDBRANCH   8  10
ENDBRANCH   6   8
ENDBRANCH   3   6
ENDBRANCH   1   2
BRANCH   1  21
ATOM     21  C   UNL A   1      40.739  20.241  26.236  1.00  0.00     0.042 C 
BRANCH  21  22
ATOM     22  C   UNL A   1      40.301  21.572  26.831  1.00  0.00     0.118 C 
BRANCH  22  23
ATOM     23  N   UNL A   1      39.285  22.224  26.030  1.00  0.00    -0.352 N 
ATOM     24  C   UNL A   1      38.787  23.503  26.047  1.00  0.00     0.251 C 
ATOM     25  H   UNL A   1      38.878  21.643  25.347  1.00  0.00     0.163 HD
ATOM     26  O   UNL A   1      37.766  23.731  25.402  1.00  0.00    -0.269 OA
BRANCH  24  27
ATOM     27  C   UNL A   1      39.413  24.614  26.816  1.00  0.00     0.039 A 
ATOM     28  C   UNL A   1      39.088  24.725  28.175  1.00  0.00     0.014 A 
ATOM     29  C   UNL A   1      40.180  25.621  26.229  1.00  0.00     0.014 A 
ATOM     30  C   UNL A   1      39.516  25.827  28.927  1.00  0.00     0.010 A 
ATOM     31  C   UNL A   1      40.687  26.673  27.001  1.00  0.00     0.010 A 
ATOM     32  C   UNL A   1      40.322  26.815  28.346  1.00  0.00    -0.014 A 
BRANCH  32  33
ATOM     33  C   UNL A   1      40.696  28.048  29.094  1.00  0.00     0.031 A 
ATOM     34  C   UNL A   1      42.098  28.209  29.628  1.00  0.00     0.074 A 
ATOM     35  C   UNL A   1      39.786  29.014  29.324  1.00  0.00     0.049 A 
ATOM     36  N   UNL A   1      42.603  29.159  30.376  1.00  0.00    -0.248 NA
ATOM     37  C   UNL A   1      43.056  27.139  29.302  1.00  0.00     0.031 C 
ATOM     38  C   UNL A   1      38.390  28.982  28.892  1.00  0.00     0.029 A 
ATOM     39  N   UNL A   1      39.901  30.211  29.989  1.00  0.00    -0.354 N 
ATOM     40  C   UNL A   1      43.915  28.782  30.638  1.00  0.00     0.074 A 
ATOM     41  C   UNL A   1      44.117  27.497  30.008  1.00  0.00     0.031 C 
ATOM     42  C   UNL A   1      37.783  30.115  29.282  1.00  0.00     0.029 A 
ATOM     43  C   UNL A   1      38.737  30.938  30.021  1.00  0.00     0.049 A 
ATOM     44  H   UNL A   1      40.741  30.519  30.402  1.00  0.00     0.167 HD
ATOM     45  C   UNL A   1      44.874  29.454  31.320  1.00  0.00     0.037 A 
ATOM     46  C   UNL A   1      38.465  32.130  30.588  1.00  0.00     0.037 A 
ATOM     47  C   UNL A   1      44.699  30.761  31.894  1.00  0.00     0.049 A 
ATOM     48  C   UNL A   1      39.554  32.871  31.315  1.00  0.00     0.074 A 
ATOM     49  C   UNL A   1      45.631  31.553  32.542  1.00  0.00     0.029 A 
ATOM     50  N   UNL A   1      43.509  31.475  31.879  1.00  0.00    -0.354 N 
ATOM     51  N   UNL A   1      40.801  32.522  31.519  1.00  0.00    -0.248 NA
ATOM     52  C   UNL A   1      39.198  34.180  31.887  1.00  0.00     0.031 C 
ATOM     53  C   UNL A   1      44.997  32.733  32.947  1.00  0.00     0.029 A 
ATOM     54  C   UNL A   1      43.681  32.692  32.516  1.00  0.00     0.049 A 
ATOM     55  H   UNL A   1      42.667  31.161  31.474  1.00  0.00     0.167 HD
ATOM     56  C   UNL A   1      41.382  33.571  32.218  1.00  0.00     0.074 A 
ATOM     57  C   UNL A   1      40.356  34.578  32.393  1.00  0.00     0.031 C 
ATOM     58  C   UNL A   1      42.653  33.689  32.675  1.00  0.00     0.037 A 
BRANCH  45  59
ATOM     59  C   UNL A   1      46.210  28.785  31.478  1.00  0.00     0.064 A 
ATOM     60  C   UNL A   1      46.510  27.990  32.594  1.00  0.00     0.173 A 
ATOM     61  C   UNL A   1      47.195  28.923  30.487  1.00  0.00     0.173 A 
ATOM     62  F   UNL A   1      45.608  27.836  33.575  1.00  0.00    -0.203 F 
ATOM     63  C   UNL A   1      47.759  27.387  32.730  1.00  0.00     0.198 A 
ATOM     64  C   UNL A   1      48.430  28.294  30.612  1.00  0.00     0.198 A 
ATOM     65  F   UNL A   1      46.957  29.665  29.395  1.00  0.00    -0.203 F 
ATOM     66  F   UNL A   1      48.041  26.678  33.832  1.00  0.00    -0.200 F 
ATOM     67  C   UNL A   1      48.716  27.535  31.738  1.00  0.00     0.200 A 
ATOM     68  F   UNL A   1      49.350  28.426  29.646  1.00  0.00    -0.200 F 
ATOM     69  F   UNL A   1      49.915  26.952  31.869  1.00  0.00    -0.200 F 
ENDBRANCH  45  59
BRANCH  46  70
ATOM     70  C   UNL A   1      37.104  32.710  30.464  1.00  0.00     0.064 A 
ATOM     71  C   UNL A   1      36.150  32.522  31.473  1.00  0.00     0.173 A 
ATOM     72  C   UNL A   1      36.732  33.467  29.344  1.00  0.00     0.173 A 
ATOM     73  F   UNL A   1      36.453  31.786  32.553  1.00  0.00    -0.203 F 
ATOM     74  C   UNL A   1      34.869  33.061  31.362  1.00  0.00     0.198 A 
ATOM     75  C   UNL A   1      35.459  34.026  29.246  1.00  0.00     0.198 A 
ATOM     76  F   UNL A   1      37.610  33.677  28.353  1.00  0.00    -0.203 F 
ATOM     77  F   UNL A   1      33.965  32.837  32.325  1.00  0.00    -0.200 F 
ATOM     78  C   UNL A   1      34.527  33.818  30.252  1.00  0.00     0.200 A 
ATOM     79  F   UNL A   1      35.136  34.767  28.177  1.00  0.00    -0.200 F 
ATOM     80  F   UNL A   1      33.299  34.343  30.148  1.00  0.00    -0.200 F 
ENDBRANCH  46  70
BRANCH  58  81
ATOM     81  C   UNL A   1      43.018  34.961  33.380  1.00  0.00     0.064 A 
ATOM     82  C   UNL A   1      43.437  36.097  32.672  1.00  0.00     0.173 A 
ATOM     83  C   UNL A   1      42.903  35.058  34.773  1.00  0.00     0.173 A 
ATOM     84  F   UNL A   1      43.576  36.049  31.339  1.00  0.00    -0.203 F 
ATOM     85  C   UNL A   1      43.746  37.279  33.339  1.00  0.00     0.198 A 
ATOM     86  C   UNL A   1      43.189  36.249  35.435  1.00  0.00     0.198 A 
ATOM     87  F   UNL A   1      42.501  34.000  35.495  1.00  0.00    -0.203 F 
ATOM     88  F   UNL A   1      44.182  38.342  32.649  1.00  0.00    -0.200 F 
ATOM     89  C   UNL A   1      43.616  37.357  34.718  1.00  0.00     0.200 A 
ATOM     90  F   UNL A   1      43.052  36.325  36.767  1.00  0.00    -0.200 F 
ATOM     91  F   UNL A   1      43.907  38.498  35.357  1.00  0.00    -0.200 F 
ENDBRANCH  58  81
ENDBRANCH  32  33
ENDBRANCH  24  27
ENDBRANCH  22  23
ENDBRANCH  21  22
ENDBRANCH   1  21
TORSDOF 15
ENDMDL
MODEL 2
REMARK VINA RESULT:     -10.2      5.275      9.983
REMARK SMILES C[C@H](C(=O)NCCCNC(=O)c1ccc(-c2c3nc(c(-c4c(F)c(F)c(F)c(F)c4F)c4ccc([nH]4)c(-c4c(F)c(F)c(F)c(F)c4F)c4nc(c(-c5c(F)c(F)c(F)c(F)c5F)c5ccc2[nH]5)C=C4)C=C3)cc1)[C@H](C)[NH+](Cc1ccsc1)C1CC1
REMARK SMILES IDX 6 1 5 2 3 3 4 4 2 6 1 7 75 8 76 9 77 10 78 12 79 13 80 14
REMARK SMILES IDX 83 15 81 16 82 17 84 18 85 19 86 20 7 21 8 22 9 23 10 24
REMARK SMILES IDX 11 26 12 27 13 28 74 29 14 30 73 31 15 32 16 33 17 34 67 35
REMARK SMILES IDX 18 36 72 37 66 38 68 39 19 40 71 41 65 42 64 43 20 45 52 46
REMARK SMILES IDX 32 47 51 48 33 49 36 50 50 51 69 52 34 53 35 54 49 56 70 57
REMARK SMILES IDX 37 58 21 59 22 60 30 61 23 62 24 63 28 64 31 65 25 66 26 67
REMARK SMILES IDX 29 68 27 69 53 70 54 71 62 72 55 73 56 74 60 75 63 76 57 77
REMARK SMILES IDX 58 78 61 79 59 80 38 81 39 82 47 83 40 84 41 85 45 86 48 87
REMARK SMILES IDX 42 88 43 89 46 90 44 91
REMARK H PARENT 5 5 77 11 9 25 68 44 36 55
REMARK Flexibility Score: inf
ROOT
ATOM      1  C   UNL A   1      31.666  30.606  25.828  1.00  0.00     0.117 C 
ENDROOT
BRANCH   1   2
ATOM      2  N   UNL A   1      31.750  29.551  26.817  1.00  0.00    -0.356 N 
ATOM      3  C   UNL A   1      31.460  28.235  26.862  1.00  0.00     0.228 C 
ATOM      4  O   UNL A   1      31.385  27.820  28.030  1.00  0.00    -0.275 OA
ATOM      5  H   UNL A   1      32.112  29.878  27.672  1.00  0.00     0.163 HD
BRANCH   3   6
ATOM      6  C   UNL A   1      31.425  27.241  25.685  1.00  0.00     0.133 C 
ATOM      7  C   UNL A   1      30.669  25.991  26.204  1.00  0.00     0.024 C 
BRANCH   6   8
ATOM      8  C   UNL A   1      30.930  27.545  24.237  1.00  0.00     0.193 C 
ATOM      9  C   UNL A   1      29.549  26.954  23.905  1.00  0.00     0.076 C 
BRANCH   8  10
ATOM     10  N   UNL A   1      31.869  27.456  23.112  1.00  0.00    -0.326 N 
ATOM     11  H   UNL A   1      32.783  27.704  23.493  1.00  0.00     0.348 HD
BRANCH  10  12
ATOM     12  C   UNL A   1      31.841  26.251  22.292  1.00  0.00     0.300 C 
BRANCH  12  13
ATOM     13  C   UNL A   1      32.516  25.109  22.998  1.00  0.00     0.017 A 
ATOM     14  C   UNL A   1      33.699  25.205  23.809  1.00  0.00     0.021 A 
ATOM     15  C   UNL A   1      32.067  23.799  22.966  1.00  0.00     0.074 A 
ATOM     16  C   UNL A   1      34.109  23.991  24.312  1.00  0.00     0.065 A 
ATOM     17  S   UNL A   1      33.061  22.726  23.850  1.00  0.00    -0.152 S 
ENDBRANCH  12  13
ENDBRANCH  10  12
BRANCH  10  18
ATOM     18  C   UNL A   1      32.768  28.553  22.793  1.00  0.00     0.184 C 
ATOM     19  C   UNL A   1      34.025  28.723  23.615  1.00  0.00     0.071 C 
ATOM     20  C   UNL A   1      34.127  28.402  22.159  1.00  0.00     0.071 C 
ENDBRANCH  10  18
ENDBRANCH   8  10
ENDBRANCH   6   8
ENDBRANCH   3   6
ENDBRANCH   1   2
BRANCH   1  21
ATOM     21  C   UNL A   1      31.416  31.963  26.493  1.00  0.00     0.042 C 
BRANCH  21  22
ATOM     22  C   UNL A   1      32.617  32.530  27.239  1.00  0.00     0.118 C 
BRANCH  22  23
ATOM     23  N   UNL A   1      32.458  33.937  27.546  1.00  0.00    -0.352 N 
ATOM     24  C   UNL A   1      33.015  34.730  28.517  1.00  0.00     0.251 C 
ATOM     25  H   UNL A   1      31.837  34.411  26.947  1.00  0.00     0.163 HD
ATOM     26  O   UNL A   1      32.535  35.848  28.692  1.00  0.00    -0.269 OA
BRANCH  24  27
ATOM     27  C   UNL A   1      34.155  34.297  29.373  1.00  0.00     0.039 A 
ATOM     28  C   UNL A   1      35.450  34.487  28.871  1.00  0.00     0.014 A 
ATOM     29  C   UNL A   1      33.998  33.592  30.567  1.00  0.00     0.014 A 
ATOM     30  C   UNL A   1      36.564  33.972  29.547  1.00  0.00     0.010 A 
ATOM     31  C   UNL A   1      35.115  33.160  31.291  1.00  0.00     0.010 A 
ATOM     32  C   UNL A   1      36.407  33.301  30.768  1.00  0.00    -0.014 A 
BRANCH  32  33
ATOM     33  C   UNL A   1      37.562  32.650  31.449  1.00  0.00     0.031 A 
ATOM     34  C   UNL A   1      38.294  31.518  30.772  1.00  0.00     0.074 A 
ATOM     35  C   UNL A   1      37.944  33.043  32.679  1.00  0.00     0.049 A 
ATOM     36  N   UNL A   1      39.264  30.762  31.226  1.00  0.00    -0.248 NA
ATOM     37  C   UNL A   1      37.857  31.169  29.410  1.00  0.00     0.031 C 
ATOM     38  C   UNL A   1      37.312  34.103  33.463  1.00  0.00     0.029 A 
ATOM     39  N   UNL A   1      38.954  32.587  33.490  1.00  0.00    -0.354 N 
ATOM     40  C   UNL A   1      39.521  29.831  30.226  1.00  0.00     0.074 A 
ATOM     41  C   UNL A   1      38.578  30.087  29.160  1.00  0.00     0.031 C 
ATOM     42  C   UNL A   1      37.962  34.232  34.631  1.00  0.00     0.029 A 
ATOM     43  C   UNL A   1      39.033  33.241  34.695  1.00  0.00     0.049 A 
ATOM     44  H   UNL A   1      39.565  31.859  33.231  1.00  0.00     0.167 HD
ATOM     45  C   UNL A   1      40.470  28.865  30.185  1.00  0.00     0.037 A 
ATOM     46  C   UNL A   1      39.870  33.060  35.735  1.00  0.00     0.037 A 
ATOM     47  C   UNL A   1      41.452  28.646  31.213  1.00  0.00     0.049 A 
ATOM     48  C   UNL A   1      40.936  32.002  35.656  1.00  0.00     0.074 A 
ATOM     49  C   UNL A   1      42.499  27.740  31.231  1.00  0.00     0.029 A 
ATOM     50  N   UNL A   1      41.514  29.353  32.406  1.00  0.00    -0.354 N 
ATOM     51  N   UNL A   1      41.194  31.157  34.687  1.00  0.00    -0.248 NA
ATOM     52  C   UNL A   1      41.833  31.875  36.815  1.00  0.00     0.031 C 
ATOM     53  C   UNL A   1      43.174  27.876  32.449  1.00  0.00     0.029 A 
ATOM     54  C   UNL A   1      42.573  28.894  33.172  1.00  0.00     0.049 A 
ATOM     55  H   UNL A   1      40.896  30.073  32.668  1.00  0.00     0.167 HD
ATOM     56  C   UNL A   1      42.291  30.418  35.106  1.00  0.00     0.074 A 
ATOM     57  C   UNL A   1      42.661  30.922  36.413  1.00  0.00     0.031 C 
ATOM     58  C   UNL A   1      42.935  29.411  34.466  1.00  0.00     0.037 A 
BRANCH  45  59
ATOM     59  C   UNL A   1      40.498  27.970  28.978  1.00  0.00     0.064 A 
ATOM     60  C   UNL A   1      41.269  28.280  27.847  1.00  0.00     0.173 A 
ATOM     61  C   UNL A   1      39.761  26.776  28.963  1.00  0.00     0.173 A 
ATOM     62  F   UNL A   1      41.982  29.415  27.807  1.00  0.00    -0.203 F 
ATOM     63  C   UNL A   1      41.274  27.444  26.732  1.00  0.00     0.198 A 
ATOM     64  C   UNL A   1      39.793  25.928  27.859  1.00  0.00     0.198 A 
ATOM     65  F   UNL A   1      39.014  26.427  30.022  1.00  0.00    -0.203 F 
ATOM     66  F   UNL A   1      41.974  27.789  25.643  1.00  0.00    -0.200 F 
ATOM     67  C   UNL A   1      40.540  26.268  26.741  1.00  0.00     0.200 A 
ATOM     68  F   UNL A   1      39.094  24.784  27.873  1.00  0.00    -0.200 F 
ATOM     69  F   UNL A   1      40.548  25.465  25.668  1.00  0.00    -0.200 F 
ENDBRANCH  45  59
BRANCH  46  70
ATOM     70  C   UNL A   1      39.748  33.926  36.935  1.00  0.00     0.064 A 
ATOM     71  C   UNL A   1      40.410  35.160  36.998  1.00  0.00     0.173 A 
ATOM     72  C   UNL A   1      38.966  33.547  38.035  1.00  0.00     0.173 A 
ATOM     73  F   UNL A   1      41.188  35.556  35.979  1.00  0.00    -0.203 F 
ATOM     74  C   UNL A   1      40.304  35.977  38.123  1.00  0.00     0.198 A 
ATOM     75  C   UNL A   1      38.841  34.375  39.148  1.00  0.00     0.198 A 
ATOM     76  F   UNL A   1      38.312  32.376  38.021  1.00  0.00    -0.203 F 
ATOM     77  F   UNL A   1      40.976  37.136  38.171  1.00  0.00    -0.200 F 
ATOM     78  C   UNL A   1      39.514  35.587  39.193  1.00  0.00     0.200 A 
ATOM     79  F   UNL A   1      38.068  34.001  40.176  1.00  0.00    -0.200 F 
ATOM     80  F   UNL A   1      39.406  36.376  40.271  1.00  0.00    -0.200 F 
ENDBRANCH  46  70
BRANCH  58  81
ATOM     81  C   UNL A   1      44.124  28.807  35.150  1.00  0.00     0.064 A 
ATOM     82  C   UNL A   1      45.418  29.313  34.955  1.00  0.00     0.173 A 
ATOM     83  C   UNL A   1      43.961  27.741  36.046  1.00  0.00     0.173 A 
ATOM     84  F   UNL A   1      45.627  30.322  34.098  1.00  0.00    -0.203 F 
ATOM     85  C   UNL A   1      46.509  28.757  35.619  1.00  0.00     0.198 A 
ATOM     86  C   UNL A   1      45.051  27.205  36.728  1.00  0.00     0.198 A 
ATOM     87  F   UNL A   1      42.743  27.226  36.272  1.00  0.00    -0.203 F 
ATOM     88  F   UNL A   1      47.742  29.229  35.390  1.00  0.00    -0.200 F 
ATOM     89  C   UNL A   1      46.324  27.709  36.510  1.00  0.00     0.200 A 
ATOM     90  F   UNL A   1      44.869  26.199  37.596  1.00  0.00    -0.200 F 
ATOM     91  F   UNL A   1      47.374  27.182  37.153  1.00  0.00    -0.200 F 
ENDBRANCH  58  81
ENDBRANCH  32  33
ENDBRANCH  24  27
ENDBRANCH  22  23
ENDBRANCH  21  22
ENDBRANCH   1  21
TORSDOF 15
ENDMDL
MODEL 3
REMARK VINA RESULT:     -10.1      5.635     10.285
REMARK SMILES C[C@H](C(=O)NCCCNC(=O)c1ccc(-c2c3nc(c(-c4c(F)c(F)c(F)c(F)c4F)c4ccc([nH]4)c(-c4c(F)c(F)c(F)c(F)c4F)c4nc(c(-c5c(F)c(F)c(F)c(F)c5F)c5ccc2[nH]5)C=C4)C=C3)cc1)[C@H](C)[NH+](Cc1ccsc1)C1CC1
REMARK SMILES IDX 6 1 5 2 3 3 4 4 2 6 1 7 75 8 76 9 77 10 78 12 79 13 80 14
REMARK SMILES IDX 83 15 81 16 82 17 84 18 85 19 86 20 7 21 8 22 9 23 10 24
REMARK SMILES IDX 11 26 12 27 13 28 74 29 14 30 73 31 15 32 16 33 17 34 67 35
REMARK SMILES IDX 18 36 72 37 66 38 68 39 19 40 71 41 65 42 64 43 20 45 52 46
REMARK SMILES IDX 32 47 51 48 33 49 36 50 50 51 69 52 34 53 35 54 49 56 70 57
REMARK SMILES IDX 37 58 21 59 22 60 30 61 23 62 24 63 28 64 31 65 25 66 26 67
REMARK SMILES IDX 29 68 27 69 53 70 54 71 62 72 55 73 56 74 60 75 63 76 57 77
REMARK SMILES IDX 58 78 61 79 59 80 38 81 39 82 47 83 40 84 41 85 45 86 48 87
REMARK SMILES IDX 42 88 43 89 46 90 44 91
REMARK H PARENT 5 5 77 11 9 25 68 44 36 55
REMARK Flexibility Score: inf
ROOT
ATOM      1  C   UNL A   1      31.586  30.802  25.974  1.00  0.00     0.117 C 
ENDROOT
BRANCH   1   2
ATOM      2  N   UNL A   1      32.918  30.314  26.270  1.00  0.00    -0.356 N 
ATOM      3  C   UNL A   1      33.545  29.121  26.236  1.00  0.00     0.228 C 
ATOM      4  O   UNL A   1      34.595  29.135  26.900  1.00  0.00    -0.275 OA
ATOM      5  H   UNL A   1      33.515  31.036  26.570  1.00  0.00     0.163 HD
BRANCH   3   6
ATOM      6  C   UNL A   1      33.209  27.909  25.347  1.00  0.00     0.133 C 
ATOM      7  C   UNL A   1      33.877  26.684  26.024  1.00  0.00     0.024 C 
BRANCH   6   8
ATOM      8  C   UNL A   1      31.787  27.485  24.866  1.00  0.00     0.193 C 
ATOM      9  C   UNL A   1      31.010  26.623  25.876  1.00  0.00     0.076 C 
BRANCH   8  10
ATOM     10  N   UNL A   1      31.585  27.052  23.479  1.00  0.00    -0.326 N 
ATOM     11  H   UNL A   1      32.182  26.234  23.353  1.00  0.00     0.348 HD
BRANCH  10  12
ATOM     12  C   UNL A   1      30.216  26.902  23.001  1.00  0.00     0.300 C 
BRANCH  12  13
ATOM     13  C   UNL A   1      29.585  28.245  22.757  1.00  0.00     0.017 A 
ATOM     14  C   UNL A   1      30.258  29.406  22.241  1.00  0.00     0.021 A 
ATOM     15  C   UNL A   1      28.251  28.532  22.990  1.00  0.00     0.074 A 
ATOM     16  C   UNL A   1      29.436  30.506  22.144  1.00  0.00     0.065 A 
ATOM     17  S   UNL A   1      27.841  30.153  22.635  1.00  0.00    -0.152 S 
ENDBRANCH  12  13
ENDBRANCH  10  12
BRANCH  10  18
ATOM     18  C   UNL A   1      32.712  26.822  22.589  1.00  0.00     0.184 C 
ATOM     19  C   UNL A   1      33.351  25.453  22.568  1.00  0.00     0.071 C 
ATOM     20  C   UNL A   1      32.673  25.975  21.343  1.00  0.00     0.071 C 
ENDBRANCH  10  18
ENDBRANCH   8  10
ENDBRANCH   6   8
ENDBRANCH   3   6
ENDBRANCH   1   2
BRANCH   1  21
ATOM     21  C   UNL A   1      31.378  32.207  26.549  1.00  0.00     0.042 C 
BRANCH  21  22
ATOM     22  C   UNL A   1      32.579  32.767  27.298  1.00  0.00     0.118 C 
BRANCH  22  23
ATOM     23  N   UNL A   1      32.417  34.169  27.625  1.00  0.00    -0.352 N 
ATOM     24  C   UNL A   1      32.974  34.949  28.608  1.00  0.00     0.251 C 
ATOM     25  H   UNL A   1      31.795  34.650  27.034  1.00  0.00     0.163 HD
ATOM     26  O   UNL A   1      32.492  36.064  28.799  1.00  0.00    -0.269 OA
BRANCH  24  27
ATOM     27  C   UNL A   1      34.115  34.507  29.456  1.00  0.00     0.039 A 
ATOM     28  C   UNL A   1      35.398  34.550  28.891  1.00  0.00     0.014 A 
ATOM     29  C   UNL A   1      33.960  33.925  30.715  1.00  0.00     0.014 A 
ATOM     30  C   UNL A   1      36.499  34.012  29.569  1.00  0.00     0.010 A 
ATOM     31  C   UNL A   1      35.072  33.474  31.433  1.00  0.00     0.010 A 
ATOM     32  C   UNL A   1      36.347  33.467  30.851  1.00  0.00    -0.014 A 
BRANCH  32  33
ATOM     33  C   UNL A   1      37.479  32.791  31.545  1.00  0.00     0.031 A 
ATOM     34  C   UNL A   1      38.193  31.642  30.878  1.00  0.00     0.074 A 
ATOM     35  C   UNL A   1      37.856  33.177  32.780  1.00  0.00     0.049 A 
ATOM     36  N   UNL A   1      39.141  30.864  31.343  1.00  0.00    -0.248 NA
ATOM     37  C   UNL A   1      37.764  31.301  29.512  1.00  0.00     0.031 C 
ATOM     38  C   UNL A   1      37.240  34.252  33.555  1.00  0.00     0.029 A 
ATOM     39  N   UNL A   1      38.847  32.699  33.602  1.00  0.00    -0.354 N 
ATOM     40  C   UNL A   1      39.388  29.927  30.348  1.00  0.00     0.074 A 
ATOM     41  C   UNL A   1      38.463  30.202  29.271  1.00  0.00     0.031 C 
ATOM     42  C   UNL A   1      37.880  34.368  34.730  1.00  0.00     0.029 A 
ATOM     43  C   UNL A   1      38.928  33.354  34.807  1.00  0.00     0.049 A 
ATOM     44  H   UNL A   1      39.445  31.957  33.351  1.00  0.00     0.167 HD
ATOM     45  C   UNL A   1      40.316  28.940  30.318  1.00  0.00     0.037 A 
ATOM     46  C   UNL A   1      39.749  33.156  35.857  1.00  0.00     0.037 A 
ATOM     47  C   UNL A   1      41.281  28.700  31.358  1.00  0.00     0.049 A 
ATOM     48  C   UNL A   1      40.792  32.073  35.790  1.00  0.00     0.074 A 
ATOM     49  C   UNL A   1      42.307  27.771  31.388  1.00  0.00     0.029 A 
ATOM     50  N   UNL A   1      41.345  29.407  32.550  1.00  0.00    -0.354 N 
ATOM     51  N   UNL A   1      41.041  31.222  34.825  1.00  0.00    -0.248 NA
ATOM     52  C   UNL A   1      41.673  31.928  36.959  1.00  0.00     0.031 C 
ATOM     53  C   UNL A   1      42.972  27.894  32.613  1.00  0.00     0.029 A 
ATOM     54  C   UNL A   1      42.386  28.926  33.328  1.00  0.00     0.049 A 
ATOM     55  H   UNL A   1      40.741  30.142  32.805  1.00  0.00     0.167 HD
ATOM     56  C   UNL A   1      42.117  30.459  35.257  1.00  0.00     0.074 A 
ATOM     57  C   UNL A   1      42.484  30.956  36.567  1.00  0.00     0.031 C 
ATOM     58  C   UNL A   1      42.745  29.437  34.625  1.00  0.00     0.037 A 
BRANCH  45  59
ATOM     59  C   UNL A   1      40.337  28.043  29.113  1.00  0.00     0.064 A 
ATOM     60  C   UNL A   1      39.602  26.848  29.069  1.00  0.00     0.173 A 
ATOM     61  C   UNL A   1      41.084  28.396  27.978  1.00  0.00     0.173 A 
ATOM     62  F   UNL A   1      38.881  26.460  30.132  1.00  0.00    -0.203 F 
ATOM     63  C   UNL A   1      39.643  26.022  27.948  1.00  0.00     0.198 A 
ATOM     64  C   UNL A   1      41.097  27.583  26.848  1.00  0.00     0.198 A 
ATOM     65  F   UNL A   1      41.797  29.532  27.964  1.00  0.00    -0.203 F 
ATOM     66  F   UNL A   1      38.977  24.859  27.951  1.00  0.00    -0.200 F 
ATOM     67  C   UNL A   1      40.386  26.392  26.837  1.00  0.00     0.200 A 
ATOM     68  F   UNL A   1      41.805  27.948  25.770  1.00  0.00    -0.200 F 
ATOM     69  F   UNL A   1      40.422  25.598  25.759  1.00  0.00    -0.200 F 
ENDBRANCH  45  59
BRANCH  46  70
ATOM     70  C   UNL A   1      39.634  34.026  37.054  1.00  0.00     0.064 A 
ATOM     71  C   UNL A   1      38.879  33.622  38.164  1.00  0.00     0.173 A 
ATOM     72  C   UNL A   1      40.279  35.269  37.119  1.00  0.00     0.173 A 
ATOM     73  F   UNL A   1      38.225  32.451  38.139  1.00  0.00    -0.203 F 
ATOM     74  C   UNL A   1      38.764  34.435  39.290  1.00  0.00     0.198 A 
ATOM     75  C   UNL A   1      40.183  36.070  38.255  1.00  0.00     0.198 A 
ATOM     76  F   UNL A   1      41.015  35.698  36.084  1.00  0.00    -0.203 F 
ATOM     77  F   UNL A   1      38.007  34.041  40.323  1.00  0.00    -0.200 F 
ATOM     78  C   UNL A   1      39.421  35.655  39.338  1.00  0.00     0.200 A 
ATOM     79  F   UNL A   1      40.830  37.243  38.302  1.00  0.00    -0.200 F 
ATOM     80  F   UNL A   1      39.317  36.433  40.423  1.00  0.00    -0.200 F 
ENDBRANCH  46  70
BRANCH  58  81
ATOM     81  C   UNL A   1      43.913  28.807  35.324  1.00  0.00     0.064 A 
ATOM     82  C   UNL A   1      43.745  27.728  36.204  1.00  0.00     0.173 A 
ATOM     83  C   UNL A   1      45.217  29.257  35.073  1.00  0.00     0.173 A 
ATOM     84  F   UNL A   1      42.517  27.272  36.487  1.00  0.00    -0.203 F 
ATOM     85  C   UNL A   1      44.842  27.136  36.825  1.00  0.00     0.198 A 
ATOM     86  C   UNL A   1      46.314  28.646  35.676  1.00  0.00     0.198 A 
ATOM     87  F   UNL A   1      45.430  30.282  34.234  1.00  0.00    -0.203 F 
ATOM     88  F   UNL A   1      44.658  26.132  37.692  1.00  0.00    -0.200 F 
ATOM     89  C   UNL A   1      46.125  27.590  36.555  1.00  0.00     0.200 A 
ATOM     90  F   UNL A   1      47.553  29.080  35.405  1.00  0.00    -0.200 F 
ATOM     91  F   UNL A   1      47.180  27.014  37.147  1.00  0.00    -0.200 F 
ENDBRANCH  58  81
ENDBRANCH  32  33
ENDBRANCH  24  27
ENDBRANCH  22  23
ENDBRANCH  21  22
ENDBRANCH   1  21
TORSDOF 15
ENDMDL
