MODEL 1
REMARK VINA RESULT:     -11.4      0.000      0.000
REMARK SMILES CCC(CC)(NC(=O)NC[C@H](C)[NH+]1CCCCC1)C(=O)NCCCNC(=O)c1ccc(-c2c3nc(c(-c4c(F)c(F)c(F)c(F)c4F)c4ccc([nH]4)c(-c4c(F)c(F)c(F)c(F)c4F)c4nc(c(-c5c(F)c(F)c(F)c(F)c5F)c5ccc2[nH]5)C=C4)C=C3)cc1
REMARK SMILES IDX 22 1 21 2 19 3 20 4 3 6 2 7 1 8 4 9 5 10 6 11 7 12 8 14 9 15
REMARK SMILES IDX 10 17 11 18 12 19 13 20 14 21 18 22 15 24 17 25 16 26 23 27
REMARK SMILES IDX 24 28 25 29 26 30 27 32 28 33 29 34 90 35 30 36 89 37 31 38
REMARK SMILES IDX 32 39 33 40 83 41 34 42 88 43 82 44 84 45 35 46 87 47 81 48
REMARK SMILES IDX 80 49 36 51 68 52 48 53 67 54 49 55 52 56 66 57 85 58 50 59
REMARK SMILES IDX 51 60 65 62 86 63 53 64 37 65 38 66 46 67 39 68 40 69 44 70
REMARK SMILES IDX 47 71 41 72 42 73 45 74 43 75 69 76 70 77 78 78 71 79 72 80
REMARK SMILES IDX 76 81 79 82 73 83 74 84 77 85 75 86 54 87 55 88 63 89 56 90
REMARK SMILES IDX 57 91 61 92 64 93 58 94 59 95 62 96 60 97
REMARK H PARENT 21 5 6 13 9 16 13 23 25 31 84 50 52 61
REMARK Flexibility Score: inf
ROOT
ATOM      1  C   UNL A   1      36.076  20.842  25.168  1.00  0.00     0.117 C 
ENDROOT
BRANCH   1   2
ATOM      2  N   UNL A   1      35.655  21.491  26.394  1.00  0.00    -0.354 N 
ATOM      3  C   UNL A   1      34.403  21.903  26.826  1.00  0.00     0.245 C 
ATOM      4  O   UNL A   1      34.040  21.615  27.965  1.00  0.00    -0.272 OA
ATOM      5  H   UNL A   1      36.385  21.672  27.030  1.00  0.00     0.163 HD
BRANCH   3   6
ATOM      6  C   UNL A   1      33.434  22.592  25.840  1.00  0.00     0.120 C 
BRANCH   6   7
ATOM      7  C   UNL A   1      33.023  21.877  24.523  1.00  0.00     0.035 C 
ATOM      8  C   UNL A   1      32.479  20.459  24.590  1.00  0.00     0.007 C 
ENDBRANCH   6   7
BRANCH   6   9
ATOM      9  C   UNL A   1      34.231  23.900  25.513  1.00  0.00     0.035 C 
ATOM     10  C   UNL A   1      34.817  24.083  24.129  1.00  0.00     0.007 C 
ENDBRANCH   6   9
BRANCH   6  11
ATOM     11  N   UNL A   1      32.189  22.751  26.611  1.00  0.00    -0.324 N 
ATOM     12  C   UNL A   1      31.043  23.414  26.339  1.00  0.00     0.315 C 
ATOM     13  H   UNL A   1      32.192  22.292  27.481  1.00  0.00     0.166 HD
ATOM     14  O   UNL A   1      30.199  23.452  27.242  1.00  0.00    -0.249 OA
ATOM     15  N   UNL A   1      30.678  23.947  25.152  1.00  0.00    -0.332 N 
ATOM     16  H   UNL A   1      29.698  23.988  25.074  1.00  0.00     0.165 HD
BRANCH  15  17
ATOM     17  C   UNL A   1      31.326  24.490  23.931  1.00  0.00     0.182 C 
BRANCH  17  18
ATOM     18  C   UNL A   1      31.600  26.061  23.797  1.00  0.00     0.200 C 
ATOM     19  C   UNL A   1      32.269  26.511  22.503  1.00  0.00     0.077 C 
BRANCH  18  20
ATOM     20  N   UNL A   1      32.161  26.679  25.041  1.00  0.00    -0.331 N 
ATOM     21  C   UNL A   1      33.325  27.575  24.918  1.00  0.00     0.262 C 
ATOM     22  C   UNL A   1      31.143  27.401  25.825  1.00  0.00     0.262 C 
ATOM     23  H   UNL A   1      32.498  25.837  25.509  1.00  0.00     0.348 HD
ATOM     24  C   UNL A   1      33.971  27.818  26.285  1.00  0.00     0.062 C 
ATOM     25  C   UNL A   1      31.661  27.761  27.227  1.00  0.00     0.062 C 
ATOM     26  C   UNL A   1      32.989  28.513  27.205  1.00  0.00     0.012 C 
ENDBRANCH  18  20
ENDBRANCH  17  18
ENDBRANCH  15  17
ENDBRANCH   6  11
ENDBRANCH   3   6
ENDBRANCH   1   2
BRANCH   1  27
ATOM     27  C   UNL A   1      37.541  20.971  24.747  1.00  0.00     0.042 C 
BRANCH  27  28
ATOM     28  C   UNL A   1      38.662  20.892  25.780  1.00  0.00     0.118 C 
BRANCH  28  29
ATOM     29  N   UNL A   1      39.598  19.790  25.638  1.00  0.00    -0.352 N 
ATOM     30  C   UNL A   1      40.918  19.735  26.027  1.00  0.00     0.251 C 
ATOM     31  H   UNL A   1      39.243  18.978  25.209  1.00  0.00     0.163 HD
ATOM     32  O   UNL A   1      41.554  18.691  25.899  1.00  0.00    -0.269 OA
BRANCH  30  33
ATOM     33  C   UNL A   1      41.605  20.946  26.534  1.00  0.00     0.039 A 
ATOM     34  C   UNL A   1      42.141  21.834  25.597  1.00  0.00     0.014 A 
ATOM     35  C   UNL A   1      41.711  21.225  27.900  1.00  0.00     0.014 A 
ATOM     36  C   UNL A   1      42.695  23.045  26.019  1.00  0.00     0.010 A 
ATOM     37  C   UNL A   1      42.238  22.453  28.320  1.00  0.00     0.010 A 
ATOM     38  C   UNL A   1      42.704  23.388  27.382  1.00  0.00    -0.014 A 
BRANCH  38  39
ATOM     39  C   UNL A   1      43.091  24.761  27.806  1.00  0.00     0.031 A 
ATOM     40  C   UNL A   1      42.064  25.812  28.109  1.00  0.00     0.074 A 
ATOM     41  C   UNL A   1      44.402  25.068  27.879  1.00  0.00     0.049 A 
ATOM     42  N   UNL A   1      42.241  27.051  28.500  1.00  0.00    -0.248 NA
ATOM     43  C   UNL A   1      40.656  25.430  27.937  1.00  0.00     0.031 C 
ATOM     44  C   UNL A   1      45.499  24.152  27.563  1.00  0.00     0.029 A 
ATOM     45  N   UNL A   1      45.036  26.234  28.235  1.00  0.00    -0.354 N 
ATOM     46  C   UNL A   1      40.971  27.597  28.623  1.00  0.00     0.074 A 
ATOM     47  C   UNL A   1      40.033  26.566  28.224  1.00  0.00     0.031 C 
ATOM     48  C   UNL A   1      46.668  24.782  27.760  1.00  0.00     0.029 A 
ATOM     49  C   UNL A   1      46.406  26.152  28.189  1.00  0.00     0.049 A 
ATOM     50  H   UNL A   1      44.553  27.050  28.501  1.00  0.00     0.167 HD
ATOM     51  C   UNL A   1      40.620  28.837  29.044  1.00  0.00     0.037 A 
ATOM     52  C   UNL A   1      47.348  27.076  28.458  1.00  0.00     0.037 A 
ATOM     53  C   UNL A   1      41.552  29.861  29.445  1.00  0.00     0.049 A 
ATOM     54  C   UNL A   1      46.931  28.445  28.919  1.00  0.00     0.074 A 
ATOM     55  C   UNL A   1      41.286  31.128  29.935  1.00  0.00     0.029 A 
ATOM     56  N   UNL A   1      42.934  29.738  29.392  1.00  0.00    -0.354 N 
ATOM     57  N   UNL A   1      45.725  28.921  29.109  1.00  0.00    -0.248 NA
ATOM     58  C   UNL A   1      48.007  29.402  29.212  1.00  0.00     0.031 C 
ATOM     59  C   UNL A   1      42.504  31.788  30.137  1.00  0.00     0.029 A 
ATOM     60  C   UNL A   1      43.531  30.915  29.818  1.00  0.00     0.049 A 
ATOM     61  H   UNL A   1      43.418  28.934  29.096  1.00  0.00     0.167 HD
ATOM     62  C   UNL A   1      45.896  30.221  29.566  1.00  0.00     0.074 A 
ATOM     63  C   UNL A   1      47.323  30.454  29.641  1.00  0.00     0.031 C 
ATOM     64  C   UNL A   1      44.952  31.136  29.893  1.00  0.00     0.037 A 
BRANCH  51  65
ATOM     65  C   UNL A   1      39.154  29.161  29.098  1.00  0.00     0.064 A 
ATOM     66  C   UNL A   1      38.450  29.170  30.312  1.00  0.00     0.173 A 
ATOM     67  C   UNL A   1      38.457  29.516  27.932  1.00  0.00     0.173 A 
ATOM     68  F   UNL A   1      39.070  28.836  31.454  1.00  0.00    -0.203 F 
ATOM     69  C   UNL A   1      37.096  29.494  30.353  1.00  0.00     0.198 A 
ATOM     70  C   UNL A   1      37.110  29.864  27.982  1.00  0.00     0.198 A 
ATOM     71  F   UNL A   1      39.085  29.534  26.748  1.00  0.00    -0.203 F 
ATOM     72  F   UNL A   1      36.435  29.453  31.517  1.00  0.00    -0.200 F 
ATOM     73  C   UNL A   1      36.429  29.845  29.189  1.00  0.00     0.200 A 
ATOM     74  F   UNL A   1      36.469  30.217  26.859  1.00  0.00    -0.200 F 
ATOM     75  F   UNL A   1      35.127  30.161  29.231  1.00  0.00    -0.200 F 
ENDBRANCH  51  65
BRANCH  52  76
ATOM     76  C   UNL A   1      48.786  26.724  28.330  1.00  0.00     0.064 A 
ATOM     77  C   UNL A   1      49.445  26.825  27.096  1.00  0.00     0.173 A 
ATOM     78  C   UNL A   1      49.529  26.277  29.432  1.00  0.00     0.173 A 
ATOM     79  F   UNL A   1      48.770  27.228  26.009  1.00  0.00    -0.203 F 
ATOM     80  C   UNL A   1      50.787  26.477  26.967  1.00  0.00     0.198 A 
ATOM     81  C   UNL A   1      50.878  25.954  29.307  1.00  0.00     0.198 A 
ATOM     82  F   UNL A   1      48.945  26.165  30.635  1.00  0.00    -0.203 F 
ATOM     83  F   UNL A   1      51.381  26.543  25.767  1.00  0.00    -0.200 F 
ATOM     84  C   UNL A   1      51.504  26.047  28.073  1.00  0.00     0.200 A 
ATOM     85  F   UNL A   1      51.571  25.552  30.381  1.00  0.00    -0.200 F 
ATOM     86  F   UNL A   1      52.796  25.717  27.949  1.00  0.00    -0.200 F 
ENDBRANCH  52  76
BRANCH  64  87
ATOM     87  C   UNL A   1      45.433  32.468  30.391  1.00  0.00     0.064 A 
ATOM     88  C   UNL A   1      45.686  32.698  31.752  1.00  0.00     0.173 A 
ATOM     89  C   UNL A   1      45.674  33.518  29.492  1.00  0.00     0.173 A 
ATOM     90  F   UNL A   1      45.454  31.732  32.653  1.00  0.00    -0.203 F 
ATOM     91  C   UNL A   1      46.141  33.937  32.197  1.00  0.00     0.198 A 
ATOM     92  C   UNL A   1      46.154  34.747  29.938  1.00  0.00     0.198 A 
ATOM     93  F   UNL A   1      45.451  33.351  28.180  1.00  0.00    -0.203 F 
ATOM     94  F   UNL A   1      46.334  34.147  33.506  1.00  0.00    -0.200 F 
ATOM     95  C   UNL A   1      46.381  34.957  31.289  1.00  0.00     0.200 A 
ATOM     96  F   UNL A   1      46.397  35.729  29.058  1.00  0.00    -0.200 F 
ATOM     97  F   UNL A   1      46.824  36.147  31.718  1.00  0.00    -0.200 F 
ENDBRANCH  64  87
ENDBRANCH  38  39
ENDBRANCH  30  33
ENDBRANCH  28  29
ENDBRANCH  27  28
ENDBRANCH   1  27
TORSDOF 16
ENDMDL
MODEL 2
REMARK VINA RESULT:     -11.3      4.937      9.210
REMARK SMILES CCC(CC)(NC(=O)NC[C@H](C)[NH+]1CCCCC1)C(=O)NCCCNC(=O)c1ccc(-c2c3nc(c(-c4c(F)c(F)c(F)c(F)c4F)c4ccc([nH]4)c(-c4c(F)c(F)c(F)c(F)c4F)c4nc(c(-c5c(F)c(F)c(F)c(F)c5F)c5ccc2[nH]5)C=C4)C=C3)cc1
REMARK SMILES IDX 22 1 21 2 19 3 20 4 3 6 2 7 1 8 4 9 5 10 6 11 7 12 8 14 9 15
REMARK SMILES IDX 10 17 11 18 12 19 13 20 14 21 18 22 15 24 17 25 16 26 23 27
REMARK SMILES IDX 24 28 25 29 26 30 27 32 28 33 29 34 90 35 30 36 89 37 31 38
REMARK SMILES IDX 32 39 33 40 83 41 34 42 88 43 82 44 84 45 35 46 87 47 81 48
REMARK SMILES IDX 80 49 36 51 68 52 48 53 67 54 49 55 52 56 66 57 85 58 50 59
REMARK SMILES IDX 51 60 65 62 86 63 53 64 37 65 38 66 46 67 39 68 40 69 44 70
REMARK SMILES IDX 47 71 41 72 42 73 45 74 43 75 69 76 70 77 78 78 71 79 72 80
REMARK SMILES IDX 76 81 79 82 73 83 74 84 77 85 75 86 54 87 55 88 63 89 56 90
REMARK SMILES IDX 57 91 61 92 64 93 58 94 59 95 62 96 60 97
REMARK H PARENT 21 5 6 13 9 16 13 23 25 31 84 50 52 61
REMARK Flexibility Score: inf
ROOT
ATOM      1  C   UNL A   1      32.166  29.670  25.932  1.00  0.00     0.117 C 
ENDROOT
BRANCH   1   2
ATOM      2  N   UNL A   1      33.225  29.532  24.952  1.00  0.00    -0.354 N 
ATOM      3  C   UNL A   1      33.291  28.798  23.777  1.00  0.00     0.245 C 
ATOM      4  O   UNL A   1      33.702  29.345  22.754  1.00  0.00    -0.272 OA
ATOM      5  H   UNL A   1      34.039  30.046  25.156  1.00  0.00     0.163 HD
BRANCH   3   6
ATOM      6  C   UNL A   1      32.726  27.361  23.729  1.00  0.00     0.120 C 
BRANCH   6   7
ATOM      7  C   UNL A   1      31.226  27.103  24.045  1.00  0.00     0.035 C 
ATOM      8  C   UNL A   1      30.166  27.876  23.277  1.00  0.00     0.007 C 
ENDBRANCH   6   7
BRANCH   6   9
ATOM      9  C   UNL A   1      33.627  26.659  24.800  1.00  0.00     0.035 C 
ATOM     10  C   UNL A   1      33.002  26.183  26.096  1.00  0.00     0.007 C 
ENDBRANCH   6   9
BRANCH   6  11
ATOM     11  N   UNL A   1      32.915  26.945  22.329  1.00  0.00    -0.324 N 
ATOM     12  C   UNL A   1      32.763  25.749  21.720  1.00  0.00     0.315 C 
ATOM     13  H   UNL A   1      33.204  27.669  21.729  1.00  0.00     0.166 HD
ATOM     14  O   UNL A   1      33.103  25.686  20.532  1.00  0.00    -0.249 OA
ATOM     15  N   UNL A   1      32.183  24.644  22.239  1.00  0.00    -0.332 N 
ATOM     16  H   UNL A   1      31.815  24.076  21.524  1.00  0.00     0.165 HD
BRANCH  15  17
ATOM     17  C   UNL A   1      31.939  24.038  23.572  1.00  0.00     0.182 C 
BRANCH  17  18
ATOM     18  C   UNL A   1      32.829  22.804  24.069  1.00  0.00     0.200 C 
ATOM     19  C   UNL A   1      32.175  21.884  25.095  1.00  0.00     0.077 C 
BRANCH  18  20
ATOM     20  N   UNL A   1      34.248  23.174  24.372  1.00  0.00    -0.331 N 
ATOM     21  C   UNL A   1      34.772  22.901  25.724  1.00  0.00     0.262 C 
ATOM     22  C   UNL A   1      35.204  22.591  23.414  1.00  0.00     0.262 C 
ATOM     23  H   UNL A   1      34.178  24.189  24.295  1.00  0.00     0.348 HD
ATOM     24  C   UNL A   1      36.084  23.654  25.959  1.00  0.00     0.062 C 
ATOM     25  C   UNL A   1      36.600  23.219  23.557  1.00  0.00     0.062 C 
ATOM     26  C   UNL A   1      37.140  23.174  24.983  1.00  0.00     0.012 C 
ENDBRANCH  18  20
ENDBRANCH  17  18
ENDBRANCH  15  17
ENDBRANCH   6  11
ENDBRANCH   3   6
ENDBRANCH   1   2
BRANCH   1  27
ATOM     27  C   UNL A   1      31.799  31.078  26.406  1.00  0.00     0.042 C 
BRANCH  27  28
ATOM     28  C   UNL A   1      32.824  31.957  27.117  1.00  0.00     0.118 C 
BRANCH  28  29
ATOM     29  N   UNL A   1      32.409  33.313  27.433  1.00  0.00    -0.352 N 
ATOM     30  C   UNL A   1      33.047  34.239  28.228  1.00  0.00     0.251 C 
ATOM     31  H   UNL A   1      31.563  33.608  27.025  1.00  0.00     0.163 HD
ATOM     32  O   UNL A   1      32.594  35.376  28.333  1.00  0.00    -0.269 OA
BRANCH  30  33
ATOM     33  C   UNL A   1      34.238  33.856  29.021  1.00  0.00     0.039 A 
ATOM     34  C   UNL A   1      34.048  33.018  30.124  1.00  0.00     0.014 A 
ATOM     35  C   UNL A   1      35.525  34.289  28.689  1.00  0.00     0.014 A 
ATOM     36  C   UNL A   1      35.151  32.536  30.834  1.00  0.00     0.010 A 
ATOM     37  C   UNL A   1      36.631  33.781  29.381  1.00  0.00     0.010 A 
ATOM     38  C   UNL A   1      36.456  32.873  30.438  1.00  0.00    -0.014 A 
BRANCH  38  39
ATOM     39  C   UNL A   1      37.625  32.190  31.054  1.00  0.00     0.031 A 
ATOM     40  C   UNL A   1      38.124  32.558  32.421  1.00  0.00     0.074 A 
ATOM     41  C   UNL A   1      38.270  31.244  30.342  1.00  0.00     0.049 A 
ATOM     42  N   UNL A   1      39.123  32.050  33.100  1.00  0.00    -0.248 NA
ATOM     43  C   UNL A   1      37.420  33.648  33.109  1.00  0.00     0.031 C 
ATOM     44  C   UNL A   1      37.917  30.828  28.984  1.00  0.00     0.029 A 
ATOM     45  N   UNL A   1      39.358  30.464  30.655  1.00  0.00    -0.354 N 
ATOM     46  C   UNL A   1      39.169  32.754  34.295  1.00  0.00     0.074 A 
ATOM     47  C   UNL A   1      38.123  33.755  34.230  1.00  0.00     0.031 C 
ATOM     48  C   UNL A   1      38.756  29.857  28.588  1.00  0.00     0.029 A 
ATOM     49  C   UNL A   1      39.722  29.600  29.651  1.00  0.00     0.049 A 
ATOM     50  H   UNL A   1      39.830  30.519  31.517  1.00  0.00     0.167 HD
ATOM     51  C   UNL A   1      39.996  32.571  35.354  1.00  0.00     0.037 A 
ATOM     52  C   UNL A   1      40.723  28.701  29.591  1.00  0.00     0.037 A 
ATOM     53  C   UNL A   1      41.035  31.573  35.420  1.00  0.00     0.049 A 
ATOM     54  C   UNL A   1      41.629  28.523  30.778  1.00  0.00     0.074 A 
ATOM     55  C   UNL A   1      41.887  31.281  36.471  1.00  0.00     0.029 A 
ATOM     56  N   UNL A   1      41.369  30.709  34.387  1.00  0.00    -0.354 N 
ATOM     57  N   UNL A   1      41.609  29.140  31.933  1.00  0.00    -0.248 NA
ATOM     58  C   UNL A   1      42.693  27.515  30.654  1.00  0.00     0.031 C 
ATOM     59  C   UNL A   1      42.765  30.272  36.060  1.00  0.00     0.029 A 
ATOM     60  C   UNL A   1      42.430  29.902  34.768  1.00  0.00     0.049 A 
ATOM     61  H   UNL A   1      40.920  30.675  33.511  1.00  0.00     0.167 HD
ATOM     62  C   UNL A   1      42.636  28.581  32.682  1.00  0.00     0.074 A 
ATOM     63  C   UNL A   1      43.250  27.563  31.856  1.00  0.00     0.031 C 
ATOM     64  C   UNL A   1      43.031  28.887  33.941  1.00  0.00     0.037 A 
BRANCH  51  65
ATOM     65  C   UNL A   1      39.814  33.474  36.540  1.00  0.00     0.064 A 
ATOM     66  C   UNL A   1      40.499  34.695  36.643  1.00  0.00     0.173 A 
ATOM     67  C   UNL A   1      38.909  33.141  37.560  1.00  0.00     0.173 A 
ATOM     68  F   UNL A   1      41.378  35.058  35.696  1.00  0.00    -0.203 F 
ATOM     69  C   UNL A   1      40.307  35.535  37.737  1.00  0.00     0.198 A 
ATOM     70  C   UNL A   1      38.700  33.997  38.639  1.00  0.00     0.198 A 
ATOM     71  F   UNL A   1      38.221  31.992  37.504  1.00  0.00    -0.203 F 
ATOM     72  F   UNL A   1      41.004  36.675  37.835  1.00  0.00    -0.200 F 
ATOM     73  C   UNL A   1      39.404  35.188  38.731  1.00  0.00     0.200 A 
ATOM     74  F   UNL A   1      37.817  33.667  39.591  1.00  0.00    -0.200 F 
ATOM     75  F   UNL A   1      39.216  36.000  39.781  1.00  0.00    -0.200 F 
ENDBRANCH  51  65
BRANCH  52  76
ATOM     76  C   UNL A   1      40.901  27.874  28.369  1.00  0.00     0.064 A 
ATOM     77  C   UNL A   1      40.245  26.642  28.231  1.00  0.00     0.173 A 
ATOM     78  C   UNL A   1      41.729  28.294  27.318  1.00  0.00     0.173 A 
ATOM     79  F   UNL A   1      39.459  26.189  29.220  1.00  0.00    -0.203 F 
ATOM     80  C   UNL A   1      40.424  25.855  27.097  1.00  0.00     0.198 A 
ATOM     81  C   UNL A   1      41.885  27.518  26.172  1.00  0.00     0.198 A 
ATOM     82  F   UNL A   1      42.375  29.467  27.400  1.00  0.00    -0.203 F 
ATOM     83  F   UNL A   1      39.818  24.663  27.010  1.00  0.00    -0.200 F 
ATOM     84  C   UNL A   1      41.239  26.295  26.066  1.00  0.00     0.200 A 
ATOM     85  F   UNL A   1      42.664  27.953  25.172  1.00  0.00    -0.200 F 
ATOM     86  F   UNL A   1      41.408  25.540  24.973  1.00  0.00    -0.200 F 
ENDBRANCH  52  76
BRANCH  64  87
ATOM     87  C   UNL A   1      44.166  28.091  34.516  1.00  0.00     0.064 A 
ATOM     88  C   UNL A   1      45.496  28.528  34.420  1.00  0.00     0.173 A 
ATOM     89  C   UNL A   1      43.918  26.891  35.201  1.00  0.00     0.173 A 
ATOM     90  F   UNL A   1      45.787  29.659  33.760  1.00  0.00    -0.203 F 
ATOM     91  C   UNL A   1      46.537  27.783  34.968  1.00  0.00     0.198 A 
ATOM     92  C   UNL A   1      44.959  26.162  35.770  1.00  0.00     0.198 A 
ATOM     93  F   UNL A   1      42.665  26.429  35.325  1.00  0.00    -0.203 F 
ATOM     94  F   UNL A   1      47.803  28.198  34.825  1.00  0.00    -0.200 F 
ATOM     95  C   UNL A   1      46.267  26.605  35.648  1.00  0.00     0.200 A 
ATOM     96  F   UNL A   1      44.696  25.030  36.437  1.00  0.00    -0.200 F 
ATOM     97  F   UNL A   1      47.269  25.892  36.179  1.00  0.00    -0.200 F 
ENDBRANCH  64  87
ENDBRANCH  38  39
ENDBRANCH  30  33
ENDBRANCH  28  29
ENDBRANCH  27  28
ENDBRANCH   1  27
TORSDOF 16
ENDMDL
MODEL 3
REMARK VINA RESULT:     -11.3      5.120     10.212
REMARK SMILES CCC(CC)(NC(=O)NC[C@H](C)[NH+]1CCCCC1)C(=O)NCCCNC(=O)c1ccc(-c2c3nc(c(-c4c(F)c(F)c(F)c(F)c4F)c4ccc([nH]4)c(-c4c(F)c(F)c(F)c(F)c4F)c4nc(c(-c5c(F)c(F)c(F)c(F)c5F)c5ccc2[nH]5)C=C4)C=C3)cc1
REMARK SMILES IDX 22 1 21 2 19 3 20 4 3 6 2 7 1 8 4 9 5 10 6 11 7 12 8 14 9 15
REMARK SMILES IDX 10 17 11 18 12 19 13 20 14 21 18 22 15 24 17 25 16 26 23 27
REMARK SMILES IDX 24 28 25 29 26 30 27 32 28 33 29 34 90 35 30 36 89 37 31 38
REMARK SMILES IDX 32 39 33 40 83 41 34 42 88 43 82 44 84 45 35 46 87 47 81 48
REMARK SMILES IDX 80 49 36 51 68 52 48 53 67 54 49 55 52 56 66 57 85 58 50 59
REMARK SMILES IDX 51 60 65 62 86 63 53 64 37 65 38 66 46 67 39 68 40 69 44 70
REMARK SMILES IDX 47 71 41 72 42 73 45 74 43 75 69 76 70 77 78 78 71 79 72 80
REMARK SMILES IDX 76 81 79 82 73 83 74 84 77 85 75 86 54 87 55 88 63 89 56 90
REMARK SMILES IDX 57 91 61 92 64 93 58 94 59 95 62 96 60 97
REMARK H PARENT 21 5 6 13 9 16 13 23 25 31 84 50 52 61
REMARK Flexibility Score: inf
ROOT
ATOM      1  C   UNL A   1      32.050  29.991  26.140  1.00  0.00     0.117 C 
ENDROOT
BRANCH   1   2
ATOM      2  N   UNL A   1      33.177  29.733  25.265  1.00  0.00    -0.354 N 
ATOM      3  C   UNL A   1      33.287  28.950  24.126  1.00  0.00     0.245 C 
ATOM      4  O   UNL A   1      33.829  29.422  23.127  1.00  0.00    -0.272 OA
ATOM      5  H   UNL A   1      34.008  30.193  25.525  1.00  0.00     0.163 HD
BRANCH   3   6
ATOM      6  C   UNL A   1      32.617  27.559  24.076  1.00  0.00     0.120 C 
BRANCH   6   7
ATOM      7  C   UNL A   1      31.074  27.433  24.207  1.00  0.00     0.035 C 
ATOM      8  C   UNL A   1      30.184  28.332  23.365  1.00  0.00     0.007 C 
ENDBRANCH   6   7
BRANCH   6   9
ATOM      9  C   UNL A   1      33.317  26.855  25.286  1.00  0.00     0.035 C 
ATOM     10  C   UNL A   1      32.494  26.477  26.500  1.00  0.00     0.007 C 
ENDBRANCH   6   9
BRANCH   6  11
ATOM     11  N   UNL A   1      32.944  27.049  22.733  1.00  0.00    -0.324 N 
ATOM     12  C   UNL A   1      32.809  25.823  22.180  1.00  0.00     0.315 C 
ATOM     13  H   UNL A   1      33.332  27.723  22.129  1.00  0.00     0.166 HD
ATOM     14  O   UNL A   1      33.278  25.674  21.046  1.00  0.00    -0.249 OA
ATOM     15  N   UNL A   1      32.124  24.776  22.692  1.00  0.00    -0.332 N 
ATOM     16  H   UNL A   1      31.814  24.179  21.973  1.00  0.00     0.165 HD
BRANCH  15  17
ATOM     17  C   UNL A   1      31.703  24.265  24.020  1.00  0.00     0.182 C 
BRANCH  17  18
ATOM     18  C   UNL A   1      32.582  23.156  24.770  1.00  0.00     0.200 C 
ATOM     19  C   UNL A   1      32.069  22.715  26.136  1.00  0.00     0.077 C 
BRANCH  18  20
ATOM     20  N   UNL A   1      34.055  23.417  24.707  1.00  0.00    -0.331 N 
ATOM     21  C   UNL A   1      34.818  23.451  25.968  1.00  0.00     0.262 C 
ATOM     22  C   UNL A   1      34.758  22.488  23.804  1.00  0.00     0.262 C 
ATOM     23  H   UNL A   1      34.042  24.376  24.357  1.00  0.00     0.348 HD
ATOM     24  C   UNL A   1      36.200  24.074  25.750  1.00  0.00     0.062 C 
ATOM     25  C   UNL A   1      36.195  22.956  23.519  1.00  0.00     0.062 C 
ATOM     26  C   UNL A   1      37.003  23.226  24.785  1.00  0.00     0.012 C 
ENDBRANCH  18  20
ENDBRANCH  17  18
ENDBRANCH  15  17
ENDBRANCH   6  11
ENDBRANCH   3   6
ENDBRANCH   1   2
BRANCH   1  27
ATOM     27  C   UNL A   1      31.732  31.444  26.501  1.00  0.00     0.042 C 
BRANCH  27  28
ATOM     28  C   UNL A   1      32.763  32.316  27.211  1.00  0.00     0.118 C 
BRANCH  28  29
ATOM     29  N   UNL A   1      32.346  33.666  27.553  1.00  0.00    -0.352 N 
ATOM     30  C   UNL A   1      32.983  34.577  28.366  1.00  0.00     0.251 C 
ATOM     31  H   UNL A   1      31.500  33.968  27.151  1.00  0.00     0.163 HD
ATOM     32  O   UNL A   1      32.528  35.712  28.493  1.00  0.00    -0.269 OA
BRANCH  30  33
ATOM     33  C   UNL A   1      34.175  34.180  29.151  1.00  0.00     0.039 A 
ATOM     34  C   UNL A   1      33.968  33.601  30.406  1.00  0.00     0.014 A 
ATOM     35  C   UNL A   1      35.476  34.353  28.669  1.00  0.00     0.014 A 
ATOM     36  C   UNL A   1      35.053  33.105  31.135  1.00  0.00     0.010 A 
ATOM     37  C   UNL A   1      36.559  33.828  29.386  1.00  0.00     0.010 A 
ATOM     38  C   UNL A   1      36.354  33.169  30.608  1.00  0.00    -0.014 A 
BRANCH  38  39
ATOM     39  C   UNL A   1      37.470  32.451  31.281  1.00  0.00     0.031 A 
ATOM     40  C   UNL A   1      38.163  31.287  30.633  1.00  0.00     0.074 A 
ATOM     41  C   UNL A   1      37.834  32.838  32.519  1.00  0.00     0.049 A 
ATOM     42  N   UNL A   1      39.158  30.564  31.085  1.00  0.00    -0.248 NA
ATOM     43  C   UNL A   1      37.666  30.873  29.315  1.00  0.00     0.031 C 
ATOM     44  C   UNL A   1      37.208  33.921  33.279  1.00  0.00     0.029 A 
ATOM     45  N   UNL A   1      38.812  32.365  33.361  1.00  0.00    -0.354 N 
ATOM     46  C   UNL A   1      39.409  29.610  30.108  1.00  0.00     0.074 A 
ATOM     47  C   UNL A   1      38.433  29.821  29.058  1.00  0.00     0.031 C 
ATOM     48  C   UNL A   1      37.830  34.045  34.463  1.00  0.00     0.029 A 
ATOM     49  C   UNL A   1      38.878  33.035  34.559  1.00  0.00     0.049 A 
ATOM     50  H   UNL A   1      39.410  31.619  33.127  1.00  0.00     0.167 HD
ATOM     51  C   UNL A   1      40.374  28.658  30.084  1.00  0.00     0.037 A 
ATOM     52  C   UNL A   1      39.690  32.855  35.619  1.00  0.00     0.037 A 
ATOM     53  C   UNL A   1      41.348  28.451  31.127  1.00  0.00     0.049 A 
ATOM     54  C   UNL A   1      40.748  31.788  35.566  1.00  0.00     0.074 A 
ATOM     55  C   UNL A   1      42.394  27.544  31.165  1.00  0.00     0.029 A 
ATOM     56  N   UNL A   1      41.389  29.154  32.323  1.00  0.00    -0.354 N 
ATOM     57  N   UNL A   1      41.027  30.947  34.602  1.00  0.00    -0.248 NA
ATOM     58  C   UNL A   1      41.612  31.653  36.748  1.00  0.00     0.031 C 
ATOM     59  C   UNL A   1      43.041  27.669  32.399  1.00  0.00     0.029 A 
ATOM     60  C   UNL A   1      42.427  28.685  33.113  1.00  0.00     0.049 A 
ATOM     61  H   UNL A   1      40.772  29.879  32.573  1.00  0.00     0.167 HD
ATOM     62  C   UNL A   1      42.109  30.200  35.047  1.00  0.00     0.074 A 
ATOM     63  C   UNL A   1      42.448  30.700  36.363  1.00  0.00     0.031 C 
ATOM     64  C   UNL A   1      42.761  29.192  34.420  1.00  0.00     0.037 A 
BRANCH  51  65
ATOM     65  C   UNL A   1      40.430  27.758  28.883  1.00  0.00     0.064 A 
ATOM     66  C   UNL A   1      41.250  28.055  27.783  1.00  0.00     0.173 A 
ATOM     67  C   UNL A   1      39.694  26.563  28.849  1.00  0.00     0.173 A 
ATOM     68  F   UNL A   1      41.971  29.186  27.765  1.00  0.00    -0.203 F 
ATOM     69  C   UNL A   1      41.311  27.202  26.683  1.00  0.00     0.198 A 
ATOM     70  C   UNL A   1      39.778  25.701  27.759  1.00  0.00     0.198 A 
ATOM     71  F   UNL A   1      38.903  26.227  29.878  1.00  0.00    -0.203 F 
ATOM     72  F   UNL A   1      42.068  27.528  25.627  1.00  0.00    -0.200 F 
ATOM     73  C   UNL A   1      40.579  26.025  26.674  1.00  0.00     0.200 A 
ATOM     74  F   UNL A   1      39.081  24.557  27.757  1.00  0.00    -0.200 F 
ATOM     75  F   UNL A   1      40.642  25.204  25.617  1.00  0.00    -0.200 F 
ENDBRANCH  51  65
BRANCH  52  76
ATOM     76  C   UNL A   1      39.554  33.732  36.810  1.00  0.00     0.064 A 
ATOM     77  C   UNL A   1      38.746  33.355  37.893  1.00  0.00     0.173 A 
ATOM     78  C   UNL A   1      40.223  34.962  36.892  1.00  0.00     0.173 A 
ATOM     79  F   UNL A   1      38.069  32.198  37.851  1.00  0.00    -0.203 F 
ATOM     80  C   UNL A   1      38.599  34.183  39.003  1.00  0.00     0.198 A 
ATOM     81  C   UNL A   1      40.097  35.776  38.015  1.00  0.00     0.198 A 
ATOM     82  F   UNL A   1      41.010  35.365  35.884  1.00  0.00    -0.203 F 
ATOM     83  F   UNL A   1      37.787  33.818  40.005  1.00  0.00    -0.200 F 
ATOM     84  C   UNL A   1      39.278  35.390  39.066  1.00  0.00     0.200 A 
ATOM     85  F   UNL A   1      40.765  36.936  38.077  1.00  0.00    -0.200 F 
ATOM     86  F   UNL A   1      39.140  36.184  40.136  1.00  0.00    -0.200 F 
ENDBRANCH  52  76
BRANCH  64  87
ATOM     87  C   UNL A   1      43.928  28.579  35.136  1.00  0.00     0.064 A 
ATOM     88  C   UNL A   1      45.227  29.094  35.004  1.00  0.00     0.173 A 
ATOM     89  C   UNL A   1      43.742  27.483  35.992  1.00  0.00     0.173 A 
ATOM     90  F   UNL A   1      45.460  30.130  34.184  1.00  0.00    -0.203 F 
ATOM     91  C   UNL A   1      46.298  28.520  35.684  1.00  0.00     0.198 A 
ATOM     92  C   UNL A   1      44.811  26.928  36.691  1.00  0.00     0.198 A 
ATOM     93  F   UNL A   1      42.520  26.954  36.157  1.00  0.00    -0.203 F 
ATOM     94  F   UNL A   1      47.536  29.001  35.507  1.00  0.00    -0.200 F 
ATOM     95  C   UNL A   1      46.088  27.443  36.531  1.00  0.00     0.200 A 
ATOM     96  F   UNL A   1      44.605  25.894  37.518  1.00  0.00    -0.200 F 
ATOM     97  F   UNL A   1      47.119  26.895  37.189  1.00  0.00    -0.200 F 
ENDBRANCH  64  87
ENDBRANCH  38  39
ENDBRANCH  30  33
ENDBRANCH  28  29
ENDBRANCH  27  28
ENDBRANCH   1  27
TORSDOF 16
ENDMDL
