MODEL 1
REMARK VINA RESULT:     -14.3      0.000      0.000
REMARK SMILES O=C(Cc1ccccc1)Nc1cccc(C(=O)Nc2ccccc2C(=O)NCCCNC(=O)c2ccc(-c3c4nc(c(-c5c(F)c(F)c(F)c(F)c5F)c5ccc([nH]5)c(-c5c(F)c(F)c(F)c(F)c5F)c5nc(c(-c6c(F)c(F)c(F)c(F)c6F)c6ccc3[nH]6)C=C5)C=C4)cc2)c1
REMARK SMILES IDX 25 1 26 2 27 3 24 5 19 6 20 7 21 8 23 9 22 10 18 11 16 12
REMARK SMILES IDX 17 13 15 15 11 16 12 17 97 18 13 19 14 20 10 21 1 22 2 23
REMARK SMILES IDX 3 25 4 26 5 27 9 28 6 29 8 30 7 31 28 32 29 33 30 34 31 35
REMARK SMILES IDX 32 36 33 38 34 39 35 40 96 41 36 42 95 43 37 44 38 45 39 46
REMARK SMILES IDX 89 47 40 48 94 49 88 50 90 51 41 52 93 53 87 54 86 55 42 57
REMARK SMILES IDX 74 58 54 59 73 60 55 61 58 62 72 63 91 64 56 65 57 66 71 68
REMARK SMILES IDX 92 69 59 70 43 71 44 72 52 73 45 74 46 75 50 76 53 77 47 78
REMARK SMILES IDX 48 79 51 80 49 81 75 82 76 83 84 84 77 85 78 86 82 87 85 88
REMARK SMILES IDX 79 89 80 90 83 91 81 92 60 93 61 94 69 95 62 96 63 97 67 98
REMARK SMILES IDX 70 99 64 100 65 101 68 102 66 103
REMARK H PARENT 27 4 18 14 10 24 31 37 90 56 58 67
REMARK Flexibility Score: inf
ROOT
ATOM      1  C   UNL A   1      34.960  22.483  26.181  1.00  0.00     0.253 C 
ATOM      2  O   UNL A   1      34.492  22.982  27.206  1.00  0.00    -0.269 OA
ATOM      3  N   UNL A   1      36.288  22.687  25.931  1.00  0.00    -0.352 N 
ATOM      4  H   UNL A   1      36.765  23.186  26.633  1.00  0.00     0.163 HD
ENDROOT
BRANCH   1   5
ATOM      5  C   UNL A   1      34.060  21.793  25.223  1.00  0.00     0.063 A 
ATOM      6  C   UNL A   1      33.604  22.253  23.970  1.00  0.00     0.054 A 
ATOM      7  C   UNL A   1      32.611  21.499  23.315  1.00  0.00     0.027 A 
ATOM      8  C   UNL A   1      32.177  20.266  23.812  1.00  0.00     0.002 A 
ATOM      9  C   UNL A   1      33.622  20.537  25.703  1.00  0.00     0.016 A 
ATOM     10  C   UNL A   1      32.702  19.771  24.996  1.00  0.00     0.001 A 
BRANCH   6  11
ATOM     11  N   UNL A   1      34.054  23.375  23.222  1.00  0.00    -0.321 N 
ATOM     12  C   UNL A   1      33.616  24.687  23.151  1.00  0.00     0.255 C 
ATOM     13  O   UNL A   1      34.029  25.423  22.257  1.00  0.00    -0.269 OA
ATOM     14  H   UNL A   1      34.825  23.181  22.642  1.00  0.00     0.170 HD
BRANCH  12  15
ATOM     15  C   UNL A   1      32.694  25.231  24.165  1.00  0.00     0.042 A 
ATOM     16  C   UNL A   1      30.644  26.414  24.581  1.00  0.00     0.041 A 
ATOM     17  C   UNL A   1      31.084  26.685  25.882  1.00  0.00     0.026 A 
ATOM     18  C   UNL A   1      31.411  25.595  23.769  1.00  0.00     0.040 A 
ATOM     19  C   UNL A   1      32.303  26.169  26.341  1.00  0.00     0.003 A 
ATOM     20  C   UNL A   1      33.124  25.450  25.474  1.00  0.00     0.014 A 
BRANCH  16  21
ATOM     21  N   UNL A   1      29.504  27.078  24.096  1.00  0.00    -0.326 N 
ATOM     22  O   UNL A   1      30.320  28.098  22.149  1.00  0.00    -0.274 OA
ATOM     23  C   UNL A   1      29.432  27.897  22.974  1.00  0.00     0.228 C 
ATOM     24  H   UNL A   1      28.669  26.950  24.602  1.00  0.00     0.169 HD
BRANCH  23  25
ATOM     25  C   UNL A   1      28.091  28.578  22.825  1.00  0.00     0.135 C 
BRANCH  25  26
ATOM     26  C   UNL A   1      28.145  30.057  22.517  1.00  0.00    -0.039 A 
ATOM     27  C   UNL A   1      28.310  31.045  23.499  1.00  0.00     0.004 A 
ATOM     28  C   UNL A   1      28.028  30.455  21.178  1.00  0.00     0.004 A 
ATOM     29  C   UNL A   1      28.404  32.391  23.147  1.00  0.00     0.000 A 
ATOM     30  C   UNL A   1      28.103  31.803  20.829  1.00  0.00     0.000 A 
ATOM     31  C   UNL A   1      28.303  32.768  21.813  1.00  0.00     0.000 A 
ENDBRANCH  25  26
ENDBRANCH  23  25
ENDBRANCH  16  21
ENDBRANCH  12  15
ENDBRANCH   6  11
ENDBRANCH   1   5
BRANCH   3  32
ATOM     32  C   UNL A   1      37.109  22.292  24.805  1.00  0.00     0.118 C 
BRANCH  32  33
ATOM     33  C   UNL A   1      37.778  20.941  25.002  1.00  0.00     0.042 C 
BRANCH  33  34
ATOM     34  C   UNL A   1      39.062  21.001  25.826  1.00  0.00     0.118 C 
BRANCH  34  35
ATOM     35  N   UNL A   1      39.880  19.793  25.775  1.00  0.00    -0.352 N 
ATOM     36  C   UNL A   1      41.213  19.573  26.031  1.00  0.00     0.251 C 
ATOM     37  H   UNL A   1      39.384  18.985  25.506  1.00  0.00     0.163 HD
ATOM     38  O   UNL A   1      41.690  18.450  25.896  1.00  0.00    -0.269 OA
BRANCH  36  39
ATOM     39  C   UNL A   1      42.096  20.696  26.397  1.00  0.00     0.039 A 
ATOM     40  C   UNL A   1      42.692  21.443  25.377  1.00  0.00     0.014 A 
ATOM     41  C   UNL A   1      42.288  21.057  27.726  1.00  0.00     0.014 A 
ATOM     42  C   UNL A   1      43.347  22.637  25.687  1.00  0.00     0.010 A 
ATOM     43  C   UNL A   1      42.823  22.304  28.023  1.00  0.00     0.010 A 
ATOM     44  C   UNL A   1      43.332  23.122  27.004  1.00  0.00    -0.014 A 
BRANCH  44  45
ATOM     45  C   UNL A   1      43.788  24.494  27.350  1.00  0.00     0.031 A 
ATOM     46  C   UNL A   1      42.800  25.505  27.859  1.00  0.00     0.074 A 
ATOM     47  C   UNL A   1      45.057  24.865  27.078  1.00  0.00     0.049 A 
ATOM     48  N   UNL A   1      42.932  26.801  27.989  1.00  0.00    -0.248 NA
ATOM     49  C   UNL A   1      41.468  24.998  28.227  1.00  0.00     0.031 C 
ATOM     50  C   UNL A   1      46.103  23.996  26.535  1.00  0.00     0.029 A 
ATOM     51  N   UNL A   1      45.677  26.086  27.199  1.00  0.00    -0.354 N 
ATOM     52  C   UNL A   1      41.693  27.264  28.413  1.00  0.00     0.074 A 
ATOM     53  C   UNL A   1      40.809  26.121  28.475  1.00  0.00     0.031 C 
ATOM     54  C   UNL A   1      47.237  24.699  26.396  1.00  0.00     0.029 A 
ATOM     55  C   UNL A   1      46.986  26.082  26.780  1.00  0.00     0.049 A 
ATOM     56  H   UNL A   1      45.226  26.886  27.552  1.00  0.00     0.167 HD
ATOM     57  C   UNL A   1      41.333  28.526  28.744  1.00  0.00     0.037 A 
ATOM     58  C   UNL A   1      47.877  27.088  26.690  1.00  0.00     0.037 A 
ATOM     59  C   UNL A   1      42.230  29.651  28.738  1.00  0.00     0.049 A 
ATOM     60  C   UNL A   1      47.451  28.478  27.073  1.00  0.00     0.074 A 
ATOM     61  C   UNL A   1      41.979  30.956  29.123  1.00  0.00     0.029 A 
ATOM     62  N   UNL A   1      43.558  29.596  28.341  1.00  0.00    -0.354 N 
ATOM     63  N   UNL A   1      46.286  28.898  27.503  1.00  0.00    -0.248 NA
ATOM     64  C   UNL A   1      48.461  29.538  26.947  1.00  0.00     0.031 C 
ATOM     65  C   UNL A   1      43.150  31.698  28.937  1.00  0.00     0.029 A 
ATOM     66  C   UNL A   1      44.137  30.849  28.465  1.00  0.00     0.049 A 
ATOM     67  H   UNL A   1      44.019  28.788  28.021  1.00  0.00     0.167 HD
ATOM     68  C   UNL A   1      46.428  30.261  27.716  1.00  0.00     0.074 A 
ATOM     69  C   UNL A   1      47.796  30.598  27.385  1.00  0.00     0.031 C 
ATOM     70  C   UNL A   1      45.504  31.156  28.141  1.00  0.00     0.037 A 
BRANCH  57  71
ATOM     71  C   UNL A   1      39.913  28.755  29.164  1.00  0.00     0.064 A 
ATOM     72  C   UNL A   1      39.513  28.608  30.502  1.00  0.00     0.173 A 
ATOM     73  C   UNL A   1      38.948  29.168  28.232  1.00  0.00     0.173 A 
ATOM     74  F   UNL A   1      40.395  28.202  31.427  1.00  0.00    -0.203 F 
ATOM     75  C   UNL A   1      38.196  28.841  30.885  1.00  0.00     0.198 A 
ATOM     76  C   UNL A   1      37.638  29.427  28.624  1.00  0.00     0.198 A 
ATOM     77  F   UNL A   1      39.280  29.328  26.942  1.00  0.00    -0.203 F 
ATOM     78  F   UNL A   1      37.828  28.651  32.160  1.00  0.00    -0.200 F 
ATOM     79  C   UNL A   1      37.262  29.257  29.949  1.00  0.00     0.200 A 
ATOM     80  F   UNL A   1      36.738  29.839  27.721  1.00  0.00    -0.200 F 
ATOM     81  F   UNL A   1      35.995  29.489  30.322  1.00  0.00    -0.200 F 
ENDBRANCH  57  71
BRANCH  58  82
ATOM     82  C   UNL A   1      49.262  26.825  26.222  1.00  0.00     0.064 A 
ATOM     83  C   UNL A   1      49.604  26.996  24.872  1.00  0.00     0.173 A 
ATOM     84  C   UNL A   1      50.262  26.378  27.096  1.00  0.00     0.173 A 
ATOM     85  F   UNL A   1      48.674  27.401  23.994  1.00  0.00    -0.203 F 
ATOM     86  C   UNL A   1      50.886  26.706  24.411  1.00  0.00     0.198 A 
ATOM     87  C   UNL A   1      51.552  26.112  26.639  1.00  0.00     0.198 A 
ATOM     88  F   UNL A   1      49.989  26.200  28.397  1.00  0.00    -0.203 F 
ATOM     89  F   UNL A   1      51.170  26.829  23.107  1.00  0.00    -0.200 F 
ATOM     90  C   UNL A   1      51.860  26.268  25.295  1.00  0.00     0.200 A 
ATOM     91  F   UNL A   1      52.493  25.700  27.498  1.00  0.00    -0.200 F 
ATOM     92  F   UNL A   1      53.091  25.984  24.851  1.00  0.00    -0.200 F 
ENDBRANCH  58  82
BRANCH  70  93
ATOM     93  C   UNL A   1      45.951  32.578  28.295  1.00  0.00     0.064 A 
ATOM     94  C   UNL A   1      46.530  33.034  29.487  1.00  0.00     0.173 A 
ATOM     95  C   UNL A   1      45.846  33.476  27.224  1.00  0.00     0.173 A 
ATOM     96  F   UNL A   1      46.634  32.215  30.544  1.00  0.00    -0.203 F 
ATOM     97  C   UNL A   1      46.975  34.348  29.606  1.00  0.00     0.198 A 
ATOM     98  C   UNL A   1      46.314  34.782  27.338  1.00  0.00     0.198 A 
ATOM     99  F   UNL A   1      45.303  33.083  26.062  1.00  0.00    -0.203 F 
ATOM    100  F   UNL A   1      47.493  34.775  30.766  1.00  0.00    -0.200 F 
ATOM    101  C   UNL A   1      46.874  35.218  28.530  1.00  0.00     0.200 A 
ATOM    102  F   UNL A   1      46.225  35.618  26.295  1.00  0.00    -0.200 F 
ATOM    103  F   UNL A   1      47.312  36.478  28.643  1.00  0.00    -0.200 F 
ENDBRANCH  70  93
ENDBRANCH  44  45
ENDBRANCH  36  39
ENDBRANCH  34  35
ENDBRANCH  33  34
ENDBRANCH  32  33
ENDBRANCH   3  32
TORSDOF 15
ENDMDL
MODEL 2
REMARK VINA RESULT:     -14.0      4.672      9.119
REMARK SMILES O=C(Cc1ccccc1)Nc1cccc(C(=O)Nc2ccccc2C(=O)NCCCNC(=O)c2ccc(-c3c4nc(c(-c5c(F)c(F)c(F)c(F)c5F)c5ccc([nH]5)c(-c5c(F)c(F)c(F)c(F)c5F)c5nc(c(-c6c(F)c(F)c(F)c(F)c6F)c6ccc3[nH]6)C=C5)C=C4)cc2)c1
REMARK SMILES IDX 25 1 26 2 27 3 24 5 19 6 20 7 21 8 23 9 22 10 18 11 16 12
REMARK SMILES IDX 17 13 15 15 11 16 12 17 97 18 13 19 14 20 10 21 1 22 2 23
REMARK SMILES IDX 3 25 4 26 5 27 9 28 6 29 8 30 7 31 28 32 29 33 30 34 31 35
REMARK SMILES IDX 32 36 33 38 34 39 35 40 96 41 36 42 95 43 37 44 38 45 39 46
REMARK SMILES IDX 89 47 40 48 94 49 88 50 90 51 41 52 93 53 87 54 86 55 42 57
REMARK SMILES IDX 74 58 54 59 73 60 55 61 58 62 72 63 91 64 56 65 57 66 71 68
REMARK SMILES IDX 92 69 59 70 43 71 44 72 52 73 45 74 46 75 50 76 53 77 47 78
REMARK SMILES IDX 48 79 51 80 49 81 75 82 76 83 84 84 77 85 78 86 82 87 85 88
REMARK SMILES IDX 79 89 80 90 83 91 81 92 60 93 61 94 69 95 62 96 63 97 67 98
REMARK SMILES IDX 70 99 64 100 65 101 68 102 66 103
REMARK H PARENT 27 4 18 14 10 24 31 37 90 56 58 67
REMARK Flexibility Score: inf
ROOT
ATOM      1  C   UNL A   1      29.918  29.367  22.700  1.00  0.00     0.253 C 
ATOM      2  O   UNL A   1      29.458  29.790  21.637  1.00  0.00    -0.269 OA
ATOM      3  N   UNL A   1      30.344  30.290  23.613  1.00  0.00    -0.352 N 
ATOM      4  H   UNL A   1      30.197  31.227  23.348  1.00  0.00     0.163 HD
ENDROOT
BRANCH   1   5
ATOM      5  C   UNL A   1      30.092  27.906  22.894  1.00  0.00     0.063 A 
ATOM      6  C   UNL A   1      31.134  27.082  22.418  1.00  0.00     0.054 A 
ATOM      7  C   UNL A   1      30.995  25.690  22.578  1.00  0.00     0.027 A 
ATOM      8  C   UNL A   1      29.931  25.135  23.297  1.00  0.00     0.002 A 
ATOM      9  C   UNL A   1      29.033  27.329  23.634  1.00  0.00     0.016 A 
ATOM     10  C   UNL A   1      28.962  25.957  23.849  1.00  0.00     0.001 A 
BRANCH   6  11
ATOM     11  N   UNL A   1      32.369  27.467  21.831  1.00  0.00    -0.321 N 
ATOM     12  C   UNL A   1      33.579  27.864  22.375  1.00  0.00     0.255 C 
ATOM     13  O   UNL A   1      34.440  28.365  21.655  1.00  0.00    -0.269 OA
ATOM     14  H   UNL A   1      32.363  27.449  20.846  1.00  0.00     0.170 HD
BRANCH  12  15
ATOM     15  C   UNL A   1      33.870  27.650  23.805  1.00  0.00     0.042 A 
ATOM     16  C   UNL A   1      33.799  26.121  25.658  1.00  0.00     0.041 A 
ATOM     17  C   UNL A   1      33.936  27.205  26.535  1.00  0.00     0.026 A 
ATOM     18  C   UNL A   1      33.876  26.347  24.294  1.00  0.00     0.040 A 
ATOM     19  C   UNL A   1      34.105  28.504  26.037  1.00  0.00     0.003 A 
ATOM     20  C   UNL A   1      34.057  28.733  24.664  1.00  0.00     0.014 A 
BRANCH  16  21
ATOM     21  N   UNL A   1      33.465  24.860  26.182  1.00  0.00    -0.326 N 
ATOM     22  O   UNL A   1      35.419  23.628  25.779  1.00  0.00    -0.274 OA
ATOM     23  C   UNL A   1      34.254  23.715  26.159  1.00  0.00     0.228 C 
ATOM     24  H   UNL A   1      32.582  24.779  26.609  1.00  0.00     0.169 HD
BRANCH  23  25
ATOM     25  C   UNL A   1      33.530  22.489  26.669  1.00  0.00     0.135 C 
BRANCH  25  26
ATOM     26  C   UNL A   1      33.135  21.484  25.613  1.00  0.00    -0.039 A 
ATOM     27  C   UNL A   1      32.602  21.841  24.365  1.00  0.00     0.004 A 
ATOM     28  C   UNL A   1      33.316  20.123  25.900  1.00  0.00     0.004 A 
ATOM     29  C   UNL A   1      32.305  20.868  23.412  1.00  0.00     0.000 A 
ATOM     30  C   UNL A   1      33.000  19.150  24.953  1.00  0.00     0.000 A 
ATOM     31  C   UNL A   1      32.506  19.524  23.705  1.00  0.00     0.000 A 
ENDBRANCH  25  26
ENDBRANCH  23  25
ENDBRANCH  16  21
ENDBRANCH  12  15
ENDBRANCH   6  11
ENDBRANCH   1   5
BRANCH   3  32
ATOM     32  C   UNL A   1      30.975  30.120  24.905  1.00  0.00     0.118 C 
BRANCH  32  33
ATOM     33  C   UNL A   1      30.954  31.383  25.750  1.00  0.00     0.042 C 
BRANCH  33  34
ATOM     34  C   UNL A   1      32.137  31.508  26.706  1.00  0.00     0.118 C 
BRANCH  34  35
ATOM     35  N   UNL A   1      32.376  32.856  27.213  1.00  0.00    -0.352 N 
ATOM     36  C   UNL A   1      33.460  33.424  27.840  1.00  0.00     0.251 C 
ATOM     37  H   UNL A   1      31.620  33.473  27.081  1.00  0.00     0.163 HD
ATOM     38  O   UNL A   1      33.418  34.596  28.203  1.00  0.00    -0.269 OA
BRANCH  36  39
ATOM     39  C   UNL A   1      34.651  32.611  28.152  1.00  0.00     0.039 A 
ATOM     40  C   UNL A   1      35.894  33.244  28.240  1.00  0.00     0.014 A 
ATOM     41  C   UNL A   1      34.543  31.250  28.420  1.00  0.00     0.014 A 
ATOM     42  C   UNL A   1      36.990  32.545  28.748  1.00  0.00     0.010 A 
ATOM     43  C   UNL A   1      35.595  30.593  29.044  1.00  0.00     0.010 A 
ATOM     44  C   UNL A   1      36.822  31.242  29.243  1.00  0.00    -0.014 A 
BRANCH  44  45
ATOM     45  C   UNL A   1      37.881  30.544  30.018  1.00  0.00     0.031 A 
ATOM     46  C   UNL A   1      38.123  30.910  31.455  1.00  0.00     0.074 A 
ATOM     47  C   UNL A   1      38.711  29.683  29.391  1.00  0.00     0.049 A 
ATOM     48  N   UNL A   1      39.133  30.606  32.230  1.00  0.00    -0.248 NA
ATOM     49  C   UNL A   1      37.116  31.774  32.093  1.00  0.00     0.031 C 
ATOM     50  C   UNL A   1      38.618  29.279  27.986  1.00  0.00     0.029 A 
ATOM     51  N   UNL A   1      39.816  29.009  29.852  1.00  0.00    -0.354 N 
ATOM     52  C   UNL A   1      38.901  31.271  33.427  1.00  0.00     0.074 A 
ATOM     53  C   UNL A   1      37.682  32.032  33.263  1.00  0.00     0.031 C 
ATOM     54  C   UNL A   1      39.603  28.411  27.708  1.00  0.00     0.029 A 
ATOM     55  C   UNL A   1      40.433  28.242  28.893  1.00  0.00     0.049 A 
ATOM     56  H   UNL A   1      40.135  29.069  30.781  1.00  0.00     0.167 HD
ATOM     57  C   UNL A   1      39.629  31.231  34.568  1.00  0.00     0.037 A 
ATOM     58  C   UNL A   1      41.559  27.506  28.955  1.00  0.00     0.037 A 
ATOM     59  C   UNL A   1      40.808  30.428  34.747  1.00  0.00     0.049 A 
ATOM     60  C   UNL A   1      42.342  27.474  30.239  1.00  0.00     0.074 A 
ATOM     61  C   UNL A   1      41.575  30.265  35.887  1.00  0.00     0.029 A 
ATOM     62  N   UNL A   1      41.379  29.637  33.761  1.00  0.00    -0.354 N 
ATOM     63  N   UNL A   1      42.096  28.082  31.373  1.00  0.00    -0.248 NA
ATOM     64  C   UNL A   1      43.567  26.662  30.247  1.00  0.00     0.031 C 
ATOM     65  C   UNL A   1      42.627  29.393  35.584  1.00  0.00     0.029 A 
ATOM     66  C   UNL A   1      42.496  28.991  34.265  1.00  0.00     0.049 A 
ATOM     67  H   UNL A   1      41.041  29.549  32.841  1.00  0.00     0.167 HD
ATOM     68  C   UNL A   1      43.120  27.713  32.233  1.00  0.00     0.074 A 
ATOM     69  C   UNL A   1      43.982  26.813  31.496  1.00  0.00     0.031 C 
ATOM     70  C   UNL A   1      43.332  28.091  33.516  1.00  0.00     0.037 A 
BRANCH  57  71
ATOM     71  C   UNL A   1      39.156  32.064  35.721  1.00  0.00     0.064 A 
ATOM     72  C   UNL A   1      39.540  33.408  35.858  1.00  0.00     0.173 A 
ATOM     73  C   UNL A   1      38.278  31.531  36.676  1.00  0.00     0.173 A 
ATOM     74  F   UNL A   1      40.389  33.958  34.979  1.00  0.00    -0.203 F 
ATOM     75  C   UNL A   1      39.081  34.177  36.923  1.00  0.00     0.198 A 
ATOM     76  C   UNL A   1      37.799  32.312  37.724  1.00  0.00     0.198 A 
ATOM     77  F   UNL A   1      37.877  30.254  36.587  1.00  0.00    -0.203 F 
ATOM     78  F   UNL A   1      39.496  35.445  37.057  1.00  0.00    -0.200 F 
ATOM     79  C   UNL A   1      38.206  33.632  37.850  1.00  0.00     0.200 A 
ATOM     80  F   UNL A   1      36.944  31.788  38.614  1.00  0.00    -0.200 F 
ATOM     81  F   UNL A   1      37.758  34.379  38.869  1.00  0.00    -0.200 F 
ENDBRANCH  57  71
BRANCH  58  82
ATOM     82  C   UNL A   1      42.018  26.734  27.771  1.00  0.00     0.064 A 
ATOM     83  C   UNL A   1      42.925  27.296  26.861  1.00  0.00     0.173 A 
ATOM     84  C   UNL A   1      41.550  25.439  27.510  1.00  0.00     0.173 A 
ATOM     85  F   UNL A   1      43.384  28.541  27.058  1.00  0.00    -0.203 F 
ATOM     86  C   UNL A   1      43.326  26.602  25.722  1.00  0.00     0.198 A 
ATOM     87  C   UNL A   1      41.971  24.736  26.383  1.00  0.00     0.198 A 
ATOM     88  F   UNL A   1      40.683  24.855  28.351  1.00  0.00    -0.203 F 
ATOM     89  F   UNL A   1      44.153  27.183  24.842  1.00  0.00    -0.200 F 
ATOM     90  C   UNL A   1      42.851  25.321  25.486  1.00  0.00     0.200 A 
ATOM     91  F   UNL A   1      41.519  23.494  26.164  1.00  0.00    -0.200 F 
ATOM     92  F   UNL A   1      43.232  24.656  24.387  1.00  0.00    -0.200 F 
ENDBRANCH  58  82
BRANCH  70  93
ATOM     93  C   UNL A   1      44.527  27.513  34.210  1.00  0.00     0.064 A 
ATOM     94  C   UNL A   1      45.754  28.190  34.232  1.00  0.00     0.173 A 
ATOM     95  C   UNL A   1      44.428  26.297  34.902  1.00  0.00     0.173 A 
ATOM     96  F   UNL A   1      45.900  29.347  33.569  1.00  0.00    -0.203 F 
ATOM     97  C   UNL A   1      46.848  27.660  34.911  1.00  0.00     0.198 A 
ATOM     98  C   UNL A   1      45.517  25.783  35.600  1.00  0.00     0.198 A 
ATOM     99  F   UNL A   1      43.272  25.617  34.912  1.00  0.00    -0.203 F 
ATOM    100  F   UNL A   1      48.023  28.304  34.891  1.00  0.00    -0.200 F 
ATOM    101  C   UNL A   1      46.726  26.462  35.600  1.00  0.00     0.200 A 
ATOM    102  F   UNL A   1      45.396  24.631  36.273  1.00  0.00    -0.200 F 
ATOM    103  F   UNL A   1      47.777  25.959  36.261  1.00  0.00    -0.200 F 
ENDBRANCH  70  93
ENDBRANCH  44  45
ENDBRANCH  36  39
ENDBRANCH  34  35
ENDBRANCH  33  34
ENDBRANCH  32  33
ENDBRANCH   3  32
TORSDOF 15
ENDMDL
MODEL 3
REMARK VINA RESULT:     -13.8      0.914      2.249
REMARK SMILES O=C(Cc1ccccc1)Nc1cccc(C(=O)Nc2ccccc2C(=O)NCCCNC(=O)c2ccc(-c3c4nc(c(-c5c(F)c(F)c(F)c(F)c5F)c5ccc([nH]5)c(-c5c(F)c(F)c(F)c(F)c5F)c5nc(c(-c6c(F)c(F)c(F)c(F)c6F)c6ccc3[nH]6)C=C5)C=C4)cc2)c1
REMARK SMILES IDX 25 1 26 2 27 3 24 5 19 6 20 7 21 8 23 9 22 10 18 11 16 12
REMARK SMILES IDX 17 13 15 15 11 16 12 17 97 18 13 19 14 20 10 21 1 22 2 23
REMARK SMILES IDX 3 25 4 26 5 27 9 28 6 29 8 30 7 31 28 32 29 33 30 34 31 35
REMARK SMILES IDX 32 36 33 38 34 39 35 40 96 41 36 42 95 43 37 44 38 45 39 46
REMARK SMILES IDX 89 47 40 48 94 49 88 50 90 51 41 52 93 53 87 54 86 55 42 57
REMARK SMILES IDX 74 58 54 59 73 60 55 61 58 62 72 63 91 64 56 65 57 66 71 68
REMARK SMILES IDX 92 69 59 70 43 71 44 72 52 73 45 74 46 75 50 76 53 77 47 78
REMARK SMILES IDX 48 79 51 80 49 81 75 82 76 83 84 84 77 85 78 86 82 87 85 88
REMARK SMILES IDX 79 89 80 90 83 91 81 92 60 93 61 94 69 95 62 96 63 97 67 98
REMARK SMILES IDX 70 99 64 100 65 101 68 102 66 103
REMARK H PARENT 27 4 18 14 10 24 31 37 90 56 58 67
REMARK Flexibility Score: inf
ROOT
ATOM      1  C   UNL A   1      34.708  22.314  26.325  1.00  0.00     0.253 C 
ATOM      2  O   UNL A   1      34.394  22.939  27.340  1.00  0.00    -0.269 OA
ATOM      3  N   UNL A   1      35.820  21.522  26.393  1.00  0.00    -0.352 N 
ATOM      4  H   UNL A   1      36.247  21.490  27.279  1.00  0.00     0.163 HD
ENDROOT
BRANCH   1   5
ATOM      5  C   UNL A   1      33.951  22.528  25.066  1.00  0.00     0.063 A 
ATOM      6  C   UNL A   1      32.557  22.454  24.864  1.00  0.00     0.054 A 
ATOM      7  C   UNL A   1      32.081  22.521  23.541  1.00  0.00     0.027 A 
ATOM      8  C   UNL A   1      32.934  22.785  22.465  1.00  0.00     0.002 A 
ATOM      9  C   UNL A   1      34.798  22.812  23.969  1.00  0.00     0.016 A 
ATOM     10  C   UNL A   1      34.292  22.956  22.682  1.00  0.00     0.001 A 
BRANCH   6  11
ATOM     11  N   UNL A   1      31.525  22.372  25.838  1.00  0.00    -0.321 N 
ATOM     12  C   UNL A   1      30.905  23.329  26.624  1.00  0.00     0.255 C 
ATOM     13  O   UNL A   1      30.188  22.982  27.560  1.00  0.00    -0.269 OA
ATOM     14  H   UNL A   1      31.186  21.459  25.981  1.00  0.00     0.170 HD
BRANCH  12  15
ATOM     15  C   UNL A   1      31.054  24.765  26.325  1.00  0.00     0.042 A 
ATOM     16  C   UNL A   1      30.160  26.678  25.176  1.00  0.00     0.041 A 
ATOM     17  C   UNL A   1      31.401  27.313  25.305  1.00  0.00     0.026 A 
ATOM     18  C   UNL A   1      29.969  25.448  25.785  1.00  0.00     0.040 A 
ATOM     19  C   UNL A   1      32.447  26.696  26.003  1.00  0.00     0.003 A 
ATOM     20  C   UNL A   1      32.281  25.406  26.504  1.00  0.00     0.014 A 
BRANCH  16  21
ATOM     21  N   UNL A   1      29.189  27.245  24.333  1.00  0.00    -0.326 N 
ATOM     22  O   UNL A   1      30.483  28.003  22.532  1.00  0.00    -0.274 OA
ATOM     23  C   UNL A   1      29.414  27.900  23.127  1.00  0.00     0.228 C 
ATOM     24  H   UNL A   1      28.252  27.170  24.626  1.00  0.00     0.169 HD
BRANCH  23  25
ATOM     25  C   UNL A   1      28.163  28.525  22.553  1.00  0.00     0.135 C 
BRANCH  25  26
ATOM     26  C   UNL A   1      28.198  30.029  22.407  1.00  0.00    -0.039 A 
ATOM     27  C   UNL A   1      28.395  30.906  23.485  1.00  0.00     0.004 A 
ATOM     28  C   UNL A   1      28.028  30.570  21.125  1.00  0.00     0.004 A 
ATOM     29  C   UNL A   1      28.469  32.282  23.279  1.00  0.00     0.000 A 
ATOM     30  C   UNL A   1      28.083  31.949  20.924  1.00  0.00     0.000 A 
ATOM     31  C   UNL A   1      28.315  32.803  21.999  1.00  0.00     0.000 A 
ENDBRANCH  25  26
ENDBRANCH  23  25
ENDBRANCH  16  21
ENDBRANCH  12  15
ENDBRANCH   6  11
ENDBRANCH   1   5
BRANCH   3  32
ATOM     32  C   UNL A   1      36.474  20.722  25.377  1.00  0.00     0.118 C 
BRANCH  32  33
ATOM     33  C   UNL A   1      37.833  21.269  24.973  1.00  0.00     0.042 C 
BRANCH  33  34
ATOM     34  C   UNL A   1      38.911  21.095  26.039  1.00  0.00     0.118 C 
BRANCH  34  35
ATOM     35  N   UNL A   1      39.727  19.893  25.895  1.00  0.00    -0.352 N 
ATOM     36  C   UNL A   1      41.075  19.670  26.058  1.00  0.00     0.251 C 
ATOM     37  H   UNL A   1      39.218  19.092  25.632  1.00  0.00     0.163 HD
ATOM     38  O   UNL A   1      41.545  18.554  25.854  1.00  0.00    -0.269 OA
BRANCH  36  39
ATOM     39  C   UNL A   1      41.977  20.785  26.403  1.00  0.00     0.039 A 
ATOM     40  C   UNL A   1      42.469  21.596  25.376  1.00  0.00     0.014 A 
ATOM     41  C   UNL A   1      42.288  21.075  27.727  1.00  0.00     0.014 A 
ATOM     42  C   UNL A   1      43.138  22.780  25.691  1.00  0.00     0.010 A 
ATOM     43  C   UNL A   1      42.836  22.311  28.043  1.00  0.00     0.010 A 
ATOM     44  C   UNL A   1      43.240  23.192  27.029  1.00  0.00    -0.014 A 
BRANCH  44  45
ATOM     45  C   UNL A   1      43.713  24.549  27.409  1.00  0.00     0.031 A 
ATOM     46  C   UNL A   1      42.728  25.579  27.887  1.00  0.00     0.074 A 
ATOM     47  C   UNL A   1      45.000  24.893  27.193  1.00  0.00     0.049 A 
ATOM     48  N   UNL A   1      42.884  26.870  28.036  1.00  0.00    -0.248 NA
ATOM     49  C   UNL A   1      41.371  25.099  28.195  1.00  0.00     0.031 C 
ATOM     50  C   UNL A   1      46.047  24.005  26.684  1.00  0.00     0.029 A 
ATOM     51  N   UNL A   1      45.642  26.098  27.352  1.00  0.00    -0.354 N 
ATOM     52  C   UNL A   1      41.640  27.357  28.413  1.00  0.00     0.074 A 
ATOM     53  C   UNL A   1      40.728  26.234  28.427  1.00  0.00     0.031 C 
ATOM     54  C   UNL A   1      47.203  24.683  26.599  1.00  0.00     0.029 A 
ATOM     55  C   UNL A   1      46.967  26.068  26.987  1.00  0.00     0.049 A 
ATOM     56  H   UNL A   1      45.197  26.905  27.695  1.00  0.00     0.167 HD
ATOM     57  C   UNL A   1      41.296  28.625  28.743  1.00  0.00     0.037 A 
ATOM     58  C   UNL A   1      47.884  27.053  26.945  1.00  0.00     0.037 A 
ATOM     59  C   UNL A   1      42.218  29.728  28.786  1.00  0.00     0.049 A 
ATOM     60  C   UNL A   1      47.475  28.449  27.325  1.00  0.00     0.074 A 
ATOM     61  C   UNL A   1      41.982  31.034  29.174  1.00  0.00     0.029 A 
ATOM     62  N   UNL A   1      43.559  29.646  28.443  1.00  0.00    -0.354 N 
ATOM     63  N   UNL A   1      46.304  28.892  27.711  1.00  0.00    -0.248 NA
ATOM     64  C   UNL A   1      48.514  29.486  27.251  1.00  0.00     0.031 C 
ATOM     65  C   UNL A   1      43.176  31.751  29.044  1.00  0.00     0.029 A 
ATOM     66  C   UNL A   1      44.162  30.883  28.604  1.00  0.00     0.049 A 
ATOM     67  H   UNL A   1      44.015  28.831  28.134  1.00  0.00     0.167 HD
ATOM     68  C   UNL A   1      46.467  30.249  27.944  1.00  0.00     0.074 A 
ATOM     69  C   UNL A   1      47.856  30.557  27.673  1.00  0.00     0.031 C 
ATOM     70  C   UNL A   1      45.548  31.162  28.339  1.00  0.00     0.037 A 
BRANCH  57  71
ATOM     71  C   UNL A   1      39.865  28.883  29.106  1.00  0.00     0.064 A 
ATOM     72  C   UNL A   1      38.917  29.241  28.134  1.00  0.00     0.173 A 
ATOM     73  C   UNL A   1      39.424  28.729  30.429  1.00  0.00     0.173 A 
ATOM     74  F   UNL A   1      39.293  29.413  26.859  1.00  0.00    -0.203 F 
ATOM     75  C   UNL A   1      37.587  29.460  28.480  1.00  0.00     0.198 A 
ATOM     76  C   UNL A   1      38.087  28.922  30.765  1.00  0.00     0.198 A 
ATOM     77  F   UNL A   1      40.289  28.383  31.394  1.00  0.00    -0.203 F 
ATOM     78  F   UNL A   1      36.709  29.844  27.542  1.00  0.00    -0.200 F 
ATOM     79  C   UNL A   1      37.171  29.294  29.791  1.00  0.00     0.200 A 
ATOM     80  F   UNL A   1      37.683  28.751  32.031  1.00  0.00    -0.200 F 
ATOM     81  F   UNL A   1      35.888  29.496  30.120  1.00  0.00    -0.200 F 
ENDBRANCH  57  71
BRANCH  58  82
ATOM     82  C   UNL A   1      49.282  26.762  26.531  1.00  0.00     0.064 A 
ATOM     83  C   UNL A   1      50.256  26.437  27.487  1.00  0.00     0.173 A 
ATOM     84  C   UNL A   1      49.680  26.824  25.188  1.00  0.00     0.173 A 
ATOM     85  F   UNL A   1      49.926  26.387  28.786  1.00  0.00    -0.203 F 
ATOM     86  C   UNL A   1      51.579  26.210  27.117  1.00  0.00     0.198 A 
ATOM     87  C   UNL A   1      50.999  26.571  24.817  1.00  0.00     0.198 A 
ATOM     88  F   UNL A   1      48.786  27.128  24.235  1.00  0.00    -0.203 F 
ATOM     89  F   UNL A   1      52.500  25.952  28.056  1.00  0.00    -0.200 F 
ATOM     90  C   UNL A   1      51.949  26.274  25.782  1.00  0.00     0.200 A 
ATOM     91  F   UNL A   1      51.350  26.622  23.525  1.00  0.00    -0.200 F 
ATOM     92  F   UNL A   1      53.224  26.060  25.428  1.00  0.00    -0.200 F 
ENDBRANCH  58  82
BRANCH  70  93
ATOM     93  C   UNL A   1      46.021  32.571  28.527  1.00  0.00     0.064 A 
ATOM     94  C   UNL A   1      45.959  33.505  27.484  1.00  0.00     0.173 A 
ATOM     95  C   UNL A   1      46.492  33.002  29.775  1.00  0.00     0.173 A 
ATOM     96  F   UNL A   1      45.533  33.132  26.268  1.00  0.00    -0.203 F 
ATOM     97  C   UNL A   1      46.368  34.821  27.681  1.00  0.00     0.198 A 
ATOM     98  C   UNL A   1      46.877  34.325  29.975  1.00  0.00     0.198 A 
ATOM     99  F   UNL A   1      46.565  32.144  30.804  1.00  0.00    -0.203 F 
ATOM    100  F   UNL A   1      46.335  35.690  26.661  1.00  0.00    -0.200 F 
ATOM    101  C   UNL A   1      46.819  35.231  28.927  1.00  0.00     0.200 A 
ATOM    102  F   UNL A   1      47.303  34.722  31.181  1.00  0.00    -0.200 F 
ATOM    103  F   UNL A   1      47.202  36.500  29.117  1.00  0.00    -0.200 F 
ENDBRANCH  70  93
ENDBRANCH  44  45
ENDBRANCH  36  39
ENDBRANCH  34  35
ENDBRANCH  33  34
ENDBRANCH  32  33
ENDBRANCH   3  32
TORSDOF 15
ENDMDL
