MODEL 1
REMARK VINA RESULT:     -13.7      0.000      0.000
REMARK SMILES O=C(N/N=C/c1ccc(C(=O)NCCCNC(=O)c2ccc(-c3c4nc(c(-c5c(F)c(F)c(F)c(F)c5F)c5ccc([nH]5)c(-c5c(F)c(F)c(F)c(F)c5F)c5nc(c(-c6c(F)c(F)c(F)c(F)c6F)c6ccc3[nH]6)C=C5)C=C4)cc2)cc1)C(=O)Nc1ccc2c(c1)OCO2
REMARK SMILES IDX 13 1 12 2 10 3 11 4 9 6 6 7 7 8 83 9 8 10 82 11 5 12 4 13
REMARK SMILES IDX 3 14 1 15 2 16 84 18 85 19 86 20 87 22 88 23 92 24 89 25
REMARK SMILES IDX 91 26 90 27 93 28 95 29 94 30 14 31 15 32 16 33 17 34 18 36
REMARK SMILES IDX 19 37 20 38 81 39 21 40 80 41 22 42 23 43 24 44 74 45 25 46
REMARK SMILES IDX 79 47 73 48 75 49 26 50 78 51 72 52 71 53 27 55 59 56 39 57
REMARK SMILES IDX 58 58 40 59 43 60 57 61 76 62 41 63 42 64 56 66 77 67 44 68
REMARK SMILES IDX 28 69 29 70 37 71 30 72 31 73 35 74 38 75 32 76 33 77 36 78
REMARK SMILES IDX 34 79 60 80 61 81 69 82 62 83 63 84 67 85 70 86 64 87 65 88
REMARK SMILES IDX 68 89 66 90 45 91 46 92 54 93 47 94 48 95 52 96 55 97 49 98
REMARK SMILES IDX 50 99 53 100 51 101
REMARK H PARENT 12 5 3 17 86 21 16 35 75 54 43 65
REMARK Flexibility Score: inf
ROOT
ATOM      1  C   UNL A   1      34.430  34.975  27.815  1.00  0.00     0.118 C 
ENDROOT
BRANCH   1   2
ATOM      2  N   UNL A   1      35.753  34.687  28.346  1.00  0.00    -0.352 N 
ATOM      3  C   UNL A   1      36.356  33.486  28.640  1.00  0.00     0.251 C 
ATOM      4  O   UNL A   1      37.506  33.483  29.069  1.00  0.00    -0.269 OA
ATOM      5  H   UNL A   1      36.308  35.480  28.523  1.00  0.00     0.163 HD
BRANCH   3   6
ATOM      6  C   UNL A   1      35.677  32.206  28.325  1.00  0.00     0.039 A 
ATOM      7  C   UNL A   1      34.397  29.828  26.844  1.00  0.00    -0.005 A 
ATOM      8  C   UNL A   1      35.811  29.986  27.382  1.00  0.00     0.010 A 
ATOM      9  C   UNL A   1      33.733  30.930  27.625  1.00  0.00     0.010 A 
ATOM     10  C   UNL A   1      36.426  31.105  28.010  1.00  0.00     0.014 A 
ATOM     11  C   UNL A   1      34.320  32.024  28.309  1.00  0.00     0.014 A 
BRANCH   7  12
ATOM     12  C   UNL A   1      33.631  28.451  25.405  1.00  0.00     0.141 C 
ATOM     13  N   UNL A   1      33.164  27.153  25.406  1.00  0.00    -0.180 NA
BRANCH  13  14
ATOM     14  N   UNL A   1      33.379  26.484  24.256  1.00  0.00    -0.239 N 
ATOM     15  O   UNL A   1      32.599  25.225  22.553  1.00  0.00    -0.262 OA
ATOM     16  C   UNL A   1      32.445  25.610  23.713  1.00  0.00     0.329 C 
ATOM     17  H   UNL A   1      34.232  26.620  23.783  1.00  0.00     0.194 HD
BRANCH  16  18
ATOM     18  C   UNL A   1      31.168  25.140  24.479  1.00  0.00     0.315 C 
ATOM     19  O   UNL A   1      31.158  24.009  24.967  1.00  0.00    -0.263 OA
ATOM     20  N   UNL A   1      30.124  26.007  24.808  1.00  0.00    -0.318 N 
ATOM     21  H   UNL A   1      29.833  26.061  25.747  1.00  0.00     0.170 HD
BRANCH  20  22
ATOM     22  C   UNL A   1      29.472  26.805  23.852  1.00  0.00     0.045 A 
ATOM     23  C   UNL A   1      27.631  26.707  23.902  1.00  0.00     0.030 A 
ATOM     24  C   UNL A   1      30.309  28.372  23.396  1.00  0.00     0.076 A 
ATOM     25  C   UNL A   1      26.648  28.204  23.497  1.00  0.00     0.053 A 
ATOM     26  C   UNL A   1      29.284  29.859  23.171  1.00  0.00     0.167 A 
ATOM     27  C   UNL A   1      27.504  29.753  23.199  1.00  0.00     0.165 A 
ATOM     28  O   UNL A   1      29.592  31.184  23.208  1.00  0.00    -0.454 OA
ATOM     29  O   UNL A   1      27.050  31.033  23.252  1.00  0.00    -0.454 OA
ATOM     30  C   UNL A   1      28.290  31.762  23.596  1.00  0.00     0.468 C 
ENDBRANCH  20  22
ENDBRANCH  16  18
ENDBRANCH  13  14
ENDBRANCH   7  12
ENDBRANCH   3   6
ENDBRANCH   1   2
BRANCH   1  31
ATOM     31  C   UNL A   1      33.679  35.927  28.739  1.00  0.00     0.042 C 
BRANCH  31  32
ATOM     32  C   UNL A   1      32.919  35.198  29.828  1.00  0.00     0.118 C 
BRANCH  32  33
ATOM     33  N   UNL A   1      32.442  36.108  30.856  1.00  0.00    -0.352 N 
ATOM     34  C   UNL A   1      32.727  36.103  32.197  1.00  0.00     0.251 C 
ATOM     35  H   UNL A   1      31.835  36.820  30.548  1.00  0.00     0.163 HD
ATOM     36  O   UNL A   1      32.059  36.771  32.978  1.00  0.00    -0.269 OA
BRANCH  34  37
ATOM     37  C   UNL A   1      33.841  35.267  32.688  1.00  0.00     0.039 A 
ATOM     38  C   UNL A   1      33.571  34.008  33.225  1.00  0.00     0.014 A 
ATOM     39  C   UNL A   1      35.156  35.727  32.582  1.00  0.00     0.014 A 
ATOM     40  C   UNL A   1      34.630  33.183  33.606  1.00  0.00     0.010 A 
ATOM     41  C   UNL A   1      36.206  34.868  32.859  1.00  0.00     0.010 A 
ATOM     42  C   UNL A   1      35.955  33.595  33.394  1.00  0.00    -0.014 A 
BRANCH  42  43
ATOM     43  C   UNL A   1      37.116  32.750  33.763  1.00  0.00     0.031 A 
ATOM     44  C   UNL A   1      37.861  33.054  35.033  1.00  0.00     0.074 A 
ATOM     45  C   UNL A   1      37.555  31.794  32.922  1.00  0.00     0.049 A 
ATOM     46  N   UNL A   1      39.002  32.579  35.459  1.00  0.00    -0.248 NA
ATOM     47  C   UNL A   1      37.260  34.060  35.928  1.00  0.00     0.031 C 
ATOM     48  C   UNL A   1      36.925  31.427  31.653  1.00  0.00     0.029 A 
ATOM     49  N   UNL A   1      38.656  30.977  32.994  1.00  0.00    -0.354 N 
ATOM     50  C   UNL A   1      39.265  33.246  36.648  1.00  0.00     0.074 A 
ATOM     51  C   UNL A   1      38.195  34.195  36.855  1.00  0.00     0.031 C 
ATOM     52  C   UNL A   1      37.647  30.456  31.069  1.00  0.00     0.029 A 
ATOM     53  C   UNL A   1      38.820  30.175  31.891  1.00  0.00     0.049 A 
ATOM     54  H   UNL A   1      39.269  30.967  33.765  1.00  0.00     0.167 HD
ATOM     55  C   UNL A   1      40.302  33.067  37.498  1.00  0.00     0.037 A 
ATOM     56  C   UNL A   1      39.823  29.336  31.565  1.00  0.00     0.037 A 
ATOM     57  C   UNL A   1      41.345  32.099  37.295  1.00  0.00     0.049 A 
ATOM     58  C   UNL A   1      40.983  29.181  32.517  1.00  0.00     0.074 A 
ATOM     59  C   UNL A   1      42.407  31.794  38.126  1.00  0.00     0.029 A 
ATOM     60  N   UNL A   1      41.459  31.286  36.178  1.00  0.00    -0.354 N 
ATOM     61  N   UNL A   1      41.194  29.775  33.667  1.00  0.00    -0.248 NA
ATOM     62  C   UNL A   1      42.044  28.240  32.129  1.00  0.00     0.031 C 
ATOM     63  C   UNL A   1      43.207  30.853  37.479  1.00  0.00     0.029 A 
ATOM     64  C   UNL A   1      42.594  30.501  36.287  1.00  0.00     0.049 A 
ATOM     65  H   UNL A   1      40.828  31.268  35.423  1.00  0.00     0.167 HD
ATOM     66  C   UNL A   1      42.379  29.243  34.161  1.00  0.00     0.074 A 
ATOM     67  C   UNL A   1      42.844  28.282  33.185  1.00  0.00     0.031 C 
ATOM     68  C   UNL A   1      43.019  29.520  35.321  1.00  0.00     0.037 A 
BRANCH  55  69
ATOM     69  C   UNL A   1      40.375  33.935  38.720  1.00  0.00     0.064 A 
ATOM     70  C   UNL A   1      41.049  35.165  38.717  1.00  0.00     0.173 A 
ATOM     71  C   UNL A   1      39.698  33.562  39.892  1.00  0.00     0.173 A 
ATOM     72  F   UNL A   1      41.722  35.564  37.628  1.00  0.00    -0.203 F 
ATOM     73  C   UNL A   1      41.056  35.980  39.846  1.00  0.00     0.198 A 
ATOM     74  C   UNL A   1      39.676  34.395  41.005  1.00  0.00     0.198 A 
ATOM     75  F   UNL A   1      39.034  32.397  39.947  1.00  0.00    -0.203 F 
ATOM     76  F   UNL A   1      41.741  37.133  39.833  1.00  0.00    -0.200 F 
ATOM     77  C   UNL A   1      40.359  35.601  40.983  1.00  0.00     0.200 A 
ATOM     78  F   UNL A   1      38.986  34.035  42.096  1.00  0.00    -0.200 F 
ATOM     79  F   UNL A   1      40.349  36.398  42.061  1.00  0.00    -0.200 F 
ENDBRANCH  55  69
BRANCH  56  80
ATOM     80  C   UNL A   1      39.794  28.588  30.278  1.00  0.00     0.064 A 
ATOM     81  C   UNL A   1      39.225  27.308  30.197  1.00  0.00     0.173 A 
ATOM     82  C   UNL A   1      40.371  29.116  29.113  1.00  0.00     0.173 A 
ATOM     83  F   UNL A   1      38.672  26.751  31.284  1.00  0.00    -0.203 F 
ATOM     84  C   UNL A   1      39.276  26.569  29.017  1.00  0.00     0.198 A 
ATOM     85  C   UNL A   1      40.386  28.391  27.922  1.00  0.00     0.198 A 
ATOM     86  F   UNL A   1      40.920  30.339  29.128  1.00  0.00    -0.203 F 
ATOM     87  F   UNL A   1      38.792  25.320  28.991  1.00  0.00    -0.200 F 
ATOM     88  C   UNL A   1      39.854  27.112  27.880  1.00  0.00     0.200 A 
ATOM     89  F   UNL A   1      40.926  28.929  26.820  1.00  0.00    -0.200 F 
ATOM     90  F   UNL A   1      39.909  26.398  26.747  1.00  0.00    -0.200 F 
ENDBRANCH  56  80
BRANCH  68  91
ATOM     91  C   UNL A   1      44.246  28.724  35.661  1.00  0.00     0.064 A 
ATOM     92  C   UNL A   1      45.533  29.147  35.306  1.00  0.00     0.173 A 
ATOM     93  C   UNL A   1      44.127  27.568  36.451  1.00  0.00     0.173 A 
ATOM     94  F   UNL A   1      45.699  30.237  34.541  1.00  0.00    -0.203 F 
ATOM     95  C   UNL A   1      46.657  28.440  35.723  1.00  0.00     0.198 A 
ATOM     96  C   UNL A   1      45.253  26.886  36.897  1.00  0.00     0.198 A 
ATOM     97  F   UNL A   1      42.916  27.127  36.825  1.00  0.00    -0.203 F 
ATOM     98  F   UNL A   1      47.878  28.844  35.347  1.00  0.00    -0.200 F 
ATOM     99  C   UNL A   1      46.517  27.320  36.530  1.00  0.00     0.200 A 
ATOM    100  F   UNL A   1      45.115  25.818  37.696  1.00  0.00    -0.200 F 
ATOM    101  F   UNL A   1      47.602  26.659  36.957  1.00  0.00    -0.200 F 
ENDBRANCH  68  91
ENDBRANCH  42  43
ENDBRANCH  34  37
ENDBRANCH  32  33
ENDBRANCH  31  32
ENDBRANCH   1  31
TORSDOF 14
ENDMDL
MODEL 2
REMARK VINA RESULT:     -13.4      1.635      3.655
REMARK SMILES O=C(N/N=C/c1ccc(C(=O)NCCCNC(=O)c2ccc(-c3c4nc(c(-c5c(F)c(F)c(F)c(F)c5F)c5ccc([nH]5)c(-c5c(F)c(F)c(F)c(F)c5F)c5nc(c(-c6c(F)c(F)c(F)c(F)c6F)c6ccc3[nH]6)C=C5)C=C4)cc2)cc1)C(=O)Nc1ccc2c(c1)OCO2
REMARK SMILES IDX 13 1 12 2 10 3 11 4 9 6 6 7 7 8 83 9 8 10 82 11 5 12 4 13
REMARK SMILES IDX 3 14 1 15 2 16 84 18 85 19 86 20 87 22 88 23 92 24 89 25
REMARK SMILES IDX 91 26 90 27 93 28 95 29 94 30 14 31 15 32 16 33 17 34 18 36
REMARK SMILES IDX 19 37 20 38 81 39 21 40 80 41 22 42 23 43 24 44 74 45 25 46
REMARK SMILES IDX 79 47 73 48 75 49 26 50 78 51 72 52 71 53 27 55 59 56 39 57
REMARK SMILES IDX 58 58 40 59 43 60 57 61 76 62 41 63 42 64 56 66 77 67 44 68
REMARK SMILES IDX 28 69 29 70 37 71 30 72 31 73 35 74 38 75 32 76 33 77 36 78
REMARK SMILES IDX 34 79 60 80 61 81 69 82 62 83 63 84 67 85 70 86 64 87 65 88
REMARK SMILES IDX 68 89 66 90 45 91 46 92 54 93 47 94 48 95 52 96 55 97 49 98
REMARK SMILES IDX 50 99 53 100 51 101
REMARK H PARENT 12 5 3 17 86 21 16 35 75 54 43 65
REMARK Flexibility Score: inf
ROOT
ATOM      1  C   UNL A   1      34.430  34.850  27.820  1.00  0.00     0.118 C 
ENDROOT
BRANCH   1   2
ATOM      2  N   UNL A   1      35.782  34.467  28.196  1.00  0.00    -0.352 N 
ATOM      3  C   UNL A   1      36.331  33.224  28.408  1.00  0.00     0.251 C 
ATOM      4  O   UNL A   1      37.520  33.139  28.705  1.00  0.00    -0.269 OA
ATOM      5  H   UNL A   1      36.405  35.220  28.318  1.00  0.00     0.163 HD
BRANCH   3   6
ATOM      6  C   UNL A   1      35.538  31.998  28.158  1.00  0.00     0.039 A 
ATOM      7  C   UNL A   1      33.983  29.712  26.800  1.00  0.00    -0.005 A 
ATOM      8  C   UNL A   1      35.439  29.765  27.238  1.00  0.00     0.010 A 
ATOM      9  C   UNL A   1      33.459  30.867  27.609  1.00  0.00     0.010 A 
ATOM     10  C   UNL A   1      36.178  30.840  27.807  1.00  0.00     0.014 A 
ATOM     11  C   UNL A   1      34.173  31.919  28.236  1.00  0.00     0.014 A 
BRANCH   7  12
ATOM     12  C   UNL A   1      33.017  28.385  25.436  1.00  0.00     0.141 C 
ATOM     13  N   UNL A   1      33.070  28.120  24.083  1.00  0.00    -0.180 NA
BRANCH  13  14
ATOM     14  N   UNL A   1      31.906  27.694  23.555  1.00  0.00    -0.239 N 
ATOM     15  O   UNL A   1      30.728  26.136  22.424  1.00  0.00    -0.262 OA
ATOM     16  C   UNL A   1      31.833  26.621  22.674  1.00  0.00     0.329 C 
ATOM     17  H   UNL A   1      31.076  28.162  23.801  1.00  0.00     0.194 HD
BRANCH  16  18
ATOM     18  C   UNL A   1      33.091  25.953  22.033  1.00  0.00     0.315 C 
ATOM     19  O   UNL A   1      33.312  26.144  20.837  1.00  0.00    -0.263 OA
ATOM     20  N   UNL A   1      34.078  25.323  22.793  1.00  0.00    -0.318 N 
ATOM     21  H   UNL A   1      35.015  25.604  22.677  1.00  0.00     0.170 HD
BRANCH  20  22
ATOM     22  C   UNL A   1      33.789  24.304  23.715  1.00  0.00     0.045 A 
ATOM     23  C   UNL A   1      32.545  23.074  23.131  1.00  0.00     0.030 A 
ATOM     24  C   UNL A   1      35.166  23.785  24.811  1.00  0.00     0.076 A 
ATOM     25  C   UNL A   1      32.708  21.322  23.654  1.00  0.00     0.053 A 
ATOM     26  C   UNL A   1      35.368  22.009  25.154  1.00  0.00     0.167 A 
ATOM     27  C   UNL A   1      34.149  20.829  24.605  1.00  0.00     0.165 A 
ATOM     28  O   UNL A   1      36.439  21.287  25.581  1.00  0.00    -0.454 OA
ATOM     29  O   UNL A   1      34.701  19.601  24.793  1.00  0.00    -0.454 OA
ATOM     30  C   UNL A   1      36.117  19.957  25.028  1.00  0.00     0.468 C 
ENDBRANCH  20  22
ENDBRANCH  16  18
ENDBRANCH  13  14
ENDBRANCH   7  12
ENDBRANCH   3   6
ENDBRANCH   1   2
BRANCH   1  31
ATOM     31  C   UNL A   1      33.852  35.835  28.831  1.00  0.00     0.042 C 
BRANCH  31  32
ATOM     32  C   UNL A   1      32.915  35.169  29.817  1.00  0.00     0.118 C 
BRANCH  32  33
ATOM     33  N   UNL A   1      32.460  36.095  30.839  1.00  0.00    -0.352 N 
ATOM     34  C   UNL A   1      32.770  36.111  32.175  1.00  0.00     0.251 C 
ATOM     35  H   UNL A   1      31.848  36.804  30.533  1.00  0.00     0.163 HD
ATOM     36  O   UNL A   1      32.118  36.792  32.958  1.00  0.00    -0.269 OA
BRANCH  34  37
ATOM     37  C   UNL A   1      33.892  35.281  32.657  1.00  0.00     0.039 A 
ATOM     38  C   UNL A   1      33.628  34.043  33.245  1.00  0.00     0.014 A 
ATOM     39  C   UNL A   1      35.207  35.724  32.494  1.00  0.00     0.014 A 
ATOM     40  C   UNL A   1      34.691  33.221  33.619  1.00  0.00     0.010 A 
ATOM     41  C   UNL A   1      36.258  34.863  32.765  1.00  0.00     0.010 A 
ATOM     42  C   UNL A   1      36.013  33.612  33.350  1.00  0.00    -0.014 A 
BRANCH  42  43
ATOM     43  C   UNL A   1      37.177  32.768  33.710  1.00  0.00     0.031 A 
ATOM     44  C   UNL A   1      37.934  33.073  34.973  1.00  0.00     0.074 A 
ATOM     45  C   UNL A   1      37.609  31.811  32.866  1.00  0.00     0.049 A 
ATOM     46  N   UNL A   1      39.079  32.599  35.389  1.00  0.00    -0.248 NA
ATOM     47  C   UNL A   1      37.340  34.080  35.872  1.00  0.00     0.031 C 
ATOM     48  C   UNL A   1      36.968  31.442  31.603  1.00  0.00     0.029 A 
ATOM     49  N   UNL A   1      38.711  30.994  32.929  1.00  0.00    -0.354 N 
ATOM     50  C   UNL A   1      39.351  33.268  36.575  1.00  0.00     0.074 A 
ATOM     51  C   UNL A   1      38.283  34.216  36.790  1.00  0.00     0.031 C 
ATOM     52  C   UNL A   1      37.685  30.471  31.013  1.00  0.00     0.029 A 
ATOM     53  C   UNL A   1      38.865  30.191  31.825  1.00  0.00     0.049 A 
ATOM     54  H   UNL A   1      39.331  30.985  33.694  1.00  0.00     0.167 HD
ATOM     55  C   UNL A   1      40.396  33.090  37.416  1.00  0.00     0.037 A 
ATOM     56  C   UNL A   1      39.866  29.353  31.491  1.00  0.00     0.037 A 
ATOM     57  C   UNL A   1      41.437  32.123  37.205  1.00  0.00     0.049 A 
ATOM     58  C   UNL A   1      41.035  29.199  32.433  1.00  0.00     0.074 A 
ATOM     59  C   UNL A   1      42.507  31.819  38.027  1.00  0.00     0.029 A 
ATOM     60  N   UNL A   1      41.542  31.308  36.087  1.00  0.00    -0.354 N 
ATOM     61  N   UNL A   1      41.256  29.794  33.581  1.00  0.00    -0.248 NA
ATOM     62  C   UNL A   1      42.093  28.259  32.037  1.00  0.00     0.031 C 
ATOM     63  C   UNL A   1      43.303  30.877  37.373  1.00  0.00     0.029 A 
ATOM     64  C   UNL A   1      42.679  30.524  36.187  1.00  0.00     0.049 A 
ATOM     65  H   UNL A   1      40.905  31.289  35.338  1.00  0.00     0.167 HD
ATOM     66  C   UNL A   1      42.445  29.263  34.064  1.00  0.00     0.074 A 
ATOM     67  C   UNL A   1      42.902  28.303  33.085  1.00  0.00     0.031 C 
ATOM     68  C   UNL A   1      43.096  29.543  35.218  1.00  0.00     0.037 A 
BRANCH  55  69
ATOM     69  C   UNL A   1      40.479  33.960  38.637  1.00  0.00     0.064 A 
ATOM     70  C   UNL A   1      39.908  33.578  39.859  1.00  0.00     0.173 A 
ATOM     71  C   UNL A   1      41.205  35.161  38.598  1.00  0.00     0.173 A 
ATOM     72  F   UNL A   1      39.195  32.446  39.948  1.00  0.00    -0.203 F 
ATOM     73  C   UNL A   1      40.046  34.374  40.993  1.00  0.00     0.198 A 
ATOM     74  C   UNL A   1      41.372  35.935  39.742  1.00  0.00     0.198 A 
ATOM     75  F   UNL A   1      41.774  35.571  37.455  1.00  0.00    -0.203 F 
ATOM     76  F   UNL A   1      39.458  34.009  42.141  1.00  0.00    -0.200 F 
ATOM     77  C   UNL A   1      40.789  35.544  40.937  1.00  0.00     0.200 A 
ATOM     78  F   UNL A   1      42.106  37.055  39.689  1.00  0.00    -0.200 F 
ATOM     79  F   UNL A   1      40.939  36.297  42.035  1.00  0.00    -0.200 F 
ENDBRANCH  55  69
BRANCH  56  80
ATOM     80  C   UNL A   1      39.826  28.603  30.205  1.00  0.00     0.064 A 
ATOM     81  C   UNL A   1      39.265  27.320  30.132  1.00  0.00     0.173 A 
ATOM     82  C   UNL A   1      40.384  29.134  29.033  1.00  0.00     0.173 A 
ATOM     83  F   UNL A   1      38.729  26.760  31.227  1.00  0.00    -0.203 F 
ATOM     84  C   UNL A   1      39.306  26.580  28.952  1.00  0.00     0.198 A 
ATOM     85  C   UNL A   1      40.389  28.409  27.842  1.00  0.00     0.198 A 
ATOM     86  F   UNL A   1      40.925  30.361  29.039  1.00  0.00    -0.203 F 
ATOM     87  F   UNL A   1      38.830  25.327  28.933  1.00  0.00    -0.200 F 
ATOM     88  C   UNL A   1      39.865  27.126  27.807  1.00  0.00     0.200 A 
ATOM     89  F   UNL A   1      40.912  28.950  26.733  1.00  0.00    -0.200 F 
ATOM     90  F   UNL A   1      39.911  26.411  26.674  1.00  0.00    -0.200 F 
ENDBRANCH  56  80
BRANCH  68  91
ATOM     91  C   UNL A   1      44.326  28.747  35.548  1.00  0.00     0.064 A 
ATOM     92  C   UNL A   1      44.266  27.540  36.256  1.00  0.00     0.173 A 
ATOM     93  C   UNL A   1      45.573  29.157  35.047  1.00  0.00     0.173 A 
ATOM     94  F   UNL A   1      43.101  27.112  36.766  1.00  0.00    -0.203 F 
ATOM     95  C   UNL A   1      45.411  26.774  36.457  1.00  0.00     0.198 A 
ATOM     96  C   UNL A   1      46.707  28.371  35.218  1.00  0.00     0.198 A 
ATOM     97  F   UNL A   1      45.681  30.301  34.355  1.00  0.00    -0.203 F 
ATOM     98  F   UNL A   1      45.339  25.638  37.163  1.00  0.00    -0.200 F 
ATOM     99  C   UNL A   1      46.626  27.182  35.926  1.00  0.00     0.200 A 
ATOM    100  F   UNL A   1      47.874  28.756  34.683  1.00  0.00    -0.200 F 
ATOM    101  F   UNL A   1      47.721  26.427  36.094  1.00  0.00    -0.200 F 
ENDBRANCH  68  91
ENDBRANCH  42  43
ENDBRANCH  34  37
ENDBRANCH  32  33
ENDBRANCH  31  32
ENDBRANCH   1  31
TORSDOF 14
ENDMDL
MODEL 3
REMARK VINA RESULT:     -13.4      7.035     12.471
REMARK SMILES O=C(N/N=C/c1ccc(C(=O)NCCCNC(=O)c2ccc(-c3c4nc(c(-c5c(F)c(F)c(F)c(F)c5F)c5ccc([nH]5)c(-c5c(F)c(F)c(F)c(F)c5F)c5nc(c(-c6c(F)c(F)c(F)c(F)c6F)c6ccc3[nH]6)C=C5)C=C4)cc2)cc1)C(=O)Nc1ccc2c(c1)OCO2
REMARK SMILES IDX 13 1 12 2 10 3 11 4 9 6 6 7 7 8 83 9 8 10 82 11 5 12 4 13
REMARK SMILES IDX 3 14 1 15 2 16 84 18 85 19 86 20 87 22 88 23 92 24 89 25
REMARK SMILES IDX 91 26 90 27 93 28 95 29 94 30 14 31 15 32 16 33 17 34 18 36
REMARK SMILES IDX 19 37 20 38 81 39 21 40 80 41 22 42 23 43 24 44 74 45 25 46
REMARK SMILES IDX 79 47 73 48 75 49 26 50 78 51 72 52 71 53 27 55 59 56 39 57
REMARK SMILES IDX 58 58 40 59 43 60 57 61 76 62 41 63 42 64 56 66 77 67 44 68
REMARK SMILES IDX 28 69 29 70 37 71 30 72 31 73 35 74 38 75 32 76 33 77 36 78
REMARK SMILES IDX 34 79 60 80 61 81 69 82 62 83 63 84 67 85 70 86 64 87 65 88
REMARK SMILES IDX 68 89 66 90 45 91 46 92 54 93 47 94 48 95 52 96 55 97 49 98
REMARK SMILES IDX 50 99 53 100 51 101
REMARK H PARENT 12 5 3 17 86 21 16 35 75 54 43 65
REMARK Flexibility Score: inf
ROOT
ATOM      1  C   UNL A   1      41.267  19.676  27.515  1.00  0.00     0.118 C 
ENDROOT
BRANCH   1   2
ATOM      2  N   UNL A   1      41.548  20.922  28.212  1.00  0.00    -0.352 N 
ATOM      3  C   UNL A   1      41.070  22.193  27.997  1.00  0.00     0.251 C 
ATOM      4  O   UNL A   1      41.439  23.103  28.734  1.00  0.00    -0.269 OA
ATOM      5  H   UNL A   1      42.183  20.841  28.960  1.00  0.00     0.163 HD
BRANCH   3   6
ATOM      6  C   UNL A   1      40.028  22.442  26.973  1.00  0.00     0.039 A 
ATOM      7  C   UNL A   1      37.330  22.789  25.529  1.00  0.00    -0.005 A 
ATOM      8  C   UNL A   1      38.226  23.838  26.171  1.00  0.00     0.010 A 
ATOM      9  C   UNL A   1      38.332  21.674  25.413  1.00  0.00     0.010 A 
ATOM     10  C   UNL A   1      39.440  23.676  26.894  1.00  0.00     0.014 A 
ATOM     11  C   UNL A   1      39.575  21.513  26.075  1.00  0.00     0.014 A 
BRANCH   7  12
ATOM     12  C   UNL A   1      35.270  22.906  24.981  1.00  0.00     0.141 C 
ATOM     13  N   UNL A   1      34.159  22.094  25.072  1.00  0.00    -0.180 NA
BRANCH  13  14
ATOM     14  N   UNL A   1      33.261  22.269  24.082  1.00  0.00    -0.239 N 
ATOM     15  O   UNL A   1      31.283  23.081  23.360  1.00  0.00    -0.262 OA
ATOM     16  C   UNL A   1      31.965  22.713  24.317  1.00  0.00     0.329 C 
ATOM     17  H   UNL A   1      33.534  22.074  23.156  1.00  0.00     0.194 HD
BRANCH  16  18
ATOM     18  C   UNL A   1      31.349  22.832  25.747  1.00  0.00     0.315 C 
ATOM     19  O   UNL A   1      30.566  21.958  26.124  1.00  0.00    -0.263 OA
ATOM     20  N   UNL A   1      31.796  23.764  26.685  1.00  0.00    -0.318 N 
ATOM     21  H   UNL A   1      32.070  23.445  27.575  1.00  0.00     0.170 HD
BRANCH  20  22
ATOM     22  C   UNL A   1      31.868  25.140  26.410  1.00  0.00     0.045 A 
ATOM     23  C   UNL A   1      33.519  25.718  25.824  1.00  0.00     0.030 A 
ATOM     24  C   UNL A   1      30.332  25.924  25.783  1.00  0.00     0.076 A 
ATOM     25  C   UNL A   1      33.604  27.083  24.599  1.00  0.00     0.053 A 
ATOM     26  C   UNL A   1      30.478  27.153  24.448  1.00  0.00     0.167 A 
ATOM     27  C   UNL A   1      32.078  27.723  23.903  1.00  0.00     0.165 A 
ATOM     28  O   UNL A   1      29.575  27.615  23.542  1.00  0.00    -0.454 OA
ATOM     29  O   UNL A   1      31.859  28.425  22.761  1.00  0.00    -0.454 OA
ATOM     30  C   UNL A   1      30.469  28.030  22.444  1.00  0.00     0.468 C 
ENDBRANCH  20  22
ENDBRANCH  16  18
ENDBRANCH  13  14
ENDBRANCH   7  12
ENDBRANCH   3   6
ENDBRANCH   1   2
BRANCH   1  31
ATOM     31  C   UNL A   1      42.534  19.127  26.870  1.00  0.00     0.042 C 
BRANCH  31  32
ATOM     32  C   UNL A   1      42.609  19.430  25.388  1.00  0.00     0.118 C 
BRANCH  32  33
ATOM     33  N   UNL A   1      43.792  18.850  24.776  1.00  0.00    -0.352 N 
ATOM     34  C   UNL A   1      44.897  19.492  24.279  1.00  0.00     0.251 C 
ATOM     35  H   UNL A   1      43.801  17.867  24.709  1.00  0.00     0.163 HD
ATOM     36  O   UNL A   1      45.698  18.895  23.569  1.00  0.00    -0.269 OA
BRANCH  34  37
ATOM     37  C   UNL A   1      45.097  20.920  24.599  1.00  0.00     0.039 A 
ATOM     38  C   UNL A   1      44.714  21.892  23.674  1.00  0.00     0.014 A 
ATOM     39  C   UNL A   1      45.636  21.288  25.834  1.00  0.00     0.014 A 
ATOM     40  C   UNL A   1      44.821  23.241  24.012  1.00  0.00     0.010 A 
ATOM     41  C   UNL A   1      45.641  22.622  26.209  1.00  0.00     0.010 A 
ATOM     42  C   UNL A   1      45.254  23.613  25.295  1.00  0.00    -0.014 A 
BRANCH  42  43
ATOM     43  C   UNL A   1      45.367  25.031  25.712  1.00  0.00     0.031 A 
ATOM     44  C   UNL A   1      46.719  25.689  25.689  1.00  0.00     0.074 A 
ATOM     45  C   UNL A   1      44.295  25.683  26.202  1.00  0.00     0.049 A 
ATOM     46  N   UNL A   1      47.088  26.843  26.180  1.00  0.00    -0.248 NA
ATOM     47  C   UNL A   1      47.815  24.927  25.062  1.00  0.00     0.031 C 
ATOM     48  C   UNL A   1      42.940  25.138  26.294  1.00  0.00     0.029 A 
ATOM     49  N   UNL A   1      44.184  26.940  26.745  1.00  0.00    -0.354 N 
ATOM     50  C   UNL A   1      48.454  26.929  25.946  1.00  0.00     0.074 A 
ATOM     51  C   UNL A   1      48.862  25.695  25.317  1.00  0.00     0.031 C 
ATOM     52  C   UNL A   1      42.134  26.055  26.855  1.00  0.00     0.029 A 
ATOM     53  C   UNL A   1      42.926  27.227  27.216  1.00  0.00     0.049 A 
ATOM     54  H   UNL A   1      44.936  27.574  26.791  1.00  0.00     0.167 HD
ATOM     55  C   UNL A   1      49.288  27.958  26.221  1.00  0.00     0.037 A 
ATOM     56  C   UNL A   1      42.474  28.299  27.895  1.00  0.00     0.037 A 
ATOM     57  C   UNL A   1      48.864  29.193  26.821  1.00  0.00     0.049 A 
ATOM     58  C   UNL A   1      43.435  29.417  28.216  1.00  0.00     0.074 A 
ATOM     59  C   UNL A   1      49.617  30.323  27.084  1.00  0.00     0.029 A 
ATOM     60  N   UNL A   1      47.575  29.456  27.258  1.00  0.00    -0.354 N 
ATOM     61  N   UNL A   1      44.713  29.515  27.941  1.00  0.00    -0.248 NA
ATOM     62  C   UNL A   1      42.893  30.576  28.941  1.00  0.00     0.031 C 
ATOM     63  C   UNL A   1      48.803  31.240  27.751  1.00  0.00     0.029 A 
ATOM     64  C   UNL A   1      47.520  30.720  27.818  1.00  0.00     0.049 A 
ATOM     65  H   UNL A   1      46.813  28.837  27.181  1.00  0.00     0.167 HD
ATOM     66  C   UNL A   1      45.113  30.760  28.410  1.00  0.00     0.074 A 
ATOM     67  C   UNL A   1      43.944  31.382  28.992  1.00  0.00     0.031 C 
ATOM     68  C   UNL A   1      46.336  31.338  28.357  1.00  0.00     0.037 A 
BRANCH  55  69
ATOM     69  C   UNL A   1      50.743  27.800  25.888  1.00  0.00     0.064 A 
ATOM     70  C   UNL A   1      51.687  27.417  26.853  1.00  0.00     0.173 A 
ATOM     71  C   UNL A   1      51.186  27.965  24.567  1.00  0.00     0.173 A 
ATOM     72  F   UNL A   1      51.319  27.257  28.132  1.00  0.00    -0.203 F 
ATOM     73  C   UNL A   1      53.022  27.222  26.509  1.00  0.00     0.198 A 
ATOM     74  C   UNL A   1      52.514  27.733  24.220  1.00  0.00     0.198 A 
ATOM     75  F   UNL A   1      50.325  28.328  23.605  1.00  0.00    -0.203 F 
ATOM     76  F   UNL A   1      53.914  26.895  27.455  1.00  0.00    -0.200 F 
ATOM     77  C   UNL A   1      53.431  27.366  25.192  1.00  0.00     0.200 A 
ATOM     78  F   UNL A   1      52.902  27.856  22.944  1.00  0.00    -0.200 F 
ATOM     79  F   UNL A   1      54.712  27.156  24.860  1.00  0.00    -0.200 F 
ENDBRANCH  55  69
BRANCH  56  80
ATOM     80  C   UNL A   1      41.054  28.371  28.336  1.00  0.00     0.064 A 
ATOM     81  C   UNL A   1      40.063  28.910  27.502  1.00  0.00     0.173 A 
ATOM     82  C   UNL A   1      40.663  27.942  29.614  1.00  0.00     0.173 A 
ATOM     83  F   UNL A   1      40.385  29.347  26.276  1.00  0.00    -0.203 F 
ATOM     84  C   UNL A   1      38.750  29.061  27.945  1.00  0.00     0.198 A 
ATOM     85  C   UNL A   1      39.341  28.056  30.041  1.00  0.00     0.198 A 
ATOM     86  F   UNL A   1      41.565  27.408  30.450  1.00  0.00    -0.203 F 
ATOM     87  F   UNL A   1      37.843  29.649  27.154  1.00  0.00    -0.200 F 
ATOM     88  C   UNL A   1      38.390  28.631  29.213  1.00  0.00     0.200 A 
ATOM     89  F   UNL A   1      38.993  27.619  31.259  1.00  0.00    -0.200 F 
ATOM     90  F   UNL A   1      37.129  28.783  29.641  1.00  0.00    -0.200 F 
ENDBRANCH  56  80
BRANCH  68  91
ATOM     91  C   UNL A   1      46.475  32.747  28.857  1.00  0.00     0.064 A 
ATOM     92  C   UNL A   1      46.249  33.857  28.033  1.00  0.00     0.173 A 
ATOM     93  C   UNL A   1      46.736  32.979  30.218  1.00  0.00     0.173 A 
ATOM     94  F   UNL A   1      46.008  33.689  26.723  1.00  0.00    -0.203 F 
ATOM     95  C   UNL A   1      46.286  35.149  28.550  1.00  0.00     0.198 A 
ATOM     96  C   UNL A   1      46.735  34.268  30.738  1.00  0.00     0.198 A 
ATOM     97  F   UNL A   1      46.951  31.949  31.050  1.00  0.00    -0.203 F 
ATOM     98  F   UNL A   1      46.097  36.199  27.739  1.00  0.00    -0.200 F 
ATOM     99  C   UNL A   1      46.513  35.352  29.904  1.00  0.00     0.200 A 
ATOM    100  F   UNL A   1      46.932  34.459  32.050  1.00  0.00    -0.200 F 
ATOM    101  F   UNL A   1      46.517  36.595  30.405  1.00  0.00    -0.200 F 
ENDBRANCH  68  91
ENDBRANCH  42  43
ENDBRANCH  34  37
ENDBRANCH  32  33
ENDBRANCH  31  32
ENDBRANCH   1  31
TORSDOF 14
ENDMDL
