MODEL 1
REMARK VINA RESULT:     -11.7      0.000      0.000
REMARK SMILES CCOc1c(F)cccc1C(=O)NCCCNC(=O)c1ccc(-c2c3nc(c(-c4c(F)c(F)c(F)c(F)c4F)c4ccc([nH]4)c(-c4c(F)c(F)c(F)c(F)c4F)c4nc(c(-c5c(F)c(F)c(F)c(F)c5F)c5ccc2[nH]5)C=C4)C=C3)cc1
REMARK SMILES IDX 15 1 14 2 13 3 11 4 12 5 10 7 4 8 5 9 6 10 7 11 9 12 8 13
REMARK SMILES IDX 3 14 2 15 1 16 16 17 17 18 18 19 19 21 20 22 21 23 82 24
REMARK SMILES IDX 22 25 81 26 23 27 24 28 25 29 75 30 26 31 80 32 74 33 76 34
REMARK SMILES IDX 27 35 79 36 73 37 72 38 28 40 60 41 40 42 59 43 41 44 44 45
REMARK SMILES IDX 58 46 77 47 42 48 43 49 57 51 78 52 45 53 29 54 30 55 38 56
REMARK SMILES IDX 31 57 32 58 36 59 39 60 33 61 34 62 37 63 35 64 61 65 62 66
REMARK SMILES IDX 70 67 63 68 64 69 68 70 71 71 65 72 66 73 69 74 67 75 46 76
REMARK SMILES IDX 47 77 55 78 48 79 49 80 53 81 56 82 50 83 51 84 54 85 52 86
REMARK H PARENT 13 6 17 20 76 39 44 50
REMARK Flexibility Score: inf
ROOT
ATOM      1  C   UNL A   1      38.254  19.940  25.001  1.00  0.00     0.042 C 
ENDROOT
BRANCH   1   2
ATOM      2  C   UNL A   1      37.375  21.154  24.711  1.00  0.00     0.118 C 
BRANCH   2   3
ATOM      3  N   UNL A   1      36.361  21.293  25.728  1.00  0.00    -0.352 N 
ATOM      4  C   UNL A   1      34.999  21.277  25.781  1.00  0.00     0.255 C 
ATOM      5  O   UNL A   1      34.567  21.530  26.915  1.00  0.00    -0.269 OA
ATOM      6  H   UNL A   1      36.757  21.439  26.618  1.00  0.00     0.163 HD
BRANCH   4   7
ATOM      7  C   UNL A   1      33.998  20.975  24.699  1.00  0.00     0.084 A 
ATOM      8  C   UNL A   1      33.386  19.775  24.306  1.00  0.00     0.167 A 
ATOM      9  C   UNL A   1      32.385  19.805  23.311  1.00  0.00     0.165 A 
ATOM     10  F   UNL A   1      31.691  18.695  23.020  1.00  0.00    -0.203 F 
ATOM     11  C   UNL A   1      32.043  20.962  22.625  1.00  0.00     0.043 A 
ATOM     12  C   UNL A   1      33.625  22.145  23.976  1.00  0.00     0.018 A 
ATOM     13  C   UNL A   1      32.677  22.144  22.951  1.00  0.00     0.004 A 
BRANCH   8  14
ATOM     14  O   UNL A   1      33.611  18.569  24.906  1.00  0.00    -0.490 OA
BRANCH  14  15
ATOM     15  C   UNL A   1      34.663  17.799  24.307  1.00  0.00     0.226 C 
ATOM     16  C   UNL A   1      34.167  16.578  23.556  1.00  0.00     0.049 C 
ENDBRANCH  14  15
ENDBRANCH   8  14
ENDBRANCH   4   7
ENDBRANCH   2   3
ENDBRANCH   1   2
BRANCH   1  17
ATOM     17  C   UNL A   1      39.267  20.208  26.109  1.00  0.00     0.118 C 
BRANCH  17  18
ATOM     18  N   UNL A   1      40.330  19.205  26.100  1.00  0.00    -0.352 N 
ATOM     19  C   UNL A   1      41.692  19.364  26.040  1.00  0.00     0.251 C 
ATOM     20  H   UNL A   1      40.021  18.271  26.143  1.00  0.00     0.163 HD
ATOM     21  O   UNL A   1      42.410  18.425  25.717  1.00  0.00    -0.269 OA
BRANCH  19  22
ATOM     22  C   UNL A   1      42.293  20.673  26.365  1.00  0.00     0.039 A 
ATOM     23  C   UNL A   1      42.638  21.553  25.336  1.00  0.00     0.014 A 
ATOM     24  C   UNL A   1      42.535  21.019  27.696  1.00  0.00     0.014 A 
ATOM     25  C   UNL A   1      43.157  22.812  25.648  1.00  0.00     0.010 A 
ATOM     26  C   UNL A   1      42.956  22.302  28.008  1.00  0.00     0.010 A 
ATOM     27  C   UNL A   1      43.279  23.210  26.988  1.00  0.00    -0.014 A 
BRANCH  27  28
ATOM     28  C   UNL A   1      43.746  24.562  27.378  1.00  0.00     0.031 A 
ATOM     29  C   UNL A   1      42.758  25.560  27.911  1.00  0.00     0.074 A 
ATOM     30  C   UNL A   1      45.017  24.930  27.125  1.00  0.00     0.049 A 
ATOM     31  N   UNL A   1      42.905  26.844  28.114  1.00  0.00    -0.248 NA
ATOM     32  C   UNL A   1      41.409  25.053  28.214  1.00  0.00     0.031 C 
ATOM     33  C   UNL A   1      46.052  24.059  26.568  1.00  0.00     0.029 A 
ATOM     34  N   UNL A   1      45.644  26.141  27.275  1.00  0.00    -0.354 N 
ATOM     35  C   UNL A   1      41.659  27.301  28.527  1.00  0.00     0.074 A 
ATOM     36  C   UNL A   1      40.759  26.170  28.499  1.00  0.00     0.031 C 
ATOM     37  C   UNL A   1      47.188  24.760  26.433  1.00  0.00     0.029 A 
ATOM     38  C   UNL A   1      46.946  26.141  26.840  1.00  0.00     0.049 A 
ATOM     39  H   UNL A   1      45.202  26.934  27.657  1.00  0.00     0.167 HD
ATOM     40  C   UNL A   1      41.310  28.550  28.910  1.00  0.00     0.037 A 
ATOM     41  C   UNL A   1      47.839  27.146  26.755  1.00  0.00     0.037 A 
ATOM     42  C   UNL A   1      42.231  29.653  28.979  1.00  0.00     0.049 A 
ATOM     43  C   UNL A   1      47.435  28.526  27.194  1.00  0.00     0.074 A 
ATOM     44  C   UNL A   1      42.005  30.933  29.450  1.00  0.00     0.029 A 
ATOM     45  N   UNL A   1      43.554  29.604  28.562  1.00  0.00    -0.354 N 
ATOM     46  N   UNL A   1      46.274  28.938  27.644  1.00  0.00    -0.248 NA
ATOM     47  C   UNL A   1      48.455  29.581  27.112  1.00  0.00     0.031 C 
ATOM     48  C   UNL A   1      43.171  31.678  29.260  1.00  0.00     0.029 A 
ATOM     49  C   UNL A   1      44.145  30.845  28.731  1.00  0.00     0.049 A 
ATOM     50  H   UNL A   1      44.004  28.808  28.199  1.00  0.00     0.167 HD
ATOM     51  C   UNL A   1      46.427  30.289  27.918  1.00  0.00     0.074 A 
ATOM     52  C   UNL A   1      47.796  30.629  27.590  1.00  0.00     0.031 C 
ATOM     53  C   UNL A   1      45.512  31.166  28.401  1.00  0.00     0.037 A 
BRANCH  40  54
ATOM     54  C   UNL A   1      39.878  28.796  29.286  1.00  0.00     0.064 A 
ATOM     55  C   UNL A   1      39.445  28.583  30.605  1.00  0.00     0.173 A 
ATOM     56  C   UNL A   1      38.919  29.192  28.340  1.00  0.00     0.173 A 
ATOM     57  F   UNL A   1      40.317  28.199  31.549  1.00  0.00    -0.203 F 
ATOM     58  C   UNL A   1      38.109  28.752  30.958  1.00  0.00     0.198 A 
ATOM     59  C   UNL A   1      37.591  29.394  28.705  1.00  0.00     0.198 A 
ATOM     60  F   UNL A   1      39.280  29.418  27.068  1.00  0.00    -0.203 F 
ATOM     61  F   UNL A   1      37.716  28.513  32.217  1.00  0.00    -0.200 F 
ATOM     62  C   UNL A   1      37.185  29.164  30.011  1.00  0.00     0.200 A 
ATOM     63  F   UNL A   1      36.706  29.822  27.794  1.00  0.00    -0.200 F 
ATOM     64  F   UNL A   1      35.903  29.346  30.357  1.00  0.00    -0.200 F 
ENDBRANCH  40  54
BRANCH  41  65
ATOM     65  C   UNL A   1      49.206  26.855  26.251  1.00  0.00     0.064 A 
ATOM     66  C   UNL A   1      49.542  27.038  24.901  1.00  0.00     0.173 A 
ATOM     67  C   UNL A   1      50.177  26.302  27.096  1.00  0.00     0.173 A 
ATOM     68  F   UNL A   1      48.644  27.554  24.049  1.00  0.00    -0.203 F 
ATOM     69  C   UNL A   1      50.786  26.648  24.410  1.00  0.00     0.198 A 
ATOM     70  C   UNL A   1      51.430  25.935  26.609  1.00  0.00     0.198 A 
ATOM     71  F   UNL A   1      49.907  26.123  28.397  1.00  0.00    -0.203 F 
ATOM     72  F   UNL A   1      51.064  26.785  23.106  1.00  0.00    -0.200 F 
ATOM     73  C   UNL A   1      51.729  26.097  25.264  1.00  0.00     0.200 A 
ATOM     74  F   UNL A   1      52.344  25.418  27.440  1.00  0.00    -0.200 F 
ATOM     75  F   UNL A   1      52.923  25.715  24.791  1.00  0.00    -0.200 F 
ENDBRANCH  41  65
BRANCH  53  76
ATOM     76  C   UNL A   1      45.946  32.584  28.626  1.00  0.00     0.064 A 
ATOM     77  C   UNL A   1      45.794  33.539  27.609  1.00  0.00     0.173 A 
ATOM     78  C   UNL A   1      46.630  32.963  29.788  1.00  0.00     0.173 A 
ATOM     79  F   UNL A   1      45.155  33.222  26.472  1.00  0.00    -0.203 F 
ATOM     80  C   UNL A   1      46.343  34.813  27.734  1.00  0.00     0.198 A 
ATOM     81  C   UNL A   1      47.152  34.247  29.923  1.00  0.00     0.198 A 
ATOM     82  F   UNL A   1      46.790  32.089  30.794  1.00  0.00    -0.203 F 
ATOM     83  F   UNL A   1      46.234  35.690  26.726  1.00  0.00    -0.200 F 
ATOM     84  C   UNL A   1      47.022  35.165  28.890  1.00  0.00     0.200 A 
ATOM     85  F   UNL A   1      47.792  34.594  31.048  1.00  0.00    -0.200 F 
ATOM     86  F   UNL A   1      47.557  36.388  29.007  1.00  0.00    -0.200 F 
ENDBRANCH  53  76
ENDBRANCH  27  28
ENDBRANCH  19  22
ENDBRANCH  17  18
ENDBRANCH   1  17
TORSDOF 12
ENDMDL
MODEL 2
REMARK VINA RESULT:     -11.7      6.620     11.755
REMARK SMILES CCOc1c(F)cccc1C(=O)NCCCNC(=O)c1ccc(-c2c3nc(c(-c4c(F)c(F)c(F)c(F)c4F)c4ccc([nH]4)c(-c4c(F)c(F)c(F)c(F)c4F)c4nc(c(-c5c(F)c(F)c(F)c(F)c5F)c5ccc2[nH]5)C=C4)C=C3)cc1
REMARK SMILES IDX 15 1 14 2 13 3 11 4 12 5 10 7 4 8 5 9 6 10 7 11 9 12 8 13
REMARK SMILES IDX 3 14 2 15 1 16 16 17 17 18 18 19 19 21 20 22 21 23 82 24
REMARK SMILES IDX 22 25 81 26 23 27 24 28 25 29 75 30 26 31 80 32 74 33 76 34
REMARK SMILES IDX 27 35 79 36 73 37 72 38 28 40 60 41 40 42 59 43 41 44 44 45
REMARK SMILES IDX 58 46 77 47 42 48 43 49 57 51 78 52 45 53 29 54 30 55 38 56
REMARK SMILES IDX 31 57 32 58 36 59 39 60 33 61 34 62 37 63 35 64 61 65 62 66
REMARK SMILES IDX 70 67 63 68 64 69 68 70 71 71 65 72 66 73 69 74 67 75 46 76
REMARK SMILES IDX 47 77 55 78 48 79 49 80 53 81 56 82 50 83 51 84 54 85 52 86
REMARK H PARENT 13 6 17 20 76 39 44 50
REMARK Flexibility Score: inf
ROOT
ATOM      1  C   UNL A   1      31.529  32.200  26.585  1.00  0.00     0.042 C 
ENDROOT
BRANCH   1   2
ATOM      2  C   UNL A   1      31.527  30.674  26.582  1.00  0.00     0.118 C 
BRANCH   2   3
ATOM      3  N   UNL A   1      32.215  30.174  25.415  1.00  0.00    -0.352 N 
ATOM      4  C   UNL A   1      31.903  29.413  24.329  1.00  0.00     0.255 C 
ATOM      5  O   UNL A   1      32.889  29.179  23.616  1.00  0.00    -0.269 OA
ATOM      6  H   UNL A   1      33.158  30.457  25.401  1.00  0.00     0.163 HD
BRANCH   4   7
ATOM      7  C   UNL A   1      30.571  28.868  23.886  1.00  0.00     0.084 A 
ATOM      8  C   UNL A   1      30.045  27.567  23.907  1.00  0.00     0.167 A 
ATOM      9  C   UNL A   1      28.703  27.361  23.522  1.00  0.00     0.165 A 
ATOM     10  F   UNL A   1      28.139  26.153  23.665  1.00  0.00    -0.203 F 
ATOM     11  C   UNL A   1      27.900  28.377  23.024  1.00  0.00     0.043 A 
ATOM     12  C   UNL A   1      29.722  29.889  23.370  1.00  0.00     0.018 A 
ATOM     13  C   UNL A   1      28.416  29.654  22.934  1.00  0.00     0.004 A 
BRANCH   8  14
ATOM     14  O   UNL A   1      30.714  26.478  24.390  1.00  0.00    -0.490 OA
BRANCH  14  15
ATOM     15  C   UNL A   1      30.656  26.336  25.815  1.00  0.00     0.226 C 
ATOM     16  C   UNL A   1      32.018  26.371  26.483  1.00  0.00     0.049 C 
ENDBRANCH  14  15
ENDBRANCH   8  14
ENDBRANCH   4   7
ENDBRANCH   2   3
ENDBRANCH   1   2
BRANCH   1  17
ATOM     17  C   UNL A   1      32.762  32.778  27.271  1.00  0.00     0.118 C 
BRANCH  17  18
ATOM     18  N   UNL A   1      32.550  34.178  27.634  1.00  0.00    -0.352 N 
ATOM     19  C   UNL A   1      33.060  34.904  28.682  1.00  0.00     0.251 C 
ATOM     20  H   UNL A   1      31.950  34.677  27.035  1.00  0.00     0.163 HD
ATOM     21  O   UNL A   1      32.531  35.957  29.018  1.00  0.00    -0.269 OA
BRANCH  19  22
ATOM     22  C   UNL A   1      34.249  34.412  29.406  1.00  0.00     0.039 A 
ATOM     23  C   UNL A   1      34.092  33.727  30.614  1.00  0.00     0.014 A 
ATOM     24  C   UNL A   1      35.526  34.650  28.895  1.00  0.00     0.014 A 
ATOM     25  C   UNL A   1      35.215  33.216  31.271  1.00  0.00     0.010 A 
ATOM     26  C   UNL A   1      36.628  34.059  29.493  1.00  0.00     0.010 A 
ATOM     27  C   UNL A   1      36.486  33.342  30.690  1.00  0.00    -0.014 A 
BRANCH  27  28
ATOM     28  C   UNL A   1      37.702  32.751  31.300  1.00  0.00     0.031 A 
ATOM     29  C   UNL A   1      38.405  31.624  30.599  1.00  0.00     0.074 A 
ATOM     30  C   UNL A   1      38.085  33.131  32.533  1.00  0.00     0.049 A 
ATOM     31  N   UNL A   1      39.346  30.831  31.043  1.00  0.00    -0.248 NA
ATOM     32  C   UNL A   1      37.956  31.317  29.231  1.00  0.00     0.031 C 
ATOM     33  C   UNL A   1      37.451  34.184  33.327  1.00  0.00     0.029 A 
ATOM     34  N   UNL A   1      39.081  32.653  33.347  1.00  0.00    -0.354 N 
ATOM     35  C   UNL A   1      39.571  29.912  30.026  1.00  0.00     0.074 A 
ATOM     36  C   UNL A   1      38.636  30.213  28.965  1.00  0.00     0.031 C 
ATOM     37  C   UNL A   1      38.079  34.280  34.508  1.00  0.00     0.029 A 
ATOM     38  C   UNL A   1      39.121  33.261  34.578  1.00  0.00     0.049 A 
ATOM     39  H   UNL A   1      39.706  31.943  33.075  1.00  0.00     0.167 HD
ATOM     40  C   UNL A   1      40.488  28.919  29.981  1.00  0.00     0.037 A 
ATOM     41  C   UNL A   1      39.895  33.010  35.652  1.00  0.00     0.037 A 
ATOM     42  C   UNL A   1      41.443  28.664  31.025  1.00  0.00     0.049 A 
ATOM     43  C   UNL A   1      40.915  31.907  35.579  1.00  0.00     0.074 A 
ATOM     44  C   UNL A   1      42.481  27.751  31.036  1.00  0.00     0.029 A 
ATOM     45  N   UNL A   1      41.475  29.326  32.245  1.00  0.00    -0.354 N 
ATOM     46  N   UNL A   1      41.165  31.084  34.590  1.00  0.00    -0.248 NA
ATOM     47  C   UNL A   1      41.756  31.694  36.765  1.00  0.00     0.031 C 
ATOM     48  C   UNL A   1      43.101  27.813  32.286  1.00  0.00     0.029 A 
ATOM     49  C   UNL A   1      42.493  28.812  33.031  1.00  0.00     0.049 A 
ATOM     50  H   UNL A   1      40.865  30.051  32.512  1.00  0.00     0.167 HD
ATOM     51  C   UNL A   1      42.202  30.270  35.023  1.00  0.00     0.074 A 
ATOM     52  C   UNL A   1      42.540  30.703  36.363  1.00  0.00     0.031 C 
ATOM     53  C   UNL A   1      42.818  29.257  34.364  1.00  0.00     0.037 A 
BRANCH  40  54
ATOM     54  C   UNL A   1      40.508  28.034  28.768  1.00  0.00     0.064 A 
ATOM     55  C   UNL A   1      39.802  26.821  28.765  1.00  0.00     0.173 A 
ATOM     56  C   UNL A   1      41.263  28.353  27.629  1.00  0.00     0.173 A 
ATOM     57  F   UNL A   1      39.068  26.462  29.829  1.00  0.00    -0.203 F 
ATOM     58  C   UNL A   1      39.856  25.961  27.671  1.00  0.00     0.198 A 
ATOM     59  C   UNL A   1      41.286  27.508  26.522  1.00  0.00     0.198 A 
ATOM     60  F   UNL A   1      41.950  29.505  27.575  1.00  0.00    -0.203 F 
ATOM     61  F   UNL A   1      39.196  24.795  27.705  1.00  0.00    -0.200 F 
ATOM     62  C   UNL A   1      40.590  26.309  26.548  1.00  0.00     0.200 A 
ATOM     63  F   UNL A   1      41.972  27.861  25.427  1.00  0.00    -0.200 F 
ATOM     64  F   UNL A   1      40.625  25.490  25.488  1.00  0.00    -0.200 F 
ENDBRANCH  40  54
BRANCH  41  65
ATOM     65  C   UNL A   1      39.732  33.845  36.869  1.00  0.00     0.064 A 
ATOM     66  C   UNL A   1      38.896  33.448  37.923  1.00  0.00     0.173 A 
ATOM     67  C   UNL A   1      40.343  35.103  36.959  1.00  0.00     0.173 A 
ATOM     68  F   UNL A   1      38.280  32.258  37.879  1.00  0.00    -0.203 F 
ATOM     69  C   UNL A   1      38.651  34.291  39.005  1.00  0.00     0.198 A 
ATOM     70  C   UNL A   1      40.117  35.935  38.054  1.00  0.00     0.198 A 
ATOM     71  F   UNL A   1      41.163  35.519  35.984  1.00  0.00    -0.203 F 
ATOM     72  F   UNL A   1      37.807  33.909  39.973  1.00  0.00    -0.200 F 
ATOM     73  C   UNL A   1      39.262  35.534  39.070  1.00  0.00     0.200 A 
ATOM     74  F   UNL A   1      40.722  37.129  38.121  1.00  0.00    -0.200 F 
ATOM     75  F   UNL A   1      39.021  36.348  40.106  1.00  0.00    -0.200 F 
ENDBRANCH  41  65
BRANCH  53  76
ATOM     76  C   UNL A   1      43.936  28.540  35.061  1.00  0.00     0.064 A 
ATOM     77  C   UNL A   1      43.664  27.436  35.883  1.00  0.00     0.173 A 
ATOM     78  C   UNL A   1      45.250  29.025  35.023  1.00  0.00     0.173 A 
ATOM     79  F   UNL A   1      42.419  26.941  35.961  1.00  0.00    -0.203 F 
ATOM     80  C   UNL A   1      44.661  26.865  36.669  1.00  0.00     0.198 A 
ATOM     81  C   UNL A   1      46.252  28.433  35.789  1.00  0.00     0.198 A 
ATOM     82  F   UNL A   1      45.563  30.071  34.243  1.00  0.00    -0.203 F 
ATOM     83  F   UNL A   1      44.365  25.847  37.489  1.00  0.00    -0.200 F 
ATOM     84  C   UNL A   1      45.953  27.365  36.623  1.00  0.00     0.200 A 
ATOM     85  F   UNL A   1      47.505  28.904  35.729  1.00  0.00    -0.200 F 
ATOM     86  F   UNL A   1      46.910  26.820  37.385  1.00  0.00    -0.200 F 
ENDBRANCH  53  76
ENDBRANCH  27  28
ENDBRANCH  19  22
ENDBRANCH  17  18
ENDBRANCH   1  17
TORSDOF 12
ENDMDL
MODEL 3
REMARK VINA RESULT:     -11.6      6.555     11.761
REMARK SMILES CCOc1c(F)cccc1C(=O)NCCCNC(=O)c1ccc(-c2c3nc(c(-c4c(F)c(F)c(F)c(F)c4F)c4ccc([nH]4)c(-c4c(F)c(F)c(F)c(F)c4F)c4nc(c(-c5c(F)c(F)c(F)c(F)c5F)c5ccc2[nH]5)C=C4)C=C3)cc1
REMARK SMILES IDX 15 1 14 2 13 3 11 4 12 5 10 7 4 8 5 9 6 10 7 11 9 12 8 13
REMARK SMILES IDX 3 14 2 15 1 16 16 17 17 18 18 19 19 21 20 22 21 23 82 24
REMARK SMILES IDX 22 25 81 26 23 27 24 28 25 29 75 30 26 31 80 32 74 33 76 34
REMARK SMILES IDX 27 35 79 36 73 37 72 38 28 40 60 41 40 42 59 43 41 44 44 45
REMARK SMILES IDX 58 46 77 47 42 48 43 49 57 51 78 52 45 53 29 54 30 55 38 56
REMARK SMILES IDX 31 57 32 58 36 59 39 60 33 61 34 62 37 63 35 64 61 65 62 66
REMARK SMILES IDX 70 67 63 68 64 69 68 70 71 71 65 72 66 73 69 74 67 75 46 76
REMARK SMILES IDX 47 77 55 78 48 79 49 80 53 81 56 82 50 83 51 84 54 85 52 86
REMARK H PARENT 13 6 17 20 76 39 44 50
REMARK Flexibility Score: inf
ROOT
ATOM      1  C   UNL A   1      31.426  32.076  26.583  1.00  0.00     0.042 C 
ENDROOT
BRANCH   1   2
ATOM      2  C   UNL A   1      31.739  30.711  25.973  1.00  0.00     0.118 C 
BRANCH   2   3
ATOM      3  N   UNL A   1      31.624  29.677  26.974  1.00  0.00    -0.352 N 
ATOM      4  C   UNL A   1      31.729  28.319  27.015  1.00  0.00     0.255 C 
ATOM      5  O   UNL A   1      31.456  27.857  28.132  1.00  0.00    -0.269 OA
ATOM      6  H   UNL A   1      31.414  30.052  27.861  1.00  0.00     0.163 HD
BRANCH   4   7
ATOM      7  C   UNL A   1      32.142  27.353  25.937  1.00  0.00     0.084 A 
ATOM      8  C   UNL A   1      31.476  26.903  24.787  1.00  0.00     0.167 A 
ATOM      9  C   UNL A   1      32.159  26.064  23.880  1.00  0.00     0.165 A 
ATOM     10  F   UNL A   1      31.593  25.735  22.709  1.00  0.00    -0.203 F 
ATOM     11  C   UNL A   1      33.436  25.577  24.122  1.00  0.00     0.043 A 
ATOM     12  C   UNL A   1      33.451  26.836  26.158  1.00  0.00     0.018 A 
ATOM     13  C   UNL A   1      34.087  25.956  25.279  1.00  0.00     0.004 A 
BRANCH   8  14
ATOM     14  O   UNL A   1      30.228  27.315  24.413  1.00  0.00    -0.490 OA
BRANCH  14  15
ATOM     15  C   UNL A   1      30.221  28.450  23.537  1.00  0.00     0.226 C 
ATOM     16  C   UNL A   1      28.861  28.737  22.929  1.00  0.00     0.049 C 
ENDBRANCH  14  15
ENDBRANCH   8  14
ENDBRANCH   4   7
ENDBRANCH   2   3
ENDBRANCH   1   2
BRANCH   1  17
ATOM     17  C   UNL A   1      32.591  32.629  27.396  1.00  0.00     0.118 C 
BRANCH  17  18
ATOM     18  N   UNL A   1      32.435  34.065  27.623  1.00  0.00    -0.352 N 
ATOM     19  C   UNL A   1      32.983  34.869  28.591  1.00  0.00     0.251 C 
ATOM     20  H   UNL A   1      31.846  34.525  26.983  1.00  0.00     0.163 HD
ATOM     21  O   UNL A   1      32.497  35.969  28.827  1.00  0.00    -0.269 OA
BRANCH  19  22
ATOM     22  C   UNL A   1      34.163  34.406  29.349  1.00  0.00     0.039 A 
ATOM     23  C   UNL A   1      33.990  33.787  30.589  1.00  0.00     0.014 A 
ATOM     24  C   UNL A   1      35.446  34.607  28.836  1.00  0.00     0.014 A 
ATOM     25  C   UNL A   1      35.104  33.301  31.281  1.00  0.00     0.010 A 
ATOM     26  C   UNL A   1      36.537  34.039  29.473  1.00  0.00     0.010 A 
ATOM     27  C   UNL A   1      36.380  33.386  30.705  1.00  0.00    -0.014 A 
BRANCH  27  28
ATOM     28  C   UNL A   1      37.586  32.817  31.354  1.00  0.00     0.031 A 
ATOM     29  C   UNL A   1      38.291  31.656  30.713  1.00  0.00     0.074 A 
ATOM     30  C   UNL A   1      37.958  33.251  32.573  1.00  0.00     0.049 A 
ATOM     31  N   UNL A   1      39.223  30.880  31.202  1.00  0.00    -0.248 NA
ATOM     32  C   UNL A   1      37.856  31.290  29.355  1.00  0.00     0.031 C 
ATOM     33  C   UNL A   1      37.320  34.342  33.311  1.00  0.00     0.029 A 
ATOM     34  N   UNL A   1      38.943  32.806  33.419  1.00  0.00    -0.354 N 
ATOM     35  C   UNL A   1      39.454  29.914  30.231  1.00  0.00     0.074 A 
ATOM     36  C   UNL A   1      38.532  30.172  29.147  1.00  0.00     0.031 C 
ATOM     37  C   UNL A   1      37.936  34.489  34.494  1.00  0.00     0.029 A 
ATOM     38  C   UNL A   1      38.972  33.469  34.621  1.00  0.00     0.049 A 
ATOM     39  H   UNL A   1      39.567  32.082  33.186  1.00  0.00     0.167 HD
ATOM     40  C   UNL A   1      40.367  28.916  30.241  1.00  0.00     0.037 A 
ATOM     41  C   UNL A   1      39.733  33.263  35.714  1.00  0.00     0.037 A 
ATOM     42  C   UNL A   1      41.309  28.705  31.307  1.00  0.00     0.049 A 
ATOM     43  C   UNL A   1      40.747  32.153  35.703  1.00  0.00     0.074 A 
ATOM     44  C   UNL A   1      42.341  27.788  31.370  1.00  0.00     0.029 A 
ATOM     45  N   UNL A   1      41.331  29.421  32.495  1.00  0.00    -0.354 N 
ATOM     46  N   UNL A   1      41.004  31.285  34.755  1.00  0.00    -0.248 NA
ATOM     47  C   UNL A   1      41.574  31.990  36.907  1.00  0.00     0.031 C 
ATOM     48  C   UNL A   1      42.949  27.904  32.623  1.00  0.00     0.029 A 
ATOM     49  C   UNL A   1      42.337  28.938  33.316  1.00  0.00     0.049 A 
ATOM     50  H   UNL A   1      40.721  30.160  32.722  1.00  0.00     0.167 HD
ATOM     51  C   UNL A   1      42.032  30.486  35.236  1.00  0.00     0.074 A 
ATOM     52  C   UNL A   1      42.358  30.978  36.559  1.00  0.00     0.031 C 
ATOM     53  C   UNL A   1      42.650  29.442  34.631  1.00  0.00     0.037 A 
BRANCH  40  54
ATOM     54  C   UNL A   1      40.395  27.977  29.070  1.00  0.00     0.064 A 
ATOM     55  C   UNL A   1      41.159  28.286  27.933  1.00  0.00     0.173 A 
ATOM     56  C   UNL A   1      39.633  26.799  29.044  1.00  0.00     0.173 A 
ATOM     57  F   UNL A   1      41.903  29.402  27.900  1.00  0.00    -0.203 F 
ATOM     58  C   UNL A   1      41.152  27.455  26.816  1.00  0.00     0.198 A 
ATOM     59  C   UNL A   1      39.657  25.952  27.939  1.00  0.00     0.198 A 
ATOM     60  F   UNL A   1      38.892  26.452  30.108  1.00  0.00    -0.203 F 
ATOM     61  F   UNL A   1      41.866  27.788  25.732  1.00  0.00    -0.200 F 
ATOM     62  C   UNL A   1      40.408  26.285  26.823  1.00  0.00     0.200 A 
ATOM     63  F   UNL A   1      38.960  24.807  27.960  1.00  0.00    -0.200 F 
ATOM     64  F   UNL A   1      40.419  25.476  25.754  1.00  0.00    -0.200 F 
ENDBRANCH  40  54
BRANCH  41  65
ATOM     65  C   UNL A   1      39.561  34.153  36.890  1.00  0.00     0.064 A 
ATOM     66  C   UNL A   1      40.237  35.379  36.983  1.00  0.00     0.173 A 
ATOM     67  C   UNL A   1      38.785  33.751  37.984  1.00  0.00     0.173 A 
ATOM     68  F   UNL A   1      41.001  35.804  35.967  1.00  0.00    -0.203 F 
ATOM     69  C   UNL A   1      40.168  36.153  38.141  1.00  0.00     0.198 A 
ATOM     70  C   UNL A   1      38.697  34.537  39.132  1.00  0.00     0.198 A 
ATOM     71  F   UNL A   1      38.107  32.595  37.935  1.00  0.00    -0.203 F 
ATOM     72  F   UNL A   1      40.865  37.294  38.225  1.00  0.00    -0.200 F 
ATOM     73  C   UNL A   1      39.399  35.731  39.214  1.00  0.00     0.200 A 
ATOM     74  F   UNL A   1      37.939  34.134  40.161  1.00  0.00    -0.200 F 
ATOM     75  F   UNL A   1      39.338  36.470  40.330  1.00  0.00    -0.200 F 
ENDBRANCH  41  65
BRANCH  53  76
ATOM     76  C   UNL A   1      43.757  28.752  35.371  1.00  0.00     0.064 A 
ATOM     77  C   UNL A   1      43.461  27.765  36.325  1.00  0.00     0.173 A 
ATOM     78  C   UNL A   1      45.091  29.159  35.236  1.00  0.00     0.173 A 
ATOM     79  F   UNL A   1      42.197  27.350  36.499  1.00  0.00    -0.203 F 
ATOM     80  C   UNL A   1      44.457  27.237  37.142  1.00  0.00     0.198 A 
ATOM     81  C   UNL A   1      46.089  28.607  36.035  1.00  0.00     0.198 A 
ATOM     82  F   UNL A   1      45.425  30.090  34.330  1.00  0.00    -0.203 F 
ATOM     83  F   UNL A   1      44.142  26.338  38.084  1.00  0.00    -0.200 F 
ATOM     84  C   UNL A   1      45.770  27.660  36.997  1.00  0.00     0.200 A 
ATOM     85  F   UNL A   1      47.361  29.000  35.881  1.00  0.00    -0.200 F 
ATOM     86  F   UNL A   1      46.727  27.157  37.788  1.00  0.00    -0.200 F 
ENDBRANCH  53  76
ENDBRANCH  27  28
ENDBRANCH  19  22
ENDBRANCH  17  18
ENDBRANCH   1  17
TORSDOF 12
ENDMDL
