MODEL 1
REMARK VINA RESULT:     -13.1      0.000      0.000
REMARK SMILES Cc1nn(C(C)C)cc1-c1cnccc1C(=O)NCCCNC(=O)c1ccc(-c2c3nc(c(-c4c(F)c(F)c(F)c(F)c4F)c4ccc([nH]4)c(-c4c(F)c(F)c(F)c(F)c4F)c4nc(c(-c5c(F)c(F)c(F)c(F)c5F)c5ccc2[nH]5)C=C4)C=C3)cc1
REMARK SMILES IDX 20 1 19 2 18 3 16 4 17 5 15 7 10 8 11 9 12 10 14 11 13 12
REMARK SMILES IDX 9 13 1 14 2 15 3 16 4 17 8 18 5 19 6 20 7 21 21 22 22 23
REMARK SMILES IDX 23 24 24 26 25 27 26 28 87 29 27 30 86 31 28 32 29 33 30 34
REMARK SMILES IDX 80 35 31 36 85 37 79 38 81 39 32 40 84 41 78 42 77 43 33 45
REMARK SMILES IDX 65 46 45 47 64 48 46 49 49 50 63 51 82 52 47 53 48 54 62 56
REMARK SMILES IDX 83 57 50 58 34 59 35 60 43 61 36 62 37 63 41 64 44 65 38 66
REMARK SMILES IDX 39 67 42 68 40 69 66 70 67 71 75 72 68 73 69 74 73 75 76 76
REMARK SMILES IDX 70 77 71 78 74 79 72 80 51 81 52 82 60 83 53 84 54 85 58 86
REMARK SMILES IDX 61 87 55 88 56 89 59 90 57 91
REMARK H PARENT 18 6 22 25 81 44 49 55
REMARK Flexibility Score: inf
ROOT
ATOM      1  C   UNL A   1      39.040  21.237  25.789  1.00  0.00     0.042 C 
ENDROOT
BRANCH   1   2
ATOM      2  C   UNL A   1      38.028  22.343  25.568  1.00  0.00     0.118 C 
BRANCH   2   3
ATOM      3  N   UNL A   1      37.431  22.374  24.279  1.00  0.00    -0.352 N 
ATOM      4  C   UNL A   1      36.259  22.913  23.839  1.00  0.00     0.252 C 
ATOM      5  O   UNL A   1      36.277  23.125  22.617  1.00  0.00    -0.269 OA
ATOM      6  H   UNL A   1      37.957  21.925  23.579  1.00  0.00     0.163 HD
BRANCH   4   7
ATOM      7  C   UNL A   1      34.983  23.217  24.603  1.00  0.00     0.050 A 
ATOM      8  C   UNL A   1      33.851  22.471  25.014  1.00  0.00     0.016 A 
ATOM      9  C   UNL A   1      32.869  23.165  25.749  1.00  0.00     0.120 A 
ATOM     10  N   UNL A   1      32.878  24.480  26.066  1.00  0.00    -0.264 NA
ATOM     11  C   UNL A   1      34.975  24.600  24.939  1.00  0.00     0.034 A 
ATOM     12  C   UNL A   1      33.935  25.176  25.639  1.00  0.00     0.112 A 
BRANCH   8  13
ATOM     13  C   UNL A   1      33.436  21.110  24.686  1.00  0.00     0.025 A 
ATOM     14  C   UNL A   1      32.041  21.464  22.490  1.00  0.00     0.069 C 
ATOM     15  C   UNL A   1      32.631  20.671  23.596  1.00  0.00     0.067 A 
ATOM     16  N   UNL A   1      32.465  19.345  23.602  1.00  0.00    -0.177 NA
ATOM     17  N   UNL A   1      33.197  18.913  24.645  1.00  0.00    -0.269 N 
ATOM     18  C   UNL A   1      33.652  19.957  25.429  1.00  0.00     0.118 A 
BRANCH  17  19
ATOM     19  C   UNL A   1      33.665  17.523  24.667  1.00  0.00     0.101 C 
ATOM     20  C   UNL A   1      32.763  16.601  25.474  1.00  0.00     0.033 C 
ATOM     21  C   UNL A   1      33.867  16.925  23.261  1.00  0.00     0.033 C 
ENDBRANCH  17  19
ENDBRANCH   8  13
ENDBRANCH   4   7
ENDBRANCH   2   3
ENDBRANCH   1   2
BRANCH   1  22
ATOM     22  C   UNL A   1      40.157  21.749  26.674  1.00  0.00     0.118 C 
BRANCH  22  23
ATOM     23  N   UNL A   1      41.353  22.185  25.930  1.00  0.00    -0.352 N 
ATOM     24  C   UNL A   1      41.940  23.441  25.882  1.00  0.00     0.251 C 
ATOM     25  H   UNL A   1      41.796  21.489  25.395  1.00  0.00     0.163 HD
ATOM     26  O   UNL A   1      42.799  23.730  25.084  1.00  0.00    -0.269 OA
BRANCH  24  27
ATOM     27  C   UNL A   1      41.462  24.390  26.896  1.00  0.00     0.039 A 
ATOM     28  C   UNL A   1      42.150  24.562  28.096  1.00  0.00     0.014 A 
ATOM     29  C   UNL A   1      40.560  25.325  26.418  1.00  0.00     0.014 A 
ATOM     30  C   UNL A   1      42.018  25.782  28.753  1.00  0.00     0.010 A 
ATOM     31  C   UNL A   1      40.652  26.590  26.927  1.00  0.00     0.010 A 
ATOM     32  C   UNL A   1      41.314  26.826  28.130  1.00  0.00    -0.014 A 
BRANCH  32  33
ATOM     33  C   UNL A   1      41.346  28.193  28.656  1.00  0.00     0.031 A 
ATOM     34  C   UNL A   1      42.459  29.055  28.173  1.00  0.00     0.074 A 
ATOM     35  C   UNL A   1      40.332  28.739  29.370  1.00  0.00     0.049 A 
ATOM     36  N   UNL A   1      43.444  29.514  28.870  1.00  0.00    -0.248 NA
ATOM     37  C   UNL A   1      42.542  29.391  26.741  1.00  0.00     0.031 C 
ATOM     38  C   UNL A   1      39.015  28.148  29.648  1.00  0.00     0.029 A 
ATOM     39  N   UNL A   1      40.208  29.993  29.901  1.00  0.00    -0.354 N 
ATOM     40  C   UNL A   1      44.124  30.398  28.035  1.00  0.00     0.074 A 
ATOM     41  C   UNL A   1      43.652  30.134  26.702  1.00  0.00     0.031 C 
ATOM     42  C   UNL A   1      38.149  29.111  30.015  1.00  0.00     0.029 A 
ATOM     43  C   UNL A   1      38.907  30.318  30.257  1.00  0.00     0.049 A 
ATOM     44  H   UNL A   1      40.969  30.605  30.021  1.00  0.00     0.167 HD
ATOM     45  C   UNL A   1      44.760  31.479  28.570  1.00  0.00     0.037 A 
ATOM     46  C   UNL A   1      38.441  31.470  30.785  1.00  0.00     0.037 A 
ATOM     47  C   UNL A   1      44.881  31.343  30.000  1.00  0.00     0.049 A 
ATOM     48  C   UNL A   1      39.564  32.154  31.455  1.00  0.00     0.074 A 
ATOM     49  C   UNL A   1      45.702  30.703  30.901  1.00  0.00     0.029 A 
ATOM     50  N   UNL A   1      43.760  31.730  30.678  1.00  0.00    -0.354 N 
ATOM     51  N   UNL A   1      40.171  31.676  32.507  1.00  0.00    -0.248 NA
ATOM     52  C   UNL A   1      40.250  33.248  30.775  1.00  0.00     0.031 C 
ATOM     53  C   UNL A   1      44.983  30.642  32.135  1.00  0.00     0.029 A 
ATOM     54  C   UNL A   1      43.752  31.268  31.965  1.00  0.00     0.049 A 
ATOM     55  H   UNL A   1      43.041  32.276  30.286  1.00  0.00     0.167 HD
ATOM     56  C   UNL A   1      41.474  32.098  32.357  1.00  0.00     0.074 A 
ATOM     57  C   UNL A   1      41.424  33.201  31.408  1.00  0.00     0.031 C 
ATOM     58  C   UNL A   1      42.515  31.291  32.709  1.00  0.00     0.037 A 
BRANCH  45  59
ATOM     59  C   UNL A   1      44.815  32.867  27.951  1.00  0.00     0.064 A 
ATOM     60  C   UNL A   1      46.074  33.387  27.570  1.00  0.00     0.173 A 
ATOM     61  C   UNL A   1      43.775  33.816  28.030  1.00  0.00     0.173 A 
ATOM     62  F   UNL A   1      47.143  32.584  27.470  1.00  0.00    -0.203 F 
ATOM     63  C   UNL A   1      46.286  34.756  27.374  1.00  0.00     0.198 A 
ATOM     64  C   UNL A   1      43.980  35.175  27.784  1.00  0.00     0.198 A 
ATOM     65  F   UNL A   1      42.549  33.498  28.459  1.00  0.00    -0.203 F 
ATOM     66  F   UNL A   1      47.525  35.212  27.142  1.00  0.00    -0.200 F 
ATOM     67  C   UNL A   1      45.240  35.651  27.489  1.00  0.00     0.200 A 
ATOM     68  F   UNL A   1      42.956  36.031  27.921  1.00  0.00    -0.200 F 
ATOM     69  F   UNL A   1      45.450  36.967  27.365  1.00  0.00    -0.200 F 
ENDBRANCH  45  59
BRANCH  46  70
ATOM     70  C   UNL A   1      37.094  32.054  30.652  1.00  0.00     0.064 A 
ATOM     71  C   UNL A   1      36.148  31.942  31.678  1.00  0.00     0.173 A 
ATOM     72  C   UNL A   1      36.801  32.958  29.611  1.00  0.00     0.173 A 
ATOM     73  F   UNL A   1      36.371  31.118  32.712  1.00  0.00    -0.203 F 
ATOM     74  C   UNL A   1      34.992  32.723  31.688  1.00  0.00     0.198 A 
ATOM     75  C   UNL A   1      35.643  33.731  29.619  1.00  0.00     0.198 A 
ATOM     76  F   UNL A   1      37.679  33.166  28.617  1.00  0.00    -0.203 F 
ATOM     77  F   UNL A   1      34.141  32.639  32.721  1.00  0.00    -0.200 F 
ATOM     78  C   UNL A   1      34.747  33.628  30.668  1.00  0.00     0.200 A 
ATOM     79  F   UNL A   1      35.431  34.622  28.639  1.00  0.00    -0.200 F 
ATOM     80  F   UNL A   1      33.672  34.425  30.714  1.00  0.00    -0.200 F 
ENDBRANCH  46  70
BRANCH  58  81
ATOM     81  C   UNL A   1      42.285  30.286  33.790  1.00  0.00     0.064 A 
ATOM     82  C   UNL A   1      41.860  28.965  33.580  1.00  0.00     0.173 A 
ATOM     83  C   UNL A   1      42.535  30.684  35.110  1.00  0.00     0.173 A 
ATOM     84  F   UNL A   1      41.671  28.490  32.343  1.00  0.00    -0.203 F 
ATOM     85  C   UNL A   1      41.649  28.100  34.654  1.00  0.00     0.198 A 
ATOM     86  C   UNL A   1      42.355  29.809  36.176  1.00  0.00     0.198 A 
ATOM     87  F   UNL A   1      42.977  31.926  35.367  1.00  0.00    -0.203 F 
ATOM     88  F   UNL A   1      41.213  26.850  34.434  1.00  0.00    -0.200 F 
ATOM     89  C   UNL A   1      41.898  28.522  35.950  1.00  0.00     0.200 A 
ATOM     90  F   UNL A   1      42.634  30.214  37.424  1.00  0.00    -0.200 F 
ATOM     91  F   UNL A   1      41.712  27.685  36.980  1.00  0.00    -0.200 F 
ENDBRANCH  58  81
ENDBRANCH  32  33
ENDBRANCH  24  27
ENDBRANCH  22  23
ENDBRANCH   1  22
TORSDOF 12
ENDMDL
MODEL 2
REMARK VINA RESULT:     -13.1      0.377      1.194
REMARK SMILES Cc1nn(C(C)C)cc1-c1cnccc1C(=O)NCCCNC(=O)c1ccc(-c2c3nc(c(-c4c(F)c(F)c(F)c(F)c4F)c4ccc([nH]4)c(-c4c(F)c(F)c(F)c(F)c4F)c4nc(c(-c5c(F)c(F)c(F)c(F)c5F)c5ccc2[nH]5)C=C4)C=C3)cc1
REMARK SMILES IDX 20 1 19 2 18 3 16 4 17 5 15 7 10 8 11 9 12 10 14 11 13 12
REMARK SMILES IDX 9 13 1 14 2 15 3 16 4 17 8 18 5 19 6 20 7 21 21 22 22 23
REMARK SMILES IDX 23 24 24 26 25 27 26 28 87 29 27 30 86 31 28 32 29 33 30 34
REMARK SMILES IDX 80 35 31 36 85 37 79 38 81 39 32 40 84 41 78 42 77 43 33 45
REMARK SMILES IDX 65 46 45 47 64 48 46 49 49 50 63 51 82 52 47 53 48 54 62 56
REMARK SMILES IDX 83 57 50 58 34 59 35 60 43 61 36 62 37 63 41 64 44 65 38 66
REMARK SMILES IDX 39 67 42 68 40 69 66 70 67 71 75 72 68 73 69 74 73 75 76 76
REMARK SMILES IDX 70 77 71 78 74 79 72 80 51 81 52 82 60 83 53 84 54 85 58 86
REMARK SMILES IDX 61 87 55 88 56 89 59 90 57 91
REMARK H PARENT 18 6 22 25 81 44 49 55
REMARK Flexibility Score: inf
ROOT
ATOM      1  C   UNL A   1      38.990  21.478  25.890  1.00  0.00     0.042 C 
ENDROOT
BRANCH   1   2
ATOM      2  C   UNL A   1      38.014  22.596  25.583  1.00  0.00     0.118 C 
BRANCH   2   3
ATOM      3  N   UNL A   1      37.389  22.528  24.309  1.00  0.00    -0.352 N 
ATOM      4  C   UNL A   1      36.180  22.980  23.871  1.00  0.00     0.252 C 
ATOM      5  O   UNL A   1      36.160  23.128  22.639  1.00  0.00    -0.269 OA
ATOM      6  H   UNL A   1      37.923  22.071  23.621  1.00  0.00     0.163 HD
BRANCH   4   7
ATOM      7  C   UNL A   1      34.906  23.255  24.649  1.00  0.00     0.050 A 
ATOM      8  C   UNL A   1      33.786  22.489  25.055  1.00  0.00     0.016 A 
ATOM      9  C   UNL A   1      32.801  23.159  25.809  1.00  0.00     0.120 A 
ATOM     10  N   UNL A   1      32.798  24.468  26.149  1.00  0.00    -0.264 NA
ATOM     11  C   UNL A   1      34.885  24.632  25.010  1.00  0.00     0.034 A 
ATOM     12  C   UNL A   1      33.843  25.183  25.727  1.00  0.00     0.112 A 
BRANCH   8  13
ATOM     13  C   UNL A   1      33.384  21.129  24.706  1.00  0.00     0.025 A 
ATOM     14  C   UNL A   1      32.009  21.500  22.500  1.00  0.00     0.069 C 
ATOM     15  C   UNL A   1      32.594  20.698  23.602  1.00  0.00     0.067 A 
ATOM     16  N   UNL A   1      32.437  19.371  23.590  1.00  0.00    -0.177 NA
ATOM     17  N   UNL A   1      33.161  18.931  24.635  1.00  0.00    -0.269 N 
ATOM     18  C   UNL A   1      33.601  19.968  25.436  1.00  0.00     0.118 A 
BRANCH  17  19
ATOM     19  C   UNL A   1      33.640  17.545  24.645  1.00  0.00     0.101 C 
ATOM     20  C   UNL A   1      32.630  16.568  25.232  1.00  0.00     0.033 C 
ATOM     21  C   UNL A   1      34.077  17.040  23.256  1.00  0.00     0.033 C 
ENDBRANCH  17  19
ENDBRANCH   8  13
ENDBRANCH   4   7
ENDBRANCH   2   3
ENDBRANCH   1   2
BRANCH   1  22
ATOM     22  C   UNL A   1      40.080  21.999  26.803  1.00  0.00     0.118 C 
BRANCH  22  23
ATOM     23  N   UNL A   1      41.310  22.396  26.096  1.00  0.00    -0.352 N 
ATOM     24  C   UNL A   1      41.923  23.639  26.043  1.00  0.00     0.251 C 
ATOM     25  H   UNL A   1      41.758  21.680  25.591  1.00  0.00     0.163 HD
ATOM     26  O   UNL A   1      42.816  23.895  25.273  1.00  0.00    -0.269 OA
BRANCH  24  27
ATOM     27  C   UNL A   1      41.427  24.618  27.021  1.00  0.00     0.039 A 
ATOM     28  C   UNL A   1      42.107  24.844  28.215  1.00  0.00     0.014 A 
ATOM     29  C   UNL A   1      40.513  25.521  26.504  1.00  0.00     0.014 A 
ATOM     30  C   UNL A   1      41.956  26.087  28.826  1.00  0.00     0.010 A 
ATOM     31  C   UNL A   1      40.585  26.806  26.967  1.00  0.00     0.010 A 
ATOM     32  C   UNL A   1      41.238  27.096  28.162  1.00  0.00    -0.014 A 
BRANCH  32  33
ATOM     33  C   UNL A   1      41.249  28.482  28.637  1.00  0.00     0.031 A 
ATOM     34  C   UNL A   1      42.342  29.345  28.114  1.00  0.00     0.074 A 
ATOM     35  C   UNL A   1      40.230  29.035  29.338  1.00  0.00     0.049 A 
ATOM     36  N   UNL A   1      43.323  29.848  28.787  1.00  0.00    -0.248 NA
ATOM     37  C   UNL A   1      42.410  29.630  26.671  1.00  0.00     0.031 C 
ATOM     38  C   UNL A   1      38.925  28.431  29.648  1.00  0.00     0.029 A 
ATOM     39  N   UNL A   1      40.086  30.305  29.823  1.00  0.00    -0.354 N 
ATOM     40  C   UNL A   1      43.981  30.713  27.915  1.00  0.00     0.074 A 
ATOM     41  C   UNL A   1      43.505  30.392  26.596  1.00  0.00     0.031 C 
ATOM     42  C   UNL A   1      38.044  29.390  29.984  1.00  0.00     0.029 A 
ATOM     43  C   UNL A   1      38.781  30.620  30.176  1.00  0.00     0.049 A 
ATOM     44  H   UNL A   1      40.836  30.936  29.914  1.00  0.00     0.167 HD
ATOM     45  C   UNL A   1      44.601  31.824  28.405  1.00  0.00     0.037 A 
ATOM     46  C   UNL A   1      38.298  31.781  30.665  1.00  0.00     0.037 A 
ATOM     47  C   UNL A   1      44.733  31.744  29.838  1.00  0.00     0.049 A 
ATOM     48  C   UNL A   1      39.412  32.510  31.301  1.00  0.00     0.074 A 
ATOM     49  C   UNL A   1      45.572  31.153  30.756  1.00  0.00     0.029 A 
ATOM     50  N   UNL A   1      43.610  32.135  30.509  1.00  0.00    -0.354 N 
ATOM     51  N   UNL A   1      40.034  32.083  32.366  1.00  0.00    -0.248 NA
ATOM     52  C   UNL A   1      40.072  33.591  30.576  1.00  0.00     0.031 C 
ATOM     53  C   UNL A   1      44.862  31.125  31.997  1.00  0.00     0.029 A 
ATOM     54  C   UNL A   1      43.619  31.721  31.813  1.00  0.00     0.049 A 
ATOM     55  H   UNL A   1      42.878  32.653  30.103  1.00  0.00     0.167 HD
ATOM     56  C   UNL A   1      41.328  32.523  32.191  1.00  0.00     0.074 A 
ATOM     57  C   UNL A   1      41.252  33.589  31.202  1.00  0.00     0.031 C 
ATOM     58  C   UNL A   1      42.386  31.749  32.564  1.00  0.00     0.037 A 
BRANCH  45  59
ATOM     59  C   UNL A   1      44.625  33.190  27.734  1.00  0.00     0.064 A 
ATOM     60  C   UNL A   1      45.850  33.660  27.206  1.00  0.00     0.173 A 
ATOM     61  C   UNL A   1      43.624  34.171  27.888  1.00  0.00     0.173 A 
ATOM     62  F   UNL A   1      46.882  32.823  27.023  1.00  0.00    -0.203 F 
ATOM     63  C   UNL A   1      46.075  35.015  26.941  1.00  0.00     0.198 A 
ATOM     64  C   UNL A   1      43.836  35.514  27.574  1.00  0.00     0.198 A 
ATOM     65  F   UNL A   1      42.442  33.903  28.454  1.00  0.00    -0.203 F 
ATOM     66  F   UNL A   1      47.294  35.427  26.565  1.00  0.00    -0.200 F 
ATOM     67  C   UNL A   1      45.070  35.943  27.132  1.00  0.00     0.200 A 
ATOM     68  F   UNL A   1      42.855  36.404  27.787  1.00  0.00    -0.200 F 
ATOM     69  F   UNL A   1      45.300  37.248  26.940  1.00  0.00    -0.200 F 
ENDBRANCH  45  59
BRANCH  46  70
ATOM     70  C   UNL A   1      36.939  32.336  30.520  1.00  0.00     0.064 A 
ATOM     71  C   UNL A   1      36.009  32.263  31.565  1.00  0.00     0.173 A 
ATOM     72  C   UNL A   1      36.616  33.177  29.437  1.00  0.00     0.173 A 
ATOM     73  F   UNL A   1      36.260  31.499  32.638  1.00  0.00    -0.203 F 
ATOM     74  C   UNL A   1      34.839  33.024  31.550  1.00  0.00     0.198 A 
ATOM     75  C   UNL A   1      35.445  33.930  29.420  1.00  0.00     0.198 A 
ATOM     76  F   UNL A   1      37.476  33.346  28.420  1.00  0.00    -0.203 F 
ATOM     77  F   UNL A   1      34.004  32.982  32.597  1.00  0.00    -0.200 F 
ATOM     78  C   UNL A   1      34.565  33.868  30.486  1.00  0.00     0.200 A 
ATOM     79  F   UNL A   1      35.204  34.764  28.397  1.00  0.00    -0.200 F 
ATOM     80  F   UNL A   1      33.477  34.650  30.505  1.00  0.00    -0.200 F 
ENDBRANCH  46  70
BRANCH  58  81
ATOM     81  C   UNL A   1      42.183  30.781  33.684  1.00  0.00     0.064 A 
ATOM     82  C   UNL A   1      42.260  31.104  35.047  1.00  0.00     0.173 A 
ATOM     83  C   UNL A   1      41.865  29.458  33.349  1.00  0.00     0.173 A 
ATOM     84  F   UNL A   1      42.486  32.363  35.446  1.00  0.00    -0.203 F 
ATOM     85  C   UNL A   1      42.077  30.129  36.028  1.00  0.00     0.198 A 
ATOM     86  C   UNL A   1      41.651  28.495  34.329  1.00  0.00     0.198 A 
ATOM     87  F   UNL A   1      41.744  29.100  32.060  1.00  0.00    -0.203 F 
ATOM     88  F   UNL A   1      42.186  30.452  37.326  1.00  0.00    -0.200 F 
ATOM     89  C   UNL A   1      41.771  28.827  35.668  1.00  0.00     0.200 A 
ATOM     90  F   UNL A   1      41.319  27.245  33.973  1.00  0.00    -0.200 F 
ATOM     91  F   UNL A   1      41.577  27.893  36.610  1.00  0.00    -0.200 F 
ENDBRANCH  58  81
ENDBRANCH  32  33
ENDBRANCH  24  27
ENDBRANCH  22  23
ENDBRANCH   1  22
TORSDOF 12
ENDMDL
MODEL 3
REMARK VINA RESULT:     -13.1      4.331      9.655
REMARK SMILES Cc1nn(C(C)C)cc1-c1cnccc1C(=O)NCCCNC(=O)c1ccc(-c2c3nc(c(-c4c(F)c(F)c(F)c(F)c4F)c4ccc([nH]4)c(-c4c(F)c(F)c(F)c(F)c4F)c4nc(c(-c5c(F)c(F)c(F)c(F)c5F)c5ccc2[nH]5)C=C4)C=C3)cc1
REMARK SMILES IDX 20 1 19 2 18 3 16 4 17 5 15 7 10 8 11 9 12 10 14 11 13 12
REMARK SMILES IDX 9 13 1 14 2 15 3 16 4 17 8 18 5 19 6 20 7 21 21 22 22 23
REMARK SMILES IDX 23 24 24 26 25 27 26 28 87 29 27 30 86 31 28 32 29 33 30 34
REMARK SMILES IDX 80 35 31 36 85 37 79 38 81 39 32 40 84 41 78 42 77 43 33 45
REMARK SMILES IDX 65 46 45 47 64 48 46 49 49 50 63 51 82 52 47 53 48 54 62 56
REMARK SMILES IDX 83 57 50 58 34 59 35 60 43 61 36 62 37 63 41 64 44 65 38 66
REMARK SMILES IDX 39 67 42 68 40 69 66 70 67 71 75 72 68 73 69 74 73 75 76 76
REMARK SMILES IDX 70 77 71 78 74 79 72 80 51 81 52 82 60 83 53 84 54 85 58 86
REMARK SMILES IDX 61 87 55 88 56 89 59 90 57 91
REMARK H PARENT 18 6 22 25 81 44 49 55
REMARK Flexibility Score: inf
ROOT
ATOM      1  C   UNL A   1      34.156  30.612  27.481  1.00  0.00     0.042 C 
ENDROOT
BRANCH   1   2
ATOM      2  C   UNL A   1      32.751  30.731  26.925  1.00  0.00     0.118 C 
BRANCH   2   3
ATOM      3  N   UNL A   1      31.842  29.722  27.344  1.00  0.00    -0.352 N 
ATOM      4  C   UNL A   1      31.754  28.398  27.029  1.00  0.00     0.252 C 
ATOM      5  O   UNL A   1      31.133  27.758  27.891  1.00  0.00    -0.269 OA
ATOM      6  H   UNL A   1      31.152  30.034  27.972  1.00  0.00     0.163 HD
BRANCH   4   7
ATOM      7  C   UNL A   1      32.243  27.659  25.796  1.00  0.00     0.050 A 
ATOM      8  C   UNL A   1      31.881  27.631  24.427  1.00  0.00     0.016 A 
ATOM      9  C   UNL A   1      32.639  26.786  23.590  1.00  0.00     0.120 A 
ATOM     10  N   UNL A   1      33.648  25.970  23.970  1.00  0.00    -0.264 NA
ATOM     11  C   UNL A   1      33.303  26.790  26.181  1.00  0.00     0.034 A 
ATOM     12  C   UNL A   1      33.952  25.982  25.270  1.00  0.00     0.112 A 
BRANCH   8  13
ATOM     13  C   UNL A   1      30.746  28.226  23.729  1.00  0.00     0.025 A 
ATOM     14  C   UNL A   1      28.898  26.378  23.989  1.00  0.00     0.069 C 
ATOM     15  C   UNL A   1      29.449  27.674  23.521  1.00  0.00     0.067 A 
ATOM     16  N   UNL A   1      28.654  28.510  22.847  1.00  0.00    -0.177 NA
ATOM     17  N   UNL A   1      29.396  29.618  22.666  1.00  0.00    -0.269 N 
ATOM     18  C   UNL A   1      30.717  29.422  23.024  1.00  0.00     0.118 A 
BRANCH  17  19
ATOM     19  C   UNL A   1      28.726  30.900  22.430  1.00  0.00     0.101 C 
ATOM     20  C   UNL A   1      28.047  30.979  21.070  1.00  0.00     0.033 C 
ATOM     21  C   UNL A   1      27.704  31.265  23.524  1.00  0.00     0.033 C 
ENDBRANCH  17  19
ENDBRANCH   8  13
ENDBRANCH   4   7
ENDBRANCH   2   3
ENDBRANCH   1   2
BRANCH   1  22
ATOM     22  C   UNL A   1      34.637  31.978  27.924  1.00  0.00     0.118 C 
BRANCH  22  23
ATOM     23  N   UNL A   1      34.662  32.154  29.387  1.00  0.00    -0.352 N 
ATOM     24  C   UNL A   1      35.538  31.611  30.317  1.00  0.00     0.251 C 
ATOM     25  H   UNL A   1      33.960  32.736  29.756  1.00  0.00     0.163 HD
ATOM     26  O   UNL A   1      35.343  31.664  31.507  1.00  0.00    -0.269 OA
BRANCH  24  27
ATOM     27  C   UNL A   1      36.742  30.992  29.747  1.00  0.00     0.039 A 
ATOM     28  C   UNL A   1      37.954  31.680  29.714  1.00  0.00     0.014 A 
ATOM     29  C   UNL A   1      36.668  29.614  29.624  1.00  0.00     0.014 A 
ATOM     30  C   UNL A   1      39.127  30.931  29.697  1.00  0.00     0.010 A 
ATOM     31  C   UNL A   1      37.812  28.909  29.872  1.00  0.00     0.010 A 
ATOM     32  C   UNL A   1      39.055  29.535  29.840  1.00  0.00    -0.014 A 
BRANCH  32  33
ATOM     33  C   UNL A   1      40.254  28.726  30.069  1.00  0.00     0.031 A 
ATOM     34  C   UNL A   1      40.677  28.568  31.487  1.00  0.00     0.074 A 
ATOM     35  C   UNL A   1      40.844  27.981  29.104  1.00  0.00     0.049 A 
ATOM     36  N   UNL A   1      41.747  29.040  32.035  1.00  0.00    -0.248 NA
ATOM     37  C   UNL A   1      39.786  27.875  32.433  1.00  0.00     0.031 C 
ATOM     38  C   UNL A   1      40.363  27.750  27.733  1.00  0.00     0.029 A 
ATOM     39  N   UNL A   1      41.940  27.166  29.169  1.00  0.00    -0.354 N 
ATOM     40  C   UNL A   1      41.794  28.494  33.317  1.00  0.00     0.074 A 
ATOM     41  C   UNL A   1      40.484  27.955  33.570  1.00  0.00     0.031 C 
ATOM     42  C   UNL A   1      40.963  26.663  27.214  1.00  0.00     0.029 A 
ATOM     43  C   UNL A   1      42.049  26.294  28.095  1.00  0.00     0.049 A 
ATOM     44  H   UNL A   1      42.590  27.196  29.907  1.00  0.00     0.167 HD
ATOM     45  C   UNL A   1      43.000  28.248  33.903  1.00  0.00     0.037 A 
ATOM     46  C   UNL A   1      42.991  25.356  27.864  1.00  0.00     0.037 A 
ATOM     47  C   UNL A   1      44.060  28.911  33.186  1.00  0.00     0.049 A 
ATOM     48  C   UNL A   1      44.206  25.732  28.612  1.00  0.00     0.074 A 
ATOM     49  C   UNL A   1      44.612  30.170  33.110  1.00  0.00     0.029 A 
ATOM     50  N   UNL A   1      44.501  28.209  32.100  1.00  0.00    -0.354 N 
ATOM     51  N   UNL A   1      44.910  26.799  28.349  1.00  0.00    -0.248 NA
ATOM     52  C   UNL A   1      44.494  25.087  29.889  1.00  0.00     0.031 C 
ATOM     53  C   UNL A   1      45.336  30.223  31.877  1.00  0.00     0.029 A 
ATOM     54  C   UNL A   1      45.229  28.990  31.245  1.00  0.00     0.049 A 
ATOM     55  H   UNL A   1      44.316  27.254  31.951  1.00  0.00     0.167 HD
ATOM     56  C   UNL A   1      45.390  27.191  29.579  1.00  0.00     0.074 A 
ATOM     57  C   UNL A   1      45.275  26.021  30.438  1.00  0.00     0.031 C 
ATOM     58  C   UNL A   1      45.481  28.512  29.906  1.00  0.00     0.037 A 
BRANCH  45  59
ATOM     59  C   UNL A   1      43.332  27.041  34.767  1.00  0.00     0.064 A 
ATOM     60  C   UNL A   1      43.712  27.258  36.112  1.00  0.00     0.173 A 
ATOM     61  C   UNL A   1      43.622  25.757  34.263  1.00  0.00     0.173 A 
ATOM     62  F   UNL A   1      43.497  28.444  36.701  1.00  0.00    -0.203 F 
ATOM     63  C   UNL A   1      44.405  26.296  36.855  1.00  0.00     0.198 A 
ATOM     64  C   UNL A   1      44.269  24.781  35.025  1.00  0.00     0.198 A 
ATOM     65  F   UNL A   1      43.404  25.424  32.987  1.00  0.00    -0.203 F 
ATOM     66  F   UNL A   1      44.857  26.598  38.080  1.00  0.00    -0.200 F 
ATOM     67  C   UNL A   1      44.690  25.060  36.307  1.00  0.00     0.200 A 
ATOM     68  F   UNL A   1      44.556  23.595  34.469  1.00  0.00    -0.200 F 
ATOM     69  F   UNL A   1      45.407  24.160  36.992  1.00  0.00    -0.200 F 
ENDBRANCH  45  59
BRANCH  46  70
ATOM     70  C   UNL A   1      42.858  24.098  27.107  1.00  0.00     0.064 A 
ATOM     71  C   UNL A   1      43.351  23.979  25.802  1.00  0.00     0.173 A 
ATOM     72  C   UNL A   1      42.469  22.907  27.752  1.00  0.00     0.173 A 
ATOM     73  F   UNL A   1      43.760  25.068  25.135  1.00  0.00    -0.203 F 
ATOM     74  C   UNL A   1      43.490  22.732  25.189  1.00  0.00     0.198 A 
ATOM     75  C   UNL A   1      42.602  21.665  27.137  1.00  0.00     0.198 A 
ATOM     76  F   UNL A   1      42.037  22.925  29.023  1.00  0.00    -0.203 F 
ATOM     77  F   UNL A   1      44.029  22.650  23.964  1.00  0.00    -0.200 F 
ATOM     78  C   UNL A   1      43.130  21.576  25.862  1.00  0.00     0.200 A 
ATOM     79  F   UNL A   1      42.276  20.550  27.809  1.00  0.00    -0.200 F 
ATOM     80  F   UNL A   1      43.329  20.376  25.299  1.00  0.00    -0.200 F 
ENDBRANCH  46  70
BRANCH  58  81
ATOM     81  C   UNL A   1      45.678  29.493  28.797  1.00  0.00     0.064 A 
ATOM     82  C   UNL A   1      46.915  29.801  28.210  1.00  0.00     0.173 A 
ATOM     83  C   UNL A   1      44.542  30.134  28.287  1.00  0.00     0.173 A 
ATOM     84  F   UNL A   1      48.036  29.176  28.593  1.00  0.00    -0.203 F 
ATOM     85  C   UNL A   1      47.010  30.750  27.191  1.00  0.00     0.198 A 
ATOM     86  C   UNL A   1      44.635  31.055  27.249  1.00  0.00     0.198 A 
ATOM     87  F   UNL A   1      43.328  29.851  28.787  1.00  0.00    -0.203 F 
ATOM     88  F   UNL A   1      48.206  31.053  26.664  1.00  0.00    -0.200 F 
ATOM     89  C   UNL A   1      45.870  31.374  26.711  1.00  0.00     0.200 A 
ATOM     90  F   UNL A   1      43.522  31.627  26.765  1.00  0.00    -0.200 F 
ATOM     91  F   UNL A   1      45.958  32.272  25.720  1.00  0.00    -0.200 F 
ENDBRANCH  58  81
ENDBRANCH  32  33
ENDBRANCH  24  27
ENDBRANCH  22  23
ENDBRANCH   1  22
TORSDOF 12
ENDMDL
