MODEL 1
REMARK VINA RESULT:     -12.5      0.000      0.000
REMARK SMILES C=C(C)COc1ccc2c(C)c(CC(=O)NCCCNC(=O)c3ccc(-c4c5nc(c(-c6c(F)c(F)c(F)c(F)c6F)c6ccc([nH]6)c(-c6c(F)c(F)c(F)c(F)c6F)c6nc(c(-c7c(F)c(F)c(F)c(F)c7F)c7ccc4[nH]7)C=C6)C=C5)cc3)c(=O)oc2c1
REMARK SMILES IDX 17 1 16 2 14 3 15 4 13 6 12 7 6 8 7 9 90 10 8 11 89 12 9 13
REMARK SMILES IDX 88 14 10 15 86 16 11 17 87 18 5 19 4 20 2 21 1 22 3 23 18 24
REMARK SMILES IDX 19 25 20 26 21 27 22 29 23 30 24 31 85 32 25 33 84 34 26 35
REMARK SMILES IDX 27 36 28 37 78 38 29 39 83 40 77 41 79 42 30 43 82 44 76 45
REMARK SMILES IDX 75 46 31 48 63 49 43 50 62 51 44 52 47 53 61 54 80 55 45 56
REMARK SMILES IDX 46 57 60 59 81 60 48 61 32 62 33 63 41 64 34 65 35 66 39 67
REMARK SMILES IDX 42 68 36 69 37 70 40 71 38 72 64 73 65 74 73 75 66 76 67 77
REMARK SMILES IDX 71 78 74 79 68 80 69 81 72 82 70 83 49 84 50 85 58 86 51 87
REMARK SMILES IDX 52 88 56 89 59 90 53 91 54 92 57 93 55 94
REMARK H PARENT 16 5 20 28 79 47 47 58
REMARK Flexibility Score: inf
ROOT
ATOM      1  C   UNL A   1      31.403  30.884  25.831  1.00  0.00     0.117 C 
ENDROOT
BRANCH   1   2
ATOM      2  N   UNL A   1      32.001  29.914  26.729  1.00  0.00    -0.356 N 
ATOM      3  C   UNL A   1      31.945  28.553  26.718  1.00  0.00     0.224 C 
ATOM      4  O   UNL A   1      32.530  27.948  27.620  1.00  0.00    -0.275 OA
ATOM      5  H   UNL A   1      32.531  30.301  27.464  1.00  0.00     0.163 HD
BRANCH   3   6
ATOM      6  C   UNL A   1      31.200  27.802  25.619  1.00  0.00     0.143 C 
BRANCH   6   7
ATOM      7  C   UNL A   1      31.783  26.433  25.357  1.00  0.00     0.051 A 
ATOM      8  C   UNL A   1      34.316  22.123  24.632  1.00  0.00     0.123 A 
ATOM      9  C   UNL A   1      34.992  23.071  23.870  1.00  0.00     0.047 A 
ATOM     10  C   UNL A   1      33.227  22.509  25.398  1.00  0.00     0.094 A 
ATOM     11  C   UNL A   1      34.540  24.399  23.838  1.00  0.00     0.016 A 
ATOM     12  C   UNL A   1      32.774  23.822  25.330  1.00  0.00     0.142 A 
ATOM     13  C   UNL A   1      33.407  24.796  24.564  1.00  0.00     0.021 A 
ATOM     14  O   UNL A   1      31.618  24.095  26.070  1.00  0.00    -0.422 OA
ATOM     15  C   UNL A   1      32.885  26.176  24.616  1.00  0.00    -0.029 A 
ATOM     16  C   UNL A   1      31.014  25.330  25.999  1.00  0.00     0.340 A 
ATOM     17  C   UNL A   1      33.645  27.234  23.856  1.00  0.00     0.046 C 
ATOM     18  O   UNL A   1      29.909  25.510  26.501  1.00  0.00    -0.246 OA
BRANCH   8  19
ATOM     19  O   UNL A   1      34.786  20.838  24.656  1.00  0.00    -0.489 OA
BRANCH  19  20
ATOM     20  C   UNL A   1      33.811  19.912  25.169  1.00  0.00     0.260 C 
BRANCH  20  21
ATOM     21  C   UNL A   1      33.600  18.723  24.253  1.00  0.00    -0.043 C 
ATOM     22  C   UNL A   1      32.528  18.611  23.450  1.00  0.00     0.011 C 
ATOM     23  C   UNL A   1      34.698  17.696  24.251  1.00  0.00     0.042 C 
ENDBRANCH  20  21
ENDBRANCH  19  20
ENDBRANCH   8  19
ENDBRANCH   6   7
ENDBRANCH   3   6
ENDBRANCH   1   2
BRANCH   1  24
ATOM     24  C   UNL A   1      31.204  32.243  26.500  1.00  0.00     0.042 C 
BRANCH  24  25
ATOM     25  C   UNL A   1      32.433  32.762  27.243  1.00  0.00     0.118 C 
BRANCH  25  26
ATOM     26  N   UNL A   1      32.312  34.162  27.625  1.00  0.00    -0.352 N 
ATOM     27  C   UNL A   1      32.992  34.887  28.568  1.00  0.00     0.251 C 
ATOM     28  H   UNL A   1      31.633  34.670  27.125  1.00  0.00     0.163 HD
ATOM     29  O   UNL A   1      32.613  36.026  28.846  1.00  0.00    -0.269 OA
BRANCH  27  30
ATOM     30  C   UNL A   1      34.164  34.322  29.270  1.00  0.00     0.039 A 
ATOM     31  C   UNL A   1      33.958  33.613  30.458  1.00  0.00     0.014 A 
ATOM     32  C   UNL A   1      35.463  34.525  28.798  1.00  0.00     0.014 A 
ATOM     33  C   UNL A   1      35.043  33.058  31.139  1.00  0.00     0.010 A 
ATOM     34  C   UNL A   1      36.540  33.915  29.440  1.00  0.00     0.010 A 
ATOM     35  C   UNL A   1      36.341  33.178  30.617  1.00  0.00    -0.014 A 
BRANCH  35  36
ATOM     36  C   UNL A   1      37.505  32.546  31.289  1.00  0.00     0.031 A 
ATOM     37  C   UNL A   1      38.246  31.423  30.620  1.00  0.00     0.074 A 
ATOM     38  C   UNL A   1      37.851  32.936  32.529  1.00  0.00     0.049 A 
ATOM     39  N   UNL A   1      39.226  30.685  31.080  1.00  0.00    -0.248 NA
ATOM     40  C   UNL A   1      37.811  31.065  29.262  1.00  0.00     0.031 C 
ATOM     41  C   UNL A   1      37.191  33.992  33.297  1.00  0.00     0.029 A 
ATOM     42  N   UNL A   1      38.837  32.481  33.368  1.00  0.00    -0.354 N 
ATOM     43  C   UNL A   1      39.510  29.767  30.078  1.00  0.00     0.074 A 
ATOM     44  C   UNL A   1      38.568  30.008  29.006  1.00  0.00     0.031 C 
ATOM     45  C   UNL A   1      37.804  34.120  34.485  1.00  0.00     0.029 A 
ATOM     46  C   UNL A   1      38.871  33.129  34.579  1.00  0.00     0.049 A 
ATOM     47  H   UNL A   1      39.461  31.759  33.126  1.00  0.00     0.167 HD
ATOM     48  C   UNL A   1      40.481  28.823  30.045  1.00  0.00     0.037 A 
ATOM     49  C   UNL A   1      39.670  32.939  35.647  1.00  0.00     0.037 A 
ATOM     50  C   UNL A   1      41.430  28.599  31.105  1.00  0.00     0.049 A 
ATOM     51  C   UNL A   1      40.726  31.870  35.596  1.00  0.00     0.074 A 
ATOM     52  C   UNL A   1      42.483  27.702  31.148  1.00  0.00     0.029 A 
ATOM     53  N   UNL A   1      41.436  29.278  32.315  1.00  0.00    -0.354 N 
ATOM     54  N   UNL A   1      41.021  31.043  34.624  1.00  0.00    -0.248 NA
ATOM     55  C   UNL A   1      41.561  31.709  36.795  1.00  0.00     0.031 C 
ATOM     56  C   UNL A   1      43.100  27.810  32.400  1.00  0.00     0.029 A 
ATOM     57  C   UNL A   1      42.461  28.807  33.119  1.00  0.00     0.049 A 
ATOM     58  H   UNL A   1      40.804  29.991  32.565  1.00  0.00     0.167 HD
ATOM     59  C   UNL A   1      42.092  30.286  35.077  1.00  0.00     0.074 A 
ATOM     60  C   UNL A   1      42.401  30.758  36.412  1.00  0.00     0.031 C 
ATOM     61  C   UNL A   1      42.762  29.293  34.442  1.00  0.00     0.037 A 
BRANCH  48  62
ATOM     62  C   UNL A   1      40.560  27.959  28.820  1.00  0.00     0.064 A 
ATOM     63  C   UNL A   1      41.337  28.324  27.710  1.00  0.00     0.173 A 
ATOM     64  C   UNL A   1      39.856  26.747  28.755  1.00  0.00     0.173 A 
ATOM     65  F   UNL A   1      42.021  29.479  27.715  1.00  0.00    -0.203 F 
ATOM     66  C   UNL A   1      41.375  27.529  26.567  1.00  0.00     0.198 A 
ATOM     67  C   UNL A   1      39.922  25.939  27.623  1.00  0.00     0.198 A 
ATOM     68  F   UNL A   1      39.103  26.345  29.791  1.00  0.00    -0.203 F 
ATOM     69  F   UNL A   1      42.075  27.930  25.497  1.00  0.00    -0.200 F 
ATOM     70  C   UNL A   1      40.671  26.336  26.526  1.00  0.00     0.200 A 
ATOM     71  F   UNL A   1      39.251  24.779  27.589  1.00  0.00    -0.200 F 
ATOM     72  F   UNL A   1      40.706  25.572  25.425  1.00  0.00    -0.200 F 
ENDBRANCH  48  62
BRANCH  49  73
ATOM     73  C   UNL A   1      39.521  33.810  36.840  1.00  0.00     0.064 A 
ATOM     74  C   UNL A   1      38.730  33.406  37.924  1.00  0.00     0.173 A 
ATOM     75  C   UNL A   1      40.174  35.048  36.932  1.00  0.00     0.173 A 
ATOM     76  F   UNL A   1      38.070  32.240  37.872  1.00  0.00    -0.203 F 
ATOM     77  C   UNL A   1      38.589  34.211  39.052  1.00  0.00     0.198 A 
ATOM     78  C   UNL A   1      40.053  35.841  38.071  1.00  0.00     0.198 A 
ATOM     79  F   UNL A   1      40.944  35.478  35.922  1.00  0.00    -0.203 F 
ATOM     80  F   UNL A   1      37.799  33.816  40.059  1.00  0.00    -0.200 F 
ATOM     81  C   UNL A   1      39.255  35.425  39.127  1.00  0.00     0.200 A 
ATOM     82  F   UNL A   1      40.709  37.007  38.147  1.00  0.00    -0.200 F 
ATOM     83  F   UNL A   1      39.127  36.194  40.216  1.00  0.00    -0.200 F 
ENDBRANCH  49  73
BRANCH  61  84
ATOM     84  C   UNL A   1      43.920  28.672  35.167  1.00  0.00     0.064 A 
ATOM     85  C   UNL A   1      45.230  29.145  35.005  1.00  0.00     0.173 A 
ATOM     86  C   UNL A   1      43.708  27.617  36.069  1.00  0.00     0.173 A 
ATOM     87  F   UNL A   1      45.487  30.140  34.143  1.00  0.00    -0.203 F 
ATOM     88  C   UNL A   1      46.290  28.569  35.703  1.00  0.00     0.198 A 
ATOM     89  C   UNL A   1      44.764  27.063  36.785  1.00  0.00     0.198 A 
ATOM     90  F   UNL A   1      42.473  27.132  36.263  1.00  0.00    -0.203 F 
ATOM     91  F   UNL A   1      47.539  29.008  35.501  1.00  0.00    -0.200 F 
ATOM     92  C   UNL A   1      46.055  27.535  36.597  1.00  0.00     0.200 A 
ATOM     93  F   UNL A   1      44.534  26.072  37.657  1.00  0.00    -0.200 F 
ATOM     94  F   UNL A   1      47.074  26.988  37.274  1.00  0.00    -0.200 F 
ENDBRANCH  61  84
ENDBRANCH  35  36
ENDBRANCH  27  30
ENDBRANCH  25  26
ENDBRANCH  24  25
ENDBRANCH   1  24
TORSDOF 14
ENDMDL
MODEL 2
REMARK VINA RESULT:     -12.5      1.145      2.069
REMARK SMILES C=C(C)COc1ccc2c(C)c(CC(=O)NCCCNC(=O)c3ccc(-c4c5nc(c(-c6c(F)c(F)c(F)c(F)c6F)c6ccc([nH]6)c(-c6c(F)c(F)c(F)c(F)c6F)c6nc(c(-c7c(F)c(F)c(F)c(F)c7F)c7ccc4[nH]7)C=C6)C=C5)cc3)c(=O)oc2c1
REMARK SMILES IDX 17 1 16 2 14 3 15 4 13 6 12 7 6 8 7 9 90 10 8 11 89 12 9 13
REMARK SMILES IDX 88 14 10 15 86 16 11 17 87 18 5 19 4 20 2 21 1 22 3 23 18 24
REMARK SMILES IDX 19 25 20 26 21 27 22 29 23 30 24 31 85 32 25 33 84 34 26 35
REMARK SMILES IDX 27 36 28 37 78 38 29 39 83 40 77 41 79 42 30 43 82 44 76 45
REMARK SMILES IDX 75 46 31 48 63 49 43 50 62 51 44 52 47 53 61 54 80 55 45 56
REMARK SMILES IDX 46 57 60 59 81 60 48 61 32 62 33 63 41 64 34 65 35 66 39 67
REMARK SMILES IDX 42 68 36 69 37 70 40 71 38 72 64 73 65 74 73 75 66 76 67 77
REMARK SMILES IDX 71 78 74 79 68 80 69 81 72 82 70 83 49 84 50 85 58 86 51 87
REMARK SMILES IDX 52 88 56 89 59 90 53 91 54 92 57 93 55 94
REMARK H PARENT 16 5 20 28 79 47 47 58
REMARK Flexibility Score: inf
ROOT
ATOM      1  C   UNL A   1      31.411  30.755  26.353  1.00  0.00     0.117 C 
ENDROOT
BRANCH   1   2
ATOM      2  N   UNL A   1      32.367  30.314  25.354  1.00  0.00    -0.356 N 
ATOM      3  C   UNL A   1      32.275  29.321  24.426  1.00  0.00     0.224 C 
ATOM      4  O   UNL A   1      33.249  29.126  23.696  1.00  0.00    -0.275 OA
ATOM      5  H   UNL A   1      33.218  30.809  25.347  1.00  0.00     0.163 HD
BRANCH   3   6
ATOM      6  C   UNL A   1      31.003  28.490  24.282  1.00  0.00     0.143 C 
BRANCH   6   7
ATOM      7  C   UNL A   1      31.268  27.007  24.390  1.00  0.00     0.051 A 
ATOM      8  C   UNL A   1      31.740  22.054  25.268  1.00  0.00     0.123 A 
ATOM      9  C   UNL A   1      31.988  22.662  26.494  1.00  0.00     0.047 A 
ATOM     10  C   UNL A   1      31.400  22.832  24.172  1.00  0.00     0.094 A 
ATOM     11  C   UNL A   1      31.945  24.061  26.607  1.00  0.00     0.016 A 
ATOM     12  C   UNL A   1      31.393  24.218  24.293  1.00  0.00     0.142 A 
ATOM     13  C   UNL A   1      31.657  24.868  25.495  1.00  0.00     0.021 A 
ATOM     14  O   UNL A   1      31.124  24.921  23.114  1.00  0.00    -0.422 OA
ATOM     15  C   UNL A   1      31.556  26.341  25.532  1.00  0.00    -0.029 A 
ATOM     16  C   UNL A   1      31.193  26.295  23.083  1.00  0.00     0.340 A 
ATOM     17  C   UNL A   1      31.749  27.016  26.867  1.00  0.00     0.046 C 
ATOM     18  O   UNL A   1      31.136  26.896  22.015  1.00  0.00    -0.246 OA
BRANCH   8  19
ATOM     19  O   UNL A   1      31.775  20.688  25.190  1.00  0.00    -0.489 OA
BRANCH  19  20
ATOM     20  C   UNL A   1      32.555  20.228  24.071  1.00  0.00     0.260 C 
BRANCH  20  21
ATOM     21  C   UNL A   1      32.574  18.716  23.959  1.00  0.00    -0.043 C 
ATOM     22  C   UNL A   1      32.526  18.079  22.776  1.00  0.00     0.011 C 
ATOM     23  C   UNL A   1      32.712  17.966  25.254  1.00  0.00     0.042 C 
ENDBRANCH  20  21
ENDBRANCH  19  20
ENDBRANCH   8  19
ENDBRANCH   6   7
ENDBRANCH   3   6
ENDBRANCH   1   2
BRANCH   1  24
ATOM     24  C   UNL A   1      31.393  32.276  26.501  1.00  0.00     0.042 C 
BRANCH  24  25
ATOM     25  C   UNL A   1      32.627  32.854  27.189  1.00  0.00     0.118 C 
BRANCH  25  26
ATOM     26  N   UNL A   1      32.425  34.216  27.661  1.00  0.00    -0.352 N 
ATOM     27  C   UNL A   1      33.027  34.900  28.684  1.00  0.00     0.251 C 
ATOM     28  H   UNL A   1      31.746  34.729  27.166  1.00  0.00     0.163 HD
ATOM     29  O   UNL A   1      32.584  35.999  29.022  1.00  0.00    -0.269 OA
BRANCH  27  30
ATOM     30  C   UNL A   1      34.192  34.337  29.401  1.00  0.00     0.039 A 
ATOM     31  C   UNL A   1      33.972  33.632  30.589  1.00  0.00     0.014 A 
ATOM     32  C   UNL A   1      35.496  34.538  28.941  1.00  0.00     0.014 A 
ATOM     33  C   UNL A   1      35.050  33.080  31.283  1.00  0.00     0.010 A 
ATOM     34  C   UNL A   1      36.565  33.930  29.596  1.00  0.00     0.010 A 
ATOM     35  C   UNL A   1      36.354  33.198  30.775  1.00  0.00    -0.014 A 
BRANCH  35  36
ATOM     36  C   UNL A   1      37.510  32.567  31.461  1.00  0.00     0.031 A 
ATOM     37  C   UNL A   1      38.241  31.424  30.816  1.00  0.00     0.074 A 
ATOM     38  C   UNL A   1      37.858  32.979  32.694  1.00  0.00     0.049 A 
ATOM     39  N   UNL A   1      39.213  30.685  31.292  1.00  0.00    -0.248 NA
ATOM     40  C   UNL A   1      37.805  31.044  29.465  1.00  0.00     0.031 C 
ATOM     41  C   UNL A   1      37.208  34.056  33.439  1.00  0.00     0.029 A 
ATOM     42  N   UNL A   1      38.838  32.531  33.543  1.00  0.00    -0.354 N 
ATOM     43  C   UNL A   1      39.490  29.745  30.309  1.00  0.00     0.074 A 
ATOM     44  C   UNL A   1      38.551  29.974  29.230  1.00  0.00     0.031 C 
ATOM     45  C   UNL A   1      37.820  34.202  34.625  1.00  0.00     0.029 A 
ATOM     46  C   UNL A   1      38.877  33.202  34.741  1.00  0.00     0.049 A 
ATOM     47  H   UNL A   1      39.456  31.798  33.316  1.00  0.00     0.167 HD
ATOM     48  C   UNL A   1      40.451  28.791  30.297  1.00  0.00     0.037 A 
ATOM     49  C   UNL A   1      39.672  33.025  35.814  1.00  0.00     0.037 A 
ATOM     50  C   UNL A   1      41.396  28.578  31.362  1.00  0.00     0.049 A 
ATOM     51  C   UNL A   1      40.717  31.945  35.786  1.00  0.00     0.074 A 
ATOM     52  C   UNL A   1      42.440  27.673  31.425  1.00  0.00     0.029 A 
ATOM     53  N   UNL A   1      41.407  29.282  32.559  1.00  0.00    -0.354 N 
ATOM     54  N   UNL A   1      41.006  31.096  34.831  1.00  0.00    -0.248 NA
ATOM     55  C   UNL A   1      41.549  31.801  36.989  1.00  0.00     0.031 C 
ATOM     56  C   UNL A   1      43.056  27.799  32.675  1.00  0.00     0.029 A 
ATOM     57  C   UNL A   1      42.426  28.817  33.374  1.00  0.00     0.049 A 
ATOM     58  H   UNL A   1      40.782  30.006  32.793  1.00  0.00     0.167 HD
ATOM     59  C   UNL A   1      42.069  30.338  35.301  1.00  0.00     0.074 A 
ATOM     60  C   UNL A   1      42.380  30.834  36.627  1.00  0.00     0.031 C 
ATOM     61  C   UNL A   1      42.730  29.326  34.688  1.00  0.00     0.037 A 
BRANCH  48  62
ATOM     62  C   UNL A   1      40.523  27.902  29.088  1.00  0.00     0.064 A 
ATOM     63  C   UNL A   1      39.752  26.734  28.987  1.00  0.00     0.173 A 
ATOM     64  C   UNL A   1      41.367  28.224  28.015  1.00  0.00     0.173 A 
ATOM     65  F   UNL A   1      38.937  26.374  29.990  1.00  0.00    -0.203 F 
ATOM     66  C   UNL A   1      39.853  25.902  27.875  1.00  0.00     0.198 A 
ATOM     67  C   UNL A   1      41.441  27.406  26.891  1.00  0.00     0.198 A 
ATOM     68  F   UNL A   1      42.121  29.333  28.056  1.00  0.00    -0.203 F 
ATOM     69  F   UNL A   1      39.152  24.760  27.829  1.00  0.00    -0.200 F 
ATOM     70  C   UNL A   1      40.694  26.240  26.827  1.00  0.00     0.200 A 
ATOM     71  F   UNL A   1      42.246  27.741  25.872  1.00  0.00    -0.200 F 
ATOM     72  F   UNL A   1      40.792  25.437  25.758  1.00  0.00    -0.200 F 
ENDBRANCH  48  62
BRANCH  49  73
ATOM     73  C   UNL A   1      39.530  33.922  36.989  1.00  0.00     0.064 A 
ATOM     74  C   UNL A   1      38.772  33.527  38.100  1.00  0.00     0.173 A 
ATOM     75  C   UNL A   1      40.157  35.175  37.037  1.00  0.00     0.173 A 
ATOM     76  F   UNL A   1      38.138  32.345  38.090  1.00  0.00    -0.203 F 
ATOM     77  C   UNL A   1      38.638  34.355  39.211  1.00  0.00     0.198 A 
ATOM     78  C   UNL A   1      40.043  35.993  38.160  1.00  0.00     0.198 A 
ATOM     79  F   UNL A   1      40.895  35.598  36.001  1.00  0.00    -0.203 F 
ATOM     80  F   UNL A   1      37.880  33.967  40.245  1.00  0.00    -0.200 F 
ATOM     81  C   UNL A   1      39.279  35.585  39.243  1.00  0.00     0.200 A 
ATOM     82  F   UNL A   1      40.675  37.174  38.194  1.00  0.00    -0.200 F 
ATOM     83  F   UNL A   1      39.157  36.377  40.316  1.00  0.00    -0.200 F 
ENDBRANCH  49  73
BRANCH  61  84
ATOM     84  C   UNL A   1      43.881  28.709  35.427  1.00  0.00     0.064 A 
ATOM     85  C   UNL A   1      43.698  27.642  36.317  1.00  0.00     0.173 A 
ATOM     86  C   UNL A   1      45.190  29.166  35.207  1.00  0.00     0.173 A 
ATOM     87  F   UNL A   1      42.466  27.179  36.573  1.00  0.00    -0.203 F 
ATOM     88  C   UNL A   1      44.782  27.068  36.978  1.00  0.00     0.198 A 
ATOM     89  C   UNL A   1      46.273  28.573  35.847  1.00  0.00     0.198 A 
ATOM     90  F   UNL A   1      45.418  30.182  34.361  1.00  0.00    -0.203 F 
ATOM     91  F   UNL A   1      44.581  26.077  37.857  1.00  0.00    -0.200 F 
ATOM     92  C   UNL A   1      46.068  27.529  36.737  1.00  0.00     0.200 A 
ATOM     93  F   UNL A   1      47.516  29.011  35.605  1.00  0.00    -0.200 F 
ATOM     94  F   UNL A   1      47.111  26.970  37.367  1.00  0.00    -0.200 F 
ENDBRANCH  61  84
ENDBRANCH  35  36
ENDBRANCH  27  30
ENDBRANCH  25  26
ENDBRANCH  24  25
ENDBRANCH   1  24
TORSDOF 14
ENDMDL
MODEL 3
REMARK VINA RESULT:     -12.4      5.504     11.165
REMARK SMILES C=C(C)COc1ccc2c(C)c(CC(=O)NCCCNC(=O)c3ccc(-c4c5nc(c(-c6c(F)c(F)c(F)c(F)c6F)c6ccc([nH]6)c(-c6c(F)c(F)c(F)c(F)c6F)c6nc(c(-c7c(F)c(F)c(F)c(F)c7F)c7ccc4[nH]7)C=C6)C=C5)cc3)c(=O)oc2c1
REMARK SMILES IDX 17 1 16 2 14 3 15 4 13 6 12 7 6 8 7 9 90 10 8 11 89 12 9 13
REMARK SMILES IDX 88 14 10 15 86 16 11 17 87 18 5 19 4 20 2 21 1 22 3 23 18 24
REMARK SMILES IDX 19 25 20 26 21 27 22 29 23 30 24 31 85 32 25 33 84 34 26 35
REMARK SMILES IDX 27 36 28 37 78 38 29 39 83 40 77 41 79 42 30 43 82 44 76 45
REMARK SMILES IDX 75 46 31 48 63 49 43 50 62 51 44 52 47 53 61 54 80 55 45 56
REMARK SMILES IDX 46 57 60 59 81 60 48 61 32 62 33 63 41 64 34 65 35 66 39 67
REMARK SMILES IDX 42 68 36 69 37 70 40 71 38 72 64 73 65 74 73 75 66 76 67 77
REMARK SMILES IDX 71 78 74 79 68 80 69 81 72 82 70 83 49 84 50 85 58 86 51 87
REMARK SMILES IDX 52 88 56 89 59 90 53 91 54 92 57 93 55 94
REMARK H PARENT 16 5 20 28 79 47 47 58
REMARK Flexibility Score: inf
ROOT
ATOM      1  C   UNL A   1      36.660  20.652  24.989  1.00  0.00     0.117 C 
ENDROOT
BRANCH   1   2
ATOM      2  N   UNL A   1      36.896  21.885  24.261  1.00  0.00    -0.356 N 
ATOM      3  C   UNL A   1      36.022  22.708  23.618  1.00  0.00     0.224 C 
ATOM      4  O   UNL A   1      36.482  23.699  23.046  1.00  0.00    -0.275 OA
ATOM      5  H   UNL A   1      37.838  22.171  24.224  1.00  0.00     0.163 HD
BRANCH   3   6
ATOM      6  C   UNL A   1      34.523  22.425  23.620  1.00  0.00     0.143 C 
BRANCH   6   7
ATOM      7  C   UNL A   1      33.696  23.689  23.662  1.00  0.00     0.051 A 
ATOM      8  C   UNL A   1      31.394  28.152  24.210  1.00  0.00     0.123 A 
ATOM      9  C   UNL A   1      31.636  27.710  25.507  1.00  0.00     0.047 A 
ATOM     10  C   UNL A   1      31.827  27.392  23.134  1.00  0.00     0.094 A 
ATOM     11  C   UNL A   1      32.268  26.475  25.722  1.00  0.00     0.016 A 
ATOM     12  C   UNL A   1      32.422  26.157  23.365  1.00  0.00     0.142 A 
ATOM     13  C   UNL A   1      32.663  25.667  24.645  1.00  0.00     0.021 A 
ATOM     14  O   UNL A   1      32.746  25.425  22.218  1.00  0.00    -0.422 OA
ATOM     15  C   UNL A   1      33.364  24.374  24.780  1.00  0.00    -0.029 A 
ATOM     16  C   UNL A   1      33.243  24.145  22.318  1.00  0.00     0.340 A 
ATOM     17  C   UNL A   1      33.702  23.911  26.175  1.00  0.00     0.046 C 
ATOM     18  O   UNL A   1      33.354  23.442  21.319  1.00  0.00    -0.246 OA
BRANCH   8  19
ATOM     19  O   UNL A   1      30.788  29.366  24.029  1.00  0.00    -0.489 OA
BRANCH  19  20
ATOM     20  C   UNL A   1      29.930  29.378  22.874  1.00  0.00     0.260 C 
BRANCH  20  21
ATOM     21  C   UNL A   1      28.559  29.950  23.174  1.00  0.00    -0.043 C 
ATOM     22  C   UNL A   1      28.372  31.237  23.514  1.00  0.00     0.011 C 
ATOM     23  C   UNL A   1      27.404  29.001  23.011  1.00  0.00     0.042 C 
ENDBRANCH  20  21
ENDBRANCH  19  20
ENDBRANCH   8  19
ENDBRANCH   6   7
ENDBRANCH   3   6
ENDBRANCH   1   2
BRANCH   1  24
ATOM     24  C   UNL A   1      37.874  19.724  24.960  1.00  0.00     0.042 C 
BRANCH  24  25
ATOM     25  C   UNL A   1      39.008  20.145  25.893  1.00  0.00     0.118 C 
BRANCH  25  26
ATOM     26  N   UNL A   1      40.106  19.189  25.914  1.00  0.00    -0.352 N 
ATOM     27  C   UNL A   1      41.454  19.389  26.053  1.00  0.00     0.251 C 
ATOM     28  H   UNL A   1      39.836  18.247  25.813  1.00  0.00     0.163 HD
ATOM     29  O   UNL A   1      42.227  18.446  25.875  1.00  0.00    -0.269 OA
BRANCH  27  30
ATOM     30  C   UNL A   1      42.000  20.719  26.398  1.00  0.00     0.039 A 
ATOM     31  C   UNL A   1      42.256  21.628  25.366  1.00  0.00     0.014 A 
ATOM     32  C   UNL A   1      42.306  21.060  27.718  1.00  0.00     0.014 A 
ATOM     33  C   UNL A   1      42.762  22.896  25.661  1.00  0.00     0.010 A 
ATOM     34  C   UNL A   1      42.747  22.347  28.019  1.00  0.00     0.010 A 
ATOM     35  C   UNL A   1      42.982  23.277  26.994  1.00  0.00    -0.014 A 
BRANCH  35  36
ATOM     36  C   UNL A   1      43.460  24.640  27.339  1.00  0.00     0.031 A 
ATOM     37  C   UNL A   1      42.511  25.653  27.912  1.00  0.00     0.074 A 
ATOM     38  C   UNL A   1      44.733  24.986  27.071  1.00  0.00     0.049 A 
ATOM     39  N   UNL A   1      42.715  26.916  28.193  1.00  0.00    -0.248 NA
ATOM     40  C   UNL A   1      41.142  25.191  28.184  1.00  0.00     0.031 C 
ATOM     41  C   UNL A   1      45.743  24.103  26.486  1.00  0.00     0.029 A 
ATOM     42  N   UNL A   1      45.392  26.176  27.245  1.00  0.00    -0.354 N 
ATOM     43  C   UNL A   1      41.499  27.402  28.654  1.00  0.00     0.074 A 
ATOM     44  C   UNL A   1      40.550  26.311  28.571  1.00  0.00     0.031 C 
ATOM     45  C   UNL A   1      46.899  24.776  26.370  1.00  0.00     0.029 A 
ATOM     46  C   UNL A   1      46.702  26.145  26.833  1.00  0.00     0.049 A 
ATOM     47  H   UNL A   1      44.966  26.978  27.628  1.00  0.00     0.167 HD
ATOM     48  C   UNL A   1      41.204  28.638  29.125  1.00  0.00     0.037 A 
ATOM     49  C   UNL A   1      47.636  27.116  26.823  1.00  0.00     0.037 A 
ATOM     50  C   UNL A   1      42.155  29.715  29.225  1.00  0.00     0.049 A 
ATOM     51  C   UNL A   1      47.279  28.486  27.329  1.00  0.00     0.074 A 
ATOM     52  C   UNL A   1      41.969  30.987  29.735  1.00  0.00     0.029 A 
ATOM     53  N   UNL A   1      43.474  29.644  28.802  1.00  0.00    -0.354 N 
ATOM     54  N   UNL A   1      46.142  28.921  27.813  1.00  0.00    -0.248 NA
ATOM     55  C   UNL A   1      48.341  29.502  27.287  1.00  0.00     0.031 C 
ATOM     56  C   UNL A   1      43.164  31.700  29.581  1.00  0.00     0.029 A 
ATOM     57  C   UNL A   1      44.109  30.856  29.020  1.00  0.00     0.049 A 
ATOM     58  H   UNL A   1      43.898  28.848  28.406  1.00  0.00     0.167 HD
ATOM     59  C   UNL A   1      46.356  30.246  28.162  1.00  0.00     0.074 A 
ATOM     60  C   UNL A   1      47.737  30.545  27.841  1.00  0.00     0.031 C 
ATOM     61  C   UNL A   1      45.487  31.136  28.703  1.00  0.00     0.037 A 
BRANCH  48  62
ATOM     62  C   UNL A   1      39.790  28.888  29.563  1.00  0.00     0.064 A 
ATOM     63  C   UNL A   1      38.822  29.383  28.676  1.00  0.00     0.173 A 
ATOM     64  C   UNL A   1      39.394  28.622  30.882  1.00  0.00     0.173 A 
ATOM     65  F   UNL A   1      39.150  29.665  27.406  1.00  0.00    -0.203 F 
ATOM     66  C   UNL A   1      37.522  29.642  29.105  1.00  0.00     0.198 A 
ATOM     67  C   UNL A   1      38.085  28.852  31.299  1.00  0.00     0.198 A 
ATOM     68  F   UNL A   1      40.278  28.141  31.770  1.00  0.00    -0.203 F 
ATOM     69  F   UNL A   1      36.631  30.173  28.255  1.00  0.00    -0.200 F 
ATOM     70  C   UNL A   1      37.154  29.372  30.414  1.00  0.00     0.200 A 
ATOM     71  F   UNL A   1      37.728  28.579  32.561  1.00  0.00    -0.200 F 
ATOM     72  F   UNL A   1      35.904  29.624  30.825  1.00  0.00    -0.200 F 
ENDBRANCH  48  62
BRANCH  49  73
ATOM     73  C   UNL A   1      49.009  26.809  26.350  1.00  0.00     0.064 A 
ATOM     74  C   UNL A   1      49.965  26.280  27.229  1.00  0.00     0.173 A 
ATOM     75  C   UNL A   1      49.391  27.018  25.017  1.00  0.00     0.173 A 
ATOM     76  F   UNL A   1      49.651  26.083  28.517  1.00  0.00    -0.203 F 
ATOM     77  C   UNL A   1      51.254  25.981  26.795  1.00  0.00     0.198 A 
ATOM     78  C   UNL A   1      50.674  26.694  24.578  1.00  0.00     0.198 A 
ATOM     79  F   UNL A   1      48.513  27.519  24.136  1.00  0.00    -0.203 F 
ATOM     80  F   UNL A   1      52.157  25.509  27.664  1.00  0.00    -0.200 F 
ATOM     81  C   UNL A   1      51.605  26.182  25.469  1.00  0.00     0.200 A 
ATOM     82  F   UNL A   1      51.006  26.876  23.293  1.00  0.00    -0.200 F 
ATOM     83  F   UNL A   1      52.843  25.885  25.050  1.00  0.00    -0.200 F 
ENDBRANCH  49  73
BRANCH  61  84
ATOM     84  C   UNL A   1      46.012  32.505  29.019  1.00  0.00     0.064 A 
ATOM     85  C   UNL A   1      46.614  32.798  30.250  1.00  0.00     0.173 A 
ATOM     86  C   UNL A   1      45.948  33.527  28.058  1.00  0.00     0.173 A 
ATOM     87  F   UNL A   1      46.685  31.861  31.207  1.00  0.00    -0.203 F 
ATOM     88  C   UNL A   1      47.115  34.071  30.517  1.00  0.00     0.198 A 
ATOM     89  C   UNL A   1      46.474  34.788  28.317  1.00  0.00     0.198 A 
ATOM     90  F   UNL A   1      45.386  33.296  26.862  1.00  0.00    -0.203 F 
ATOM     91  F   UNL A   1      47.649  34.341  31.716  1.00  0.00    -0.200 F 
ATOM     92  C   UNL A   1      47.051  35.061  29.548  1.00  0.00     0.200 A 
ATOM     93  F   UNL A   1      46.423  35.741  27.376  1.00  0.00    -0.200 F 
ATOM     94  F   UNL A   1      47.541  36.283  29.803  1.00  0.00    -0.200 F 
ENDBRANCH  61  84
ENDBRANCH  35  36
ENDBRANCH  27  30
ENDBRANCH  25  26
ENDBRANCH  24  25
ENDBRANCH   1  24
TORSDOF 14
ENDMDL
