MODEL 1
REMARK VINA RESULT:     -12.2      0.000      0.000
REMARK SMILES CC[C@](C)(NS(=O)(=O)c1ccc(C(C)C)cc1)C(=O)NCCCNC(=O)c1ccc(-c2c3nc(c(-c4c(F)c(F)c(F)c(F)c4F)c4ccc([nH]4)c(-c4c(F)c(F)c(F)c(F)c4F)c4nc(c(-c5c(F)c(F)c(F)c(F)c5F)c5ccc2[nH]5)C=C4)C=C3)cc1
REMARK SMILES IDX 21 1 20 2 18 3 19 4 3 6 4 7 2 8 1 9 5 10 6 12 7 13 8 14 9 15
REMARK SMILES IDX 10 16 17 17 11 18 16 19 12 20 13 21 14 22 15 23 22 24 23 25
REMARK SMILES IDX 24 26 25 27 26 29 27 30 28 31 89 32 29 33 88 34 30 35 31 36
REMARK SMILES IDX 32 37 82 38 33 39 87 40 81 41 83 42 34 43 86 44 80 45 79 46
REMARK SMILES IDX 35 48 67 49 47 50 66 51 48 52 51 53 65 54 84 55 49 56 50 57
REMARK SMILES IDX 64 59 85 60 52 61 36 62 37 63 45 64 38 65 39 66 43 67 46 68
REMARK SMILES IDX 40 69 41 70 44 71 42 72 68 73 69 74 77 75 70 76 71 77 75 78
REMARK SMILES IDX 78 79 72 80 73 81 76 82 74 83 53 84 54 85 62 86 55 87 56 88
REMARK SMILES IDX 60 89 63 90 57 91 58 92 61 93 59 94
REMARK H PARENT 20 5 5 11 24 28 83 47 51 58
REMARK Flexibility Score: inf
ROOT
ATOM      1  C   UNL A   1      31.539  27.535  26.674  1.00  0.00     0.117 C 
ENDROOT
BRANCH   1   2
ATOM      2  N   UNL A   1      30.918  26.210  26.732  1.00  0.00    -0.354 N 
ATOM      3  C   UNL A   1      31.191  24.918  26.374  1.00  0.00     0.241 C 
ATOM      4  O   UNL A   1      30.366  24.109  26.833  1.00  0.00    -0.273 OA
ATOM      5  H   UNL A   1      30.033  26.266  27.161  1.00  0.00     0.163 HD
BRANCH   3   6
ATOM      6  C   UNL A   1      32.324  24.390  25.447  1.00  0.00     0.108 C 
ATOM      7  C   UNL A   1      31.960  22.913  25.050  1.00  0.00     0.040 C 
BRANCH   6   8
ATOM      8  C   UNL A   1      33.706  24.382  26.167  1.00  0.00     0.030 C 
ATOM      9  C   UNL A   1      34.943  24.699  25.318  1.00  0.00     0.006 C 
ENDBRANCH   6   8
BRANCH   6  10
ATOM     10  N   UNL A   1      32.442  24.999  24.096  1.00  0.00    -0.196 NA
ATOM     11  H   UNL A   1      33.162  24.435  23.643  1.00  0.00     0.142 HD
BRANCH  10  12
ATOM     12  S   UNL A   1      31.339  25.261  22.888  1.00  0.00     0.241 S 
ATOM     13  O   UNL A   1      32.073  25.273  21.638  1.00  0.00    -0.207 OA
ATOM     14  O   UNL A   1      30.322  24.262  23.109  1.00  0.00    -0.207 OA
BRANCH  12  15
ATOM     15  C   UNL A   1      30.560  26.850  23.074  1.00  0.00     0.082 A 
ATOM     16  C   UNL A   1      29.254  27.029  23.519  1.00  0.00     0.022 A 
ATOM     17  C   UNL A   1      31.185  27.935  22.485  1.00  0.00     0.022 A 
ATOM     18  C   UNL A   1      28.638  28.297  23.384  1.00  0.00     0.005 A 
ATOM     19  C   UNL A   1      30.627  29.195  22.397  1.00  0.00     0.005 A 
ATOM     20  C   UNL A   1      29.320  29.390  22.810  1.00  0.00    -0.045 A 
BRANCH  20  21
ATOM     21  C   UNL A   1      28.738  30.771  22.580  1.00  0.00     0.013 C 
ATOM     22  C   UNL A   1      28.310  31.011  21.135  1.00  0.00     0.012 C 
ATOM     23  C   UNL A   1      27.627  31.065  23.581  1.00  0.00     0.012 C 
ENDBRANCH  20  21
ENDBRANCH  12  15
ENDBRANCH  10  12
ENDBRANCH   6  10
ENDBRANCH   3   6
ENDBRANCH   1   2
BRANCH   1  24
ATOM     24  C   UNL A   1      32.850  27.858  25.900  1.00  0.00     0.042 C 
BRANCH  24  25
ATOM     25  C   UNL A   1      33.282  29.187  25.247  1.00  0.00     0.118 C 
BRANCH  25  26
ATOM     26  N   UNL A   1      32.710  30.401  25.788  1.00  0.00    -0.352 N 
ATOM     27  C   UNL A   1      33.171  31.157  26.849  1.00  0.00     0.251 C 
ATOM     28  H   UNL A   1      31.892  30.728  25.348  1.00  0.00     0.163 HD
ATOM     29  O   UNL A   1      32.470  32.067  27.288  1.00  0.00    -0.269 OA
BRANCH  27  30
ATOM     30  C   UNL A   1      34.482  30.897  27.507  1.00  0.00     0.039 A 
ATOM     31  C   UNL A   1      34.667  29.679  28.171  1.00  0.00     0.014 A 
ATOM     32  C   UNL A   1      35.462  31.887  27.628  1.00  0.00     0.014 A 
ATOM     33  C   UNL A   1      35.833  29.445  28.922  1.00  0.00     0.010 A 
ATOM     34  C   UNL A   1      36.636  31.648  28.371  1.00  0.00     0.010 A 
ATOM     35  C   UNL A   1      36.837  30.423  29.028  1.00  0.00    -0.014 A 
BRANCH  35  36
ATOM     36  C   UNL A   1      38.099  30.116  29.770  1.00  0.00     0.031 A 
ATOM     37  C   UNL A   1      38.360  30.626  31.165  1.00  0.00     0.074 A 
ATOM     38  C   UNL A   1      39.031  29.339  29.181  1.00  0.00     0.049 A 
ATOM     39  N   UNL A   1      39.343  30.334  31.986  1.00  0.00    -0.248 NA
ATOM     40  C   UNL A   1      37.402  31.600  31.705  1.00  0.00     0.031 C 
ATOM     41  C   UNL A   1      38.943  28.821  27.815  1.00  0.00     0.029 A 
ATOM     42  N   UNL A   1      40.224  28.840  29.650  1.00  0.00    -0.354 N 
ATOM     43  C   UNL A   1      39.115  31.071  33.141  1.00  0.00     0.074 A 
ATOM     44  C   UNL A   1      37.928  31.865  32.895  1.00  0.00     0.031 C 
ATOM     45  C   UNL A   1      40.015  28.052  27.567  1.00  0.00     0.029 A 
ATOM     46  C   UNL A   1      40.876  28.035  28.748  1.00  0.00     0.049 A 
ATOM     47  H   UNL A   1      40.576  29.041  30.546  1.00  0.00     0.167 HD
ATOM     48  C   UNL A   1      39.816  31.073  34.305  1.00  0.00     0.037 A 
ATOM     49  C   UNL A   1      42.030  27.345  28.856  1.00  0.00     0.037 A 
ATOM     50  C   UNL A   1      41.007  30.292  34.550  1.00  0.00     0.049 A 
ATOM     51  C   UNL A   1      42.790  27.363  30.156  1.00  0.00     0.074 A 
ATOM     52  C   UNL A   1      41.751  30.189  35.715  1.00  0.00     0.029 A 
ATOM     53  N   UNL A   1      41.639  29.492  33.609  1.00  0.00    -0.354 N 
ATOM     54  N   UNL A   1      42.501  27.979  31.276  1.00  0.00    -0.248 NA
ATOM     55  C   UNL A   1      44.027  26.572  30.210  1.00  0.00     0.031 C 
ATOM     56  C   UNL A   1      42.861  29.374  35.463  1.00  0.00     0.029 A 
ATOM     57  C   UNL A   1      42.777  28.918  34.158  1.00  0.00     0.049 A 
ATOM     58  H   UNL A   1      41.326  29.353  32.686  1.00  0.00     0.167 HD
ATOM     59  C   UNL A   1      43.501  27.629  32.174  1.00  0.00     0.074 A 
ATOM     60  C   UNL A   1      44.393  26.728  31.474  1.00  0.00     0.031 C 
ATOM     61  C   UNL A   1      43.666  28.022  33.461  1.00  0.00     0.037 A 
BRANCH  48  62
ATOM     62  C   UNL A   1      39.316  31.948  35.424  1.00  0.00     0.064 A 
ATOM     63  C   UNL A   1      38.440  31.455  36.404  1.00  0.00     0.173 A 
ATOM     64  C   UNL A   1      39.768  33.270  35.560  1.00  0.00     0.173 A 
ATOM     65  F   UNL A   1      37.980  30.198  36.327  1.00  0.00    -0.203 F 
ATOM     66  C   UNL A   1      38.013  32.261  37.457  1.00  0.00     0.198 A 
ATOM     67  C   UNL A   1      39.362  34.063  36.631  1.00  0.00     0.198 A 
ATOM     68  F   UNL A   1      40.621  33.789  34.663  1.00  0.00    -0.203 F 
ATOM     69  F   UNL A   1      37.142  31.780  38.356  1.00  0.00    -0.200 F 
ATOM     70  C   UNL A   1      38.478  33.562  37.574  1.00  0.00     0.200 A 
ATOM     71  F   UNL A   1      39.829  35.314  36.752  1.00  0.00    -0.200 F 
ATOM     72  F   UNL A   1      38.073  34.332  38.592  1.00  0.00    -0.200 F 
ENDBRANCH  48  62
BRANCH  49  73
ATOM     73  C   UNL A   1      42.519  26.537  27.707  1.00  0.00     0.064 A 
ATOM     74  C   UNL A   1      42.077  25.222  27.508  1.00  0.00     0.173 A 
ATOM     75  C   UNL A   1      43.442  27.060  26.790  1.00  0.00     0.173 A 
ATOM     76  F   UNL A   1      41.211  24.667  28.370  1.00  0.00    -0.203 F 
ATOM     77  C   UNL A   1      42.554  24.454  26.447  1.00  0.00     0.198 A 
ATOM     78  C   UNL A   1      43.894  26.303  25.712  1.00  0.00     0.198 A 
ATOM     79  F   UNL A   1      43.894  28.314  26.934  1.00  0.00    -0.203 F 
ATOM     80  F   UNL A   1      42.153  23.183  26.309  1.00  0.00    -0.200 F 
ATOM     81  C   UNL A   1      43.458  24.997  25.546  1.00  0.00     0.200 A 
ATOM     82  F   UNL A   1      44.756  26.836  24.835  1.00  0.00    -0.200 F 
ATOM     83  F   UNL A   1      43.912  24.260  24.524  1.00  0.00    -0.200 F 
ENDBRANCH  49  73
BRANCH  61  84
ATOM     84  C   UNL A   1      44.841  27.454  34.209  1.00  0.00     0.064 A 
ATOM     85  C   UNL A   1      46.084  28.106  34.238  1.00  0.00     0.173 A 
ATOM     86  C   UNL A   1      44.719  26.248  34.917  1.00  0.00     0.173 A 
ATOM     87  F   UNL A   1      46.261  29.254  33.568  1.00  0.00    -0.203 F 
ATOM     88  C   UNL A   1      47.170  27.550  34.913  1.00  0.00     0.198 A 
ATOM     89  C   UNL A   1      45.798  25.714  35.618  1.00  0.00     0.198 A 
ATOM     90  F   UNL A   1      43.553  25.586  34.930  1.00  0.00    -0.203 F 
ATOM     91  F   UNL A   1      48.363  28.159  34.873  1.00  0.00    -0.200 F 
ATOM     92  C   UNL A   1      47.025  26.359  35.606  1.00  0.00     0.200 A 
ATOM     93  F   UNL A   1      45.651  24.568  36.298  1.00  0.00    -0.200 F 
ATOM     94  F   UNL A   1      48.070  25.826  36.253  1.00  0.00    -0.200 F 
ENDBRANCH  61  84
ENDBRANCH  35  36
ENDBRANCH  27  30
ENDBRANCH  25  26
ENDBRANCH  24  25
ENDBRANCH   1  24
TORSDOF 15
ENDMDL
MODEL 2
REMARK VINA RESULT:     -12.1      1.788      2.596
REMARK SMILES CC[C@](C)(NS(=O)(=O)c1ccc(C(C)C)cc1)C(=O)NCCCNC(=O)c1ccc(-c2c3nc(c(-c4c(F)c(F)c(F)c(F)c4F)c4ccc([nH]4)c(-c4c(F)c(F)c(F)c(F)c4F)c4nc(c(-c5c(F)c(F)c(F)c(F)c5F)c5ccc2[nH]5)C=C4)C=C3)cc1
REMARK SMILES IDX 21 1 20 2 18 3 19 4 3 6 4 7 2 8 1 9 5 10 6 12 7 13 8 14 9 15
REMARK SMILES IDX 10 16 17 17 11 18 16 19 12 20 13 21 14 22 15 23 22 24 23 25
REMARK SMILES IDX 24 26 25 27 26 29 27 30 28 31 89 32 29 33 88 34 30 35 31 36
REMARK SMILES IDX 32 37 82 38 33 39 87 40 81 41 83 42 34 43 86 44 80 45 79 46
REMARK SMILES IDX 35 48 67 49 47 50 66 51 48 52 51 53 65 54 84 55 49 56 50 57
REMARK SMILES IDX 64 59 85 60 52 61 36 62 37 63 45 64 38 65 39 66 43 67 46 68
REMARK SMILES IDX 40 69 41 70 44 71 42 72 68 73 69 74 77 75 70 76 71 77 75 78
REMARK SMILES IDX 78 79 72 80 73 81 76 82 74 83 53 84 54 85 62 86 55 87 56 88
REMARK SMILES IDX 60 89 63 90 57 91 58 92 61 93 59 94
REMARK H PARENT 20 5 5 11 24 28 83 47 51 58
REMARK Flexibility Score: inf
ROOT
ATOM      1  C   UNL A   1      31.265  30.740  25.873  1.00  0.00     0.117 C 
ENDROOT
BRANCH   1   2
ATOM      2  N   UNL A   1      32.382  30.048  25.227  1.00  0.00    -0.354 N 
ATOM      3  C   UNL A   1      32.845  28.776  25.034  1.00  0.00     0.241 C 
ATOM      4  O   UNL A   1      33.786  28.725  24.223  1.00  0.00    -0.273 OA
ATOM      5  H   UNL A   1      32.985  30.700  24.799  1.00  0.00     0.163 HD
BRANCH   3   6
ATOM      6  C   UNL A   1      32.386  27.464  25.734  1.00  0.00     0.108 C 
ATOM      7  C   UNL A   1      31.866  27.851  27.167  1.00  0.00     0.040 C 
BRANCH   6   8
ATOM      8  C   UNL A   1      33.559  26.450  25.892  1.00  0.00     0.030 C 
ATOM      9  C   UNL A   1      33.189  24.981  26.132  1.00  0.00     0.006 C 
ENDBRANCH   6   8
BRANCH   6  10
ATOM     10  N   UNL A   1      31.177  26.786  25.195  1.00  0.00    -0.196 NA
ATOM     11  H   UNL A   1      30.406  27.312  25.608  1.00  0.00     0.142 HD
BRANCH  10  12
ATOM     12  S   UNL A   1      30.659  26.490  23.650  1.00  0.00     0.241 S 
ATOM     13  O   UNL A   1      31.827  26.117  22.875  1.00  0.00    -0.207 OA
ATOM     14  O   UNL A   1      29.577  25.549  23.808  1.00  0.00    -0.207 OA
BRANCH  12  15
ATOM     15  C   UNL A   1      29.971  27.959  22.918  1.00  0.00     0.082 A 
ATOM     16  C   UNL A   1      30.711  28.890  22.198  1.00  0.00     0.022 A 
ATOM     17  C   UNL A   1      28.700  28.331  23.321  1.00  0.00     0.022 A 
ATOM     18  C   UNL A   1      30.137  30.147  21.884  1.00  0.00     0.005 A 
ATOM     19  C   UNL A   1      28.098  29.525  22.975  1.00  0.00     0.005 A 
ATOM     20  C   UNL A   1      28.826  30.477  22.281  1.00  0.00    -0.045 A 
BRANCH  20  21
ATOM     21  C   UNL A   1      28.137  31.805  22.035  1.00  0.00     0.013 C 
ATOM     22  C   UNL A   1      28.762  32.960  22.811  1.00  0.00     0.012 C 
ATOM     23  C   UNL A   1      28.025  32.089  20.542  1.00  0.00     0.012 C 
ENDBRANCH  20  21
ENDBRANCH  12  15
ENDBRANCH  10  12
ENDBRANCH   6  10
ENDBRANCH   3   6
ENDBRANCH   1   2
BRANCH   1  24
ATOM     24  C   UNL A   1      31.352  32.167  26.488  1.00  0.00     0.042 C 
BRANCH  24  25
ATOM     25  C   UNL A   1      32.568  32.869  27.129  1.00  0.00     0.118 C 
BRANCH  25  26
ATOM     26  N   UNL A   1      32.359  34.205  27.643  1.00  0.00    -0.352 N 
ATOM     27  C   UNL A   1      32.997  34.816  28.706  1.00  0.00     0.251 C 
ATOM     28  H   UNL A   1      31.678  34.745  27.180  1.00  0.00     0.163 HD
ATOM     29  O   UNL A   1      32.579  35.896  29.117  1.00  0.00    -0.269 OA
BRANCH  27  30
ATOM     30  C   UNL A   1      34.165  34.202  29.396  1.00  0.00     0.039 A 
ATOM     31  C   UNL A   1      35.451  34.485  28.918  1.00  0.00     0.014 A 
ATOM     32  C   UNL A   1      34.014  33.226  30.386  1.00  0.00     0.014 A 
ATOM     33  C   UNL A   1      36.572  33.822  29.447  1.00  0.00     0.010 A 
ATOM     34  C   UNL A   1      35.140  32.570  30.925  1.00  0.00     0.010 A 
ATOM     35  C   UNL A   1      36.434  32.859  30.462  1.00  0.00    -0.014 A 
BRANCH  35  36
ATOM     36  C   UNL A   1      37.652  32.227  31.058  1.00  0.00     0.031 A 
ATOM     37  C   UNL A   1      38.146  32.573  32.440  1.00  0.00     0.074 A 
ATOM     38  C   UNL A   1      38.324  31.301  30.344  1.00  0.00     0.049 A 
ATOM     39  N   UNL A   1      39.104  32.014  33.144  1.00  0.00    -0.248 NA
ATOM     40  C   UNL A   1      37.491  33.701  33.117  1.00  0.00     0.031 C 
ATOM     41  C   UNL A   1      37.998  30.907  28.974  1.00  0.00     0.029 A 
ATOM     42  N   UNL A   1      39.406  30.516  30.668  1.00  0.00    -0.354 N 
ATOM     43  C   UNL A   1      39.156  32.706  34.347  1.00  0.00     0.074 A 
ATOM     44  C   UNL A   1      38.167  33.762  34.257  1.00  0.00     0.031 C 
ATOM     45  C   UNL A   1      38.838  29.934  28.585  1.00  0.00     0.029 A 
ATOM     46  C   UNL A   1      39.773  29.646  29.670  1.00  0.00     0.049 A 
ATOM     47  H   UNL A   1      39.873  30.574  31.532  1.00  0.00     0.167 HD
ATOM     48  C   UNL A   1      39.939  32.474  35.433  1.00  0.00     0.037 A 
ATOM     49  C   UNL A   1      40.741  28.708  29.631  1.00  0.00     0.037 A 
ATOM     50  C   UNL A   1      40.935  31.430  35.522  1.00  0.00     0.049 A 
ATOM     51  C   UNL A   1      41.597  28.470  30.846  1.00  0.00     0.074 A 
ATOM     52  C   UNL A   1      41.735  31.087  36.600  1.00  0.00     0.029 A 
ATOM     53  N   UNL A   1      41.279  30.572  34.488  1.00  0.00    -0.354 N 
ATOM     54  N   UNL A   1      41.559  29.060  32.016  1.00  0.00    -0.248 NA
ATOM     55  C   UNL A   1      42.618  27.418  30.740  1.00  0.00     0.031 C 
ATOM     56  C   UNL A   1      42.601  30.061  36.201  1.00  0.00     0.029 A 
ATOM     57  C   UNL A   1      42.299  29.721  34.893  1.00  0.00     0.049 A 
ATOM     58  H   UNL A   1      40.862  30.567  33.596  1.00  0.00     0.167 HD
ATOM     59  C   UNL A   1      42.527  28.436  32.791  1.00  0.00     0.074 A 
ATOM     60  C   UNL A   1      43.121  27.404  31.966  1.00  0.00     0.031 C 
ATOM     61  C   UNL A   1      42.891  28.696  34.071  1.00  0.00     0.037 A 
BRANCH  48  62
ATOM     62  C   UNL A   1      39.755  33.364  36.634  1.00  0.00     0.064 A 
ATOM     63  C   UNL A   1      38.838  33.046  37.648  1.00  0.00     0.173 A 
ATOM     64  C   UNL A   1      40.550  34.507  36.810  1.00  0.00     0.173 A 
ATOM     65  F   UNL A   1      38.055  31.963  37.535  1.00  0.00    -0.203 F 
ATOM     66  C   UNL A   1      38.702  33.856  38.774  1.00  0.00     0.198 A 
ATOM     67  C   UNL A   1      40.433  35.297  37.951  1.00  0.00     0.198 A 
ATOM     68  F   UNL A   1      41.459  34.850  35.882  1.00  0.00    -0.203 F 
ATOM     69  F   UNL A   1      37.788  33.554  39.707  1.00  0.00    -0.200 F 
ATOM     70  C   UNL A   1      39.503  34.977  38.928  1.00  0.00     0.200 A 
ATOM     71  F   UNL A   1      41.223  36.369  38.107  1.00  0.00    -0.200 F 
ATOM     72  F   UNL A   1      39.377  35.748  40.016  1.00  0.00    -0.200 F 
ENDBRANCH  48  62
BRANCH  49  73
ATOM     73  C   UNL A   1      40.926  27.888  28.404  1.00  0.00     0.064 A 
ATOM     74  C   UNL A   1      40.253  26.669  28.240  1.00  0.00     0.173 A 
ATOM     75  C   UNL A   1      41.785  28.302  27.375  1.00  0.00     0.173 A 
ATOM     76  F   UNL A   1      39.438  26.218  29.206  1.00  0.00    -0.203 F 
ATOM     77  C   UNL A   1      40.446  25.886  27.103  1.00  0.00     0.198 A 
ATOM     78  C   UNL A   1      41.953  27.534  26.224  1.00  0.00     0.198 A 
ATOM     79  F   UNL A   1      42.450  29.460  27.481  1.00  0.00    -0.203 F 
ATOM     80  F   UNL A   1      39.829  24.702  26.995  1.00  0.00    -0.200 F 
ATOM     81  C   UNL A   1      41.291  26.322  26.094  1.00  0.00     0.200 A 
ATOM     82  F   UNL A   1      42.758  27.966  25.244  1.00  0.00    -0.200 F 
ATOM     83  F   UNL A   1      41.472  25.571  24.998  1.00  0.00    -0.200 F 
ENDBRANCH  49  73
BRANCH  61  84
ATOM     84  C   UNL A   1      43.965  27.831  34.671  1.00  0.00     0.064 A 
ATOM     85  C   UNL A   1      45.320  28.196  34.628  1.00  0.00     0.173 A 
ATOM     86  C   UNL A   1      43.634  26.624  35.307  1.00  0.00     0.173 A 
ATOM     87  F   UNL A   1      45.694  29.332  34.020  1.00  0.00    -0.203 F 
ATOM     88  C   UNL A   1      46.304  27.368  35.164  1.00  0.00     0.198 A 
ATOM     89  C   UNL A   1      44.619  25.815  35.871  1.00  0.00     0.198 A 
ATOM     90  F   UNL A   1      42.355  26.228  35.384  1.00  0.00    -0.203 F 
ATOM     91  F   UNL A   1      47.596  27.709  35.054  1.00  0.00    -0.200 F 
ATOM     92  C   UNL A   1      45.953  26.182  35.789  1.00  0.00     0.200 A 
ATOM     93  F   UNL A   1      44.275  24.675  36.487  1.00  0.00    -0.200 F 
ATOM     94  F   UNL A   1      46.901  25.387  36.303  1.00  0.00    -0.200 F 
ENDBRANCH  61  84
ENDBRANCH  35  36
ENDBRANCH  27  30
ENDBRANCH  25  26
ENDBRANCH  24  25
ENDBRANCH   1  24
TORSDOF 15
ENDMDL
MODEL 3
REMARK VINA RESULT:     -12.0      0.259      1.655
REMARK SMILES CC[C@](C)(NS(=O)(=O)c1ccc(C(C)C)cc1)C(=O)NCCCNC(=O)c1ccc(-c2c3nc(c(-c4c(F)c(F)c(F)c(F)c4F)c4ccc([nH]4)c(-c4c(F)c(F)c(F)c(F)c4F)c4nc(c(-c5c(F)c(F)c(F)c(F)c5F)c5ccc2[nH]5)C=C4)C=C3)cc1
REMARK SMILES IDX 21 1 20 2 18 3 19 4 3 6 4 7 2 8 1 9 5 10 6 12 7 13 8 14 9 15
REMARK SMILES IDX 10 16 17 17 11 18 16 19 12 20 13 21 14 22 15 23 22 24 23 25
REMARK SMILES IDX 24 26 25 27 26 29 27 30 28 31 89 32 29 33 88 34 30 35 31 36
REMARK SMILES IDX 32 37 82 38 33 39 87 40 81 41 83 42 34 43 86 44 80 45 79 46
REMARK SMILES IDX 35 48 67 49 47 50 66 51 48 52 51 53 65 54 84 55 49 56 50 57
REMARK SMILES IDX 64 59 85 60 52 61 36 62 37 63 45 64 38 65 39 66 43 67 46 68
REMARK SMILES IDX 40 69 41 70 44 71 42 72 68 73 69 74 77 75 70 76 71 77 75 78
REMARK SMILES IDX 78 79 72 80 73 81 76 82 74 83 53 84 54 85 62 86 55 87 56 88
REMARK SMILES IDX 60 89 63 90 57 91 58 92 61 93 59 94
REMARK H PARENT 20 5 5 11 24 28 83 47 51 58
REMARK Flexibility Score: inf
ROOT
ATOM      1  C   UNL A   1      31.380  27.428  26.451  1.00  0.00     0.117 C 
ENDROOT
BRANCH   1   2
ATOM      2  N   UNL A   1      31.025  26.045  26.775  1.00  0.00    -0.354 N 
ATOM      3  C   UNL A   1      31.461  24.773  26.520  1.00  0.00     0.241 C 
ATOM      4  O   UNL A   1      30.883  23.920  27.217  1.00  0.00    -0.273 OA
ATOM      5  H   UNL A   1      30.229  26.024  27.354  1.00  0.00     0.163 HD
BRANCH   3   6
ATOM      6  C   UNL A   1      32.499  24.301  25.462  1.00  0.00     0.108 C 
ATOM      7  C   UNL A   1      32.104  22.841  25.033  1.00  0.00     0.040 C 
BRANCH   6   8
ATOM      8  C   UNL A   1      33.945  24.271  26.041  1.00  0.00     0.030 C 
ATOM      9  C   UNL A   1      35.096  24.568  25.071  1.00  0.00     0.006 C 
ENDBRANCH   6   8
BRANCH   6  10
ATOM     10  N   UNL A   1      32.479  24.974  24.136  1.00  0.00    -0.196 NA
ATOM     11  H   UNL A   1      33.287  24.576  23.656  1.00  0.00     0.142 HD
BRANCH  10  12
ATOM     12  S   UNL A   1      31.330  25.066  22.947  1.00  0.00     0.241 S 
ATOM     13  O   UNL A   1      32.034  25.165  21.684  1.00  0.00    -0.207 OA
ATOM     14  O   UNL A   1      30.465  23.939  23.197  1.00  0.00    -0.207 OA
BRANCH  12  15
ATOM     15  C   UNL A   1      30.341  26.534  23.132  1.00  0.00     0.082 A 
ATOM     16  C   UNL A   1      29.073  26.551  23.703  1.00  0.00     0.022 A 
ATOM     17  C   UNL A   1      30.736  27.657  22.426  1.00  0.00     0.022 A 
ATOM     18  C   UNL A   1      28.263  27.705  23.569  1.00  0.00     0.005 A 
ATOM     19  C   UNL A   1      29.988  28.814  22.333  1.00  0.00     0.005 A 
ATOM     20  C   UNL A   1      28.713  28.844  22.871  1.00  0.00    -0.045 A 
BRANCH  20  21
ATOM     21  C   UNL A   1      27.910  30.108  22.633  1.00  0.00     0.013 C 
ATOM     22  C   UNL A   1      28.139  31.177  23.697  1.00  0.00     0.012 C 
ATOM     23  C   UNL A   1      28.126  30.629  21.217  1.00  0.00     0.012 C 
ENDBRANCH  20  21
ENDBRANCH  12  15
ENDBRANCH  10  12
ENDBRANCH   6  10
ENDBRANCH   3   6
ENDBRANCH   1   2
BRANCH   1  24
ATOM     24  C   UNL A   1      32.816  27.903  26.080  1.00  0.00     0.042 C 
BRANCH  24  25
ATOM     25  C   UNL A   1      33.249  29.209  25.382  1.00  0.00     0.118 C 
BRANCH  25  26
ATOM     26  N   UNL A   1      32.701  30.443  25.901  1.00  0.00    -0.352 N 
ATOM     27  C   UNL A   1      33.182  31.215  26.942  1.00  0.00     0.251 C 
ATOM     28  H   UNL A   1      31.886  30.774  25.459  1.00  0.00     0.163 HD
ATOM     29  O   UNL A   1      32.500  32.146  27.365  1.00  0.00    -0.269 OA
BRANCH  27  30
ATOM     30  C   UNL A   1      34.493  30.948  27.596  1.00  0.00     0.039 A 
ATOM     31  C   UNL A   1      34.664  29.742  28.286  1.00  0.00     0.014 A 
ATOM     32  C   UNL A   1      35.490  31.924  27.688  1.00  0.00     0.014 A 
ATOM     33  C   UNL A   1      35.830  29.505  29.034  1.00  0.00     0.010 A 
ATOM     34  C   UNL A   1      36.666  31.681  28.428  1.00  0.00     0.010 A 
ATOM     35  C   UNL A   1      36.851  30.469  29.111  1.00  0.00    -0.014 A 
BRANCH  35  36
ATOM     36  C   UNL A   1      38.114  30.157  29.851  1.00  0.00     0.031 A 
ATOM     37  C   UNL A   1      38.382  30.672  31.242  1.00  0.00     0.074 A 
ATOM     38  C   UNL A   1      39.038  29.370  29.263  1.00  0.00     0.049 A 
ATOM     39  N   UNL A   1      39.366  30.379  32.061  1.00  0.00    -0.248 NA
ATOM     40  C   UNL A   1      37.433  31.656  31.780  1.00  0.00     0.031 C 
ATOM     41  C   UNL A   1      38.943  28.845  27.901  1.00  0.00     0.029 A 
ATOM     42  N   UNL A   1      40.229  28.865  29.731  1.00  0.00    -0.354 N 
ATOM     43  C   UNL A   1      39.146  31.123  33.213  1.00  0.00     0.074 A 
ATOM     44  C   UNL A   1      37.964  31.924  32.966  1.00  0.00     0.031 C 
ATOM     45  C   UNL A   1      40.009  28.068  27.654  1.00  0.00     0.029 A 
ATOM     46  C   UNL A   1      40.873  28.051  28.832  1.00  0.00     0.049 A 
ATOM     47  H   UNL A   1      40.586  29.069  30.625  1.00  0.00     0.167 HD
ATOM     48  C   UNL A   1      39.851  31.127  34.375  1.00  0.00     0.037 A 
ATOM     49  C   UNL A   1      42.023  27.354  28.940  1.00  0.00     0.037 A 
ATOM     50  C   UNL A   1      41.038  30.339  34.620  1.00  0.00     0.049 A 
ATOM     51  C   UNL A   1      42.786  27.374  30.237  1.00  0.00     0.074 A 
ATOM     52  C   UNL A   1      41.784  30.238  35.784  1.00  0.00     0.029 A 
ATOM     53  N   UNL A   1      41.661  29.530  33.682  1.00  0.00    -0.354 N 
ATOM     54  N   UNL A   1      42.506  27.998  31.355  1.00  0.00    -0.248 NA
ATOM     55  C   UNL A   1      44.018  26.575  30.292  1.00  0.00     0.031 C 
ATOM     56  C   UNL A   1      42.888  29.414  35.533  1.00  0.00     0.029 A 
ATOM     57  C   UNL A   1      42.797  28.951  34.231  1.00  0.00     0.049 A 
ATOM     58  H   UNL A   1      41.344  29.387  32.761  1.00  0.00     0.167 HD
ATOM     59  C   UNL A   1      43.506  27.646  32.252  1.00  0.00     0.074 A 
ATOM     60  C   UNL A   1      44.389  26.735  31.554  1.00  0.00     0.031 C 
ATOM     61  C   UNL A   1      43.677  28.045  33.536  1.00  0.00     0.037 A 
BRANCH  48  62
ATOM     62  C   UNL A   1      39.361  32.012  35.491  1.00  0.00     0.064 A 
ATOM     63  C   UNL A   1      38.506  31.523  36.491  1.00  0.00     0.173 A 
ATOM     64  C   UNL A   1      39.801  33.340  35.601  1.00  0.00     0.173 A 
ATOM     65  F   UNL A   1      38.058  30.260  36.438  1.00  0.00    -0.203 F 
ATOM     66  C   UNL A   1      38.088  32.339  37.541  1.00  0.00     0.198 A 
ATOM     67  C   UNL A   1      39.405  34.143  36.669  1.00  0.00     0.198 A 
ATOM     68  F   UNL A   1      40.634  33.856  34.684  1.00  0.00    -0.203 F 
ATOM     69  F   UNL A   1      37.238  31.861  38.460  1.00  0.00    -0.200 F 
ATOM     70  C   UNL A   1      38.541  33.645  37.633  1.00  0.00     0.200 A 
ATOM     71  F   UNL A   1      39.861  35.400  36.766  1.00  0.00    -0.200 F 
ATOM     72  F   UNL A   1      38.145  34.425  38.648  1.00  0.00    -0.200 F 
ENDBRANCH  48  62
BRANCH  49  73
ATOM     73  C   UNL A   1      42.502  26.536  27.794  1.00  0.00     0.064 A 
ATOM     74  C   UNL A   1      43.421  27.056  26.870  1.00  0.00     0.173 A 
ATOM     75  C   UNL A   1      42.048  25.225  27.594  1.00  0.00     0.173 A 
ATOM     76  F   UNL A   1      43.869  28.313  27.005  1.00  0.00    -0.203 F 
ATOM     77  C   UNL A   1      43.851  26.302  25.780  1.00  0.00     0.198 A 
ATOM     78  C   UNL A   1      42.502  24.461  26.521  1.00  0.00     0.198 A 
ATOM     79  F   UNL A   1      41.171  24.681  28.449  1.00  0.00    -0.203 F 
ATOM     80  F   UNL A   1      44.691  26.840  24.885  1.00  0.00    -0.200 F 
ATOM     81  C   UNL A   1      43.396  25.003  25.609  1.00  0.00     0.200 A 
ATOM     82  F   UNL A   1      42.072  23.201  26.369  1.00  0.00    -0.200 F 
ATOM     83  F   UNL A   1      43.814  24.276  24.564  1.00  0.00    -0.200 F 
ENDBRANCH  49  73
BRANCH  61  84
ATOM     84  C   UNL A   1      44.851  27.474  34.284  1.00  0.00     0.064 A 
ATOM     85  C   UNL A   1      44.760  26.267  34.994  1.00  0.00     0.173 A 
ATOM     86  C   UNL A   1      46.088  28.139  34.282  1.00  0.00     0.173 A 
ATOM     87  F   UNL A   1      43.598  25.597  35.041  1.00  0.00    -0.203 F 
ATOM     88  C   UNL A   1      45.849  25.768  35.705  1.00  0.00     0.198 A 
ATOM     89  C   UNL A   1      47.184  27.619  34.967  1.00  0.00     0.198 A 
ATOM     90  F   UNL A   1      46.235  29.292  33.615  1.00  0.00    -0.203 F 
ATOM     91  F   UNL A   1      45.718  24.646  36.428  1.00  0.00    -0.200 F 
ATOM     92  C   UNL A   1      47.061  26.441  35.687  1.00  0.00     0.200 A 
ATOM     93  F   UNL A   1      48.358  28.264  34.937  1.00  0.00    -0.200 F 
ATOM     94  F   UNL A   1      48.107  25.960  36.372  1.00  0.00    -0.200 F 
ENDBRANCH  61  84
ENDBRANCH  35  36
ENDBRANCH  27  30
ENDBRANCH  25  26
ENDBRANCH  24  25
ENDBRANCH   1  24
TORSDOF 15
ENDMDL
