MODEL 1
REMARK VINA RESULT:     -14.1      0.000      0.000
REMARK SMILES O=C(NCCCNC(=O)c1nnn(-c2cccc(Br)c2)c1[C@@H]1COc2ccccc2O1)c1ccc(-c2c3nc(c(-c4c(F)c(F)c(F)c(F)c4F)c4ccc([nH]4)c(-c4c(F)c(F)c(F)c(F)c4F)c4nc(c(-c5c(F)c(F)c(F)c(F)c5F)c5ccc2[nH]5)C=C4)C=C3)cc1
REMARK SMILES IDX 4 1 3 2 1 3 2 4 32 6 33 7 94 8 34 9 93 10 35 11 36 12 37 13
REMARK SMILES IDX 87 14 38 15 92 16 86 17 88 18 39 19 91 20 85 21 84 22 40 24
REMARK SMILES IDX 72 25 52 26 71 27 53 28 56 29 70 30 89 31 54 32 55 33 69 35
REMARK SMILES IDX 90 36 57 37 41 38 42 39 50 40 43 41 44 42 48 43 51 44 45 45
REMARK SMILES IDX 46 46 49 47 47 48 73 49 74 50 82 51 75 52 76 53 80 54 83 55
REMARK SMILES IDX 77 56 78 57 81 58 79 59 58 60 59 61 67 62 60 63 61 64 65 65
REMARK SMILES IDX 68 66 62 67 63 68 66 69 64 70 5 71 6 72 7 73 8 74 9 76 10 77
REMARK SMILES IDX 11 78 21 79 12 80 13 81 22 82 23 83 31 84 24 85 30 86 25 87
REMARK SMILES IDX 29 88 26 89 28 90 27 91 14 92 15 93 20 94 16 95 18 96 17 97
REMARK SMILES IDX 19 98
REMARK H PARENT 3 5 88 23 56 34 7 75
REMARK Flexibility Score: inf
ROOT
ATOM      1  C   UNL A   1      37.142  22.381  25.463  1.00  0.00     0.118 C 
ENDROOT
BRANCH   1   2
ATOM      2  N   UNL A   1      38.469  21.851  25.717  1.00  0.00    -0.352 N 
ATOM      3  O   UNL A   1      40.369  21.333  26.723  1.00  0.00    -0.269 OA
ATOM      4  C   UNL A   1      39.530  22.211  26.505  1.00  0.00     0.251 C 
ATOM      5  H   UNL A   1      38.651  21.036  25.196  1.00  0.00     0.163 HD
BRANCH   4   6
ATOM      6  C   UNL A   1      39.777  23.576  27.048  1.00  0.00     0.039 A 
ATOM      7  C   UNL A   1      38.969  24.681  26.809  1.00  0.00     0.014 A 
ATOM      8  C   UNL A   1      40.952  23.762  27.810  1.00  0.00     0.014 A 
ATOM      9  C   UNL A   1      39.341  25.941  27.270  1.00  0.00     0.010 A 
ATOM     10  C   UNL A   1      41.321  25.022  28.293  1.00  0.00     0.010 A 
ATOM     11  C   UNL A   1      40.516  26.120  28.010  1.00  0.00    -0.014 A 
BRANCH  11  12
ATOM     12  C   UNL A   1      40.730  27.454  28.566  1.00  0.00     0.031 A 
ATOM     13  C   UNL A   1      41.957  28.158  28.093  1.00  0.00     0.074 A 
ATOM     14  C   UNL A   1      39.918  28.128  29.402  1.00  0.00     0.049 A 
ATOM     15  N   UNL A   1      42.990  28.517  28.787  1.00  0.00    -0.248 NA
ATOM     16  C   UNL A   1      42.052  28.470  26.661  1.00  0.00     0.031 C 
ATOM     17  C   UNL A   1      38.533  27.845  29.764  1.00  0.00     0.029 A 
ATOM     18  N   UNL A   1      40.192  29.294  30.063  1.00  0.00    -0.354 N 
ATOM     19  C   UNL A   1      43.817  29.219  27.915  1.00  0.00     0.074 A 
ATOM     20  C   UNL A   1      43.227  29.098  26.604  1.00  0.00     0.031 C 
ATOM     21  C   UNL A   1      38.029  28.909  30.435  1.00  0.00     0.029 A 
ATOM     22  C   UNL A   1      39.091  29.882  30.658  1.00  0.00     0.049 A 
ATOM     23  H   UNL A   1      41.096  29.682  30.111  1.00  0.00     0.167 HD
ATOM     24  C   UNL A   1      44.861  29.976  28.352  1.00  0.00     0.037 A 
ATOM     25  C   UNL A   1      39.047  31.100  31.248  1.00  0.00     0.037 A 
ATOM     26  C   UNL A   1      45.258  29.638  29.691  1.00  0.00     0.049 A 
ATOM     27  C   UNL A   1      40.428  31.510  31.600  1.00  0.00     0.074 A 
ATOM     28  C   UNL A   1      45.696  28.487  30.318  1.00  0.00     0.029 A 
ATOM     29  N   UNL A   1      44.985  30.518  30.708  1.00  0.00    -0.354 N 
ATOM     30  N   UNL A   1      41.128  31.012  32.580  1.00  0.00    -0.248 NA
ATOM     31  C   UNL A   1      41.179  32.310  30.644  1.00  0.00     0.031 C 
ATOM     32  C   UNL A   1      45.194  28.570  31.651  1.00  0.00     0.029 A 
ATOM     33  C   UNL A   1      44.488  29.767  31.743  1.00  0.00     0.049 A 
ATOM     34  H   UNL A   1      45.119  31.493  30.698  1.00  0.00     0.167 HD
ATOM     35  C   UNL A   1      42.441  31.084  32.147  1.00  0.00     0.074 A 
ATOM     36  C   UNL A   1      42.421  32.010  31.023  1.00  0.00     0.031 C 
ATOM     37  C   UNL A   1      43.370  30.174  32.558  1.00  0.00     0.037 A 
BRANCH  24  38
ATOM     38  C   UNL A   1      45.364  31.214  27.658  1.00  0.00     0.064 A 
ATOM     39  C   UNL A   1      46.695  31.267  27.196  1.00  0.00     0.173 A 
ATOM     40  C   UNL A   1      44.677  32.445  27.688  1.00  0.00     0.173 A 
ATOM     41  F   UNL A   1      47.450  30.159  27.160  1.00  0.00    -0.203 F 
ATOM     42  C   UNL A   1      47.306  32.473  26.843  1.00  0.00     0.198 A 
ATOM     43  C   UNL A   1      45.273  33.640  27.284  1.00  0.00     0.198 A 
ATOM     44  F   UNL A   1      43.446  32.551  28.208  1.00  0.00    -0.203 F 
ATOM     45  F   UNL A   1      48.607  32.489  26.522  1.00  0.00    -0.200 F 
ATOM     46  C   UNL A   1      46.596  33.658  26.889  1.00  0.00     0.200 A 
ATOM     47  F   UNL A   1      44.577  34.783  27.355  1.00  0.00    -0.200 F 
ATOM     48  F   UNL A   1      47.195  34.821  26.604  1.00  0.00    -0.200 F 
ENDBRANCH  24  38
BRANCH  25  49
ATOM     49  C   UNL A   1      37.905  32.032  31.375  1.00  0.00     0.064 A 
ATOM     50  C   UNL A   1      37.433  32.760  30.270  1.00  0.00     0.173 A 
ATOM     51  C   UNL A   1      37.087  32.028  32.520  1.00  0.00     0.173 A 
ATOM     52  F   UNL A   1      38.125  32.776  29.122  1.00  0.00    -0.203 F 
ATOM     53  C   UNL A   1      36.207  33.431  30.306  1.00  0.00     0.198 A 
ATOM     54  C   UNL A   1      35.871  32.708  32.559  1.00  0.00     0.198 A 
ATOM     55  F   UNL A   1      37.409  31.288  33.592  1.00  0.00    -0.203 F 
ATOM     56  F   UNL A   1      35.760  34.064  29.212  1.00  0.00    -0.200 F 
ATOM     57  C   UNL A   1      35.425  33.398  31.447  1.00  0.00     0.200 A 
ATOM     58  F   UNL A   1      35.107  32.640  33.658  1.00  0.00    -0.200 F 
ATOM     59  F   UNL A   1      34.225  33.997  31.465  1.00  0.00    -0.200 F 
ENDBRANCH  25  49
BRANCH  37  60
ATOM     60  C   UNL A   1      43.053  29.335  33.758  1.00  0.00     0.064 A 
ATOM     61  C   UNL A   1      42.253  28.180  33.718  1.00  0.00     0.173 A 
ATOM     62  C   UNL A   1      43.672  29.652  34.977  1.00  0.00     0.173 A 
ATOM     63  F   UNL A   1      41.725  27.745  32.564  1.00  0.00    -0.203 F 
ATOM     64  C   UNL A   1      42.031  27.419  34.864  1.00  0.00     0.198 A 
ATOM     65  C   UNL A   1      43.481  28.866  36.109  1.00  0.00     0.198 A 
ATOM     66  F   UNL A   1      44.498  30.707  35.058  1.00  0.00    -0.203 F 
ATOM     67  F   UNL A   1      41.241  26.336  34.808  1.00  0.00    -0.200 F 
ATOM     68  C   UNL A   1      42.647  27.762  36.057  1.00  0.00     0.200 A 
ATOM     69  F   UNL A   1      44.120  29.169  37.247  1.00  0.00    -0.200 F 
ATOM     70  F   UNL A   1      42.458  27.010  37.152  1.00  0.00    -0.200 F 
ENDBRANCH  37  60
ENDBRANCH  11  12
ENDBRANCH   4   6
ENDBRANCH   1   2
BRANCH   1  71
ATOM     71  C   UNL A   1      36.912  23.021  24.093  1.00  0.00     0.042 C 
BRANCH  71  72
ATOM     72  C   UNL A   1      35.553  23.669  23.859  1.00  0.00     0.118 C 
BRANCH  72  73
ATOM     73  N   UNL A   1      34.632  22.870  23.074  1.00  0.00    -0.351 N 
ATOM     74  C   UNL A   1      33.536  23.327  22.368  1.00  0.00     0.273 C 
ATOM     75  H   UNL A   1      34.807  21.901  23.041  1.00  0.00     0.163 HD
ATOM     76  O   UNL A   1      32.875  22.546  21.695  1.00  0.00    -0.267 OA
BRANCH  74  77
ATOM     77  C   UNL A   1      33.183  24.727  22.530  1.00  0.00     0.178 A 
ATOM     78  N   UNL A   1      33.712  25.647  21.670  1.00  0.00    -0.124 NA
ATOM     79  C   UNL A   1      32.263  25.343  23.380  1.00  0.00     0.122 A 
ATOM     80  N   UNL A   1      33.120  26.801  21.889  1.00  0.00    -0.061 NA
ATOM     81  N   UNL A   1      32.252  26.661  22.919  1.00  0.00    -0.213 N 
BRANCH  79  82
ATOM     82  C   UNL A   1      31.355  24.804  24.451  1.00  0.00     0.262 C 
ATOM     83  C   UNL A   1      31.632  25.355  25.852  1.00  0.00     0.281 C 
ATOM     84  O   UNL A   1      31.344  23.370  24.409  1.00  0.00    -0.477 OA
ATOM     85  O   UNL A   1      32.842  24.839  26.407  1.00  0.00    -0.485 OA
ATOM     86  C   UNL A   1      32.107  22.769  25.375  1.00  0.00     0.162 A 
ATOM     87  C   UNL A   1      32.883  23.475  26.293  1.00  0.00     0.161 A 
ATOM     88  C   UNL A   1      32.160  21.376  25.345  1.00  0.00     0.050 A 
ATOM     89  C   UNL A   1      33.801  22.799  27.094  1.00  0.00     0.050 A 
ATOM     90  C   UNL A   1      33.054  20.695  26.171  1.00  0.00     0.004 A 
ATOM     91  C   UNL A   1      33.895  21.409  27.023  1.00  0.00     0.004 A 
ENDBRANCH  79  82
BRANCH  81  92
ATOM     92  C   UNL A   1      31.434  27.771  23.260  1.00  0.00     0.068 A 
ATOM     93  C   UNL A   1      30.305  28.134  22.520  1.00  0.00     0.028 A 
ATOM     94  C   UNL A   1      31.801  28.532  24.384  1.00  0.00     0.044 A 
ATOM     95  C   UNL A   1      29.592  29.287  22.862  1.00  0.00     0.003 A 
ATOM     96  C   UNL A   1      31.094  29.688  24.704  1.00  0.00     0.020 A 
ATOM     97  C   UNL A   1      29.996  30.073  23.942  1.00  0.00     0.016 A 
ATOM     98  Br  UNL A   1      31.654  30.752  26.161  1.00  0.00    -0.051 Br
ENDBRANCH  81  92
ENDBRANCH  74  77
ENDBRANCH  72  73
ENDBRANCH  71  72
ENDBRANCH   1  71
TORSDOF 12
ENDMDL
MODEL 2
REMARK VINA RESULT:     -14.1      3.244      8.464
REMARK SMILES O=C(NCCCNC(=O)c1nnn(-c2cccc(Br)c2)c1[C@@H]1COc2ccccc2O1)c1ccc(-c2c3nc(c(-c4c(F)c(F)c(F)c(F)c4F)c4ccc([nH]4)c(-c4c(F)c(F)c(F)c(F)c4F)c4nc(c(-c5c(F)c(F)c(F)c(F)c5F)c5ccc2[nH]5)C=C4)C=C3)cc1
REMARK SMILES IDX 4 1 3 2 1 3 2 4 32 6 33 7 94 8 34 9 93 10 35 11 36 12 37 13
REMARK SMILES IDX 87 14 38 15 92 16 86 17 88 18 39 19 91 20 85 21 84 22 40 24
REMARK SMILES IDX 72 25 52 26 71 27 53 28 56 29 70 30 89 31 54 32 55 33 69 35
REMARK SMILES IDX 90 36 57 37 41 38 42 39 50 40 43 41 44 42 48 43 51 44 45 45
REMARK SMILES IDX 46 46 49 47 47 48 73 49 74 50 82 51 75 52 76 53 80 54 83 55
REMARK SMILES IDX 77 56 78 57 81 58 79 59 58 60 59 61 67 62 60 63 61 64 65 65
REMARK SMILES IDX 68 66 62 67 63 68 66 69 64 70 5 71 6 72 7 73 8 74 9 76 10 77
REMARK SMILES IDX 11 78 21 79 12 80 13 81 22 82 23 83 31 84 24 85 30 86 25 87
REMARK SMILES IDX 29 88 26 89 28 90 27 91 14 92 15 93 20 94 16 95 18 96 17 97
REMARK SMILES IDX 19 98
REMARK H PARENT 3 5 88 23 56 34 7 75
REMARK Flexibility Score: inf
ROOT
ATOM      1  C   UNL A   1      33.236  29.713  26.660  1.00  0.00     0.118 C 
ENDROOT
BRANCH   1   2
ATOM      2  N   UNL A   1      33.444  30.917  27.441  1.00  0.00    -0.352 N 
ATOM      3  O   UNL A   1      34.357  32.753  28.273  1.00  0.00    -0.269 OA
ATOM      4  C   UNL A   1      34.534  31.575  27.951  1.00  0.00     0.251 C 
ATOM      5  H   UNL A   1      32.599  31.372  27.659  1.00  0.00     0.163 HD
BRANCH   4   6
ATOM      6  C   UNL A   1      35.867  30.964  28.206  1.00  0.00     0.039 A 
ATOM      7  C   UNL A   1      36.176  29.624  28.006  1.00  0.00     0.014 A 
ATOM      8  C   UNL A   1      36.867  31.805  28.746  1.00  0.00     0.014 A 
ATOM      9  C   UNL A   1      37.421  29.123  28.377  1.00  0.00     0.010 A 
ATOM     10  C   UNL A   1      38.126  31.311  29.103  1.00  0.00     0.010 A 
ATOM     11  C   UNL A   1      38.400  29.959  28.927  1.00  0.00    -0.014 A 
BRANCH  11  12
ATOM     12  C   UNL A   1      39.714  29.358  29.141  1.00  0.00     0.031 A 
ATOM     13  C   UNL A   1      40.052  29.039  30.558  1.00  0.00     0.074 A 
ATOM     14  C   UNL A   1      40.614  29.012  28.201  1.00  0.00     0.049 A 
ATOM     15  N   UNL A   1      40.992  29.548  31.290  1.00  0.00    -0.248 NA
ATOM     16  C   UNL A   1      39.214  28.051  31.251  1.00  0.00     0.031 C 
ATOM     17  C   UNL A   1      40.438  28.897  26.758  1.00  0.00     0.029 A 
ATOM     18  N   UNL A   1      41.909  28.616  28.400  1.00  0.00    -0.354 N 
ATOM     19  C   UNL A   1      40.959  28.858  32.498  1.00  0.00     0.074 A 
ATOM     20  C   UNL A   1      39.800  27.999  32.448  1.00  0.00     0.031 C 
ATOM     21  C   UNL A   1      41.526  28.288  26.230  1.00  0.00     0.029 A 
ATOM     22  C   UNL A   1      42.521  28.092  27.276  1.00  0.00     0.049 A 
ATOM     23  H   UNL A   1      42.366  28.698  29.268  1.00  0.00     0.167 HD
ATOM     24  C   UNL A   1      41.968  28.934  33.409  1.00  0.00     0.037 A 
ATOM     25  C   UNL A   1      43.737  27.498  27.223  1.00  0.00     0.037 A 
ATOM     26  C   UNL A   1      42.814  30.076  33.192  1.00  0.00     0.049 A 
ATOM     27  C   UNL A   1      44.523  27.912  28.411  1.00  0.00     0.074 A 
ATOM     28  C   UNL A   1      42.614  31.442  33.146  1.00  0.00     0.029 A 
ATOM     29  N   UNL A   1      44.083  29.882  32.708  1.00  0.00    -0.354 N 
ATOM     30  N   UNL A   1      45.057  29.088  28.579  1.00  0.00    -0.248 NA
ATOM     31  C   UNL A   1      44.476  27.074  29.599  1.00  0.00     0.031 C 
ATOM     32  C   UNL A   1      43.558  31.928  32.192  1.00  0.00     0.029 A 
ATOM     33  C   UNL A   1      44.268  30.823  31.727  1.00  0.00     0.049 A 
ATOM     34  H   UNL A   1      44.732  29.204  33.005  1.00  0.00     0.167 HD
ATOM     35  C   UNL A   1      45.031  29.293  29.948  1.00  0.00     0.074 A 
ATOM     36  C   UNL A   1      44.797  27.978  30.526  1.00  0.00     0.031 C 
ATOM     37  C   UNL A   1      44.922  30.548  30.472  1.00  0.00     0.037 A 
BRANCH  24  38
ATOM     38  C   UNL A   1      42.352  27.822  34.349  1.00  0.00     0.064 A 
ATOM     39  C   UNL A   1      42.996  26.673  33.850  1.00  0.00     0.173 A 
ATOM     40  C   UNL A   1      41.855  27.723  35.666  1.00  0.00     0.173 A 
ATOM     41  F   UNL A   1      43.474  26.648  32.597  1.00  0.00    -0.203 F 
ATOM     42  C   UNL A   1      43.086  25.494  34.595  1.00  0.00     0.198 A 
ATOM     43  C   UNL A   1      41.994  26.562  36.427  1.00  0.00     0.198 A 
ATOM     44  F   UNL A   1      41.128  28.703  36.219  1.00  0.00    -0.203 F 
ATOM     45  F   UNL A   1      43.602  24.392  34.036  1.00  0.00    -0.200 F 
ATOM     46  C   UNL A   1      42.583  25.439  35.882  1.00  0.00     0.200 A 
ATOM     47  F   UNL A   1      41.482  26.520  37.665  1.00  0.00    -0.200 F 
ATOM     48  F   UNL A   1      42.620  24.296  36.577  1.00  0.00    -0.200 F 
ENDBRANCH  24  38
BRANCH  25  49
ATOM     49  C   UNL A   1      44.218  26.444  26.303  1.00  0.00     0.064 A 
ATOM     50  C   UNL A   1      45.452  26.561  25.642  1.00  0.00     0.173 A 
ATOM     51  C   UNL A   1      43.599  25.181  26.258  1.00  0.00     0.173 A 
ATOM     52  F   UNL A   1      46.132  27.716  25.676  1.00  0.00    -0.203 F 
ATOM     53  C   UNL A   1      46.038  25.474  24.988  1.00  0.00     0.198 A 
ATOM     54  C   UNL A   1      44.179  24.100  25.596  1.00  0.00     0.198 A 
ATOM     55  F   UNL A   1      42.465  24.946  26.935  1.00  0.00    -0.203 F 
ATOM     56  F   UNL A   1      47.245  25.607  24.421  1.00  0.00    -0.200 F 
ATOM     57  C   UNL A   1      45.405  24.243  24.972  1.00  0.00     0.200 A 
ATOM     58  F   UNL A   1      43.572  22.905  25.616  1.00  0.00    -0.200 F 
ATOM     59  F   UNL A   1      45.991  23.186  24.392  1.00  0.00    -0.200 F 
ENDBRANCH  25  49
BRANCH  37  60
ATOM     60  C   UNL A   1      45.205  31.714  29.574  1.00  0.00     0.064 A 
ATOM     61  C   UNL A   1      44.284  32.233  28.649  1.00  0.00     0.173 A 
ATOM     62  C   UNL A   1      46.418  32.400  29.735  1.00  0.00     0.173 A 
ATOM     63  F   UNL A   1      43.058  31.704  28.524  1.00  0.00    -0.203 F 
ATOM     64  C   UNL A   1      44.596  33.348  27.873  1.00  0.00     0.198 A 
ATOM     65  C   UNL A   1      46.708  33.538  28.988  1.00  0.00     0.198 A 
ATOM     66  F   UNL A   1      47.310  31.988  30.651  1.00  0.00    -0.203 F 
ATOM     67  F   UNL A   1      43.711  33.809  26.975  1.00  0.00    -0.200 F 
ATOM     68  C   UNL A   1      45.805  34.000  28.045  1.00  0.00     0.200 A 
ATOM     69  F   UNL A   1      47.857  34.198  29.195  1.00  0.00    -0.200 F 
ATOM     70  F   UNL A   1      46.090  35.092  27.320  1.00  0.00    -0.200 F 
ENDBRANCH  37  60
ENDBRANCH  11  12
ENDBRANCH   4   6
ENDBRANCH   1   2
BRANCH   1  71
ATOM     71  C   UNL A   1      32.561  28.542  27.375  1.00  0.00     0.042 C 
BRANCH  71  72
ATOM     72  C   UNL A   1      32.370  27.264  26.568  1.00  0.00     0.118 C 
BRANCH  72  73
ATOM     73  N   UNL A   1      31.003  27.012  26.154  1.00  0.00    -0.351 N 
ATOM     74  C   UNL A   1      30.410  25.779  25.967  1.00  0.00     0.273 C 
ATOM     75  H   UNL A   1      30.440  27.803  25.988  1.00  0.00     0.163 HD
ATOM     76  O   UNL A   1      29.224  25.711  25.673  1.00  0.00    -0.267 OA
BRANCH  74  77
ATOM     77  C   UNL A   1      31.269  24.611  26.064  1.00  0.00     0.178 A 
ATOM     78  N   UNL A   1      31.400  23.983  27.269  1.00  0.00    -0.124 NA
ATOM     79  C   UNL A   1      31.947  23.894  25.076  1.00  0.00     0.122 A 
ATOM     80  N   UNL A   1      32.069  22.866  27.079  1.00  0.00    -0.061 NA
ATOM     81  N   UNL A   1      32.426  22.784  25.775  1.00  0.00    -0.213 N 
BRANCH  79  82
ATOM     82  C   UNL A   1      32.074  24.088  23.591  1.00  0.00     0.262 C 
ATOM     83  C   UNL A   1      33.504  24.337  23.106  1.00  0.00     0.281 C 
ATOM     84  O   UNL A   1      31.153  25.095  23.146  1.00  0.00    -0.477 OA
ATOM     85  O   UNL A   1      33.982  25.632  23.468  1.00  0.00    -0.485 OA
ATOM     86  C   UNL A   1      31.722  26.318  22.908  1.00  0.00     0.162 A 
ATOM     87  C   UNL A   1      33.071  26.596  23.129  1.00  0.00     0.161 A 
ATOM     88  C   UNL A   1      30.856  27.338  22.516  1.00  0.00     0.050 A 
ATOM     89  C   UNL A   1      33.527  27.911  23.079  1.00  0.00     0.050 A 
ATOM     90  C   UNL A   1      31.320  28.651  22.432  1.00  0.00     0.004 A 
ATOM     91  C   UNL A   1      32.647  28.941  22.743  1.00  0.00     0.004 A 
ENDBRANCH  79  82
BRANCH  81  92
ATOM     92  C   UNL A   1      33.079  21.603  25.333  1.00  0.00     0.068 A 
ATOM     93  C   UNL A   1      32.384  20.443  24.978  1.00  0.00     0.028 A 
ATOM     94  C   UNL A   1      34.483  21.616  25.272  1.00  0.00     0.044 A 
ATOM     95  C   UNL A   1      33.092  19.288  24.631  1.00  0.00     0.003 A 
ATOM     96  C   UNL A   1      35.178  20.455  24.943  1.00  0.00     0.020 A 
ATOM     97  C   UNL A   1      34.488  19.288  24.630  1.00  0.00     0.016 A 
ATOM     98  Br  UNL A   1      37.067  20.461  24.956  1.00  0.00    -0.051 Br
ENDBRANCH  81  92
ENDBRANCH  74  77
ENDBRANCH  72  73
ENDBRANCH  71  72
ENDBRANCH   1  71
TORSDOF 12
ENDMDL
MODEL 3
REMARK VINA RESULT:     -14.1      0.597      1.650
REMARK SMILES O=C(NCCCNC(=O)c1nnn(-c2cccc(Br)c2)c1[C@@H]1COc2ccccc2O1)c1ccc(-c2c3nc(c(-c4c(F)c(F)c(F)c(F)c4F)c4ccc([nH]4)c(-c4c(F)c(F)c(F)c(F)c4F)c4nc(c(-c5c(F)c(F)c(F)c(F)c5F)c5ccc2[nH]5)C=C4)C=C3)cc1
REMARK SMILES IDX 4 1 3 2 1 3 2 4 32 6 33 7 94 8 34 9 93 10 35 11 36 12 37 13
REMARK SMILES IDX 87 14 38 15 92 16 86 17 88 18 39 19 91 20 85 21 84 22 40 24
REMARK SMILES IDX 72 25 52 26 71 27 53 28 56 29 70 30 89 31 54 32 55 33 69 35
REMARK SMILES IDX 90 36 57 37 41 38 42 39 50 40 43 41 44 42 48 43 51 44 45 45
REMARK SMILES IDX 46 46 49 47 47 48 73 49 74 50 82 51 75 52 76 53 80 54 83 55
REMARK SMILES IDX 77 56 78 57 81 58 79 59 58 60 59 61 67 62 60 63 61 64 65 65
REMARK SMILES IDX 68 66 62 67 63 68 66 69 64 70 5 71 6 72 7 73 8 74 9 76 10 77
REMARK SMILES IDX 11 78 21 79 12 80 13 81 22 82 23 83 31 84 24 85 30 86 25 87
REMARK SMILES IDX 29 88 26 89 28 90 27 91 14 92 15 93 20 94 16 95 18 96 17 97
REMARK SMILES IDX 19 98
REMARK H PARENT 3 5 88 23 56 34 7 75
REMARK Flexibility Score: inf
ROOT
ATOM      1  C   UNL A   1      37.278  22.473  25.446  1.00  0.00     0.118 C 
ENDROOT
BRANCH   1   2
ATOM      2  N   UNL A   1      38.626  21.975  25.647  1.00  0.00    -0.352 N 
ATOM      3  O   UNL A   1      40.554  21.451  26.596  1.00  0.00    -0.269 OA
ATOM      4  C   UNL A   1      39.681  22.312  26.454  1.00  0.00     0.251 C 
ATOM      5  H   UNL A   1      38.832  21.210  25.063  1.00  0.00     0.163 HD
BRANCH   4   6
ATOM      6  C   UNL A   1      39.884  23.638  27.100  1.00  0.00     0.039 A 
ATOM      7  C   UNL A   1      39.036  24.729  26.951  1.00  0.00     0.014 A 
ATOM      8  C   UNL A   1      41.056  23.806  27.870  1.00  0.00     0.014 A 
ATOM      9  C   UNL A   1      39.367  25.962  27.506  1.00  0.00     0.010 A 
ATOM     10  C   UNL A   1      41.385  25.037  28.448  1.00  0.00     0.010 A 
ATOM     11  C   UNL A   1      40.540  26.124  28.254  1.00  0.00    -0.014 A 
BRANCH  11  12
ATOM     12  C   UNL A   1      40.711  27.418  28.911  1.00  0.00     0.031 A 
ATOM     13  C   UNL A   1      41.908  28.200  28.489  1.00  0.00     0.074 A 
ATOM     14  C   UNL A   1      39.881  27.996  29.801  1.00  0.00     0.049 A 
ATOM     15  N   UNL A   1      42.933  28.541  29.204  1.00  0.00    -0.248 NA
ATOM     16  C   UNL A   1      41.982  28.625  27.085  1.00  0.00     0.031 C 
ATOM     17  C   UNL A   1      38.509  27.637  30.146  1.00  0.00     0.029 A 
ATOM     18  N   UNL A   1      40.118  29.116  30.549  1.00  0.00    -0.354 N 
ATOM     19  C   UNL A   1      43.729  29.337  28.386  1.00  0.00     0.074 A 
ATOM     20  C   UNL A   1      43.134  29.298  27.072  1.00  0.00     0.031 C 
ATOM     21  C   UNL A   1      37.973  28.627  30.899  1.00  0.00     0.029 A 
ATOM     22  C   UNL A   1      39.002  29.616  31.193  1.00  0.00     0.049 A 
ATOM     23  H   UNL A   1      41.009  29.531  30.623  1.00  0.00     0.167 HD
ATOM     24  C   UNL A   1      44.748  30.095  28.876  1.00  0.00     0.037 A 
ATOM     25  C   UNL A   1      38.919  30.783  31.876  1.00  0.00     0.037 A 
ATOM     26  C   UNL A   1      45.166  29.669  30.183  1.00  0.00     0.049 A 
ATOM     27  C   UNL A   1      40.288  31.214  32.253  1.00  0.00     0.074 A 
ATOM     28  C   UNL A   1      45.649  28.489  30.716  1.00  0.00     0.029 A 
ATOM     29  N   UNL A   1      44.870  30.457  31.267  1.00  0.00    -0.354 N 
ATOM     30  N   UNL A   1      41.011  30.666  33.188  1.00  0.00    -0.248 NA
ATOM     31  C   UNL A   1      41.002  32.112  31.359  1.00  0.00     0.031 C 
ATOM     32  C   UNL A   1      45.154  28.450  32.054  1.00  0.00     0.029 A 
ATOM     33  C   UNL A   1      44.407  29.611  32.242  1.00  0.00     0.049 A 
ATOM     34  H   UNL A   1      44.970  31.434  31.332  1.00  0.00     0.167 HD
ATOM     35  C   UNL A   1      42.318  30.819  32.756  1.00  0.00     0.074 A 
ATOM     36  C   UNL A   1      42.258  31.827  31.708  1.00  0.00     0.031 C 
ATOM     37  C   UNL A   1      43.281  29.913  33.091  1.00  0.00     0.037 A 
BRANCH  24  38
ATOM     38  C   UNL A   1      45.203  31.400  28.278  1.00  0.00     0.064 A 
ATOM     39  C   UNL A   1      44.282  32.455  28.114  1.00  0.00     0.173 A 
ATOM     40  C   UNL A   1      46.432  31.551  27.602  1.00  0.00     0.173 A 
ATOM     41  F   UNL A   1      43.069  32.397  28.684  1.00  0.00    -0.203 F 
ATOM     42  C   UNL A   1      44.552  33.550  27.290  1.00  0.00     0.198 A 
ATOM     43  C   UNL A   1      46.720  32.671  26.824  1.00  0.00     0.198 A 
ATOM     44  F   UNL A   1      47.349  30.574  27.586  1.00  0.00    -0.203 F 
ATOM     45  F   UNL A   1      43.602  34.468  27.072  1.00  0.00    -0.200 F 
ATOM     46  C   UNL A   1      45.770  33.657  26.644  1.00  0.00     0.200 A 
ATOM     47  F   UNL A   1      47.898  32.749  26.188  1.00  0.00    -0.200 F 
ATOM     48  F   UNL A   1      46.011  34.678  25.812  1.00  0.00    -0.200 F 
ENDBRANCH  24  38
BRANCH  25  49
ATOM     49  C   UNL A   1      37.746  31.661  32.080  1.00  0.00     0.064 A 
ATOM     50  C   UNL A   1      37.286  31.974  33.370  1.00  0.00     0.173 A 
ATOM     51  C   UNL A   1      37.214  32.421  31.022  1.00  0.00     0.173 A 
ATOM     52  F   UNL A   1      37.776  31.332  34.440  1.00  0.00    -0.203 F 
ATOM     53  C   UNL A   1      36.361  32.999  33.588  1.00  0.00     0.198 A 
ATOM     54  C   UNL A   1      36.282  33.435  31.239  1.00  0.00     0.198 A 
ATOM     55  F   UNL A   1      37.659  32.257  29.767  1.00  0.00    -0.203 F 
ATOM     56  F   UNL A   1      35.991  33.310  34.838  1.00  0.00    -0.200 F 
ATOM     57  C   UNL A   1      35.866  33.732  32.523  1.00  0.00     0.200 A 
ATOM     58  F   UNL A   1      35.837  34.160  30.204  1.00  0.00    -0.200 F 
ATOM     59  F   UNL A   1      35.019  34.750  32.736  1.00  0.00    -0.200 F 
ENDBRANCH  25  49
BRANCH  37  60
ATOM     60  C   UNL A   1      43.002  28.973  34.224  1.00  0.00     0.064 A 
ATOM     61  C   UNL A   1      42.166  27.847  34.121  1.00  0.00     0.173 A 
ATOM     62  C   UNL A   1      43.695  29.156  35.430  1.00  0.00     0.173 A 
ATOM     63  F   UNL A   1      41.564  27.538  32.963  1.00  0.00    -0.203 F 
ATOM     64  C   UNL A   1      41.982  26.988  35.202  1.00  0.00     0.198 A 
ATOM     65  C   UNL A   1      43.540  28.272  36.493  1.00  0.00     0.198 A 
ATOM     66  F   UNL A   1      44.557  30.177  35.563  1.00  0.00    -0.203 F 
ATOM     67  F   UNL A   1      41.157  25.936  35.090  1.00  0.00    -0.200 F 
ATOM     68  C   UNL A   1      42.670  27.199  36.385  1.00  0.00     0.200 A 
ATOM     69  F   UNL A   1      44.248  28.449  37.617  1.00  0.00    -0.200 F 
ATOM     70  F   UNL A   1      42.517  26.353  37.414  1.00  0.00    -0.200 F 
ENDBRANCH  37  60
ENDBRANCH  11  12
ENDBRANCH   4   6
ENDBRANCH   1   2
BRANCH   1  71
ATOM     71  C   UNL A   1      36.990  23.140  24.100  1.00  0.00     0.042 C 
BRANCH  71  72
ATOM     72  C   UNL A   1      35.601  23.739  23.916  1.00  0.00     0.118 C 
BRANCH  72  73
ATOM     73  N   UNL A   1      34.682  22.906  23.163  1.00  0.00    -0.351 N 
ATOM     74  C   UNL A   1      33.572  23.330  22.459  1.00  0.00     0.273 C 
ATOM     75  H   UNL A   1      34.870  21.940  23.153  1.00  0.00     0.163 HD
ATOM     76  O   UNL A   1      32.914  22.522  21.814  1.00  0.00    -0.267 OA
BRANCH  74  77
ATOM     77  C   UNL A   1      33.201  24.729  22.588  1.00  0.00     0.178 A 
ATOM     78  N   UNL A   1      33.702  25.631  21.694  1.00  0.00    -0.124 NA
ATOM     79  C   UNL A   1      32.287  25.354  23.437  1.00  0.00     0.122 A 
ATOM     80  N   UNL A   1      33.096  26.782  21.892  1.00  0.00    -0.061 NA
ATOM     81  N   UNL A   1      32.248  26.659  22.940  1.00  0.00    -0.213 N 
BRANCH  79  82
ATOM     82  C   UNL A   1      31.405  24.833  24.537  1.00  0.00     0.262 C 
ATOM     83  C   UNL A   1      31.716  25.405  25.922  1.00  0.00     0.281 C 
ATOM     84  O   UNL A   1      31.393  23.398  24.519  1.00  0.00    -0.477 OA
ATOM     85  O   UNL A   1      32.938  24.898  26.456  1.00  0.00    -0.485 OA
ATOM     86  C   UNL A   1      32.179  22.812  25.475  1.00  0.00     0.162 A 
ATOM     87  C   UNL A   1      32.977  23.533  26.363  1.00  0.00     0.161 A 
ATOM     88  C   UNL A   1      32.231  21.419  25.466  1.00  0.00     0.050 A 
ATOM     89  C   UNL A   1      33.914  22.870  27.151  1.00  0.00     0.050 A 
ATOM     90  C   UNL A   1      33.146  20.751  26.280  1.00  0.00     0.004 A 
ATOM     91  C   UNL A   1      34.007  21.478  27.100  1.00  0.00     0.004 A 
ENDBRANCH  79  82
BRANCH  81  92
ATOM     92  C   UNL A   1      31.420  27.766  23.265  1.00  0.00     0.068 A 
ATOM     93  C   UNL A   1      30.291  28.111  22.516  1.00  0.00     0.028 A 
ATOM     94  C   UNL A   1      31.776  28.544  24.380  1.00  0.00     0.044 A 
ATOM     95  C   UNL A   1      29.566  29.262  22.841  1.00  0.00     0.003 A 
ATOM     96  C   UNL A   1      31.059  29.698  24.684  1.00  0.00     0.020 A 
ATOM     97  C   UNL A   1      29.960  30.065  23.913  1.00  0.00     0.016 A 
ATOM     98  Br  UNL A   1      31.605  30.784  26.130  1.00  0.00    -0.051 Br
ENDBRANCH  81  92
ENDBRANCH  74  77
ENDBRANCH  72  73
ENDBRANCH  71  72
ENDBRANCH   1  71
TORSDOF 12
ENDMDL
