MODEL 1
REMARK VINA RESULT:     -11.1      0.000      0.000
REMARK SMILES CC[C@@](C)(NC(=O)CCc1ccc(OC)c(Br)c1)C(=O)NCCCNC(=O)c1ccc(-c2c3nc(c(-c4c(F)c(F)c(F)c(F)c4F)c4ccc([nH]4)c(-c4c(F)c(F)c(F)c(F)c4F)c4nc(c(-c5c(F)c(F)c(F)c(F)c5F)c5ccc2[nH]5)C=C4)C=C3)cc1
REMARK SMILES IDX 19 1 20 2 21 3 3 5 4 6 2 7 1 8 5 9 6 10 7 12 8 13 9 14 10 15
REMARK SMILES IDX 11 16 18 17 12 18 16 19 13 20 17 21 14 22 15 23 22 24 23 25
REMARK SMILES IDX 24 26 25 27 26 28 27 30 28 31 29 32 90 33 30 34 89 35 31 36
REMARK SMILES IDX 32 37 33 38 83 39 34 40 88 41 82 42 84 43 35 44 87 45 81 46
REMARK SMILES IDX 80 47 36 49 68 50 48 51 67 52 49 53 52 54 66 55 85 56 50 57
REMARK SMILES IDX 51 58 65 60 86 61 53 62 37 63 38 64 46 65 39 66 40 67 44 68
REMARK SMILES IDX 47 69 41 70 42 71 45 72 43 73 69 74 70 75 78 76 71 77 72 78
REMARK SMILES IDX 76 79 79 80 73 81 74 82 77 83 75 84 54 85 55 86 63 87 56 88
REMARK SMILES IDX 57 89 61 90 64 91 58 92 59 93 62 94 60 95
REMARK H PARENT 21 4 5 11 25 29 84 48 52 59
REMARK Flexibility Score: inf
ROOT
ATOM      1  C   UNL A   1      36.515  23.072  25.571  1.00  0.00     0.245 C 
ATOM      2  O   UNL A   1      37.082  23.891  26.291  1.00  0.00    -0.272 OA
ATOM      3  N   UNL A   1      37.335  22.063  25.108  1.00  0.00    -0.354 N 
ATOM      4  H   UNL A   1      38.263  22.344  24.931  1.00  0.00     0.163 HD
ENDROOT
BRANCH   1   5
ATOM      5  C   UNL A   1      34.957  23.048  25.330  1.00  0.00     0.116 C 
ATOM      6  C   UNL A   1      34.703  24.592  25.215  1.00  0.00     0.045 C 
BRANCH   5   7
ATOM      7  C   UNL A   1      34.129  22.600  24.046  1.00  0.00     0.035 C 
ATOM      8  C   UNL A   1      33.912  23.367  22.740  1.00  0.00     0.007 C 
ENDBRANCH   5   7
BRANCH   5   9
ATOM      9  N   UNL A   1      34.356  22.360  26.492  1.00  0.00    -0.342 N 
ATOM     10  C   UNL A   1      33.048  22.449  26.930  1.00  0.00     0.221 C 
ATOM     11  H   UNL A   1      34.952  21.772  27.010  1.00  0.00     0.164 HD
ATOM     12  O   UNL A   1      32.879  22.506  28.153  1.00  0.00    -0.275 OA
BRANCH  10  13
ATOM     13  C   UNL A   1      31.824  22.291  26.001  1.00  0.00     0.105 C 
BRANCH  13  14
ATOM     14  C   UNL A   1      30.685  23.341  26.055  1.00  0.00     0.045 C 
BRANCH  14  15
ATOM     15  C   UNL A   1      31.001  24.739  25.537  1.00  0.00    -0.046 A 
ATOM     16  C   UNL A   1      30.923  25.112  24.200  1.00  0.00     0.007 A 
ATOM     17  C   UNL A   1      31.323  25.759  26.423  1.00  0.00     0.023 A 
ATOM     18  C   UNL A   1      31.142  26.456  23.819  1.00  0.00     0.048 A 
ATOM     19  C   UNL A   1      31.536  27.106  26.081  1.00  0.00     0.060 A 
ATOM     20  C   UNL A   1      31.418  27.475  24.752  1.00  0.00     0.133 A 
ATOM     21  Br  UNL A   1      32.010  28.267  27.526  1.00  0.00    -0.047 Br
BRANCH  20  22
ATOM     22  O   UNL A   1      31.566  28.715  24.193  1.00  0.00    -0.496 OA
ATOM     23  C   UNL A   1      30.437  29.310  23.561  1.00  0.00     0.278 C 
ENDBRANCH  20  22
ENDBRANCH  14  15
ENDBRANCH  13  14
ENDBRANCH  10  13
ENDBRANCH   5   9
ENDBRANCH   1   5
BRANCH   3  24
ATOM     24  C   UNL A   1      37.071  20.657  24.837  1.00  0.00     0.117 C 
BRANCH  24  25
ATOM     25  C   UNL A   1      38.256  19.710  24.910  1.00  0.00     0.042 C 
BRANCH  25  26
ATOM     26  C   UNL A   1      39.225  19.991  26.044  1.00  0.00     0.118 C 
BRANCH  26  27
ATOM     27  N   UNL A   1      40.389  19.120  26.025  1.00  0.00    -0.352 N 
ATOM     28  C   UNL A   1      41.733  19.395  26.073  1.00  0.00     0.251 C 
ATOM     29  H   UNL A   1      40.175  18.160  25.966  1.00  0.00     0.163 HD
ATOM     30  O   UNL A   1      42.537  18.505  25.815  1.00  0.00    -0.269 OA
BRANCH  28  31
ATOM     31  C   UNL A   1      42.229  20.749  26.409  1.00  0.00     0.039 A 
ATOM     32  C   UNL A   1      42.355  21.107  27.756  1.00  0.00     0.014 A 
ATOM     33  C   UNL A   1      42.496  21.694  25.420  1.00  0.00     0.014 A 
ATOM     34  C   UNL A   1      42.788  22.390  28.101  1.00  0.00     0.010 A 
ATOM     35  C   UNL A   1      43.031  22.932  25.759  1.00  0.00     0.010 A 
ATOM     36  C   UNL A   1      43.152  23.308  27.103  1.00  0.00    -0.014 A 
BRANCH  36  37
ATOM     37  C   UNL A   1      43.592  24.686  27.441  1.00  0.00     0.031 A 
ATOM     38  C   UNL A   1      42.574  25.717  27.859  1.00  0.00     0.074 A 
ATOM     39  C   UNL A   1      44.889  25.026  27.326  1.00  0.00     0.049 A 
ATOM     40  N   UNL A   1      42.742  26.985  28.137  1.00  0.00    -0.248 NA
ATOM     41  C   UNL A   1      41.173  25.270  27.940  1.00  0.00     0.031 C 
ATOM     42  C   UNL A   1      45.962  24.135  26.881  1.00  0.00     0.029 A 
ATOM     43  N   UNL A   1      45.528  26.216  27.570  1.00  0.00    -0.354 N 
ATOM     44  C   UNL A   1      41.473  27.485  28.401  1.00  0.00     0.074 A 
ATOM     45  C   UNL A   1      40.538  26.404  28.185  1.00  0.00     0.031 C 
ATOM     46  C   UNL A   1      47.128  24.799  26.914  1.00  0.00     0.029 A 
ATOM     47  C   UNL A   1      46.882  26.170  27.347  1.00  0.00     0.049 A 
ATOM     48  H   UNL A   1      45.058  27.027  27.876  1.00  0.00     0.167 HD
ATOM     49  C   UNL A   1      41.120  28.724  28.819  1.00  0.00     0.037 A 
ATOM     50  C   UNL A   1      47.818  27.130  27.481  1.00  0.00     0.037 A 
ATOM     51  C   UNL A   1      42.058  29.785  29.073  1.00  0.00     0.049 A 
ATOM     52  C   UNL A   1      47.403  28.495  27.964  1.00  0.00     0.074 A 
ATOM     53  C   UNL A   1      41.814  31.059  29.555  1.00  0.00     0.029 A 
ATOM     54  N   UNL A   1      43.427  29.689  28.867  1.00  0.00    -0.354 N 
ATOM     55  N   UNL A   1      46.209  28.935  28.278  1.00  0.00    -0.248 NA
ATOM     56  C   UNL A   1      48.471  29.491  28.127  1.00  0.00     0.031 C 
ATOM     57  C   UNL A   1      43.030  31.748  29.600  1.00  0.00     0.029 A 
ATOM     58  C   UNL A   1      44.038  30.887  29.200  1.00  0.00     0.049 A 
ATOM     59  H   UNL A   1      43.894  28.890  28.535  1.00  0.00     0.167 HD
ATOM     60  C   UNL A   1      46.384  30.244  28.706  1.00  0.00     0.074 A 
ATOM     61  C   UNL A   1      47.804  30.522  28.625  1.00  0.00     0.031 C 
ATOM     62  C   UNL A   1      45.456  31.137  29.129  1.00  0.00     0.037 A 
BRANCH  49  63
ATOM     63  C   UNL A   1      39.658  28.994  29.037  1.00  0.00     0.064 A 
ATOM     64  C   UNL A   1      39.057  28.828  30.295  1.00  0.00     0.173 A 
ATOM     65  C   UNL A   1      38.850  29.445  27.981  1.00  0.00     0.173 A 
ATOM     66  F   UNL A   1      39.781  28.387  31.336  1.00  0.00    -0.203 F 
ATOM     67  C   UNL A   1      37.698  29.068  30.479  1.00  0.00     0.198 A 
ATOM     68  C   UNL A   1      37.498  29.716  28.177  1.00  0.00     0.198 A 
ATOM     69  F   UNL A   1      39.372  29.626  26.760  1.00  0.00    -0.203 F 
ATOM     70  F   UNL A   1      37.136  28.845  31.675  1.00  0.00    -0.200 F 
ATOM     71  C   UNL A   1      36.922  29.519  29.423  1.00  0.00     0.200 A 
ATOM     72  F   UNL A   1      36.752  30.165  27.159  1.00  0.00    -0.200 F 
ATOM     73  F   UNL A   1      35.615  29.754  29.603  1.00  0.00    -0.200 F 
ENDBRANCH  49  63
BRANCH  50  74
ATOM     74  C   UNL A   1      49.244  26.824  27.193  1.00  0.00     0.064 A 
ATOM     75  C   UNL A   1      50.118  26.440  28.221  1.00  0.00     0.173 A 
ATOM     76  C   UNL A   1      49.765  26.912  25.895  1.00  0.00     0.173 A 
ATOM     77  F   UNL A   1      49.671  26.357  29.483  1.00  0.00    -0.203 F 
ATOM     78  C   UNL A   1      51.463  26.181  27.965  1.00  0.00     0.198 A 
ATOM     79  C   UNL A   1      51.103  26.625  25.635  1.00  0.00     0.198 A 
ATOM     80  F   UNL A   1      48.970  27.269  24.875  1.00  0.00    -0.203 F 
ATOM     81  F   UNL A   1      52.285  25.863  28.974  1.00  0.00    -0.200 F 
ATOM     82  C   UNL A   1      51.953  26.268  26.672  1.00  0.00     0.200 A 
ATOM     83  F   UNL A   1      51.570  26.696  24.381  1.00  0.00    -0.200 F 
ATOM     84  F   UNL A   1      53.246  26.017  26.425  1.00  0.00    -0.200 F 
ENDBRANCH  50  74
BRANCH  62  85
ATOM     85  C   UNL A   1      45.948  32.480  29.585  1.00  0.00     0.064 A 
ATOM     86  C   UNL A   1      46.335  32.714  30.913  1.00  0.00     0.173 A 
ATOM     87  C   UNL A   1      46.071  33.535  28.669  1.00  0.00     0.173 A 
ATOM     88  F   UNL A   1      46.223  31.741  31.830  1.00  0.00    -0.203 F 
ATOM     89  C   UNL A   1      46.798  33.964  31.313  1.00  0.00     0.198 A 
ATOM     90  C   UNL A   1      46.566  34.774  29.065  1.00  0.00     0.198 A 
ATOM     91  F   UNL A   1      45.724  33.360  27.384  1.00  0.00    -0.203 F 
ATOM     92  F   UNL A   1      47.112  34.181  32.597  1.00  0.00    -0.200 F 
ATOM     93  C   UNL A   1      46.920  34.990  30.388  1.00  0.00     0.200 A 
ATOM     94  F   UNL A   1      46.699  35.759  28.165  1.00  0.00    -0.200 F 
ATOM     95  F   UNL A   1      47.373  36.192  30.772  1.00  0.00    -0.200 F 
ENDBRANCH  62  85
ENDBRANCH  36  37
ENDBRANCH  28  31
ENDBRANCH  26  27
ENDBRANCH  25  26
ENDBRANCH  24  25
ENDBRANCH   3  24
TORSDOF 16
ENDMDL
MODEL 2
REMARK VINA RESULT:     -11.0      0.933      7.373
REMARK SMILES CC[C@@](C)(NC(=O)CCc1ccc(OC)c(Br)c1)C(=O)NCCCNC(=O)c1ccc(-c2c3nc(c(-c4c(F)c(F)c(F)c(F)c4F)c4ccc([nH]4)c(-c4c(F)c(F)c(F)c(F)c4F)c4nc(c(-c5c(F)c(F)c(F)c(F)c5F)c5ccc2[nH]5)C=C4)C=C3)cc1
REMARK SMILES IDX 19 1 20 2 21 3 3 5 4 6 2 7 1 8 5 9 6 10 7 12 8 13 9 14 10 15
REMARK SMILES IDX 11 16 18 17 12 18 16 19 13 20 17 21 14 22 15 23 22 24 23 25
REMARK SMILES IDX 24 26 25 27 26 28 27 30 28 31 29 32 90 33 30 34 89 35 31 36
REMARK SMILES IDX 32 37 33 38 83 39 34 40 88 41 82 42 84 43 35 44 87 45 81 46
REMARK SMILES IDX 80 47 36 49 68 50 48 51 67 52 49 53 52 54 66 55 85 56 50 57
REMARK SMILES IDX 51 58 65 60 86 61 53 62 37 63 38 64 46 65 39 66 40 67 44 68
REMARK SMILES IDX 47 69 41 70 42 71 45 72 43 73 69 74 70 75 78 76 71 77 72 78
REMARK SMILES IDX 76 79 79 80 73 81 74 82 77 83 75 84 54 85 55 86 63 87 56 88
REMARK SMILES IDX 57 89 61 90 64 91 58 92 59 93 62 94 60 95
REMARK H PARENT 21 4 5 11 25 29 84 48 52 59
REMARK Flexibility Score: inf
ROOT
ATOM      1  C   UNL A   1      35.796  22.619  25.392  1.00  0.00     0.245 C 
ATOM      2  O   UNL A   1      36.249  23.540  26.068  1.00  0.00    -0.272 OA
ATOM      3  N   UNL A   1      36.723  21.650  25.066  1.00  0.00    -0.354 N 
ATOM      4  H   UNL A   1      37.634  21.993  24.917  1.00  0.00     0.163 HD
ENDROOT
BRANCH   1   5
ATOM      5  C   UNL A   1      34.264  22.441  25.069  1.00  0.00     0.116 C 
ATOM      6  C   UNL A   1      33.938  23.905  24.610  1.00  0.00     0.045 C 
BRANCH   5   7
ATOM      7  C   UNL A   1      33.557  21.678  23.864  1.00  0.00     0.035 C 
ATOM      8  C   UNL A   1      32.856  20.318  23.880  1.00  0.00     0.007 C 
ENDBRANCH   5   7
BRANCH   5   9
ATOM      9  N   UNL A   1      33.616  21.975  26.313  1.00  0.00    -0.342 N 
ATOM     10  C   UNL A   1      32.478  22.489  26.905  1.00  0.00     0.221 C 
ATOM     11  H   UNL A   1      34.042  21.213  26.770  1.00  0.00     0.164 HD
ATOM     12  O   UNL A   1      32.490  22.580  28.137  1.00  0.00    -0.275 OA
BRANCH  10  13
ATOM     13  C   UNL A   1      31.166  22.764  26.136  1.00  0.00     0.105 C 
BRANCH  13  14
ATOM     14  C   UNL A   1      30.313  24.005  26.501  1.00  0.00     0.045 C 
BRANCH  14  15
ATOM     15  C   UNL A   1      30.610  25.299  25.752  1.00  0.00    -0.046 A 
ATOM     16  C   UNL A   1      30.283  25.520  24.418  1.00  0.00     0.007 A 
ATOM     17  C   UNL A   1      31.174  26.381  26.415  1.00  0.00     0.023 A 
ATOM     18  C   UNL A   1      30.510  26.784  23.827  1.00  0.00     0.048 A 
ATOM     19  C   UNL A   1      31.402  27.653  25.863  1.00  0.00     0.060 A 
ATOM     20  C   UNL A   1      31.038  27.875  24.546  1.00  0.00     0.133 A 
ATOM     21  Br  UNL A   1      32.238  28.925  27.021  1.00  0.00    -0.047 Br
BRANCH  20  22
ATOM     22  O   UNL A   1      31.152  29.022  23.810  1.00  0.00    -0.496 OA
ATOM     23  C   UNL A   1      30.173  29.281  22.808  1.00  0.00     0.278 C 
ENDBRANCH  20  22
ENDBRANCH  14  15
ENDBRANCH  13  14
ENDBRANCH  10  13
ENDBRANCH   5   9
ENDBRANCH   1   5
BRANCH   3  24
ATOM     24  C   UNL A   1      36.591  20.208  24.905  1.00  0.00     0.117 C 
BRANCH  24  25
ATOM     25  C   UNL A   1      37.866  19.388  25.001  1.00  0.00     0.042 C 
BRANCH  25  26
ATOM     26  C   UNL A   1      38.987  20.046  25.783  1.00  0.00     0.118 C 
BRANCH  26  27
ATOM     27  N   UNL A   1      40.160  19.197  25.919  1.00  0.00    -0.352 N 
ATOM     28  C   UNL A   1      41.490  19.499  26.074  1.00  0.00     0.251 C 
ATOM     29  H   UNL A   1      39.965  18.232  25.894  1.00  0.00     0.163 HD
ATOM     30  O   UNL A   1      42.326  18.611  25.941  1.00  0.00    -0.269 OA
BRANCH  28  31
ATOM     31  C   UNL A   1      41.935  20.877  26.379  1.00  0.00     0.039 A 
ATOM     32  C   UNL A   1      42.141  21.241  27.714  1.00  0.00     0.014 A 
ATOM     33  C   UNL A   1      42.076  21.836  25.376  1.00  0.00     0.014 A 
ATOM     34  C   UNL A   1      42.527  22.547  28.031  1.00  0.00     0.010 A 
ATOM     35  C   UNL A   1      42.567  23.101  25.680  1.00  0.00     0.010 A 
ATOM     36  C   UNL A   1      42.766  23.483  27.013  1.00  0.00    -0.014 A 
BRANCH  36  37
ATOM     37  C   UNL A   1      43.155  24.883  27.323  1.00  0.00     0.031 A 
ATOM     38  C   UNL A   1      44.559  25.351  27.039  1.00  0.00     0.074 A 
ATOM     39  C   UNL A   1      42.270  25.715  27.902  1.00  0.00     0.049 A 
ATOM     40  N   UNL A   1      45.115  26.510  27.289  1.00  0.00    -0.248 NA
ATOM     41  C   UNL A   1      45.472  24.373  26.424  1.00  0.00     0.031 C 
ATOM     42  C   UNL A   1      40.897  25.366  28.275  1.00  0.00     0.029 A 
ATOM     43  N   UNL A   1      42.392  27.028  28.284  1.00  0.00    -0.354 N 
ATOM     44  C   UNL A   1      46.439  26.389  26.885  1.00  0.00     0.074 A 
ATOM     45  C   UNL A   1      46.622  25.027  26.436  1.00  0.00     0.031 C 
ATOM     46  C   UNL A   1      40.297  26.445  28.803  1.00  0.00     0.029 A 
ATOM     47  C   UNL A   1      41.249  27.550  28.837  1.00  0.00     0.049 A 
ATOM     48  H   UNL A   1      43.223  27.546  28.171  1.00  0.00     0.167 HD
ATOM     49  C   UNL A   1      47.408  27.335  26.857  1.00  0.00     0.037 A 
ATOM     50  C   UNL A   1      41.001  28.784  29.317  1.00  0.00     0.037 A 
ATOM     51  C   UNL A   1      47.209  28.700  27.265  1.00  0.00     0.049 A 
ATOM     52  C   UNL A   1      42.088  29.824  29.258  1.00  0.00     0.074 A 
ATOM     53  C   UNL A   1      48.104  29.755  27.223  1.00  0.00     0.029 A 
ATOM     54  N   UNL A   1      46.026  29.200  27.790  1.00  0.00    -0.354 N 
ATOM     55  N   UNL A   1      43.314  29.717  28.809  1.00  0.00    -0.248 NA
ATOM     56  C   UNL A   1      41.749  31.163  29.761  1.00  0.00     0.031 C 
ATOM     57  C   UNL A   1      47.475  30.882  27.761  1.00  0.00     0.029 A 
ATOM     58  C   UNL A   1      46.172  30.544  28.088  1.00  0.00     0.049 A 
ATOM     59  H   UNL A   1      45.204  28.677  27.929  1.00  0.00     0.167 HD
ATOM     60  C   UNL A   1      43.882  30.977  28.942  1.00  0.00     0.074 A 
ATOM     61  C   UNL A   1      42.860  31.837  29.501  1.00  0.00     0.031 C 
ATOM     62  C   UNL A   1      45.136  31.388  28.628  1.00  0.00     0.037 A 
BRANCH  49  63
ATOM     63  C   UNL A   1      48.764  26.927  26.358  1.00  0.00     0.064 A 
ATOM     64  C   UNL A   1      49.744  26.412  27.223  1.00  0.00     0.173 A 
ATOM     65  C   UNL A   1      49.084  27.029  24.995  1.00  0.00     0.173 A 
ATOM     66  F   UNL A   1      49.496  26.305  28.537  1.00  0.00    -0.203 F 
ATOM     67  C   UNL A   1      51.003  26.052  26.748  1.00  0.00     0.198 A 
ATOM     68  C   UNL A   1      50.332  26.635  24.519  1.00  0.00     0.198 A 
ATOM     69  F   UNL A   1      48.185  27.509  24.124  1.00  0.00    -0.203 F 
ATOM     70  F   UNL A   1      51.940  25.619  27.603  1.00  0.00    -0.200 F 
ATOM     71  C   UNL A   1      51.293  26.156  25.397  1.00  0.00     0.200 A 
ATOM     72  F   UNL A   1      50.607  26.724  23.210  1.00  0.00    -0.200 F 
ATOM     73  F   UNL A   1      52.503  25.803  24.941  1.00  0.00    -0.200 F 
ENDBRANCH  49  63
BRANCH  50  74
ATOM     74  C   UNL A   1      39.655  29.116  29.854  1.00  0.00     0.064 A 
ATOM     75  C   UNL A   1      38.634  29.569  29.006  1.00  0.00     0.173 A 
ATOM     76  C   UNL A   1      39.362  28.995  31.220  1.00  0.00     0.173 A 
ATOM     77  F   UNL A   1      38.870  29.717  27.694  1.00  0.00    -0.203 F 
ATOM     78  C   UNL A   1      37.379  29.911  29.507  1.00  0.00     0.198 A 
ATOM     79  C   UNL A   1      38.098  29.311  31.716  1.00  0.00     0.198 A 
ATOM     80  F   UNL A   1      40.301  28.561  32.073  1.00  0.00    -0.203 F 
ATOM     81  F   UNL A   1      36.438  30.387  28.681  1.00  0.00    -0.200 F 
ATOM     82  C   UNL A   1      37.111  29.777  30.860  1.00  0.00     0.200 A 
ATOM     83  F   UNL A   1      37.838  29.165  33.022  1.00  0.00    -0.200 F 
ATOM     84  F   UNL A   1      35.904  30.104  31.341  1.00  0.00    -0.200 F 
ENDBRANCH  50  74
BRANCH  62  85
ATOM     85  C   UNL A   1      45.458  32.839  28.834  1.00  0.00     0.064 A 
ATOM     86  C   UNL A   1      45.156  33.809  27.866  1.00  0.00     0.173 A 
ATOM     87  C   UNL A   1      46.041  33.269  30.036  1.00  0.00     0.173 A 
ATOM     88  F   UNL A   1      44.611  33.447  26.696  1.00  0.00    -0.203 F 
ATOM     89  C   UNL A   1      45.455  35.151  28.083  1.00  0.00     0.198 A 
ATOM     90  C   UNL A   1      46.307  34.616  30.262  1.00  0.00     0.198 A 
ATOM     91  F   UNL A   1      46.339  32.382  30.998  1.00  0.00    -0.203 F 
ATOM     92  F   UNL A   1      45.207  36.053  27.124  1.00  0.00    -0.200 F 
ATOM     93  C   UNL A   1      46.022  35.554  29.282  1.00  0.00     0.200 A 
ATOM     94  F   UNL A   1      46.840  35.005  31.428  1.00  0.00    -0.200 F 
ATOM     95  F   UNL A   1      46.303  36.848  29.492  1.00  0.00    -0.200 F 
ENDBRANCH  62  85
ENDBRANCH  36  37
ENDBRANCH  28  31
ENDBRANCH  26  27
ENDBRANCH  25  26
ENDBRANCH  24  25
ENDBRANCH   3  24
TORSDOF 16
ENDMDL
MODEL 3
REMARK VINA RESULT:     -10.9      5.322      9.529
REMARK SMILES CC[C@@](C)(NC(=O)CCc1ccc(OC)c(Br)c1)C(=O)NCCCNC(=O)c1ccc(-c2c3nc(c(-c4c(F)c(F)c(F)c(F)c4F)c4ccc([nH]4)c(-c4c(F)c(F)c(F)c(F)c4F)c4nc(c(-c5c(F)c(F)c(F)c(F)c5F)c5ccc2[nH]5)C=C4)C=C3)cc1
REMARK SMILES IDX 19 1 20 2 21 3 3 5 4 6 2 7 1 8 5 9 6 10 7 12 8 13 9 14 10 15
REMARK SMILES IDX 11 16 18 17 12 18 16 19 13 20 17 21 14 22 15 23 22 24 23 25
REMARK SMILES IDX 24 26 25 27 26 28 27 30 28 31 29 32 90 33 30 34 89 35 31 36
REMARK SMILES IDX 32 37 33 38 83 39 34 40 88 41 82 42 84 43 35 44 87 45 81 46
REMARK SMILES IDX 80 47 36 49 68 50 48 51 67 52 49 53 52 54 66 55 85 56 50 57
REMARK SMILES IDX 51 58 65 60 86 61 53 62 37 63 38 64 46 65 39 66 40 67 44 68
REMARK SMILES IDX 47 69 41 70 42 71 45 72 43 73 69 74 70 75 78 76 71 77 72 78
REMARK SMILES IDX 76 79 79 80 73 81 74 82 77 83 75 84 54 85 55 86 63 87 56 88
REMARK SMILES IDX 57 89 61 90 64 91 58 92 59 93 62 94 60 95
REMARK H PARENT 21 4 5 11 25 29 84 48 52 59
REMARK Flexibility Score: inf
ROOT
ATOM      1  C   UNL A   1      32.429  29.059  24.161  1.00  0.00     0.245 C 
ATOM      2  O   UNL A   1      33.331  29.229  23.344  1.00  0.00    -0.272 OA
ATOM      3  N   UNL A   1      32.327  30.060  25.106  1.00  0.00    -0.354 N 
ATOM      4  H   UNL A   1      33.189  30.458  25.370  1.00  0.00     0.163 HD
ENDROOT
BRANCH   1   5
ATOM      5  C   UNL A   1      31.356  27.909  24.055  1.00  0.00     0.116 C 
ATOM      6  C   UNL A   1      30.191  28.722  23.390  1.00  0.00     0.045 C 
BRANCH   5   7
ATOM      7  C   UNL A   1      31.309  26.643  23.090  1.00  0.00     0.035 C 
ATOM      8  C   UNL A   1      30.534  25.337  23.274  1.00  0.00     0.007 C 
ENDBRANCH   5   7
BRANCH   5   9
ATOM      9  N   UNL A   1      31.123  27.414  25.428  1.00  0.00    -0.342 N 
ATOM     10  C   UNL A   1      31.879  26.487  26.120  1.00  0.00     0.221 C 
ATOM     11  H   UNL A   1      30.344  27.786  25.901  1.00  0.00     0.164 HD
ATOM     12  O   UNL A   1      31.257  25.663  26.797  1.00  0.00    -0.275 OA
BRANCH  10  13
ATOM     13  C   UNL A   1      33.419  26.557  26.235  1.00  0.00     0.105 C 
BRANCH  13  14
ATOM     14  C   UNL A   1      34.294  25.741  25.250  1.00  0.00     0.045 C 
BRANCH  14  15
ATOM     15  C   UNL A   1      34.140  24.225  25.272  1.00  0.00    -0.046 A 
ATOM     16  C   UNL A   1      34.606  23.409  26.297  1.00  0.00     0.007 A 
ATOM     17  C   UNL A   1      33.435  23.577  24.266  1.00  0.00     0.023 A 
ATOM     18  C   UNL A   1      34.337  22.021  26.283  1.00  0.00     0.048 A 
ATOM     19  C   UNL A   1      33.140  22.203  24.226  1.00  0.00     0.060 A 
ATOM     20  C   UNL A   1      33.575  21.404  25.270  1.00  0.00     0.133 A 
ATOM     21  Br  UNL A   1      32.188  21.600  22.681  1.00  0.00    -0.047 Br
BRANCH  20  22
ATOM     22  O   UNL A   1      33.396  20.060  25.450  1.00  0.00    -0.496 OA
ATOM     23  C   UNL A   1      34.223  19.164  24.715  1.00  0.00     0.278 C 
ENDBRANCH  20  22
ENDBRANCH  14  15
ENDBRANCH  13  14
ENDBRANCH  10  13
ENDBRANCH   5   9
ENDBRANCH   1   5
BRANCH   3  24
ATOM     24  C   UNL A   1      31.170  30.634  25.778  1.00  0.00     0.117 C 
BRANCH  24  25
ATOM     25  C   UNL A   1      31.261  32.097  26.172  1.00  0.00     0.042 C 
BRANCH  25  26
ATOM     26  C   UNL A   1      32.433  32.441  27.073  1.00  0.00     0.118 C 
BRANCH  26  27
ATOM     27  N   UNL A   1      32.437  33.833  27.493  1.00  0.00    -0.352 N 
ATOM     28  C   UNL A   1      33.165  34.492  28.453  1.00  0.00     0.251 C 
ATOM     29  H   UNL A   1      31.804  34.406  27.002  1.00  0.00     0.163 HD
ATOM     30  O   UNL A   1      32.834  35.627  28.783  1.00  0.00    -0.269 OA
BRANCH  28  31
ATOM     31  C   UNL A   1      34.326  33.854  29.111  1.00  0.00     0.039 A 
ATOM     32  C   UNL A   1      35.614  34.174  28.668  1.00  0.00     0.014 A 
ATOM     33  C   UNL A   1      34.162  32.887  30.103  1.00  0.00     0.014 A 
ATOM     34  C   UNL A   1      36.727  33.558  29.249  1.00  0.00     0.010 A 
ATOM     35  C   UNL A   1      35.269  32.357  30.756  1.00  0.00     0.010 A 
ATOM     36  C   UNL A   1      36.564  32.660  30.315  1.00  0.00    -0.014 A 
BRANCH  36  37
ATOM     37  C   UNL A   1      37.728  31.974  30.935  1.00  0.00     0.031 A 
ATOM     38  C   UNL A   1      38.161  32.346  32.330  1.00  0.00     0.074 A 
ATOM     39  C   UNL A   1      38.422  31.060  30.234  1.00  0.00     0.049 A 
ATOM     40  N   UNL A   1      39.181  31.912  33.027  1.00  0.00    -0.248 NA
ATOM     41  C   UNL A   1      37.360  33.371  33.022  1.00  0.00     0.031 C 
ATOM     42  C   UNL A   1      38.136  30.651  28.857  1.00  0.00     0.029 A 
ATOM     43  N   UNL A   1      39.518  30.309  30.580  1.00  0.00    -0.354 N 
ATOM     44  C   UNL A   1      39.154  32.625  34.220  1.00  0.00     0.074 A 
ATOM     45  C   UNL A   1      38.061  33.565  34.127  1.00  0.00     0.031 C 
ATOM     46  C   UNL A   1      39.012  29.704  28.488  1.00  0.00     0.029 A 
ATOM     47  C   UNL A   1      39.942  29.462  29.586  1.00  0.00     0.049 A 
ATOM     48  H   UNL A   1      39.958  30.372  31.459  1.00  0.00     0.167 HD
ATOM     49  C   UNL A   1      39.948  32.486  35.308  1.00  0.00     0.037 A 
ATOM     50  C   UNL A   1      40.967  28.588  29.567  1.00  0.00     0.037 A 
ATOM     51  C   UNL A   1      41.009  31.520  35.412  1.00  0.00     0.049 A 
ATOM     52  C   UNL A   1      41.824  28.438  30.797  1.00  0.00     0.074 A 
ATOM     53  C   UNL A   1      41.835  31.254  36.490  1.00  0.00     0.029 A 
ATOM     54  N   UNL A   1      41.387  30.656  34.394  1.00  0.00    -0.354 N 
ATOM     55  N   UNL A   1      41.745  29.068  31.943  1.00  0.00    -0.248 NA
ATOM     56  C   UNL A   1      42.904  27.444  30.732  1.00  0.00     0.031 C 
ATOM     57  C   UNL A   1      42.740  30.259  36.110  1.00  0.00     0.029 A 
ATOM     58  C   UNL A   1      42.443  29.865  34.815  1.00  0.00     0.049 A 
ATOM     59  H   UNL A   1      40.966  30.610  33.506  1.00  0.00     0.167 HD
ATOM     60  C   UNL A   1      42.738  28.525  32.747  1.00  0.00     0.074 A 
ATOM     61  C   UNL A   1      43.398  27.503  31.960  1.00  0.00     0.031 C 
ATOM     62  C   UNL A   1      43.075  28.841  34.022  1.00  0.00     0.037 A 
BRANCH  49  63
ATOM     63  C   UNL A   1      39.689  33.394  36.477  1.00  0.00     0.064 A 
ATOM     64  C   UNL A   1      40.282  34.663  36.571  1.00  0.00     0.173 A 
ATOM     65  C   UNL A   1      38.821  33.001  37.507  1.00  0.00     0.173 A 
ATOM     66  F   UNL A   1      41.131  35.083  35.620  1.00  0.00    -0.203 F 
ATOM     67  C   UNL A   1      40.045  35.488  37.668  1.00  0.00     0.198 A 
ATOM     68  C   UNL A   1      38.558  33.842  38.586  1.00  0.00     0.198 A 
ATOM     69  F   UNL A   1      38.222  31.801  37.467  1.00  0.00    -0.203 F 
ATOM     70  F   UNL A   1      40.669  36.670  37.762  1.00  0.00    -0.200 F 
ATOM     71  C   UNL A   1      39.178  35.080  38.669  1.00  0.00     0.200 A 
ATOM     72  F   UNL A   1      37.710  33.453  39.547  1.00  0.00    -0.200 F 
ATOM     73  F   UNL A   1      38.945  35.877  39.722  1.00  0.00    -0.200 F 
ENDBRANCH  49  63
BRANCH  50  74
ATOM     74  C   UNL A   1      41.213  27.757  28.360  1.00  0.00     0.064 A 
ATOM     75  C   UNL A   1      42.036  28.221  27.323  1.00  0.00     0.173 A 
ATOM     76  C   UNL A   1      40.631  26.490  28.211  1.00  0.00     0.173 A 
ATOM     77  F   UNL A   1      42.603  29.434  27.410  1.00  0.00    -0.203 F 
ATOM     78  C   UNL A   1      42.247  27.461  26.174  1.00  0.00     0.198 A 
ATOM     79  C   UNL A   1      40.866  25.718  27.075  1.00  0.00     0.198 A 
ATOM     80  F   UNL A   1      39.842  25.996  29.176  1.00  0.00    -0.203 F 
ATOM     81  F   UNL A   1      42.999  27.950  25.179  1.00  0.00    -0.200 F 
ATOM     82  C   UNL A   1      41.667  26.209  26.053  1.00  0.00     0.200 A 
ATOM     83  F   UNL A   1      40.316  24.501  26.968  1.00  0.00    -0.200 F 
ATOM     84  F   UNL A   1      41.872  25.476  24.950  1.00  0.00    -0.200 F 
ENDBRANCH  50  74
BRANCH  62  85
ATOM     85  C   UNL A   1      44.171  28.041  34.664  1.00  0.00     0.064 A 
ATOM     86  C   UNL A   1      43.905  26.874  35.395  1.00  0.00     0.173 A 
ATOM     87  C   UNL A   1      45.510  28.430  34.510  1.00  0.00     0.173 A 
ATOM     88  F   UNL A   1      42.640  26.469  35.582  1.00  0.00    -0.203 F 
ATOM     89  C   UNL A   1      44.938  26.142  35.974  1.00  0.00     0.198 A 
ATOM     90  C   UNL A   1      46.543  27.678  35.063  1.00  0.00     0.198 A 
ATOM     91  F   UNL A   1      45.819  29.534  33.812  1.00  0.00    -0.203 F 
ATOM     92  F   UNL A   1      44.657  25.060  36.712  1.00  0.00    -0.200 F 
ATOM     93  C   UNL A   1      46.255  26.540  35.801  1.00  0.00     0.200 A 
ATOM     94  F   UNL A   1      47.816  28.055  34.880  1.00  0.00    -0.200 F 
ATOM     95  F   UNL A   1      47.249  25.831  36.353  1.00  0.00    -0.200 F 
ENDBRANCH  62  85
ENDBRANCH  36  37
ENDBRANCH  28  31
ENDBRANCH  26  27
ENDBRANCH  25  26
ENDBRANCH  24  25
ENDBRANCH   3  24
TORSDOF 16
ENDMDL
