MODEL 1
REMARK VINA RESULT:     -13.0      0.000      0.000
REMARK SMILES CCN(C(=O)Cc1c(C(=O)NCCCNC(=O)c2ccc(-c3c4nc(c(-c5c(F)c(F)c(F)c(F)c5F)c5ccc([nH]5)c(-c5c(F)c(F)c(F)c(F)c5F)c5nc(c(-c6c(F)c(F)c(F)c(F)c6F)c6ccc3[nH]6)C=C5)C=C4)cc2)[nH]c2ccc(Cl)cc12)c1ccc(C)c(C)c1
REMARK SMILES IDX 12 1 11 2 9 3 10 4 8 6 7 7 88 8 81 9 82 10 87 11 83 13 85 14
REMARK SMILES IDX 84 15 86 16 6 17 4 18 5 19 3 20 2 21 1 22 89 23 90 24 96 25
REMARK SMILES IDX 91 26 94 27 92 28 95 29 93 30 13 31 14 32 15 33 16 34 17 36
REMARK SMILES IDX 18 37 19 38 80 39 20 40 79 41 21 42 22 43 23 44 73 45 24 46
REMARK SMILES IDX 78 47 72 48 74 49 25 50 77 51 71 52 70 53 26 55 58 56 38 57
REMARK SMILES IDX 57 58 39 59 42 60 56 61 75 62 40 63 41 64 55 66 76 67 43 68
REMARK SMILES IDX 27 69 28 70 36 71 29 72 30 73 34 74 37 75 31 76 32 77 35 78
REMARK SMILES IDX 33 79 59 80 60 81 68 82 61 83 62 84 66 85 69 86 63 87 64 88
REMARK SMILES IDX 67 89 65 90 44 91 45 92 53 93 46 94 47 95 51 96 54 97 48 98
REMARK SMILES IDX 49 99 52 100 50 101
REMARK H PARENT 11 5 81 12 15 35 74 54 42 65
REMARK Flexibility Score: inf
ROOT
ATOM      1  C   UNL A   1      31.290  30.608  25.469  1.00  0.00     0.118 C 
ENDROOT
BRANCH   1   2
ATOM      2  N   UNL A   1      30.455  30.505  24.298  1.00  0.00    -0.351 N 
ATOM      3  C   UNL A   1      30.115  29.560  23.382  1.00  0.00     0.268 C 
ATOM      4  O   UNL A   1      29.252  29.951  22.585  1.00  0.00    -0.268 OA
ATOM      5  H   UNL A   1      30.006  31.360  24.107  1.00  0.00     0.163 HD
BRANCH   3   6
ATOM      6  C   UNL A   1      30.619  28.201  23.256  1.00  0.00     0.109 A 
ATOM      7  C   UNL A   1      30.772  27.021  23.994  1.00  0.00    -0.000 A 
ATOM      8  C   UNL A   1      31.500  26.080  23.168  1.00  0.00     0.005 A 
ATOM      9  N   UNL A   1      31.115  27.896  21.991  1.00  0.00    -0.350 N 
ATOM     10  C   UNL A   1      31.666  26.651  21.918  1.00  0.00     0.046 A 
ATOM     11  C   UNL A   1      32.031  24.788  23.388  1.00  0.00     0.031 A 
ATOM     12  H   UNL A   1      31.073  28.516  21.228  1.00  0.00     0.167 HD
ATOM     13  C   UNL A   1      32.297  26.005  20.850  1.00  0.00     0.028 A 
ATOM     14  C   UNL A   1      32.699  24.140  22.344  1.00  0.00     0.041 A 
ATOM     15  C   UNL A   1      32.821  24.731  21.091  1.00  0.00     0.022 A 
ATOM     16  Cl  UNL A   1      33.394  22.589  22.620  1.00  0.00    -0.084 Cl
BRANCH   7  17
ATOM     17  C   UNL A   1      30.386  26.657  25.389  1.00  0.00     0.139 C 
BRANCH  17  18
ATOM     18  C   UNL A   1      31.399  27.005  26.484  1.00  0.00     0.231 C 
ATOM     19  O   UNL A   1      30.926  27.405  27.559  1.00  0.00    -0.274 OA
BRANCH  18  20
ATOM     20  N   UNL A   1      32.778  26.830  26.294  1.00  0.00    -0.312 N 
BRANCH  20  21
ATOM     21  C   UNL A   1      33.751  27.884  25.964  1.00  0.00     0.122 C 
ATOM     22  C   UNL A   1      34.178  28.819  27.083  1.00  0.00     0.028 C 
ENDBRANCH  20  21
BRANCH  20  23
ATOM     23  C   UNL A   1      33.304  25.497  26.266  1.00  0.00     0.044 A 
ATOM     24  C   UNL A   1      32.586  24.426  26.801  1.00  0.00     0.026 A 
ATOM     25  C   UNL A   1      34.541  25.239  25.672  1.00  0.00     0.030 A 
ATOM     26  C   UNL A   1      33.101  23.128  26.732  1.00  0.00     0.006 A 
ATOM     27  C   UNL A   1      35.075  23.943  25.593  1.00  0.00    -0.046 A 
ATOM     28  C   UNL A   1      34.346  22.872  26.135  1.00  0.00    -0.048 A 
ATOM     29  C   UNL A   1      36.430  23.769  24.967  1.00  0.00     0.044 C 
ATOM     30  C   UNL A   1      34.864  21.460  26.160  1.00  0.00     0.044 C 
ENDBRANCH  20  23
ENDBRANCH  18  20
ENDBRANCH  17  18
ENDBRANCH   7  17
ENDBRANCH   3   6
ENDBRANCH   1   2
BRANCH   1  31
ATOM     31  C   UNL A   1      31.048  31.887  26.253  1.00  0.00     0.042 C 
BRANCH  31  32
ATOM     32  C   UNL A   1      32.336  32.401  26.869  1.00  0.00     0.118 C 
BRANCH  32  33
ATOM     33  N   UNL A   1      32.203  33.765  27.378  1.00  0.00    -0.352 N 
ATOM     34  C   UNL A   1      32.972  34.437  28.295  1.00  0.00     0.251 C 
ATOM     35  H   UNL A   1      31.450  34.278  27.008  1.00  0.00     0.163 HD
ATOM     36  O   UNL A   1      32.626  35.547  28.688  1.00  0.00    -0.269 OA
BRANCH  34  37
ATOM     37  C   UNL A   1      34.190  33.804  28.830  1.00  0.00     0.039 A 
ATOM     38  C   UNL A   1      35.421  34.434  28.631  1.00  0.00     0.014 A 
ATOM     39  C   UNL A   1      34.115  32.612  29.554  1.00  0.00     0.014 A 
ATOM     40  C   UNL A   1      36.566  33.903  29.223  1.00  0.00     0.010 A 
ATOM     41  C   UNL A   1      35.231  32.151  30.234  1.00  0.00     0.010 A 
ATOM     42  C   UNL A   1      36.471  32.783  30.063  1.00  0.00    -0.014 A 
BRANCH  42  43
ATOM     43  C   UNL A   1      37.655  32.225  30.756  1.00  0.00     0.031 A 
ATOM     44  C   UNL A   1      38.461  31.144  30.090  1.00  0.00     0.074 A 
ATOM     45  C   UNL A   1      37.947  32.628  32.007  1.00  0.00     0.049 A 
ATOM     46  N   UNL A   1      39.456  30.440  30.566  1.00  0.00    -0.248 NA
ATOM     47  C   UNL A   1      38.067  30.774  28.721  1.00  0.00     0.031 C 
ATOM     48  C   UNL A   1      37.197  33.623  32.775  1.00  0.00     0.029 A 
ATOM     49  N   UNL A   1      38.948  32.237  32.858  1.00  0.00    -0.354 N 
ATOM     50  C   UNL A   1      39.780  29.530  29.569  1.00  0.00     0.074 A 
ATOM     51  C   UNL A   1      38.840  29.725  28.489  1.00  0.00     0.031 C 
ATOM     52  C   UNL A   1      37.780  33.786  33.973  1.00  0.00     0.029 A 
ATOM     53  C   UNL A   1      38.920  32.880  34.072  1.00  0.00     0.049 A 
ATOM     54  H   UNL A   1      39.624  31.561  32.622  1.00  0.00     0.167 HD
ATOM     55  C   UNL A   1      40.793  28.633  29.545  1.00  0.00     0.037 A 
ATOM     56  C   UNL A   1      39.723  32.745  35.144  1.00  0.00     0.037 A 
ATOM     57  C   UNL A   1      41.754  28.483  30.604  1.00  0.00     0.049 A 
ATOM     58  C   UNL A   1      40.862  31.765  35.079  1.00  0.00     0.074 A 
ATOM     59  C   UNL A   1      42.862  27.658  30.653  1.00  0.00     0.029 A 
ATOM     60  N   UNL A   1      41.720  29.185  31.800  1.00  0.00    -0.354 N 
ATOM     61  N   UNL A   1      41.201  30.955  34.105  1.00  0.00    -0.248 NA
ATOM     62  C   UNL A   1      41.734  31.686  36.258  1.00  0.00     0.031 C 
ATOM     63  C   UNL A   1      43.481  27.835  31.895  1.00  0.00     0.029 A 
ATOM     64  C   UNL A   1      42.783  28.803  32.601  1.00  0.00     0.049 A 
ATOM     65  H   UNL A   1      41.042  29.856  32.044  1.00  0.00     0.167 HD
ATOM     66  C   UNL A   1      42.338  30.290  34.541  1.00  0.00     0.074 A 
ATOM     67  C   UNL A   1      42.640  30.803  35.862  1.00  0.00     0.031 C 
ATOM     68  C   UNL A   1      43.067  29.337  33.909  1.00  0.00     0.037 A 
BRANCH  55  69
ATOM     69  C   UNL A   1      40.919  27.759  28.331  1.00  0.00     0.064 A 
ATOM     70  C   UNL A   1      41.697  28.140  27.227  1.00  0.00     0.173 A 
ATOM     71  C   UNL A   1      40.272  26.516  28.279  1.00  0.00     0.173 A 
ATOM     72  F   UNL A   1      42.323  29.328  27.220  1.00  0.00    -0.203 F 
ATOM     73  C   UNL A   1      41.798  27.323  26.105  1.00  0.00     0.198 A 
ATOM     74  C   UNL A   1      40.402  25.687  27.167  1.00  0.00     0.198 A 
ATOM     75  F   UNL A   1      39.517  26.101  29.307  1.00  0.00    -0.203 F 
ATOM     76  F   UNL A   1      42.502  27.735  25.040  1.00  0.00    -0.200 F 
ATOM     77  C   UNL A   1      41.157  26.094  26.078  1.00  0.00     0.200 A 
ATOM     78  F   UNL A   1      39.790  24.495  27.148  1.00  0.00    -0.200 F 
ATOM     79  F   UNL A   1      41.260  25.306  24.999  1.00  0.00    -0.200 F 
ENDBRANCH  55  69
BRANCH  56  80
ATOM     80  C   UNL A   1      39.499  33.584  36.349  1.00  0.00     0.064 A 
ATOM     81  C   UNL A   1      40.055  34.867  36.443  1.00  0.00     0.173 A 
ATOM     82  C   UNL A   1      38.727  33.127  37.427  1.00  0.00     0.173 A 
ATOM     83  F   UNL A   1      40.814  35.341  35.444  1.00  0.00    -0.203 F 
ATOM     84  C   UNL A   1      39.864  35.654  37.577  1.00  0.00     0.198 A 
ATOM     85  C   UNL A   1      38.515  33.925  38.549  1.00  0.00     0.198 A 
ATOM     86  F   UNL A   1      38.168  31.909  37.383  1.00  0.00    -0.203 F 
ATOM     87  F   UNL A   1      40.443  36.860  37.658  1.00  0.00    -0.200 F 
ATOM     88  C   UNL A   1      39.091  35.184  38.627  1.00  0.00     0.200 A 
ATOM     89  F   UNL A   1      37.755  33.473  39.556  1.00  0.00    -0.200 F 
ATOM     90  F   UNL A   1      38.905  35.941  39.716  1.00  0.00    -0.200 F 
ENDBRANCH  56  80
BRANCH  68  91
ATOM     91  C   UNL A   1      44.279  28.816  34.621  1.00  0.00     0.064 A 
ATOM     92  C   UNL A   1      44.219  27.678  35.436  1.00  0.00     0.173 A 
ATOM     93  C   UNL A   1      45.525  29.439  34.447  1.00  0.00     0.173 A 
ATOM     94  F   UNL A   1      43.048  27.057  35.644  1.00  0.00    -0.203 F 
ATOM     95  C   UNL A   1      45.360  27.193  36.070  1.00  0.00     0.198 A 
ATOM     96  C   UNL A   1      46.667  28.935  35.059  1.00  0.00     0.198 A 
ATOM     97  F   UNL A   1      45.634  30.527  33.670  1.00  0.00    -0.203 F 
ATOM     98  F   UNL A   1      45.272  26.130  36.880  1.00  0.00    -0.200 F 
ATOM     99  C   UNL A   1      46.584  27.817  35.875  1.00  0.00     0.200 A 
ATOM    100  F   UNL A   1      47.852  29.531  34.858  1.00  0.00    -0.200 F 
ATOM    101  F   UNL A   1      47.681  27.343  36.480  1.00  0.00    -0.200 F 
ENDBRANCH  68  91
ENDBRANCH  42  43
ENDBRANCH  34  37
ENDBRANCH  32  33
ENDBRANCH  31  32
ENDBRANCH   1  31
TORSDOF 15
ENDMDL
MODEL 2
REMARK VINA RESULT:     -12.8      1.254      3.265
REMARK SMILES CCN(C(=O)Cc1c(C(=O)NCCCNC(=O)c2ccc(-c3c4nc(c(-c5c(F)c(F)c(F)c(F)c5F)c5ccc([nH]5)c(-c5c(F)c(F)c(F)c(F)c5F)c5nc(c(-c6c(F)c(F)c(F)c(F)c6F)c6ccc3[nH]6)C=C5)C=C4)cc2)[nH]c2ccc(Cl)cc12)c1ccc(C)c(C)c1
REMARK SMILES IDX 12 1 11 2 9 3 10 4 8 6 7 7 88 8 81 9 82 10 87 11 83 13 85 14
REMARK SMILES IDX 84 15 86 16 6 17 4 18 5 19 3 20 2 21 1 22 89 23 90 24 96 25
REMARK SMILES IDX 91 26 94 27 92 28 95 29 93 30 13 31 14 32 15 33 16 34 17 36
REMARK SMILES IDX 18 37 19 38 80 39 20 40 79 41 21 42 22 43 23 44 73 45 24 46
REMARK SMILES IDX 78 47 72 48 74 49 25 50 77 51 71 52 70 53 26 55 58 56 38 57
REMARK SMILES IDX 57 58 39 59 42 60 56 61 75 62 40 63 41 64 55 66 76 67 43 68
REMARK SMILES IDX 27 69 28 70 36 71 29 72 30 73 34 74 37 75 31 76 32 77 35 78
REMARK SMILES IDX 33 79 59 80 60 81 68 82 61 83 62 84 66 85 69 86 63 87 64 88
REMARK SMILES IDX 67 89 65 90 44 91 45 92 53 93 46 94 47 95 51 96 54 97 48 98
REMARK SMILES IDX 49 99 52 100 50 101
REMARK H PARENT 11 5 81 12 15 35 74 54 42 65
REMARK Flexibility Score: inf
ROOT
ATOM      1  C   UNL A   1      31.784  29.972  26.204  1.00  0.00     0.118 C 
ENDROOT
BRANCH   1   2
ATOM      2  N   UNL A   1      32.671  29.696  25.102  1.00  0.00    -0.351 N 
ATOM      3  C   UNL A   1      33.306  28.621  24.564  1.00  0.00     0.268 C 
ATOM      4  O   UNL A   1      33.909  28.893  23.516  1.00  0.00    -0.268 OA
ATOM      5  H   UNL A   1      32.874  30.516  24.597  1.00  0.00     0.163 HD
BRANCH   3   6
ATOM      6  C   UNL A   1      33.340  27.252  25.054  1.00  0.00     0.109 A 
ATOM      7  C   UNL A   1      32.587  26.346  25.811  1.00  0.00    -0.000 A 
ATOM      8  C   UNL A   1      33.375  25.140  25.960  1.00  0.00     0.005 A 
ATOM      9  N   UNL A   1      34.464  26.534  24.656  1.00  0.00    -0.350 N 
ATOM     10  C   UNL A   1      34.522  25.285  25.199  1.00  0.00     0.046 A 
ATOM     11  C   UNL A   1      33.201  23.938  26.684  1.00  0.00     0.031 A 
ATOM     12  H   UNL A   1      35.148  26.892  24.045  1.00  0.00     0.167 HD
ATOM     13  C   UNL A   1      35.501  24.293  25.078  1.00  0.00     0.028 A 
ATOM     14  C   UNL A   1      34.187  22.948  26.606  1.00  0.00     0.041 A 
ATOM     15  C   UNL A   1      35.313  23.115  25.807  1.00  0.00     0.022 A 
ATOM     16  Cl  UNL A   1      34.008  21.503  27.527  1.00  0.00    -0.084 Cl
BRANCH   7  17
ATOM     17  C   UNL A   1      31.253  26.459  26.471  1.00  0.00     0.139 C 
BRANCH  17  18
ATOM     18  C   UNL A   1      30.110  25.668  25.828  1.00  0.00     0.231 C 
ATOM     19  O   UNL A   1      29.350  25.073  26.607  1.00  0.00    -0.274 OA
BRANCH  18  20
ATOM     20  N   UNL A   1      29.909  25.662  24.439  1.00  0.00    -0.312 N 
BRANCH  20  21
ATOM     21  C   UNL A   1      30.346  24.615  23.501  1.00  0.00     0.122 C 
ATOM     22  C   UNL A   1      30.984  23.368  24.090  1.00  0.00     0.028 C 
ENDBRANCH  20  21
BRANCH  20  23
ATOM     23  C   UNL A   1      29.361  26.833  23.820  1.00  0.00     0.044 A 
ATOM     24  C   UNL A   1      27.988  27.084  23.837  1.00  0.00     0.026 A 
ATOM     25  C   UNL A   1      30.201  27.767  23.210  1.00  0.00     0.030 A 
ATOM     26  C   UNL A   1      27.477  28.250  23.258  1.00  0.00     0.006 A 
ATOM     27  C   UNL A   1      29.706  28.943  22.623  1.00  0.00    -0.046 A 
ATOM     28  C   UNL A   1      28.324  29.186  22.644  1.00  0.00    -0.048 A 
ATOM     29  C   UNL A   1      30.685  29.871  21.959  1.00  0.00     0.044 C 
ATOM     30  C   UNL A   1      27.693  30.381  21.984  1.00  0.00     0.044 C 
ENDBRANCH  20  23
ENDBRANCH  18  20
ENDBRANCH  17  18
ENDBRANCH   7  17
ENDBRANCH   3   6
ENDBRANCH   1   2
BRANCH   1  31
ATOM     31  C   UNL A   1      31.502  31.455  26.375  1.00  0.00     0.042 C 
BRANCH  31  32
ATOM     32  C   UNL A   1      32.670  32.160  27.039  1.00  0.00     0.118 C 
BRANCH  32  33
ATOM     33  N   UNL A   1      32.385  33.565  27.323  1.00  0.00    -0.352 N 
ATOM     34  C   UNL A   1      32.970  34.413  28.229  1.00  0.00     0.251 C 
ATOM     35  H   UNL A   1      31.665  33.962  26.782  1.00  0.00     0.163 HD
ATOM     36  O   UNL A   1      32.505  35.535  28.406  1.00  0.00    -0.269 OA
BRANCH  34  37
ATOM     37  C   UNL A   1      34.131  33.955  29.012  1.00  0.00     0.039 A 
ATOM     38  C   UNL A   1      33.927  33.046  30.053  1.00  0.00     0.014 A 
ATOM     39  C   UNL A   1      35.419  34.394  28.699  1.00  0.00     0.014 A 
ATOM     40  C   UNL A   1      35.027  32.523  30.732  1.00  0.00     0.010 A 
ATOM     41  C   UNL A   1      36.514  33.789  29.295  1.00  0.00     0.010 A 
ATOM     42  C   UNL A   1      36.328  32.859  30.328  1.00  0.00    -0.014 A 
BRANCH  42  43
ATOM     43  C   UNL A   1      37.523  32.279  30.986  1.00  0.00     0.031 A 
ATOM     44  C   UNL A   1      38.297  31.194  30.291  1.00  0.00     0.074 A 
ATOM     45  C   UNL A   1      37.850  32.667  32.233  1.00  0.00     0.049 A 
ATOM     46  N   UNL A   1      39.294  30.473  30.736  1.00  0.00    -0.248 NA
ATOM     47  C   UNL A   1      37.864  30.842  28.929  1.00  0.00     0.031 C 
ATOM     48  C   UNL A   1      37.132  33.665  33.028  1.00  0.00     0.029 A 
ATOM     49  N   UNL A   1      38.867  32.255  33.056  1.00  0.00    -0.354 N 
ATOM     50  C   UNL A   1      39.582  29.568  29.723  1.00  0.00     0.074 A 
ATOM     51  C   UNL A   1      38.618  29.785  28.668  1.00  0.00     0.031 C 
ATOM     52  C   UNL A   1      37.747  33.809  34.213  1.00  0.00     0.029 A 
ATOM     53  C   UNL A   1      38.877  32.887  34.275  1.00  0.00     0.049 A 
ATOM     54  H   UNL A   1      39.528  31.573  32.798  1.00  0.00     0.167 HD
ATOM     55  C   UNL A   1      40.582  28.658  29.667  1.00  0.00     0.037 A 
ATOM     56  C   UNL A   1      39.705  32.732  35.326  1.00  0.00     0.037 A 
ATOM     57  C   UNL A   1      41.567  28.486  30.700  1.00  0.00     0.049 A 
ATOM     58  C   UNL A   1      40.829  31.739  35.224  1.00  0.00     0.074 A 
ATOM     59  C   UNL A   1      42.665  27.646  30.714  1.00  0.00     0.029 A 
ATOM     60  N   UNL A   1      41.572  29.178  31.903  1.00  0.00    -0.354 N 
ATOM     61  N   UNL A   1      41.133  30.932  34.235  1.00  0.00    -0.248 NA
ATOM     62  C   UNL A   1      41.728  31.637  36.380  1.00  0.00     0.031 C 
ATOM     63  C   UNL A   1      43.316  27.803  31.942  1.00  0.00     0.029 A 
ATOM     64  C   UNL A   1      42.649  28.774  32.674  1.00  0.00     0.049 A 
ATOM     65  H   UNL A   1      40.909  29.855  32.169  1.00  0.00     0.167 HD
ATOM     66  C   UNL A   1      42.272  30.249  34.637  1.00  0.00     0.074 A 
ATOM     67  C   UNL A   1      42.613  30.746  35.954  1.00  0.00     0.031 C 
ATOM     68  C   UNL A   1      42.972  29.293  33.978  1.00  0.00     0.037 A 
BRANCH  55  69
ATOM     69  C   UNL A   1      40.666  27.794  28.442  1.00  0.00     0.064 A 
ATOM     70  C   UNL A   1      41.411  28.181  27.317  1.00  0.00     0.173 A 
ATOM     71  C   UNL A   1      40.013  26.554  28.400  1.00  0.00     0.173 A 
ATOM     72  F   UNL A   1      42.041  29.366  27.300  1.00  0.00    -0.203 F 
ATOM     73  C   UNL A   1      41.474  27.373  26.186  1.00  0.00     0.198 A 
ATOM     74  C   UNL A   1      40.104  25.734  27.278  1.00  0.00     0.198 A 
ATOM     75  F   UNL A   1      39.288  26.134  29.447  1.00  0.00    -0.203 F 
ATOM     76  F   UNL A   1      42.146  27.790  25.104  1.00  0.00    -0.200 F 
ATOM     77  C   UNL A   1      40.828  26.147  26.169  1.00  0.00     0.200 A 
ATOM     78  F   UNL A   1      39.487  24.544  27.268  1.00  0.00    -0.200 F 
ATOM     79  F   UNL A   1      40.893  25.367  25.081  1.00  0.00    -0.200 F 
ENDBRANCH  55  69
BRANCH  56  80
ATOM     80  C   UNL A   1      39.521  33.563  36.544  1.00  0.00     0.064 A 
ATOM     81  C   UNL A   1      38.718  33.115  37.602  1.00  0.00     0.173 A 
ATOM     82  C   UNL A   1      40.142  34.813  36.679  1.00  0.00     0.173 A 
ATOM     83  F   UNL A   1      38.090  31.933  37.511  1.00  0.00    -0.203 F 
ATOM     84  C   UNL A   1      38.526  33.895  38.741  1.00  0.00     0.198 A 
ATOM     85  C   UNL A   1      39.970  35.580  37.830  1.00  0.00     0.198 A 
ATOM     86  F   UNL A   1      40.926  35.283  35.699  1.00  0.00    -0.203 F 
ATOM     87  F   UNL A   1      37.717  33.461  39.718  1.00  0.00    -0.200 F 
ATOM     88  C   UNL A   1      39.155  35.124  38.856  1.00  0.00     0.200 A 
ATOM     89  F   UNL A   1      40.592  36.761  37.944  1.00  0.00    -0.200 F 
ATOM     90  F   UNL A   1      38.973  35.873  39.952  1.00  0.00    -0.200 F 
ENDBRANCH  56  80
BRANCH  68  91
ATOM     91  C   UNL A   1      44.194  28.750  34.656  1.00  0.00     0.064 A 
ATOM     92  C   UNL A   1      44.138  27.610  35.470  1.00  0.00     0.173 A 
ATOM     93  C   UNL A   1      45.445  29.352  34.449  1.00  0.00     0.173 A 
ATOM     94  F   UNL A   1      42.962  27.009  35.709  1.00  0.00    -0.203 F 
ATOM     95  C   UNL A   1      45.287  27.105  36.072  1.00  0.00     0.198 A 
ATOM     96  C   UNL A   1      46.595  28.827  35.028  1.00  0.00     0.198 A 
ATOM     97  F   UNL A   1      45.551  30.440  33.671  1.00  0.00    -0.203 F 
ATOM     98  F   UNL A   1      45.203  26.041  36.881  1.00  0.00    -0.200 F 
ATOM     99  C   UNL A   1      46.515  27.709  35.844  1.00  0.00     0.200 A 
ATOM    100  F   UNL A   1      47.783  29.403  34.795  1.00  0.00    -0.200 F 
ATOM    101  F   UNL A   1      47.621  27.215  36.417  1.00  0.00    -0.200 F 
ENDBRANCH  68  91
ENDBRANCH  42  43
ENDBRANCH  34  37
ENDBRANCH  32  33
ENDBRANCH  31  32
ENDBRANCH   1  31
TORSDOF 15
ENDMDL
MODEL 3
REMARK VINA RESULT:     -12.7      1.164      3.719
REMARK SMILES CCN(C(=O)Cc1c(C(=O)NCCCNC(=O)c2ccc(-c3c4nc(c(-c5c(F)c(F)c(F)c(F)c5F)c5ccc([nH]5)c(-c5c(F)c(F)c(F)c(F)c5F)c5nc(c(-c6c(F)c(F)c(F)c(F)c6F)c6ccc3[nH]6)C=C5)C=C4)cc2)[nH]c2ccc(Cl)cc12)c1ccc(C)c(C)c1
REMARK SMILES IDX 12 1 11 2 9 3 10 4 8 6 7 7 88 8 81 9 82 10 87 11 83 13 85 14
REMARK SMILES IDX 84 15 86 16 6 17 4 18 5 19 3 20 2 21 1 22 89 23 90 24 96 25
REMARK SMILES IDX 91 26 94 27 92 28 95 29 93 30 13 31 14 32 15 33 16 34 17 36
REMARK SMILES IDX 18 37 19 38 80 39 20 40 79 41 21 42 22 43 23 44 73 45 24 46
REMARK SMILES IDX 78 47 72 48 74 49 25 50 77 51 71 52 70 53 26 55 58 56 38 57
REMARK SMILES IDX 57 58 39 59 42 60 56 61 75 62 40 63 41 64 55 66 76 67 43 68
REMARK SMILES IDX 27 69 28 70 36 71 29 72 30 73 34 74 37 75 31 76 32 77 35 78
REMARK SMILES IDX 33 79 59 80 60 81 68 82 61 83 62 84 66 85 69 86 63 87 64 88
REMARK SMILES IDX 67 89 65 90 44 91 45 92 53 93 46 94 47 95 51 96 54 97 48 98
REMARK SMILES IDX 49 99 52 100 50 101
REMARK H PARENT 11 5 81 12 15 35 74 54 42 65
REMARK Flexibility Score: inf
ROOT
ATOM      1  C   UNL A   1      32.135  30.378  25.947  1.00  0.00     0.118 C 
ENDROOT
BRANCH   1   2
ATOM      2  N   UNL A   1      31.474  29.307  26.652  1.00  0.00    -0.351 N 
ATOM      3  C   UNL A   1      31.615  27.964  26.807  1.00  0.00     0.268 C 
ATOM      4  O   UNL A   1      30.816  27.488  27.625  1.00  0.00    -0.268 OA
ATOM      5  H   UNL A   1      30.704  29.644  27.165  1.00  0.00     0.163 HD
BRANCH   3   6
ATOM      6  C   UNL A   1      32.566  27.075  26.159  1.00  0.00     0.109 A 
ATOM      7  C   UNL A   1      33.450  27.027  25.074  1.00  0.00    -0.000 A 
ATOM      8  C   UNL A   1      33.996  25.686  25.014  1.00  0.00     0.005 A 
ATOM      9  N   UNL A   1      32.712  25.843  26.791  1.00  0.00    -0.350 N 
ATOM     10  C   UNL A   1      33.537  24.991  26.119  1.00  0.00     0.046 A 
ATOM     11  C   UNL A   1      34.844  25.013  24.105  1.00  0.00     0.031 A 
ATOM     12  H   UNL A   1      32.265  25.611  27.637  1.00  0.00     0.167 HD
ATOM     13  C   UNL A   1      33.896  23.669  26.405  1.00  0.00     0.028 A 
ATOM     14  C   UNL A   1      35.184  23.679  24.353  1.00  0.00     0.041 A 
ATOM     15  C   UNL A   1      34.729  23.019  25.490  1.00  0.00     0.022 A 
ATOM     16  Cl  UNL A   1      36.173  22.835  23.223  1.00  0.00    -0.084 Cl
BRANCH   7  17
ATOM     17  C   UNL A   1      33.822  28.037  24.041  1.00  0.00     0.139 C 
BRANCH  17  18
ATOM     18  C   UNL A   1      33.390  27.727  22.604  1.00  0.00     0.231 C 
ATOM     19  O   UNL A   1      34.098  28.205  21.705  1.00  0.00    -0.274 OA
BRANCH  18  20
ATOM     20  N   UNL A   1      32.287  26.905  22.329  1.00  0.00    -0.312 N 
BRANCH  20  21
ATOM     21  C   UNL A   1      32.324  25.593  21.662  1.00  0.00     0.122 C 
ATOM     22  C   UNL A   1      32.534  25.577  20.157  1.00  0.00     0.028 C 
ENDBRANCH  20  21
BRANCH  20  23
ATOM     23  C   UNL A   1      30.970  27.418  22.571  1.00  0.00     0.044 A 
ATOM     24  C   UNL A   1      30.022  26.671  23.273  1.00  0.00     0.026 A 
ATOM     25  C   UNL A   1      30.620  28.696  22.133  1.00  0.00     0.030 A 
ATOM     26  C   UNL A   1      28.755  27.204  23.530  1.00  0.00     0.006 A 
ATOM     27  C   UNL A   1      29.353  29.249  22.381  1.00  0.00    -0.046 A 
ATOM     28  C   UNL A   1      28.405  28.490  23.086  1.00  0.00    -0.048 A 
ATOM     29  C   UNL A   1      29.056  30.619  21.838  1.00  0.00     0.044 C 
ATOM     30  C   UNL A   1      27.002  28.966  23.341  1.00  0.00     0.044 C 
ENDBRANCH  20  23
ENDBRANCH  18  20
ENDBRANCH  17  18
ENDBRANCH   7  17
ENDBRANCH   3   6
ENDBRANCH   1   2
BRANCH   1  31
ATOM     31  C   UNL A   1      31.703  31.753  26.428  1.00  0.00     0.042 C 
BRANCH  31  32
ATOM     32  C   UNL A   1      32.797  32.414  27.245  1.00  0.00     0.118 C 
BRANCH  32  33
ATOM     33  N   UNL A   1      32.480  33.800  27.582  1.00  0.00    -0.352 N 
ATOM     34  C   UNL A   1      33.030  34.619  28.535  1.00  0.00     0.251 C 
ATOM     35  H   UNL A   1      31.764  34.208  27.044  1.00  0.00     0.163 HD
ATOM     36  O   UNL A   1      32.542  35.724  28.750  1.00  0.00    -0.269 OA
BRANCH  34  37
ATOM     37  C   UNL A   1      34.184  34.149  29.323  1.00  0.00     0.039 A 
ATOM     38  C   UNL A   1      33.952  33.402  30.480  1.00  0.00     0.014 A 
ATOM     39  C   UNL A   1      35.489  34.415  28.903  1.00  0.00     0.014 A 
ATOM     40  C   UNL A   1      35.032  32.860  31.175  1.00  0.00     0.010 A 
ATOM     41  C   UNL A   1      36.552  33.782  29.527  1.00  0.00     0.010 A 
ATOM     42  C   UNL A   1      36.336  33.012  30.678  1.00  0.00    -0.014 A 
BRANCH  42  43
ATOM     43  C   UNL A   1      37.504  32.402  31.356  1.00  0.00     0.031 A 
ATOM     44  C   UNL A   1      38.227  31.259  30.700  1.00  0.00     0.074 A 
ATOM     45  C   UNL A   1      37.851  32.820  32.588  1.00  0.00     0.049 A 
ATOM     46  N   UNL A   1      39.191  30.509  31.170  1.00  0.00    -0.248 NA
ATOM     47  C   UNL A   1      37.775  30.878  29.352  1.00  0.00     0.031 C 
ATOM     48  C   UNL A   1      37.182  33.877  33.347  1.00  0.00     0.029 A 
ATOM     49  N   UNL A   1      38.850  32.392  33.425  1.00  0.00    -0.354 N 
ATOM     50  C   UNL A   1      39.435  29.557  30.191  1.00  0.00     0.074 A 
ATOM     51  C   UNL A   1      38.480  29.779  29.129  1.00  0.00     0.031 C 
ATOM     52  C   UNL A   1      37.805  34.036  34.525  1.00  0.00     0.029 A 
ATOM     53  C   UNL A   1      38.892  33.066  34.620  1.00  0.00     0.049 A 
ATOM     54  H   UNL A   1      39.479  31.671  33.191  1.00  0.00     0.167 HD
ATOM     55  C   UNL A   1      40.393  28.601  30.167  1.00  0.00     0.037 A 
ATOM     56  C   UNL A   1      39.714  32.912  35.676  1.00  0.00     0.037 A 
ATOM     57  C   UNL A   1      41.371  28.421  31.205  1.00  0.00     0.049 A 
ATOM     58  C   UNL A   1      40.791  31.865  35.609  1.00  0.00     0.074 A 
ATOM     59  C   UNL A   1      42.430  27.533  31.249  1.00  0.00     0.029 A 
ATOM     60  N   UNL A   1      41.410  29.155  32.382  1.00  0.00    -0.354 N 
ATOM     61  N   UNL A   1      41.056  31.011  34.650  1.00  0.00    -0.248 NA
ATOM     62  C   UNL A   1      41.687  31.764  36.768  1.00  0.00     0.031 C 
ATOM     63  C   UNL A   1      43.090  27.705  32.470  1.00  0.00     0.029 A 
ATOM     64  C   UNL A   1      42.469  28.730  33.166  1.00  0.00     0.049 A 
ATOM     65  H   UNL A   1      40.779  29.871  32.624  1.00  0.00     0.167 HD
ATOM     66  C   UNL A   1      42.164  30.291  35.076  1.00  0.00     0.074 A 
ATOM     67  C   UNL A   1      42.530  30.819  36.374  1.00  0.00     0.031 C 
ATOM     68  C   UNL A   1      42.818  29.281  34.451  1.00  0.00     0.037 A 
BRANCH  55  69
ATOM     69  C   UNL A   1      40.435  27.690  28.974  1.00  0.00     0.064 A 
ATOM     70  C   UNL A   1      39.672  26.513  28.919  1.00  0.00     0.173 A 
ATOM     71  C   UNL A   1      41.230  28.007  27.863  1.00  0.00     0.173 A 
ATOM     72  F   UNL A   1      38.908  26.155  29.963  1.00  0.00    -0.203 F 
ATOM     73  C   UNL A   1      39.727  25.674  27.811  1.00  0.00     0.198 A 
ATOM     74  C   UNL A   1      41.257  27.181  26.742  1.00  0.00     0.198 A 
ATOM     75  F   UNL A   1      41.978  29.120  27.861  1.00  0.00    -0.203 F 
ATOM     76  F   UNL A   1      39.032  24.527  27.806  1.00  0.00    -0.200 F 
ATOM     77  C   UNL A   1      40.512  26.011  26.720  1.00  0.00     0.200 A 
ATOM     78  F   UNL A   1      42.009  27.515  25.684  1.00  0.00    -0.200 F 
ATOM     79  F   UNL A   1      40.560  25.205  25.650  1.00  0.00    -0.200 F 
ENDBRANCH  55  69
BRANCH  56  80
ATOM     80  C   UNL A   1      39.571  33.793  36.863  1.00  0.00     0.064 A 
ATOM     81  C   UNL A   1      38.794  33.396  37.960  1.00  0.00     0.173 A 
ATOM     82  C   UNL A   1      40.204  35.042  36.929  1.00  0.00     0.173 A 
ATOM     83  F   UNL A   1      38.156  32.217  37.936  1.00  0.00    -0.203 F 
ATOM     84  C   UNL A   1      38.641  34.224  39.071  1.00  0.00     0.198 A 
ATOM     85  C   UNL A   1      40.070  35.857  38.051  1.00  0.00     0.198 A 
ATOM     86  F   UNL A   1      40.963  35.465  35.908  1.00  0.00    -0.203 F 
ATOM     87  F   UNL A   1      37.857  33.838  40.088  1.00  0.00    -0.200 F 
ATOM     88  C   UNL A   1      39.282  35.452  39.117  1.00  0.00     0.200 A 
ATOM     89  F   UNL A   1      40.704  37.037  38.099  1.00  0.00    -0.200 F 
ATOM     90  F   UNL A   1      39.136  36.246  40.186  1.00  0.00    -0.200 F 
ENDBRANCH  56  80
BRANCH  68  91
ATOM     91  C   UNL A   1      44.016  28.707  35.147  1.00  0.00     0.064 A 
ATOM     92  C   UNL A   1      45.306  29.207  34.920  1.00  0.00     0.173 A 
ATOM     93  C   UNL A   1      43.864  27.676  36.086  1.00  0.00     0.173 A 
ATOM     94  F   UNL A   1      45.504  30.183  34.021  1.00  0.00    -0.203 F 
ATOM     95  C   UNL A   1      46.404  28.679  35.593  1.00  0.00     0.198 A 
ATOM     96  C   UNL A   1      44.959  27.172  36.778  1.00  0.00     0.198 A 
ATOM     97  F   UNL A   1      42.648  27.170  36.344  1.00  0.00    -0.203 F 
ATOM     98  F   UNL A   1      47.633  29.142  35.329  1.00  0.00    -0.200 F 
ATOM     99  C   UNL A   1      46.229  27.669  36.527  1.00  0.00     0.200 A 
ATOM    100  F   UNL A   1      44.787  26.204  37.690  1.00  0.00    -0.200 F 
ATOM    101  F   UNL A   1      47.287  27.169  37.180  1.00  0.00    -0.200 F 
ENDBRANCH  68  91
ENDBRANCH  42  43
ENDBRANCH  34  37
ENDBRANCH  32  33
ENDBRANCH  31  32
ENDBRANCH   1  31
TORSDOF 15
ENDMDL
