MODEL 1
REMARK VINA RESULT:     -11.7      0.000      0.000
REMARK SMILES CC(C)c1ccc(S[C@H](C)[C@@H](C)C(=O)NCCCNC(=O)c2ccc(-c3c4nc(c(-c5c(F)c(F)c(F)c(F)c5F)c5ccc([nH]5)c(-c5c(F)c(F)c(F)c(F)c5F)c5nc(c(-c6c(F)c(F)c(F)c(F)c6F)c6ccc3[nH]6)C=C5)C=C4)cc2)cc1
REMARK SMILES IDX 16 1 15 2 13 3 14 4 11 6 12 7 9 8 10 9 8 10 7 11 4 12 5 13
REMARK SMILES IDX 86 14 6 15 85 16 2 17 1 18 3 19 17 20 18 21 19 22 20 23
REMARK SMILES IDX 21 25 22 26 23 27 84 28 24 29 83 30 25 31 26 32 27 33 77 34
REMARK SMILES IDX 28 35 82 36 76 37 78 38 29 39 81 40 75 41 74 42 30 44 62 45
REMARK SMILES IDX 42 46 61 47 43 48 46 49 60 50 79 51 44 52 45 53 59 55 80 56
REMARK SMILES IDX 47 57 31 58 32 59 40 60 33 61 34 62 38 63 41 64 35 65 36 66
REMARK SMILES IDX 39 67 37 68 63 69 64 70 72 71 65 72 66 73 70 74 73 75 67 76
REMARK SMILES IDX 68 77 71 78 69 79 48 80 49 81 57 82 50 83 51 84 55 85 58 86
REMARK SMILES IDX 52 87 53 88 56 89 54 90
REMARK H PARENT 15 5 19 24 78 43 46 54
REMARK Flexibility Score: inf
ROOT
ATOM      1  C   UNL A   1      36.889  20.514  25.166  1.00  0.00     0.117 C 
ENDROOT
BRANCH   1   2
ATOM      2  N   UNL A   1      37.177  21.805  25.762  1.00  0.00    -0.356 N 
ATOM      3  C   UNL A   1      36.681  23.045  25.508  1.00  0.00     0.223 C 
ATOM      4  O   UNL A   1      37.130  23.977  26.178  1.00  0.00    -0.275 OA
ATOM      5  H   UNL A   1      37.853  21.778  26.477  1.00  0.00     0.163 HD
BRANCH   3   6
ATOM      6  C   UNL A   1      35.572  23.276  24.489  1.00  0.00     0.088 C 
ATOM      7  C   UNL A   1      36.187  23.326  23.084  1.00  0.00     0.019 C 
BRANCH   6   8
ATOM      8  C   UNL A   1      34.607  24.431  24.896  1.00  0.00     0.061 C 
ATOM      9  C   UNL A   1      34.159  25.246  23.690  1.00  0.00     0.020 C 
BRANCH   8  10
ATOM     10  S   UNL A   1      33.264  23.631  25.931  1.00  0.00    -0.122 SA
BRANCH  10  11
ATOM     11  C   UNL A   1      32.843  22.026  25.278  1.00  0.00     0.008 A 
ATOM     12  C   UNL A   1      32.684  19.414  24.171  1.00  0.00    -0.045 A 
ATOM     13  C   UNL A   1      32.239  20.530  23.459  1.00  0.00     0.005 A 
ATOM     14  C   UNL A   1      33.171  19.608  25.467  1.00  0.00     0.005 A 
ATOM     15  C   UNL A   1      32.363  21.814  23.990  1.00  0.00     0.015 A 
ATOM     16  C   UNL A   1      33.240  20.899  26.015  1.00  0.00     0.015 A 
BRANCH  12  17
ATOM     17  C   UNL A   1      32.724  18.048  23.510  1.00  0.00     0.013 C 
ATOM     18  C   UNL A   1      32.386  18.135  22.021  1.00  0.00     0.012 C 
ATOM     19  C   UNL A   1      34.095  17.389  23.717  1.00  0.00     0.012 C 
ENDBRANCH  12  17
ENDBRANCH  10  11
ENDBRANCH   8  10
ENDBRANCH   6   8
ENDBRANCH   3   6
ENDBRANCH   1   2
BRANCH   1  20
ATOM     20  C   UNL A   1      38.146  19.672  24.999  1.00  0.00     0.042 C 
BRANCH  20  21
ATOM     21  C   UNL A   1      39.294  20.091  25.907  1.00  0.00     0.118 C 
BRANCH  21  22
ATOM     22  N   UNL A   1      40.351  19.092  25.971  1.00  0.00    -0.352 N 
ATOM     23  C   UNL A   1      41.708  19.249  26.087  1.00  0.00     0.251 C 
ATOM     24  H   UNL A   1      40.044  18.157  25.923  1.00  0.00     0.163 HD
ATOM     25  O   UNL A   1      42.451  18.283  25.918  1.00  0.00    -0.269 OA
BRANCH  23  26
ATOM     26  C   UNL A   1      42.284  20.573  26.394  1.00  0.00     0.039 A 
ATOM     27  C   UNL A   1      42.644  21.415  25.338  1.00  0.00     0.014 A 
ATOM     28  C   UNL A   1      42.487  20.983  27.714  1.00  0.00     0.014 A 
ATOM     29  C   UNL A   1      43.140  22.692  25.607  1.00  0.00     0.010 A 
ATOM     30  C   UNL A   1      42.891  22.286  27.981  1.00  0.00     0.010 A 
ATOM     31  C   UNL A   1      43.228  23.154  26.931  1.00  0.00    -0.014 A 
BRANCH  31  32
ATOM     32  C   UNL A   1      43.675  24.535  27.240  1.00  0.00     0.031 A 
ATOM     33  C   UNL A   1      42.693  25.547  27.761  1.00  0.00     0.074 A 
ATOM     34  C   UNL A   1      44.949  24.894  26.991  1.00  0.00     0.049 A 
ATOM     35  N   UNL A   1      42.872  26.819  28.021  1.00  0.00    -0.248 NA
ATOM     36  C   UNL A   1      41.319  25.077  27.999  1.00  0.00     0.031 C 
ATOM     37  C   UNL A   1      45.984  24.015  26.446  1.00  0.00     0.029 A 
ATOM     38  N   UNL A   1      45.590  26.096  27.158  1.00  0.00    -0.354 N 
ATOM     39  C   UNL A   1      41.637  27.297  28.438  1.00  0.00     0.074 A 
ATOM     40  C   UNL A   1      40.702  26.199  28.339  1.00  0.00     0.031 C 
ATOM     41  C   UNL A   1      47.137  24.696  26.353  1.00  0.00     0.029 A 
ATOM     42  C   UNL A   1      46.912  26.071  26.788  1.00  0.00     0.049 A 
ATOM     43  H   UNL A   1      45.144  26.900  27.509  1.00  0.00     0.167 HD
ATOM     44  C   UNL A   1      41.318  28.535  28.887  1.00  0.00     0.037 A 
ATOM     45  C   UNL A   1      47.838  27.049  26.793  1.00  0.00     0.037 A 
ATOM     46  C   UNL A   1      42.257  29.620  29.001  1.00  0.00     0.049 A 
ATOM     47  C   UNL A   1      47.450  28.422  27.272  1.00  0.00     0.074 A 
ATOM     48  C   UNL A   1      42.044  30.897  29.490  1.00  0.00     0.029 A 
ATOM     49  N   UNL A   1      43.589  29.555  28.619  1.00  0.00    -0.354 N 
ATOM     50  N   UNL A   1      46.294  28.847  27.722  1.00  0.00    -0.248 NA
ATOM     51  C   UNL A   1      48.499  29.451  27.251  1.00  0.00     0.031 C 
ATOM     52  C   UNL A   1      43.233  31.621  29.355  1.00  0.00     0.029 A 
ATOM     53  C   UNL A   1      44.204  30.776  28.840  1.00  0.00     0.049 A 
ATOM     54  H   UNL A   1      44.032  28.758  28.246  1.00  0.00     0.167 HD
ATOM     55  C   UNL A   1      46.484  30.178  28.066  1.00  0.00     0.074 A 
ATOM     56  C   UNL A   1      47.870  30.486  27.789  1.00  0.00     0.031 C 
ATOM     57  C   UNL A   1      45.590  31.065  28.569  1.00  0.00     0.037 A 
BRANCH  44  58
ATOM     58  C   UNL A   1      39.893  28.781  29.294  1.00  0.00     0.064 A 
ATOM     59  C   UNL A   1      38.939  29.257  28.380  1.00  0.00     0.173 A 
ATOM     60  C   UNL A   1      39.465  28.499  30.599  1.00  0.00     0.173 A 
ATOM     61  F   UNL A   1      39.298  29.553  27.121  1.00  0.00    -0.203 F 
ATOM     62  C   UNL A   1      37.617  29.465  28.767  1.00  0.00     0.198 A 
ATOM     63  C   UNL A   1      38.135  28.677  30.973  1.00  0.00     0.198 A 
ATOM     64  F   UNL A   1      40.333  28.037  31.512  1.00  0.00    -0.203 F 
ATOM     65  F   UNL A   1      36.736  29.966  27.890  1.00  0.00    -0.200 F 
ATOM     66  C   UNL A   1      37.215  29.168  30.059  1.00  0.00     0.200 A 
ATOM     67  F   UNL A   1      37.744  28.374  32.218  1.00  0.00    -0.200 F 
ATOM     68  F   UNL A   1      35.940  29.358  30.426  1.00  0.00    -0.200 F 
ENDBRANCH  44  58
BRANCH  45  69
ATOM     69  C   UNL A   1      49.229  26.761  26.355  1.00  0.00     0.064 A 
ATOM     70  C   UNL A   1      49.611  26.939  25.017  1.00  0.00     0.173 A 
ATOM     71  C   UNL A   1      50.201  26.296  27.254  1.00  0.00     0.173 A 
ATOM     72  F   UNL A   1      48.713  27.362  24.116  1.00  0.00    -0.203 F 
ATOM     73  C   UNL A   1      50.904  26.641  24.591  1.00  0.00     0.198 A 
ATOM     74  C   UNL A   1      51.501  26.029  26.833  1.00  0.00     0.198 A 
ATOM     75  F   UNL A   1      49.888  26.114  28.545  1.00  0.00    -0.203 F 
ATOM     76  F   UNL A   1      51.227  26.773  23.298  1.00  0.00    -0.200 F 
ATOM     77  C   UNL A   1      51.850  26.192  25.500  1.00  0.00     0.200 A 
ATOM     78  F   UNL A   1      52.417  25.611  27.717  1.00  0.00    -0.200 F 
ATOM     79  F   UNL A   1      53.094  25.909  25.091  1.00  0.00    -0.200 F 
ENDBRANCH  45  69
BRANCH  57  80
ATOM     80  C   UNL A   1      46.092  32.443  28.895  1.00  0.00     0.064 A 
ATOM     81  C   UNL A   1      46.644  32.751  30.146  1.00  0.00     0.173 A 
ATOM     82  C   UNL A   1      46.056  33.456  27.925  1.00  0.00     0.173 A 
ATOM     83  F   UNL A   1      46.688  31.821  31.113  1.00  0.00    -0.203 F 
ATOM     84  C   UNL A   1      47.116  34.031  30.425  1.00  0.00     0.198 A 
ATOM     85  C   UNL A   1      46.560  34.725  28.195  1.00  0.00     0.198 A 
ATOM     86  F   UNL A   1      45.545  33.212  26.709  1.00  0.00    -0.203 F 
ATOM     87  F   UNL A   1      47.590  34.318  31.644  1.00  0.00    -0.200 F 
ATOM     88  C   UNL A   1      47.080  35.015  29.447  1.00  0.00     0.200 A 
ATOM     89  F   UNL A   1      46.541  35.669  27.244  1.00  0.00    -0.200 F 
ATOM     90  F   UNL A   1      47.543  36.243  29.714  1.00  0.00    -0.200 F 
ENDBRANCH  57  80
ENDBRANCH  31  32
ENDBRANCH  23  26
ENDBRANCH  21  22
ENDBRANCH  20  21
ENDBRANCH   1  20
TORSDOF 14
ENDMDL
MODEL 2
REMARK VINA RESULT:     -11.6      6.197     10.331
REMARK SMILES CC(C)c1ccc(S[C@H](C)[C@@H](C)C(=O)NCCCNC(=O)c2ccc(-c3c4nc(c(-c5c(F)c(F)c(F)c(F)c5F)c5ccc([nH]5)c(-c5c(F)c(F)c(F)c(F)c5F)c5nc(c(-c6c(F)c(F)c(F)c(F)c6F)c6ccc3[nH]6)C=C5)C=C4)cc2)cc1
REMARK SMILES IDX 16 1 15 2 13 3 14 4 11 6 12 7 9 8 10 9 8 10 7 11 4 12 5 13
REMARK SMILES IDX 86 14 6 15 85 16 2 17 1 18 3 19 17 20 18 21 19 22 20 23
REMARK SMILES IDX 21 25 22 26 23 27 84 28 24 29 83 30 25 31 26 32 27 33 77 34
REMARK SMILES IDX 28 35 82 36 76 37 78 38 29 39 81 40 75 41 74 42 30 44 62 45
REMARK SMILES IDX 42 46 61 47 43 48 46 49 60 50 79 51 44 52 45 53 59 55 80 56
REMARK SMILES IDX 47 57 31 58 32 59 40 60 33 61 34 62 38 63 41 64 35 65 36 66
REMARK SMILES IDX 39 67 37 68 63 69 64 70 72 71 65 72 66 73 70 74 73 75 67 76
REMARK SMILES IDX 68 77 71 78 69 79 48 80 49 81 57 82 50 83 51 84 55 85 58 86
REMARK SMILES IDX 52 87 53 88 56 89 54 90
REMARK H PARENT 15 5 19 24 78 43 46 54
REMARK Flexibility Score: inf
ROOT
ATOM      1  C   UNL A   1      31.455  30.442  26.286  1.00  0.00     0.117 C 
ENDROOT
BRANCH   1   2
ATOM      2  N   UNL A   1      32.386  30.147  25.213  1.00  0.00    -0.356 N 
ATOM      3  C   UNL A   1      32.768  28.971  24.650  1.00  0.00     0.223 C 
ATOM      4  O   UNL A   1      33.603  29.026  23.744  1.00  0.00    -0.275 OA
ATOM      5  H   UNL A   1      32.818  30.941  24.823  1.00  0.00     0.163 HD
BRANCH   3   6
ATOM      6  C   UNL A   1      32.153  27.640  25.067  1.00  0.00     0.088 C 
ATOM      7  C   UNL A   1      32.942  27.076  26.257  1.00  0.00     0.019 C 
BRANCH   6   8
ATOM      8  C   UNL A   1      31.891  26.690  23.860  1.00  0.00     0.061 C 
ATOM      9  C   UNL A   1      32.708  25.409  23.959  1.00  0.00     0.020 C 
BRANCH   8  10
ATOM     10  S   UNL A   1      30.027  26.506  23.754  1.00  0.00    -0.122 SA
BRANCH  10  11
ATOM     11  C   UNL A   1      29.293  27.967  23.044  1.00  0.00     0.008 A 
ATOM     12  C   UNL A   1      28.402  30.551  22.269  1.00  0.00    -0.045 A 
ATOM     13  C   UNL A   1      27.546  29.651  22.907  1.00  0.00     0.005 A 
ATOM     14  C   UNL A   1      29.704  30.131  21.978  1.00  0.00     0.005 A 
ATOM     15  C   UNL A   1      28.003  28.402  23.326  1.00  0.00     0.015 A 
ATOM     16  C   UNL A   1      30.139  28.850  22.355  1.00  0.00     0.015 A 
BRANCH  12  17
ATOM     17  C   UNL A   1      27.952  31.974  21.992  1.00  0.00     0.013 C 
ATOM     18  C   UNL A   1      28.764  32.987  22.800  1.00  0.00     0.012 C 
ATOM     19  C   UNL A   1      28.039  32.284  20.491  1.00  0.00     0.012 C 
ENDBRANCH  12  17
ENDBRANCH  10  11
ENDBRANCH   8  10
ENDBRANCH   6   8
ENDBRANCH   3   6
ENDBRANCH   1   2
BRANCH   1  20
ATOM     20  C   UNL A   1      31.338  31.938  26.541  1.00  0.00     0.042 C 
BRANCH  20  21
ATOM     21  C   UNL A   1      32.631  32.586  27.014  1.00  0.00     0.118 C 
BRANCH  21  22
ATOM     22  N   UNL A   1      32.437  33.954  27.475  1.00  0.00    -0.352 N 
ATOM     23  C   UNL A   1      33.041  34.633  28.501  1.00  0.00     0.251 C 
ATOM     24  H   UNL A   1      31.766  34.471  26.972  1.00  0.00     0.163 HD
ATOM     25  O   UNL A   1      32.591  35.720  28.862  1.00  0.00    -0.269 OA
BRANCH  23  26
ATOM     26  C   UNL A   1      34.215  34.061  29.188  1.00  0.00     0.039 A 
ATOM     27  C   UNL A   1      34.013  33.171  30.247  1.00  0.00     0.014 A 
ATOM     28  C   UNL A   1      35.514  34.407  28.806  1.00  0.00     0.014 A 
ATOM     29  C   UNL A   1      35.110  32.577  30.873  1.00  0.00     0.010 A 
ATOM     30  C   UNL A   1      36.601  33.746  29.366  1.00  0.00     0.010 A 
ATOM     31  C   UNL A   1      36.412  32.828  30.411  1.00  0.00    -0.014 A 
BRANCH  31  32
ATOM     32  C   UNL A   1      37.589  32.147  31.007  1.00  0.00     0.031 A 
ATOM     33  C   UNL A   1      38.080  32.544  32.371  1.00  0.00     0.074 A 
ATOM     34  C   UNL A   1      38.251  31.216  30.293  1.00  0.00     0.049 A 
ATOM     35  N   UNL A   1      39.130  32.119  33.030  1.00  0.00    -0.248 NA
ATOM     36  C   UNL A   1      37.306  33.575  33.080  1.00  0.00     0.031 C 
ATOM     37  C   UNL A   1      37.896  30.775  28.943  1.00  0.00     0.029 A 
ATOM     38  N   UNL A   1      39.364  30.475  30.602  1.00  0.00    -0.354 N 
ATOM     39  C   UNL A   1      39.146  32.837  34.218  1.00  0.00     0.074 A 
ATOM     40  C   UNL A   1      38.040  33.768  34.166  1.00  0.00     0.031 C 
ATOM     41  C   UNL A   1      38.754  29.820  28.552  1.00  0.00     0.029 A 
ATOM     42  C   UNL A   1      39.746  29.613  29.603  1.00  0.00     0.049 A 
ATOM     43  H   UNL A   1      39.844  30.554  31.457  1.00  0.00     0.167 HD
ATOM     44  C   UNL A   1      39.992  32.713  35.269  1.00  0.00     0.037 A 
ATOM     45  C   UNL A   1      40.783  28.756  29.540  1.00  0.00     0.037 A 
ATOM     46  C   UNL A   1      41.080  31.772  35.323  1.00  0.00     0.049 A 
ATOM     47  C   UNL A   1      41.723  28.657  30.711  1.00  0.00     0.074 A 
ATOM     48  C   UNL A   1      41.964  31.535  36.361  1.00  0.00     0.029 A 
ATOM     49  N   UNL A   1      41.434  30.913  34.293  1.00  0.00    -0.354 N 
ATOM     50  N   UNL A   1      41.693  29.297  31.855  1.00  0.00    -0.248 NA
ATOM     51  C   UNL A   1      42.839  27.710  30.585  1.00  0.00     0.031 C 
ATOM     52  C   UNL A   1      42.885  30.571  35.940  1.00  0.00     0.029 A 
ATOM     53  C   UNL A   1      42.537  30.161  34.662  1.00  0.00     0.049 A 
ATOM     54  H   UNL A   1      40.968  30.847  33.427  1.00  0.00     0.167 HD
ATOM     55  C   UNL A   1      42.761  28.810  32.595  1.00  0.00     0.074 A 
ATOM     56  C   UNL A   1      43.411  27.808  31.776  1.00  0.00     0.031 C 
ATOM     57  C   UNL A   1      43.167  29.159  33.840  1.00  0.00     0.037 A 
BRANCH  44  58
ATOM     58  C   UNL A   1      39.772  33.615  36.450  1.00  0.00     0.064 A 
ATOM     59  C   UNL A   1      40.377  34.879  36.534  1.00  0.00     0.173 A 
ATOM     60  C   UNL A   1      38.912  33.231  37.489  1.00  0.00     0.173 A 
ATOM     61  F   UNL A   1      41.217  35.291  35.572  1.00  0.00    -0.203 F 
ATOM     62  C   UNL A   1      40.151  35.711  37.627  1.00  0.00     0.198 A 
ATOM     63  C   UNL A   1      38.662  34.080  38.565  1.00  0.00     0.198 A 
ATOM     64  F   UNL A   1      38.302  32.036  37.459  1.00  0.00    -0.203 F 
ATOM     65  F   UNL A   1      40.779  36.893  37.707  1.00  0.00    -0.200 F 
ATOM     66  C   UNL A   1      39.288  35.316  38.637  1.00  0.00     0.200 A 
ATOM     67  F   UNL A   1      37.815  33.703  39.532  1.00  0.00    -0.200 F 
ATOM     68  F   UNL A   1      39.062  36.124  39.682  1.00  0.00    -0.200 F 
ENDBRANCH  44  58
BRANCH  45  69
ATOM     69  C   UNL A   1      40.974  27.903  28.337  1.00  0.00     0.064 A 
ATOM     70  C   UNL A   1      40.407  26.622  28.271  1.00  0.00     0.173 A 
ATOM     71  C   UNL A   1      41.728  28.340  27.239  1.00  0.00     0.173 A 
ATOM     72  F   UNL A   1      39.695  26.151  29.304  1.00  0.00    -0.203 F 
ATOM     73  C   UNL A   1      40.607  25.802  27.161  1.00  0.00     0.198 A 
ATOM     74  C   UNL A   1      41.901  27.531  26.118  1.00  0.00     0.198 A 
ATOM     75  F   UNL A   1      42.287  29.559  27.250  1.00  0.00    -0.203 F 
ATOM     76  F   UNL A   1      40.096  24.564  27.146  1.00  0.00    -0.200 F 
ATOM     77  C   UNL A   1      41.349  26.259  26.084  1.00  0.00     0.200 A 
ATOM     78  F   UNL A   1      42.605  27.984  25.071  1.00  0.00    -0.200 F 
ATOM     79  F   UNL A   1      41.539  25.473  25.015  1.00  0.00    -0.200 F 
ENDBRANCH  45  69
BRANCH  57  80
ATOM     80  C   UNL A   1      44.342  28.422  34.416  1.00  0.00     0.064 A 
ATOM     81  C   UNL A   1      45.649  28.920  34.311  1.00  0.00     0.173 A 
ATOM     82  C   UNL A   1      44.151  27.222  35.116  1.00  0.00     0.173 A 
ATOM     83  F   UNL A   1      45.888  30.056  33.638  1.00  0.00    -0.203 F 
ATOM     84  C   UNL A   1      46.725  28.228  34.862  1.00  0.00     0.198 A 
ATOM     85  C   UNL A   1      45.223  26.550  35.696  1.00  0.00     0.198 A 
ATOM     86  F   UNL A   1      42.920  26.706  35.252  1.00  0.00    -0.203 F 
ATOM     87  F   UNL A   1      47.971  28.694  34.705  1.00  0.00    -0.200 F 
ATOM     88  C   UNL A   1      46.510  27.048  35.561  1.00  0.00     0.200 A 
ATOM     89  F   UNL A   1      45.012  25.421  36.385  1.00  0.00    -0.200 F 
ATOM     90  F   UNL A   1      47.545  26.389  36.099  1.00  0.00    -0.200 F 
ENDBRANCH  57  80
ENDBRANCH  31  32
ENDBRANCH  23  26
ENDBRANCH  21  22
ENDBRANCH  20  21
ENDBRANCH   1  20
TORSDOF 14
ENDMDL
MODEL 3
REMARK VINA RESULT:     -11.6      6.056     11.288
REMARK SMILES CC(C)c1ccc(S[C@H](C)[C@@H](C)C(=O)NCCCNC(=O)c2ccc(-c3c4nc(c(-c5c(F)c(F)c(F)c(F)c5F)c5ccc([nH]5)c(-c5c(F)c(F)c(F)c(F)c5F)c5nc(c(-c6c(F)c(F)c(F)c(F)c6F)c6ccc3[nH]6)C=C5)C=C4)cc2)cc1
REMARK SMILES IDX 16 1 15 2 13 3 14 4 11 6 12 7 9 8 10 9 8 10 7 11 4 12 5 13
REMARK SMILES IDX 86 14 6 15 85 16 2 17 1 18 3 19 17 20 18 21 19 22 20 23
REMARK SMILES IDX 21 25 22 26 23 27 84 28 24 29 83 30 25 31 26 32 27 33 77 34
REMARK SMILES IDX 28 35 82 36 76 37 78 38 29 39 81 40 75 41 74 42 30 44 62 45
REMARK SMILES IDX 42 46 61 47 43 48 46 49 60 50 79 51 44 52 45 53 59 55 80 56
REMARK SMILES IDX 47 57 31 58 32 59 40 60 33 61 34 62 38 63 41 64 35 65 36 66
REMARK SMILES IDX 39 67 37 68 63 69 64 70 72 71 65 72 66 73 70 74 73 75 67 76
REMARK SMILES IDX 68 77 71 78 69 79 48 80 49 81 57 82 50 83 51 84 55 85 58 86
REMARK SMILES IDX 52 87 53 88 56 89 54 90
REMARK H PARENT 15 5 19 24 78 43 46 54
REMARK Flexibility Score: inf
ROOT
ATOM      1  C   UNL A   1      31.606  30.791  26.000  1.00  0.00     0.117 C 
ENDROOT
BRANCH   1   2
ATOM      2  N   UNL A   1      30.815  30.506  24.817  1.00  0.00    -0.356 N 
ATOM      3  C   UNL A   1      30.770  29.417  24.005  1.00  0.00     0.223 C 
ATOM      4  O   UNL A   1      29.993  29.462  23.048  1.00  0.00    -0.275 OA
ATOM      5  H   UNL A   1      30.201  31.230  24.557  1.00  0.00     0.163 HD
BRANCH   3   6
ATOM      6  C   UNL A   1      31.590  28.165  24.289  1.00  0.00     0.088 C 
ATOM      7  C   UNL A   1      32.374  27.783  23.026  1.00  0.00     0.019 C 
BRANCH   6   8
ATOM      8  C   UNL A   1      30.762  27.045  24.989  1.00  0.00     0.061 C 
ATOM      9  C   UNL A   1      30.375  25.936  24.020  1.00  0.00     0.020 C 
BRANCH   8  10
ATOM     10  S   UNL A   1      31.754  26.548  26.501  1.00  0.00    -0.122 SA
BRANCH  10  11
ATOM     11  C   UNL A   1      32.897  25.241  26.098  1.00  0.00     0.008 A 
ATOM     12  C   UNL A   1      34.574  23.248  24.963  1.00  0.00    -0.045 A 
ATOM     13  C   UNL A   1      33.453  22.904  25.722  1.00  0.00     0.005 A 
ATOM     14  C   UNL A   1      34.880  24.604  24.812  1.00  0.00     0.005 A 
ATOM     15  C   UNL A   1      32.609  23.887  26.236  1.00  0.00     0.015 A 
ATOM     16  C   UNL A   1      34.054  25.586  25.381  1.00  0.00     0.015 A 
BRANCH  12  17
ATOM     17  C   UNL A   1      35.375  22.174  24.248  1.00  0.00     0.013 C 
ATOM     18  C   UNL A   1      36.574  22.769  23.508  1.00  0.00     0.012 C 
ATOM     19  C   UNL A   1      35.831  21.093  25.237  1.00  0.00     0.012 C 
ENDBRANCH  12  17
ENDBRANCH  10  11
ENDBRANCH   8  10
ENDBRANCH   6   8
ENDBRANCH   3   6
ENDBRANCH   1   2
BRANCH   1  20
ATOM     20  C   UNL A   1      31.386  32.211  26.501  1.00  0.00     0.042 C 
BRANCH  20  21
ATOM     21  C   UNL A   1      32.574  32.789  27.257  1.00  0.00     0.118 C 
BRANCH  21  22
ATOM     22  N   UNL A   1      32.381  34.186  27.621  1.00  0.00    -0.352 N 
ATOM     23  C   UNL A   1      32.977  34.932  28.605  1.00  0.00     0.251 C 
ATOM     24  H   UNL A   1      31.718  34.670  27.077  1.00  0.00     0.163 HD
ATOM     25  O   UNL A   1      32.527  36.043  28.886  1.00  0.00    -0.269 OA
BRANCH  23  26
ATOM     26  C   UNL A   1      34.141  34.403  29.343  1.00  0.00     0.039 A 
ATOM     27  C   UNL A   1      33.939  33.822  30.599  1.00  0.00     0.014 A 
ATOM     28  C   UNL A   1      35.431  34.490  28.814  1.00  0.00     0.014 A 
ATOM     29  C   UNL A   1      35.019  33.268  31.287  1.00  0.00     0.010 A 
ATOM     30  C   UNL A   1      36.488  33.856  29.455  1.00  0.00     0.010 A 
ATOM     31  C   UNL A   1      36.297  33.243  30.703  1.00  0.00    -0.014 A 
BRANCH  31  32
ATOM     32  C   UNL A   1      37.444  32.588  31.379  1.00  0.00     0.031 A 
ATOM     33  C   UNL A   1      38.157  31.442  30.716  1.00  0.00     0.074 A 
ATOM     34  C   UNL A   1      37.802  32.983  32.616  1.00  0.00     0.049 A 
ATOM     35  N   UNL A   1      39.131  30.695  31.175  1.00  0.00    -0.248 NA
ATOM     36  C   UNL A   1      37.699  31.067  29.369  1.00  0.00     0.031 C 
ATOM     37  C   UNL A   1      37.161  34.055  33.380  1.00  0.00     0.029 A 
ATOM     38  N   UNL A   1      38.790  32.527  33.451  1.00  0.00    -0.354 N 
ATOM     39  C   UNL A   1      39.390  29.761  30.181  1.00  0.00     0.074 A 
ATOM     40  C   UNL A   1      38.433  29.992  29.122  1.00  0.00     0.031 C 
ATOM     41  C   UNL A   1      37.790  34.195  34.557  1.00  0.00     0.029 A 
ATOM     42  C   UNL A   1      38.849  33.194  34.651  1.00  0.00     0.049 A 
ATOM     43  H   UNL A   1      39.399  31.791  33.215  1.00  0.00     0.167 HD
ATOM     44  C   UNL A   1      40.356  28.811  30.146  1.00  0.00     0.037 A 
ATOM     45  C   UNL A   1      39.662  33.014  35.709  1.00  0.00     0.037 A 
ATOM     46  C   UNL A   1      41.318  28.598  31.195  1.00  0.00     0.049 A 
ATOM     47  C   UNL A   1      40.710  31.935  35.653  1.00  0.00     0.074 A 
ATOM     48  C   UNL A   1      42.366  27.695  31.233  1.00  0.00     0.029 A 
ATOM     49  N   UNL A   1      41.347  29.296  32.393  1.00  0.00    -0.354 N 
ATOM     50  N   UNL A   1      40.985  31.097  34.683  1.00  0.00    -0.248 NA
ATOM     51  C   UNL A   1      41.564  31.782  36.838  1.00  0.00     0.031 C 
ATOM     52  C   UNL A   1      42.997  27.809  32.475  1.00  0.00     0.029 A 
ATOM     53  C   UNL A   1      42.381  28.827  33.187  1.00  0.00     0.049 A 
ATOM     54  H   UNL A   1      40.725  30.018  32.642  1.00  0.00     0.167 HD
ATOM     55  C   UNL A   1      42.062  30.341  35.126  1.00  0.00     0.074 A 
ATOM     56  C   UNL A   1      42.400  30.830  36.445  1.00  0.00     0.031 C 
ATOM     57  C   UNL A   1      42.713  29.333  34.496  1.00  0.00     0.037 A 
BRANCH  44  58
ATOM     58  C   UNL A   1      40.424  27.933  28.929  1.00  0.00     0.064 A 
ATOM     59  C   UNL A   1      39.691  26.739  28.841  1.00  0.00     0.173 A 
ATOM     60  C   UNL A   1      41.194  28.311  27.819  1.00  0.00     0.173 A 
ATOM     61  F   UNL A   1      38.947  26.326  29.879  1.00  0.00    -0.203 F 
ATOM     62  C   UNL A   1      39.751  25.942  27.700  1.00  0.00     0.198 A 
ATOM     63  C   UNL A   1      41.225  27.528  26.667  1.00  0.00     0.198 A 
ATOM     64  F   UNL A   1      41.910  29.445  27.845  1.00  0.00    -0.203 F 
ATOM     65  F   UNL A   1      39.081  24.782  27.661  1.00  0.00    -0.200 F 
ATOM     66  C   UNL A   1      40.510  26.341  26.612  1.00  0.00     0.200 A 
ATOM     67  F   UNL A   1      41.947  27.924  25.609  1.00  0.00    -0.200 F 
ATOM     68  F   UNL A   1      40.556  25.580  25.510  1.00  0.00    -0.200 F 
ENDBRANCH  44  58
BRANCH  45  69
ATOM     69  C   UNL A   1      39.538  33.893  36.902  1.00  0.00     0.064 A 
ATOM     70  C   UNL A   1      38.785  33.489  38.014  1.00  0.00     0.173 A 
ATOM     71  C   UNL A   1      40.156  35.151  36.955  1.00  0.00     0.173 A 
ATOM     72  F   UNL A   1      38.158  32.305  38.003  1.00  0.00    -0.203 F 
ATOM     73  C   UNL A   1      38.636  34.320  39.124  1.00  0.00     0.198 A 
ATOM     74  C   UNL A   1      40.032  35.966  38.078  1.00  0.00     0.198 A 
ATOM     75  F   UNL A   1      40.892  35.582  35.920  1.00  0.00    -0.203 F 
ATOM     76  F   UNL A   1      37.870  33.929  40.151  1.00  0.00    -0.200 F 
ATOM     77  C   UNL A   1      39.264  35.555  39.157  1.00  0.00     0.200 A 
ATOM     78  F   UNL A   1      40.655  37.152  38.113  1.00  0.00    -0.200 F 
ATOM     79  F   UNL A   1      39.124  36.352  40.226  1.00  0.00    -0.200 F 
ENDBRANCH  45  69
BRANCH  57  80
ATOM     80  C   UNL A   1      43.887  28.719  35.204  1.00  0.00     0.064 A 
ATOM     81  C   UNL A   1      45.185  29.229  35.061  1.00  0.00     0.173 A 
ATOM     82  C   UNL A   1      43.700  27.629  36.068  1.00  0.00     0.173 A 
ATOM     83  F   UNL A   1      45.419  30.260  34.236  1.00  0.00    -0.203 F 
ATOM     84  C   UNL A   1      46.258  28.653  35.737  1.00  0.00     0.198 A 
ATOM     85  C   UNL A   1      44.769  27.077  36.768  1.00  0.00     0.198 A 
ATOM     86  F   UNL A   1      42.477  27.107  36.246  1.00  0.00    -0.203 F 
ATOM     87  F   UNL A   1      47.498  29.123  35.545  1.00  0.00    -0.200 F 
ATOM     88  C   UNL A   1      46.048  27.584  36.595  1.00  0.00     0.200 A 
ATOM     89  F   UNL A   1      44.562  26.056  37.609  1.00  0.00    -0.200 F 
ATOM     90  F   UNL A   1      47.081  27.037  37.251  1.00  0.00    -0.200 F 
ENDBRANCH  57  80
ENDBRANCH  31  32
ENDBRANCH  23  26
ENDBRANCH  21  22
ENDBRANCH  20  21
ENDBRANCH   1  20
TORSDOF 14
ENDMDL
