MODEL 1
REMARK VINA RESULT:     -10.3      0.000      0.000
REMARK SMILES COc1cc(/C=C2\SC(=S)N([C@H](C)C(=O)NCCCNC(=O)c3ccc(-c4c5nc(c(-c6c(F)c(F)c(F)c(F)c6F)c6ccc([nH]6)c(-c6c(F)c(F)c(F)c(F)c6F)c6nc(c(-c7c(F)c(F)c(F)c(F)c7F)c7ccc4[nH]7)C=C6)C=C5)cc3)C2=O)ccc1OCc1ccc(Cl)cc1Cl
REMARK SMILES IDX 14 1 15 2 16 3 12 5 13 6 11 7 6 8 7 9 8 10 86 11 9 12 87 13
REMARK SMILES IDX 10 14 5 15 3 16 4 17 90 18 89 19 88 20 2 21 1 22 91 23 92 24
REMARK SMILES IDX 93 25 94 26 99 27 95 28 98 29 100 30 96 31 97 32 17 33 18 34
REMARK SMILES IDX 19 35 20 36 21 37 22 39 23 40 24 41 85 42 25 43 84 44 26 45
REMARK SMILES IDX 27 46 28 47 78 48 29 49 83 50 77 51 79 52 30 53 82 54 76 55
REMARK SMILES IDX 75 56 31 58 63 59 43 60 62 61 44 62 47 63 61 64 80 65 45 66
REMARK SMILES IDX 46 67 60 69 81 70 48 71 32 72 33 73 41 74 34 75 35 76 39 77
REMARK SMILES IDX 42 78 36 79 37 80 40 81 38 82 64 83 65 84 73 85 66 86 67 87
REMARK SMILES IDX 71 88 74 89 68 90 69 91 72 92 70 93 49 94 50 95 58 96 51 97
REMARK SMILES IDX 52 98 56 99 59 100 53 101 54 102 57 103 55 104
REMARK H PARENT 16 4 20 38 79 57 47 68
REMARK Flexibility Score: inf
ROOT
ATOM      1  C   UNL A   1      45.455  24.356  25.089  1.00  0.00     0.242 C 
ATOM      2  O   UNL A   1      46.385  24.365  24.277  1.00  0.00    -0.273 OA
ATOM      3  N   UNL A   1      44.296  23.766  24.677  1.00  0.00    -0.354 N 
ATOM      4  H   UNL A   1      44.349  23.326  23.798  1.00  0.00     0.163 HD
ENDROOT
BRANCH   1   5
ATOM      5  C   UNL A   1      45.615  25.038  26.472  1.00  0.00     0.178 C 
ATOM      6  C   UNL A   1      46.658  24.306  27.314  1.00  0.00     0.042 C 
BRANCH   5   7
ATOM      7  N   UNL A   1      45.756  26.504  26.293  1.00  0.00    -0.281 N 
ATOM      8  C   UNL A   1      44.310  29.709  27.007  1.00  0.00     0.029 C 
ATOM      9  C   UNL A   1      45.132  28.755  26.546  1.00  0.00     0.081 C 
ATOM     10  S   UNL A   1      46.817  28.865  26.260  1.00  0.00    -0.054 SA
ATOM     11  C   UNL A   1      44.676  27.370  26.272  1.00  0.00     0.266 C 
ATOM     12  C   UNL A   1      46.997  27.118  26.186  1.00  0.00     0.149 C 
ATOM     13  O   UNL A   1      43.508  27.097  26.060  1.00  0.00    -0.268 OA
ATOM     14  S   UNL A   1      48.504  26.418  26.028  1.00  0.00    -0.052 S 
BRANCH   8  15
ATOM     15  C   UNL A   1      44.732  31.102  27.188  1.00  0.00    -0.020 A 
ATOM     16  C   UNL A   1      44.963  33.413  26.445  1.00  0.00     0.161 A 
ATOM     17  C   UNL A   1      44.663  32.065  26.167  1.00  0.00     0.058 A 
ATOM     18  C   UNL A   1      45.332  33.785  27.745  1.00  0.00     0.161 A 
ATOM     19  C   UNL A   1      45.380  32.814  28.752  1.00  0.00     0.051 A 
ATOM     20  C   UNL A   1      45.107  31.482  28.475  1.00  0.00     0.012 A 
BRANCH  16  21
ATOM     21  O   UNL A   1      44.761  34.399  25.515  1.00  0.00    -0.493 OA
ATOM     22  C   UNL A   1      43.406  34.568  25.111  1.00  0.00     0.278 C 
ENDBRANCH  16  21
BRANCH  18  23
ATOM     23  O   UNL A   1      45.654  35.030  28.208  1.00  0.00    -0.485 OA
BRANCH  23  24
ATOM     24  C   UNL A   1      44.711  35.779  28.976  1.00  0.00     0.267 C 
BRANCH  24  25
ATOM     25  C   UNL A   1      43.759  36.703  28.235  1.00  0.00     0.008 A 
ATOM     26  C   UNL A   1      44.328  37.760  27.498  1.00  0.00     0.010 A 
ATOM     27  C   UNL A   1      42.362  36.563  28.211  1.00  0.00     0.049 A 
ATOM     28  C   UNL A   1      43.528  38.720  26.876  1.00  0.00     0.021 A 
ATOM     29  C   UNL A   1      41.559  37.543  27.617  1.00  0.00     0.041 A 
ATOM     30  Cl  UNL A   1      41.548  35.172  28.829  1.00  0.00    -0.084 Cl
ATOM     31  C   UNL A   1      42.145  38.626  26.972  1.00  0.00     0.042 A 
ATOM     32  Cl  UNL A   1      41.156  39.845  26.271  1.00  0.00    -0.084 Cl
ENDBRANCH  24  25
ENDBRANCH  23  24
ENDBRANCH  18  23
ENDBRANCH   8  15
ENDBRANCH   5   7
ENDBRANCH   1   5
BRANCH   3  33
ATOM     33  C   UNL A   1      43.001  23.681  25.318  1.00  0.00     0.117 C 
BRANCH  33  34
ATOM     34  C   UNL A   1      42.606  22.275  25.719  1.00  0.00     0.042 C 
BRANCH  34  35
ATOM     35  C   UNL A   1      41.484  22.227  26.736  1.00  0.00     0.118 C 
BRANCH  35  36
ATOM     36  N   UNL A   1      40.163  22.293  26.121  1.00  0.00    -0.352 N 
ATOM     37  C   UNL A   1      39.161  23.226  26.247  1.00  0.00     0.251 C 
ATOM     38  H   UNL A   1      39.955  21.547  25.515  1.00  0.00     0.163 HD
ATOM     39  O   UNL A   1      38.049  22.984  25.786  1.00  0.00    -0.269 OA
BRANCH  37  40
ATOM     40  C   UNL A   1      39.404  24.500  26.958  1.00  0.00     0.039 A 
ATOM     41  C   UNL A   1      39.018  24.621  28.295  1.00  0.00     0.014 A 
ATOM     42  C   UNL A   1      40.006  25.581  26.312  1.00  0.00     0.014 A 
ATOM     43  C   UNL A   1      39.313  25.790  29.000  1.00  0.00     0.010 A 
ATOM     44  C   UNL A   1      40.410  26.691  27.044  1.00  0.00     0.010 A 
ATOM     45  C   UNL A   1      40.056  26.816  28.394  1.00  0.00    -0.014 A 
BRANCH  45  46
ATOM     46  C   UNL A   1      40.462  28.035  29.139  1.00  0.00     0.031 A 
ATOM     47  C   UNL A   1      41.846  28.135  29.723  1.00  0.00     0.074 A 
ATOM     48  C   UNL A   1      39.563  29.016  29.359  1.00  0.00     0.049 A 
ATOM     49  N   UNL A   1      42.362  29.071  30.479  1.00  0.00    -0.248 NA
ATOM     50  C   UNL A   1      42.763  27.015  29.451  1.00  0.00     0.031 C 
ATOM     51  C   UNL A   1      38.175  29.013  28.894  1.00  0.00     0.029 A 
ATOM     52  N   UNL A   1      39.681  30.202  30.040  1.00  0.00    -0.354 N 
ATOM     53  C   UNL A   1      43.646  28.641  30.790  1.00  0.00     0.074 A 
ATOM     54  C   UNL A   1      43.812  27.335  30.194  1.00  0.00     0.031 C 
ATOM     55  C   UNL A   1      37.580  30.155  29.274  1.00  0.00     0.029 A 
ATOM     56  C   UNL A   1      38.527  30.949  30.049  1.00  0.00     0.049 A 
ATOM     57  H   UNL A   1      40.513  30.491  30.479  1.00  0.00     0.167 HD
ATOM     58  C   UNL A   1      44.610  29.290  31.486  1.00  0.00     0.037 A 
ATOM     59  C   UNL A   1      38.263  32.137  30.626  1.00  0.00     0.037 A 
ATOM     60  C   UNL A   1      44.452  30.606  32.044  1.00  0.00     0.049 A 
ATOM     61  C   UNL A   1      39.353  32.835  31.396  1.00  0.00     0.074 A 
ATOM     62  C   UNL A   1      45.392  31.383  32.698  1.00  0.00     0.029 A 
ATOM     63  N   UNL A   1      43.275  31.340  32.015  1.00  0.00    -0.354 N 
ATOM     64  N   UNL A   1      40.589  32.455  31.612  1.00  0.00    -0.248 NA
ATOM     65  C   UNL A   1      39.010  34.131  31.998  1.00  0.00     0.031 C 
ATOM     66  C   UNL A   1      44.767  32.562  33.116  1.00  0.00     0.029 A 
ATOM     67  C   UNL A   1      43.457  32.548  32.668  1.00  0.00     0.049 A 
ATOM     68  H   UNL A   1      42.436  31.045  31.594  1.00  0.00     0.167 HD
ATOM     69  C   UNL A   1      41.180  33.478  32.342  1.00  0.00     0.074 A 
ATOM     70  C   UNL A   1      40.171  34.500  32.520  1.00  0.00     0.031 C 
ATOM     71  C   UNL A   1      42.445  33.562  32.823  1.00  0.00     0.037 A 
BRANCH  58  72
ATOM     72  C   UNL A   1      45.923  28.588  31.680  1.00  0.00     0.064 A 
ATOM     73  C   UNL A   1      46.953  28.667  30.731  1.00  0.00     0.173 A 
ATOM     74  C   UNL A   1      46.171  27.858  32.854  1.00  0.00     0.173 A 
ATOM     75  F   UNL A   1      46.767  29.341  29.586  1.00  0.00    -0.203 F 
ATOM     76  C   UNL A   1      48.169  28.018  30.935  1.00  0.00     0.198 A 
ATOM     77  C   UNL A   1      47.399  27.239  33.070  1.00  0.00     0.198 A 
ATOM     78  F   UNL A   1      45.223  27.752  33.798  1.00  0.00    -0.203 F 
ATOM     79  F   UNL A   1      49.118  28.065  29.988  1.00  0.00    -0.200 F 
ATOM     80  C   UNL A   1      48.394  27.312  32.106  1.00  0.00     0.200 A 
ATOM     81  F   UNL A   1      47.620  26.569  34.209  1.00  0.00    -0.200 F 
ATOM     82  F   UNL A   1      49.568  26.697  32.305  1.00  0.00    -0.200 F 
ENDBRANCH  58  72
BRANCH  59  83
ATOM     83  C   UNL A   1      36.920  32.757  30.480  1.00  0.00     0.064 A 
ATOM     84  C   UNL A   1      36.597  33.515  29.345  1.00  0.00     0.173 A 
ATOM     85  C   UNL A   1      35.938  32.626  31.474  1.00  0.00     0.173 A 
ATOM     86  F   UNL A   1      37.506  33.687  28.375  1.00  0.00    -0.203 F 
ATOM     87  C   UNL A   1      35.357  34.140  29.223  1.00  0.00     0.198 A 
ATOM     88  C   UNL A   1      34.687  33.224  31.336  1.00  0.00     0.198 A 
ATOM     89  F   UNL A   1      36.192  31.907  32.578  1.00  0.00    -0.203 F 
ATOM     90  F   UNL A   1      35.097  34.904  28.153  1.00  0.00    -0.200 F 
ATOM     91  C   UNL A   1      34.402  33.990  30.216  1.00  0.00     0.200 A 
ATOM     92  F   UNL A   1      33.761  33.063  32.291  1.00  0.00    -0.200 F 
ATOM     93  F   UNL A   1      33.210  34.591  30.099  1.00  0.00    -0.200 F 
ENDBRANCH  59  83
BRANCH  71  94
ATOM     94  C   UNL A   1      42.825  34.820  33.549  1.00  0.00     0.064 A 
ATOM     95  C   UNL A   1      43.184  35.990  32.864  1.00  0.00     0.173 A 
ATOM     96  C   UNL A   1      42.789  34.866  34.952  1.00  0.00     0.173 A 
ATOM     97  F   UNL A   1      43.248  35.996  31.524  1.00  0.00    -0.203 F 
ATOM     98  C   UNL A   1      43.521  37.150  33.557  1.00  0.00     0.198 A 
ATOM     99  C   UNL A   1      43.092  36.037  35.640  1.00  0.00     0.198 A 
ATOM    100  F   UNL A   1      42.444  33.776  35.655  1.00  0.00    -0.203 F 
ATOM    101  F   UNL A   1      43.912  38.240  32.883  1.00  0.00    -0.200 F 
ATOM    102  C   UNL A   1      43.466  37.175  34.943  1.00  0.00     0.200 A 
ATOM    103  F   UNL A   1      43.022  36.063  36.978  1.00  0.00    -0.200 F 
ATOM    104  F   UNL A   1      43.782  38.295  35.607  1.00  0.00    -0.200 F 
ENDBRANCH  71  94
ENDBRANCH  45  46
ENDBRANCH  37  40
ENDBRANCH  35  36
ENDBRANCH  34  35
ENDBRANCH  33  34
ENDBRANCH   3  33
TORSDOF 16
ENDMDL
MODEL 2
REMARK VINA RESULT:     -10.2      0.949      1.854
REMARK SMILES COc1cc(/C=C2\SC(=S)N([C@H](C)C(=O)NCCCNC(=O)c3ccc(-c4c5nc(c(-c6c(F)c(F)c(F)c(F)c6F)c6ccc([nH]6)c(-c6c(F)c(F)c(F)c(F)c6F)c6nc(c(-c7c(F)c(F)c(F)c(F)c7F)c7ccc4[nH]7)C=C6)C=C5)cc3)C2=O)ccc1OCc1ccc(Cl)cc1Cl
REMARK SMILES IDX 14 1 15 2 16 3 12 5 13 6 11 7 6 8 7 9 8 10 86 11 9 12 87 13
REMARK SMILES IDX 10 14 5 15 3 16 4 17 90 18 89 19 88 20 2 21 1 22 91 23 92 24
REMARK SMILES IDX 93 25 94 26 99 27 95 28 98 29 100 30 96 31 97 32 17 33 18 34
REMARK SMILES IDX 19 35 20 36 21 37 22 39 23 40 24 41 85 42 25 43 84 44 26 45
REMARK SMILES IDX 27 46 28 47 78 48 29 49 83 50 77 51 79 52 30 53 82 54 76 55
REMARK SMILES IDX 75 56 31 58 63 59 43 60 62 61 44 62 47 63 61 64 80 65 45 66
REMARK SMILES IDX 46 67 60 69 81 70 48 71 32 72 33 73 41 74 34 75 35 76 39 77
REMARK SMILES IDX 42 78 36 79 37 80 40 81 38 82 64 83 65 84 73 85 66 86 67 87
REMARK SMILES IDX 71 88 74 89 68 90 69 91 72 92 70 93 49 94 50 95 58 96 51 97
REMARK SMILES IDX 52 98 56 99 59 100 53 101 54 102 57 103 55 104
REMARK H PARENT 16 4 20 38 79 57 47 68
REMARK Flexibility Score: inf
ROOT
ATOM      1  C   UNL A   1      45.461  24.184  24.995  1.00  0.00     0.242 C 
ATOM      2  O   UNL A   1      46.445  24.257  24.253  1.00  0.00    -0.273 OA
ATOM      3  N   UNL A   1      44.357  23.570  24.479  1.00  0.00    -0.354 N 
ATOM      4  H   UNL A   1      44.490  23.165  23.591  1.00  0.00     0.163 HD
ENDROOT
BRANCH   1   5
ATOM      5  C   UNL A   1      45.495  24.818  26.409  1.00  0.00     0.178 C 
ATOM      6  C   UNL A   1      46.402  24.012  27.337  1.00  0.00     0.042 C 
BRANCH   5   7
ATOM      7  N   UNL A   1      45.722  26.280  26.295  1.00  0.00    -0.281 N 
ATOM      8  C   UNL A   1      44.281  29.530  26.784  1.00  0.00     0.029 C 
ATOM      9  C   UNL A   1      45.142  28.550  26.472  1.00  0.00     0.081 C 
ATOM     10  S   UNL A   1      46.854  28.597  26.529  1.00  0.00    -0.054 SA
ATOM     11  C   UNL A   1      44.700  27.189  26.081  1.00  0.00     0.266 C 
ATOM     12  C   UNL A   1      46.980  26.845  26.451  1.00  0.00     0.149 C 
ATOM     13  O   UNL A   1      43.588  26.967  25.637  1.00  0.00    -0.268 OA
ATOM     14  S   UNL A   1      48.463  26.088  26.578  1.00  0.00    -0.052 S 
BRANCH   8  15
ATOM     15  C   UNL A   1      44.710  30.901  27.077  1.00  0.00    -0.020 A 
ATOM     16  C   UNL A   1      46.067  32.885  26.667  1.00  0.00     0.161 A 
ATOM     17  C   UNL A   1      45.791  31.524  26.431  1.00  0.00     0.058 A 
ATOM     18  C   UNL A   1      45.258  33.611  27.551  1.00  0.00     0.161 A 
ATOM     19  C   UNL A   1      44.177  32.977  28.173  1.00  0.00     0.051 A 
ATOM     20  C   UNL A   1      43.916  31.632  27.959  1.00  0.00     0.012 A 
BRANCH  16  21
ATOM     21  O   UNL A   1      47.015  33.559  25.943  1.00  0.00    -0.493 OA
ATOM     22  C   UNL A   1      48.338  33.467  26.463  1.00  0.00     0.278 C 
ENDBRANCH  16  21
BRANCH  18  23
ATOM     23  O   UNL A   1      45.363  34.927  27.905  1.00  0.00    -0.485 OA
BRANCH  23  24
ATOM     24  C   UNL A   1      44.932  35.951  27.006  1.00  0.00     0.267 C 
BRANCH  24  25
ATOM     25  C   UNL A   1      44.059  37.065  27.559  1.00  0.00     0.008 A 
ATOM     26  C   UNL A   1      42.742  37.158  27.068  1.00  0.00     0.010 A 
ATOM     27  C   UNL A   1      44.461  37.987  28.539  1.00  0.00     0.049 A 
ATOM     28  C   UNL A   1      41.906  38.214  27.437  1.00  0.00     0.021 A 
ATOM     29  C   UNL A   1      43.636  39.064  28.884  1.00  0.00     0.041 A 
ATOM     30  Cl  UNL A   1      45.933  37.830  29.428  1.00  0.00    -0.084 Cl
ATOM     31  C   UNL A   1      42.373  39.183  28.316  1.00  0.00     0.042 A 
ATOM     32  Cl  UNL A   1      41.375  40.523  28.718  1.00  0.00    -0.084 Cl
ENDBRANCH  24  25
ENDBRANCH  23  24
ENDBRANCH  18  23
ENDBRANCH   8  15
ENDBRANCH   5   7
ENDBRANCH   1   5
BRANCH   3  33
ATOM     33  C   UNL A   1      43.024  23.415  25.020  1.00  0.00     0.117 C 
BRANCH  33  34
ATOM     34  C   UNL A   1      42.789  22.084  25.703  1.00  0.00     0.042 C 
BRANCH  34  35
ATOM     35  C   UNL A   1      41.679  22.118  26.733  1.00  0.00     0.118 C 
BRANCH  35  36
ATOM     36  N   UNL A   1      40.351  22.137  26.130  1.00  0.00    -0.352 N 
ATOM     37  C   UNL A   1      39.337  23.059  26.226  1.00  0.00     0.251 C 
ATOM     38  H   UNL A   1      40.148  21.361  25.561  1.00  0.00     0.163 HD
ATOM     39  O   UNL A   1      38.224  22.781  25.788  1.00  0.00    -0.269 OA
BRANCH  37  40
ATOM     40  C   UNL A   1      39.567  24.368  26.875  1.00  0.00     0.039 A 
ATOM     41  C   UNL A   1      39.166  24.553  28.201  1.00  0.00     0.014 A 
ATOM     42  C   UNL A   1      40.173  25.418  26.184  1.00  0.00     0.014 A 
ATOM     43  C   UNL A   1      39.450  25.756  28.851  1.00  0.00     0.010 A 
ATOM     44  C   UNL A   1      40.565  26.564  26.865  1.00  0.00     0.010 A 
ATOM     45  C   UNL A   1      40.196  26.754  28.204  1.00  0.00    -0.014 A 
BRANCH  45  46
ATOM     46  C   UNL A   1      40.589  28.009  28.893  1.00  0.00     0.031 A 
ATOM     47  C   UNL A   1      41.989  28.170  29.424  1.00  0.00     0.074 A 
ATOM     48  C   UNL A   1      39.669  28.970  29.110  1.00  0.00     0.049 A 
ATOM     49  N   UNL A   1      42.502  29.146  30.129  1.00  0.00    -0.248 NA
ATOM     50  C   UNL A   1      42.929  27.069  29.158  1.00  0.00     0.031 C 
ATOM     51  C   UNL A   1      38.267  28.910  28.695  1.00  0.00     0.029 A 
ATOM     52  N   UNL A   1      39.774  30.183  29.746  1.00  0.00    -0.354 N 
ATOM     53  C   UNL A   1      43.808  28.765  30.410  1.00  0.00     0.074 A 
ATOM     54  C   UNL A   1      43.993  27.445  29.853  1.00  0.00     0.031 C 
ATOM     55  C   UNL A   1      37.651  30.047  29.057  1.00  0.00     0.029 A 
ATOM     56  C   UNL A   1      38.599  30.895  29.771  1.00  0.00     0.049 A 
ATOM     57  H   UNL A   1      40.611  30.511  30.146  1.00  0.00     0.167 HD
ATOM     58  C   UNL A   1      44.774  29.466  31.049  1.00  0.00     0.037 A 
ATOM     59  C   UNL A   1      38.318  32.095  30.317  1.00  0.00     0.037 A 
ATOM     60  C   UNL A   1      44.596  30.796  31.568  1.00  0.00     0.049 A 
ATOM     61  C   UNL A   1      39.412  32.850  31.024  1.00  0.00     0.074 A 
ATOM     62  C   UNL A   1      45.533  31.622  32.162  1.00  0.00     0.029 A 
ATOM     63  N   UNL A   1      43.397  31.493  31.555  1.00  0.00    -0.354 N 
ATOM     64  N   UNL A   1      40.665  32.515  31.209  1.00  0.00    -0.248 NA
ATOM     65  C   UNL A   1      39.051  34.156  31.593  1.00  0.00     0.031 C 
ATOM     66  C   UNL A   1      44.887  32.796  32.562  1.00  0.00     0.029 A 
ATOM     67  C   UNL A   1      43.564  32.728  32.160  1.00  0.00     0.049 A 
ATOM     68  H   UNL A   1      42.553  31.159  31.174  1.00  0.00     0.167 HD
ATOM     69  C   UNL A   1      41.250  33.579  31.883  1.00  0.00     0.074 A 
ATOM     70  C   UNL A   1      40.216  34.577  32.062  1.00  0.00     0.031 C 
ATOM     71  C   UNL A   1      42.527  33.717  32.316  1.00  0.00     0.037 A 
BRANCH  58  72
ATOM     72  C   UNL A   1      46.114  28.810  31.221  1.00  0.00     0.064 A 
ATOM     73  C   UNL A   1      46.355  27.873  32.238  1.00  0.00     0.173 A 
ATOM     74  C   UNL A   1      47.162  29.091  30.331  1.00  0.00     0.173 A 
ATOM     75  F   UNL A   1      45.393  27.575  33.124  1.00  0.00    -0.203 F 
ATOM     76  C   UNL A   1      47.601  27.266  32.375  1.00  0.00     0.198 A 
ATOM     77  C   UNL A   1      48.396  28.458  30.450  1.00  0.00     0.198 A 
ATOM     78  F   UNL A   1      46.987  29.975  29.337  1.00  0.00    -0.203 F 
ATOM     79  F   UNL A   1      47.822  26.415  33.387  1.00  0.00    -0.200 F 
ATOM     80  C   UNL A   1      48.618  27.552  31.477  1.00  0.00     0.200 A 
ATOM     81  F   UNL A   1      49.373  28.724  29.572  1.00  0.00    -0.200 F 
ATOM     82  F   UNL A   1      49.813  26.959  31.604  1.00  0.00    -0.200 F 
ENDBRANCH  58  72
BRANCH  59  83
ATOM     83  C   UNL A   1      36.952  32.670  30.197  1.00  0.00     0.064 A 
ATOM     84  C   UNL A   1      36.552  33.335  29.028  1.00  0.00     0.173 A 
ATOM     85  C   UNL A   1      36.026  32.586  31.247  1.00  0.00     0.173 A 
ATOM     86  F   UNL A   1      37.407  33.459  28.004  1.00  0.00    -0.203 F 
ATOM     87  C   UNL A   1      35.291  33.919  28.927  1.00  0.00     0.198 A 
ATOM     88  C   UNL A   1      34.754  33.142  31.132  1.00  0.00     0.198 A 
ATOM     89  F   UNL A   1      36.355  31.956  32.384  1.00  0.00    -0.203 F 
ATOM     90  F   UNL A   1      34.956  34.597  27.821  1.00  0.00    -0.200 F 
ATOM     91  C   UNL A   1      34.391  33.818  29.976  1.00  0.00     0.200 A 
ATOM     92  F   UNL A   1      33.881  33.028  32.143  1.00  0.00    -0.200 F 
ATOM     93  F   UNL A   1      33.178  34.380  29.879  1.00  0.00    -0.200 F 
ENDBRANCH  59  83
BRANCH  71  94
ATOM     94  C   UNL A   1      42.893  35.010  32.986  1.00  0.00     0.064 A 
ATOM     95  C   UNL A   1      42.785  35.182  34.374  1.00  0.00     0.173 A 
ATOM     96  C   UNL A   1      43.397  36.080  32.229  1.00  0.00     0.173 A 
ATOM     97  F   UNL A   1      42.296  34.196  35.140  1.00  0.00    -0.203 F 
ATOM     98  C   UNL A   1      43.142  36.386  34.975  1.00  0.00     0.198 A 
ATOM     99  C   UNL A   1      43.786  37.269  32.838  1.00  0.00     0.198 A 
ATOM    100  F   UNL A   1      43.527  35.965  30.898  1.00  0.00    -0.203 F 
ATOM    101  F   UNL A   1      42.982  36.545  36.295  1.00  0.00    -0.200 F 
ATOM    102  C   UNL A   1      43.650  37.424  34.209  1.00  0.00     0.200 A 
ATOM    103  F   UNL A   1      44.291  38.265  32.097  1.00  0.00    -0.200 F 
ATOM    104  F   UNL A   1      44.002  38.579  34.791  1.00  0.00    -0.200 F 
ENDBRANCH  71  94
ENDBRANCH  45  46
ENDBRANCH  37  40
ENDBRANCH  35  36
ENDBRANCH  34  35
ENDBRANCH  33  34
ENDBRANCH   3  33
TORSDOF 16
ENDMDL
MODEL 3
REMARK VINA RESULT:     -10.1      4.907     11.141
REMARK SMILES COc1cc(/C=C2\SC(=S)N([C@H](C)C(=O)NCCCNC(=O)c3ccc(-c4c5nc(c(-c6c(F)c(F)c(F)c(F)c6F)c6ccc([nH]6)c(-c6c(F)c(F)c(F)c(F)c6F)c6nc(c(-c7c(F)c(F)c(F)c(F)c7F)c7ccc4[nH]7)C=C6)C=C5)cc3)C2=O)ccc1OCc1ccc(Cl)cc1Cl
REMARK SMILES IDX 14 1 15 2 16 3 12 5 13 6 11 7 6 8 7 9 8 10 86 11 9 12 87 13
REMARK SMILES IDX 10 14 5 15 3 16 4 17 90 18 89 19 88 20 2 21 1 22 91 23 92 24
REMARK SMILES IDX 93 25 94 26 99 27 95 28 98 29 100 30 96 31 97 32 17 33 18 34
REMARK SMILES IDX 19 35 20 36 21 37 22 39 23 40 24 41 85 42 25 43 84 44 26 45
REMARK SMILES IDX 27 46 28 47 78 48 29 49 83 50 77 51 79 52 30 53 82 54 76 55
REMARK SMILES IDX 75 56 31 58 63 59 43 60 62 61 44 62 47 63 61 64 80 65 45 66
REMARK SMILES IDX 46 67 60 69 81 70 48 71 32 72 33 73 41 74 34 75 35 76 39 77
REMARK SMILES IDX 42 78 36 79 37 80 40 81 38 82 64 83 65 84 73 85 66 86 67 87
REMARK SMILES IDX 71 88 74 89 68 90 69 91 72 92 70 93 49 94 50 95 58 96 51 97
REMARK SMILES IDX 52 98 56 99 59 100 53 101 54 102 57 103 55 104
REMARK H PARENT 16 4 20 38 79 57 47 68
REMARK Flexibility Score: inf
ROOT
ATOM      1  C   UNL A   1      36.642  32.829  33.823  1.00  0.00     0.242 C 
ATOM      2  O   UNL A   1      36.457  33.096  35.014  1.00  0.00    -0.273 OA
ATOM      3  N   UNL A   1      35.542  32.449  33.109  1.00  0.00    -0.354 N 
ATOM      4  H   UNL A   1      34.691  32.514  33.601  1.00  0.00     0.163 HD
ENDROOT
BRANCH   1   5
ATOM      5  C   UNL A   1      38.068  32.878  33.219  1.00  0.00     0.178 C 
ATOM      6  C   UNL A   1      38.608  34.308  33.235  1.00  0.00     0.042 C 
BRANCH   5   7
ATOM      7  N   UNL A   1      38.900  31.804  33.815  1.00  0.00    -0.281 N 
ATOM      8  C   UNL A   1      40.420  28.603  33.249  1.00  0.00     0.029 C 
ATOM      9  C   UNL A   1      40.033  29.745  33.835  1.00  0.00     0.081 C 
ATOM     10  S   UNL A   1      40.848  30.632  35.053  1.00  0.00    -0.054 SA
ATOM     11  C   UNL A   1      38.805  30.476  33.432  1.00  0.00     0.266 C 
ATOM     12  C   UNL A   1      39.875  32.068  34.767  1.00  0.00     0.149 C 
ATOM     13  O   UNL A   1      37.881  29.932  32.856  1.00  0.00    -0.268 OA
ATOM     14  S   UNL A   1      40.193  33.492  35.576  1.00  0.00    -0.052 S 
BRANCH   8  15
ATOM     15  C   UNL A   1      41.576  27.827  33.707  1.00  0.00    -0.020 A 
ATOM     16  C   UNL A   1      42.642  26.147  35.117  1.00  0.00     0.161 A 
ATOM     17  C   UNL A   1      41.532  26.959  34.810  1.00  0.00     0.058 A 
ATOM     18  C   UNL A   1      43.789  26.213  34.315  1.00  0.00     0.161 A 
ATOM     19  C   UNL A   1      43.809  27.073  33.211  1.00  0.00     0.051 A 
ATOM     20  C   UNL A   1      42.725  27.889  32.920  1.00  0.00     0.012 A 
BRANCH  16  21
ATOM     21  O   UNL A   1      42.578  25.184  36.090  1.00  0.00    -0.493 OA
ATOM     22  C   UNL A   1      41.259  24.798  36.460  1.00  0.00     0.278 C 
ENDBRANCH  16  21
BRANCH  18  23
ATOM     23  O   UNL A   1      44.954  25.511  34.448  1.00  0.00    -0.485 OA
BRANCH  23  24
ATOM     24  C   UNL A   1      45.162  24.313  33.698  1.00  0.00     0.267 C 
BRANCH  24  25
ATOM     25  C   UNL A   1      45.554  23.055  34.455  1.00  0.00     0.008 A 
ATOM     26  C   UNL A   1      44.677  21.955  34.377  1.00  0.00     0.010 A 
ATOM     27  C   UNL A   1      46.735  22.902  35.199  1.00  0.00     0.049 A 
ATOM     28  C   UNL A   1      44.902  20.798  35.126  1.00  0.00     0.021 A 
ATOM     29  C   UNL A   1      46.944  21.757  35.976  1.00  0.00     0.041 A 
ATOM     30  Cl  UNL A   1      48.024  24.050  35.159  1.00  0.00    -0.084 Cl
ATOM     31  C   UNL A   1      46.017  20.721  35.951  1.00  0.00     0.042 A 
ATOM     32  Cl  UNL A   1      46.259  19.329  36.930  1.00  0.00    -0.084 Cl
ENDBRANCH  24  25
ENDBRANCH  23  24
ENDBRANCH  18  23
ENDBRANCH   8  15
ENDBRANCH   5   7
ENDBRANCH   1   5
BRANCH   3  33
ATOM     33  C   UNL A   1      35.419  31.967  31.750  1.00  0.00     0.117 C 
BRANCH  33  34
ATOM     34  C   UNL A   1      34.784  32.962  30.801  1.00  0.00     0.042 C 
BRANCH  34  35
ATOM     35  C   UNL A   1      35.155  32.739  29.350  1.00  0.00     0.118 C 
BRANCH  35  36
ATOM     36  N   UNL A   1      34.357  31.695  28.718  1.00  0.00    -0.352 N 
ATOM     37  C   UNL A   1      34.726  30.483  28.185  1.00  0.00     0.251 C 
ATOM     38  H   UNL A   1      33.394  31.891  28.664  1.00  0.00     0.163 HD
ATOM     39  O   UNL A   1      33.914  29.841  27.525  1.00  0.00    -0.269 OA
BRANCH  37  40
ATOM     40  C   UNL A   1      36.097  29.963  28.374  1.00  0.00     0.039 A 
ATOM     41  C   UNL A   1      37.034  30.117  27.349  1.00  0.00     0.014 A 
ATOM     42  C   UNL A   1      36.466  29.319  29.556  1.00  0.00     0.014 A 
ATOM     43  C   UNL A   1      38.354  29.702  27.546  1.00  0.00     0.010 A 
ATOM     44  C   UNL A   1      37.802  29.021  29.798  1.00  0.00     0.010 A 
ATOM     45  C   UNL A   1      38.760  29.196  28.791  1.00  0.00    -0.014 A 
BRANCH  45  46
ATOM     46  C   UNL A   1      40.172  28.826  29.063  1.00  0.00     0.031 A 
ATOM     47  C   UNL A   1      41.082  29.795  29.771  1.00  0.00     0.074 A 
ATOM     48  C   UNL A   1      40.658  27.655  28.604  1.00  0.00     0.049 A 
ATOM     49  N   UNL A   1      42.363  29.698  30.023  1.00  0.00    -0.248 NA
ATOM     50  C   UNL A   1      40.479  31.058  30.227  1.00  0.00     0.031 C 
ATOM     51  C   UNL A   1      39.894  26.656  27.855  1.00  0.00     0.029 A 
ATOM     52  N   UNL A   1      41.916  27.112  28.691  1.00  0.00    -0.354 N 
ATOM     53  C   UNL A   1      42.718  30.891  30.639  1.00  0.00     0.074 A 
ATOM     54  C   UNL A   1      41.536  31.721  30.670  1.00  0.00     0.031 C 
ATOM     55  C   UNL A   1      40.688  25.609  27.579  1.00  0.00     0.029 A 
ATOM     56  C   UNL A   1      42.027  25.881  28.089  1.00  0.00     0.049 A 
ATOM     57  H   UNL A   1      42.667  27.560  29.142  1.00  0.00     0.167 HD
ATOM     58  C   UNL A   1      43.917  31.250  31.158  1.00  0.00     0.037 A 
ATOM     59  C   UNL A   1      43.094  25.069  27.956  1.00  0.00     0.037 A 
ATOM     60  C   UNL A   1      45.081  30.405  31.159  1.00  0.00     0.049 A 
ATOM     61  C   UNL A   1      44.415  25.496  28.542  1.00  0.00     0.074 A 
ATOM     62  C   UNL A   1      46.319  30.643  31.727  1.00  0.00     0.029 A 
ATOM     63  N   UNL A   1      45.149  29.156  30.557  1.00  0.00    -0.354 N 
ATOM     64  N   UNL A   1      44.717  26.591  29.195  1.00  0.00    -0.248 NA
ATOM     65  C   UNL A   1      45.542  24.568  28.373  1.00  0.00     0.031 C 
ATOM     66  C   UNL A   1      47.154  29.565  31.420  1.00  0.00     0.029 A 
ATOM     67  C   UNL A   1      46.419  28.626  30.716  1.00  0.00     0.049 A 
ATOM     68  H   UNL A   1      44.405  28.714  30.088  1.00  0.00     0.167 HD
ATOM     69  C   UNL A   1      46.056  26.469  29.546  1.00  0.00     0.074 A 
ATOM     70  C   UNL A   1      46.502  25.186  29.044  1.00  0.00     0.031 C 
ATOM     71  C   UNL A   1      46.843  27.340  30.222  1.00  0.00     0.037 A 
BRANCH  58  72
ATOM     72  C   UNL A   1      44.030  32.616  31.772  1.00  0.00     0.064 A 
ATOM     73  C   UNL A   1      44.299  33.756  30.999  1.00  0.00     0.173 A 
ATOM     74  C   UNL A   1      43.827  32.794  33.150  1.00  0.00     0.173 A 
ATOM     75  F   UNL A   1      44.514  33.642  29.679  1.00  0.00    -0.203 F 
ATOM     76  C   UNL A   1      44.389  35.016  31.585  1.00  0.00     0.198 A 
ATOM     77  C   UNL A   1      43.884  34.059  33.727  1.00  0.00     0.198 A 
ATOM     78  F   UNL A   1      43.562  31.740  33.936  1.00  0.00    -0.203 F 
ATOM     79  F   UNL A   1      44.700  36.082  30.833  1.00  0.00    -0.200 F 
ATOM     80  C   UNL A   1      44.174  35.168  32.946  1.00  0.00     0.200 A 
ATOM     81  F   UNL A   1      43.661  34.207  35.040  1.00  0.00    -0.200 F 
ATOM     82  F   UNL A   1      44.251  36.383  33.506  1.00  0.00    -0.200 F 
ENDBRANCH  58  72
BRANCH  59  83
ATOM     83  C   UNL A   1      42.957  23.761  27.264  1.00  0.00     0.064 A 
ATOM     84  C   UNL A   1      42.447  22.640  27.937  1.00  0.00     0.173 A 
ATOM     85  C   UNL A   1      43.348  23.593  25.927  1.00  0.00     0.173 A 
ATOM     86  F   UNL A   1      42.078  22.743  29.221  1.00  0.00    -0.203 F 
ATOM     87  C   UNL A   1      42.361  21.400  27.309  1.00  0.00     0.198 A 
ATOM     88  C   UNL A   1      43.231  22.360  25.290  1.00  0.00     0.198 A 
ATOM     89  F   UNL A   1      43.837  24.633  25.235  1.00  0.00    -0.203 F 
ATOM     90  F   UNL A   1      41.923  20.334  27.994  1.00  0.00    -0.200 F 
ATOM     91  C   UNL A   1      42.748  21.261  25.985  1.00  0.00     0.200 A 
ATOM     92  F   UNL A   1      43.591  22.234  24.006  1.00  0.00    -0.200 F 
ATOM     93  F   UNL A   1      42.665  20.067  25.382  1.00  0.00    -0.200 F 
ENDBRANCH  59  83
BRANCH  71  94
ATOM     94  C   UNL A   1      48.258  26.920  30.500  1.00  0.00     0.064 A 
ATOM     95  C   UNL A   1      49.296  27.167  29.589  1.00  0.00     0.173 A 
ATOM     96  C   UNL A   1      48.585  26.296  31.714  1.00  0.00     0.173 A 
ATOM     97  F   UNL A   1      49.034  27.747  28.409  1.00  0.00    -0.203 F 
ATOM     98  C   UNL A   1      50.603  26.779  29.873  1.00  0.00     0.198 A 
ATOM     99  C   UNL A   1      49.898  25.942  32.009  1.00  0.00     0.198 A 
ATOM    100  F   UNL A   1      47.630  26.044  32.624  1.00  0.00    -0.203 F 
ATOM    101  F   UNL A   1      51.569  26.978  28.966  1.00  0.00    -0.200 F 
ATOM    102  C   UNL A   1      50.904  26.176  31.085  1.00  0.00     0.200 A 
ATOM    103  F   UNL A   1      50.188  25.375  33.188  1.00  0.00    -0.200 F 
ATOM    104  F   UNL A   1      52.164  25.812  31.359  1.00  0.00    -0.200 F 
ENDBRANCH  71  94
ENDBRANCH  45  46
ENDBRANCH  37  40
ENDBRANCH  35  36
ENDBRANCH  34  35
ENDBRANCH  33  34
ENDBRANCH   3  33
TORSDOF 16
ENDMDL
