MODEL 1
REMARK VINA RESULT:     -12.7      0.000      0.000
REMARK SMILES O=C(NCCCNC(=O)c1cc(-c2ccn(C(F)F)c(=O)c2)ccc1O)c1ccc(-c2c3nc(c(-c4c(F)c(F)c(F)c(F)c4F)c4ccc([nH]4)c(-c4c(F)c(F)c(F)c(F)c4F)c4nc(c(-c5c(F)c(F)c(F)c(F)c5F)c5ccc2[nH]5)C=C4)C=C3)cc1
REMARK SMILES IDX 5 1 4 2 3 3 1 4 2 5 27 7 28 8 89 9 29 10 88 11 30 12 31 13
REMARK SMILES IDX 32 14 82 15 33 16 87 17 81 18 83 19 34 20 86 21 80 22 79 23
REMARK SMILES IDX 35 25 67 26 47 27 66 28 48 29 51 30 65 31 84 32 49 33 50 34
REMARK SMILES IDX 64 36 85 37 52 38 36 39 37 40 45 41 38 42 39 43 43 44 46 45
REMARK SMILES IDX 40 46 41 47 44 48 42 49 68 50 69 51 77 52 70 53 71 54 75 55
REMARK SMILES IDX 78 56 72 57 73 58 76 59 74 60 53 61 54 62 62 63 55 64 56 65
REMARK SMILES IDX 60 66 63 67 57 68 58 69 61 70 59 71 6 72 7 73 8 74 9 76
REMARK SMILES IDX 10 77 11 78 25 79 12 80 24 81 23 82 26 83 13 85 14 86 22 87
REMARK SMILES IDX 15 88 20 89 16 90 21 91 17 92 18 93 19 94
REMARK H PARENT 3 6 83 24 51 35 7 75 26 84
REMARK Flexibility Score: inf
ROOT
ATOM      1  C   UNL A   1      32.084  28.384  26.468  1.00  0.00     0.042 C 
ENDROOT
BRANCH   1   2
ATOM      2  C   UNL A   1      33.058  29.383  25.866  1.00  0.00     0.118 C 
BRANCH   2   3
ATOM      3  N   UNL A   1      32.832  30.743  26.332  1.00  0.00    -0.352 N 
ATOM      4  O   UNL A   1      32.997  32.569  27.625  1.00  0.00    -0.269 OA
ATOM      5  C   UNL A   1      33.495  31.503  27.261  1.00  0.00     0.251 C 
ATOM      6  H   UNL A   1      32.071  31.198  25.905  1.00  0.00     0.163 HD
BRANCH   5   7
ATOM      7  C   UNL A   1      34.787  31.071  27.841  1.00  0.00     0.039 A 
ATOM      8  C   UNL A   1      34.907  29.755  28.304  1.00  0.00     0.014 A 
ATOM      9  C   UNL A   1      35.852  31.957  28.013  1.00  0.00     0.014 A 
ATOM     10  C   UNL A   1      36.088  29.335  28.919  1.00  0.00     0.010 A 
ATOM     11  C   UNL A   1      37.071  31.505  28.510  1.00  0.00     0.010 A 
ATOM     12  C   UNL A   1      37.184  30.206  29.021  1.00  0.00    -0.014 A 
BRANCH  12  13
ATOM     13  C   UNL A   1      38.408  29.819  29.768  1.00  0.00     0.031 A 
ATOM     14  C   UNL A   1      38.619  30.339  31.166  1.00  0.00     0.074 A 
ATOM     15  C   UNL A   1      39.330  29.023  29.196  1.00  0.00     0.049 A 
ATOM     16  N   UNL A   1      39.624  30.141  31.982  1.00  0.00    -0.248 NA
ATOM     17  C   UNL A   1      37.579  31.227  31.711  1.00  0.00     0.031 C 
ATOM     18  C   UNL A   1      39.261  28.491  27.836  1.00  0.00     0.029 A 
ATOM     19  N   UNL A   1      40.504  28.517  29.695  1.00  0.00    -0.354 N 
ATOM     20  C   UNL A   1      39.342  30.895  33.115  1.00  0.00     0.074 A 
ATOM     21  C   UNL A   1      38.117  31.613  32.856  1.00  0.00     0.031 C 
ATOM     22  C   UNL A   1      40.321  27.694  27.623  1.00  0.00     0.029 A 
ATOM     23  C   UNL A   1      41.159  27.686  28.820  1.00  0.00     0.049 A 
ATOM     24  H   UNL A   1      40.844  28.729  30.594  1.00  0.00     0.167 HD
ATOM     25  C   UNL A   1      40.018  30.948  34.285  1.00  0.00     0.037 A 
ATOM     26  C   UNL A   1      42.301  26.988  28.972  1.00  0.00     0.037 A 
ATOM     27  C   UNL A   1      41.201  30.182  34.563  1.00  0.00     0.049 A 
ATOM     28  C   UNL A   1      43.045  27.067  30.278  1.00  0.00     0.074 A 
ATOM     29  C   UNL A   1      41.911  30.094  35.746  1.00  0.00     0.029 A 
ATOM     30  N   UNL A   1      41.844  29.369  33.643  1.00  0.00    -0.354 N 
ATOM     31  N   UNL A   1      42.728  27.723  31.369  1.00  0.00    -0.248 NA
ATOM     32  C   UNL A   1      44.304  26.314  30.375  1.00  0.00     0.031 C 
ATOM     33  C   UNL A   1      43.010  29.259  35.530  1.00  0.00     0.029 A 
ATOM     34  C   UNL A   1      42.963  28.797  34.223  1.00  0.00     0.049 A 
ATOM     35  H   UNL A   1      41.548  29.219  32.715  1.00  0.00     0.167 HD
ATOM     36  C   UNL A   1      43.738  27.455  32.283  1.00  0.00     0.074 A 
ATOM     37  C   UNL A   1      44.671  26.563  31.626  1.00  0.00     0.031 C 
ATOM     38  C   UNL A   1      43.880  27.913  33.551  1.00  0.00     0.037 A 
BRANCH  25  39
ATOM     39  C   UNL A   1      39.477  31.844  35.360  1.00  0.00     0.064 A 
ATOM     40  C   UNL A   1      39.852  33.194  35.448  1.00  0.00     0.173 A 
ATOM     41  C   UNL A   1      38.552  31.358  36.296  1.00  0.00     0.173 A 
ATOM     42  F   UNL A   1      40.743  33.705  34.585  1.00  0.00    -0.203 F 
ATOM     43  C   UNL A   1      39.348  34.014  36.453  1.00  0.00     0.198 A 
ATOM     44  C   UNL A   1      38.025  32.190  37.281  1.00  0.00     0.198 A 
ATOM     45  F   UNL A   1      38.154  30.078  36.252  1.00  0.00    -0.203 F 
ATOM     46  F   UNL A   1      39.763  35.284  36.550  1.00  0.00    -0.200 F 
ATOM     47  C   UNL A   1      38.429  33.513  37.364  1.00  0.00     0.200 A 
ATOM     48  F   UNL A   1      37.128  31.709  38.153  1.00  0.00    -0.200 F 
ATOM     49  F   UNL A   1      37.941  34.306  38.327  1.00  0.00    -0.200 F 
ENDBRANCH  25  39
BRANCH  26  50
ATOM     50  C   UNL A   1      42.776  26.116  27.868  1.00  0.00     0.064 A 
ATOM     51  C   UNL A   1      43.616  26.625  26.868  1.00  0.00     0.173 A 
ATOM     52  C   UNL A   1      42.447  24.754  27.813  1.00  0.00     0.173 A 
ATOM     53  F   UNL A   1      43.944  27.926  26.867  1.00  0.00    -0.203 F 
ATOM     54  C   UNL A   1      44.111  25.804  25.857  1.00  0.00     0.198 A 
ATOM     55  C   UNL A   1      42.960  23.929  26.814  1.00  0.00     0.198 A 
ATOM     56  F   UNL A   1      41.650  24.219  28.750  1.00  0.00    -0.203 F 
ATOM     57  F   UNL A   1      44.898  26.320  24.903  1.00  0.00    -0.200 F 
ATOM     58  C   UNL A   1      43.790  24.455  25.836  1.00  0.00     0.200 A 
ATOM     59  F   UNL A   1      42.660  22.624  26.807  1.00  0.00    -0.200 F 
ATOM     60  F   UNL A   1      44.282  23.662  24.874  1.00  0.00    -0.200 F 
ENDBRANCH  26  50
BRANCH  38  61
ATOM     61  C   UNL A   1      45.089  27.477  34.323  1.00  0.00     0.064 A 
ATOM     62  C   UNL A   1      46.244  28.269  34.362  1.00  0.00     0.173 A 
ATOM     63  C   UNL A   1      45.046  26.329  35.128  1.00  0.00     0.173 A 
ATOM     64  F   UNL A   1      46.335  29.370  33.601  1.00  0.00    -0.203 F 
ATOM     65  C   UNL A   1      47.313  27.930  35.187  1.00  0.00     0.198 A 
ATOM     66  C   UNL A   1      46.107  26.007  35.970  1.00  0.00     0.198 A 
ATOM     67  F   UNL A   1      43.957  25.545  35.131  1.00  0.00    -0.203 F 
ATOM     68  F   UNL A   1      48.414  28.695  35.202  1.00  0.00    -0.200 F 
ATOM     69  C   UNL A   1      47.238  26.808  35.999  1.00  0.00     0.200 A 
ATOM     70  F   UNL A   1      46.025  24.933  36.767  1.00  0.00    -0.200 F 
ATOM     71  F   UNL A   1      48.256  26.501  36.815  1.00  0.00    -0.200 F 
ENDBRANCH  38  61
ENDBRANCH  12  13
ENDBRANCH   5   7
ENDBRANCH   2   3
ENDBRANCH   1   2
BRANCH   1  72
ATOM     72  C   UNL A   1      32.331  26.946  26.044  1.00  0.00     0.118 C 
BRANCH  72  73
ATOM     73  N   UNL A   1      31.476  26.004  26.748  1.00  0.00    -0.352 N 
ATOM     74  C   UNL A   1      31.304  24.662  26.535  1.00  0.00     0.255 C 
ATOM     75  H   UNL A   1      30.943  26.386  27.484  1.00  0.00     0.163 HD
ATOM     76  O   UNL A   1      30.446  24.047  27.165  1.00  0.00    -0.269 OA
BRANCH  74  77
ATOM     77  C   UNL A   1      32.089  23.959  25.499  1.00  0.00     0.082 A 
ATOM     78  C   UNL A   1      33.432  23.680  25.792  1.00  0.00     0.026 A 
ATOM     79  C   UNL A   1      31.557  23.609  24.252  1.00  0.00     0.128 A 
ATOM     80  C   UNL A   1      34.223  22.995  24.865  1.00  0.00    -0.017 A 
ATOM     81  C   UNL A   1      32.329  22.897  23.338  1.00  0.00     0.047 A 
ATOM     82  C   UNL A   1      33.653  22.586  23.650  1.00  0.00     0.012 A 
BRANCH  79  83
ATOM     83  O   UNL A   1      30.278  23.958  23.917  1.00  0.00    -0.507 OA
ATOM     84  H   UNL A   1      29.677  23.303  23.618  1.00  0.00     0.293 HD
ENDBRANCH  79  83
BRANCH  80  85
ATOM     85  C   UNL A   1      35.652  22.726  25.112  1.00  0.00    -0.011 A 
ATOM     86  C   UNL A   1      36.234  21.418  24.873  1.00  0.00     0.027 A 
ATOM     87  C   UNL A   1      36.426  23.702  25.616  1.00  0.00     0.080 A 
ATOM     88  C   UNL A   1      37.506  21.168  25.197  1.00  0.00     0.095 A 
ATOM     89  C   UNL A   1      37.851  23.441  25.968  1.00  0.00     0.255 A 
ATOM     90  N   UNL A   1      38.306  22.152  25.750  1.00  0.00    -0.258 N 
ATOM     91  O   UNL A   1      38.513  24.364  26.439  1.00  0.00    -0.269 OA
BRANCH  90  92
ATOM     92  C   UNL A   1      39.658  21.855  26.142  1.00  0.00     0.451 C 
ATOM     93  F   UNL A   1      39.848  22.074  27.465  1.00  0.00    -0.185 F 
ATOM     94  F   UNL A   1      39.962  20.560  25.881  1.00  0.00    -0.185 F 
ENDBRANCH  90  92
ENDBRANCH  80  85
ENDBRANCH  74  77
ENDBRANCH  72  73
ENDBRANCH   1  72
TORSDOF 13
ENDMDL
MODEL 2
REMARK VINA RESULT:     -12.6      0.194      1.960
REMARK SMILES O=C(NCCCNC(=O)c1cc(-c2ccn(C(F)F)c(=O)c2)ccc1O)c1ccc(-c2c3nc(c(-c4c(F)c(F)c(F)c(F)c4F)c4ccc([nH]4)c(-c4c(F)c(F)c(F)c(F)c4F)c4nc(c(-c5c(F)c(F)c(F)c(F)c5F)c5ccc2[nH]5)C=C4)C=C3)cc1
REMARK SMILES IDX 5 1 4 2 3 3 1 4 2 5 27 7 28 8 89 9 29 10 88 11 30 12 31 13
REMARK SMILES IDX 32 14 82 15 33 16 87 17 81 18 83 19 34 20 86 21 80 22 79 23
REMARK SMILES IDX 35 25 67 26 47 27 66 28 48 29 51 30 65 31 84 32 49 33 50 34
REMARK SMILES IDX 64 36 85 37 52 38 36 39 37 40 45 41 38 42 39 43 43 44 46 45
REMARK SMILES IDX 40 46 41 47 44 48 42 49 68 50 69 51 77 52 70 53 71 54 75 55
REMARK SMILES IDX 78 56 72 57 73 58 76 59 74 60 53 61 54 62 62 63 55 64 56 65
REMARK SMILES IDX 60 66 63 67 57 68 58 69 61 70 59 71 6 72 7 73 8 74 9 76
REMARK SMILES IDX 10 77 11 78 25 79 12 80 24 81 23 82 26 83 13 85 14 86 22 87
REMARK SMILES IDX 15 88 20 89 16 90 21 91 17 92 18 93 19 94
REMARK H PARENT 3 6 83 24 51 35 7 75 26 84
REMARK Flexibility Score: inf
ROOT
ATOM      1  C   UNL A   1      32.027  28.352  26.508  1.00  0.00     0.042 C 
ENDROOT
BRANCH   1   2
ATOM      2  C   UNL A   1      33.062  29.310  25.944  1.00  0.00     0.118 C 
BRANCH   2   3
ATOM      3  N   UNL A   1      32.850  30.686  26.369  1.00  0.00    -0.352 N 
ATOM      4  O   UNL A   1      33.041  32.550  27.601  1.00  0.00    -0.269 OA
ATOM      5  C   UNL A   1      33.528  31.470  27.265  1.00  0.00     0.251 C 
ATOM      6  H   UNL A   1      32.086  31.131  25.937  1.00  0.00     0.163 HD
BRANCH   5   7
ATOM      7  C   UNL A   1      34.825  31.048  27.843  1.00  0.00     0.039 A 
ATOM      8  C   UNL A   1      34.952  29.738  28.318  1.00  0.00     0.014 A 
ATOM      9  C   UNL A   1      35.887  31.940  28.001  1.00  0.00     0.014 A 
ATOM     10  C   UNL A   1      36.138  29.328  28.931  1.00  0.00     0.010 A 
ATOM     11  C   UNL A   1      37.110  31.498  28.497  1.00  0.00     0.010 A 
ATOM     12  C   UNL A   1      37.230  30.204  29.019  1.00  0.00    -0.014 A 
BRANCH  12  13
ATOM     13  C   UNL A   1      38.459  29.829  29.764  1.00  0.00     0.031 A 
ATOM     14  C   UNL A   1      38.663  30.342  31.166  1.00  0.00     0.074 A 
ATOM     15  C   UNL A   1      39.392  29.049  29.187  1.00  0.00     0.049 A 
ATOM     16  N   UNL A   1      39.670  30.153  31.981  1.00  0.00    -0.248 NA
ATOM     17  C   UNL A   1      37.611  31.213  31.716  1.00  0.00     0.031 C 
ATOM     18  C   UNL A   1      39.331  28.525  27.824  1.00  0.00     0.029 A 
ATOM     19  N   UNL A   1      40.573  28.556  29.683  1.00  0.00    -0.354 N 
ATOM     20  C   UNL A   1      39.378  30.895  33.118  1.00  0.00     0.074 A 
ATOM     21  C   UNL A   1      38.144  31.599  32.864  1.00  0.00     0.031 C 
ATOM     22  C   UNL A   1      40.402  27.745  27.606  1.00  0.00     0.029 A 
ATOM     23  C   UNL A   1      41.239  27.740  28.803  1.00  0.00     0.049 A 
ATOM     24  H   UNL A   1      40.910  28.767  30.584  1.00  0.00     0.167 HD
ATOM     25  C   UNL A   1      40.054  30.950  34.289  1.00  0.00     0.037 A 
ATOM     26  C   UNL A   1      42.391  27.057  28.951  1.00  0.00     0.037 A 
ATOM     27  C   UNL A   1      41.247  30.199  34.562  1.00  0.00     0.049 A 
ATOM     28  C   UNL A   1      43.134  27.137  30.257  1.00  0.00     0.074 A 
ATOM     29  C   UNL A   1      41.957  30.112  35.745  1.00  0.00     0.029 A 
ATOM     30  N   UNL A   1      41.901  29.400  33.637  1.00  0.00    -0.354 N 
ATOM     31  N   UNL A   1      42.808  27.781  31.352  1.00  0.00    -0.248 NA
ATOM     32  C   UNL A   1      44.402  26.401  30.350  1.00  0.00     0.031 C 
ATOM     33  C   UNL A   1      43.068  29.294  35.524  1.00  0.00     0.029 A 
ATOM     34  C   UNL A   1      43.027  28.840  34.213  1.00  0.00     0.049 A 
ATOM     35  H   UNL A   1      41.607  29.253  32.708  1.00  0.00     0.167 HD
ATOM     36  C   UNL A   1      43.821  27.521  32.265  1.00  0.00     0.074 A 
ATOM     37  C   UNL A   1      44.766  26.646  31.603  1.00  0.00     0.031 C 
ATOM     38  C   UNL A   1      43.957  27.972  33.536  1.00  0.00     0.037 A 
BRANCH  25  39
ATOM     39  C   UNL A   1      39.500  31.832  35.370  1.00  0.00     0.064 A 
ATOM     40  C   UNL A   1      38.585  31.346  36.317  1.00  0.00     0.173 A 
ATOM     41  C   UNL A   1      39.910  33.169  35.479  1.00  0.00     0.173 A 
ATOM     42  F   UNL A   1      38.153  30.078  36.248  1.00  0.00    -0.203 F 
ATOM     43  C   UNL A   1      38.074  32.175  37.311  1.00  0.00     0.198 A 
ATOM     44  C   UNL A   1      39.421  33.987  36.496  1.00  0.00     0.198 A 
ATOM     45  F   UNL A   1      40.789  33.682  34.605  1.00  0.00    -0.203 F 
ATOM     46  F   UNL A   1      37.160  31.703  38.169  1.00  0.00    -0.200 F 
ATOM     47  C   UNL A   1      38.498  33.492  37.404  1.00  0.00     0.200 A 
ATOM     48  F   UNL A   1      39.841  35.256  36.593  1.00  0.00    -0.200 F 
ATOM     49  F   UNL A   1      38.009  34.287  38.366  1.00  0.00    -0.200 F 
ENDBRANCH  25  39
BRANCH  26  50
ATOM     50  C   UNL A   1      42.877  26.199  27.841  1.00  0.00     0.064 A 
ATOM     51  C   UNL A   1      42.513  24.846  27.773  1.00  0.00     0.173 A 
ATOM     52  C   UNL A   1      43.667  26.715  26.803  1.00  0.00     0.173 A 
ATOM     53  F   UNL A   1      41.774  24.302  28.751  1.00  0.00    -0.203 F 
ATOM     54  C   UNL A   1      42.919  24.045  26.708  1.00  0.00     0.198 A 
ATOM     55  C   UNL A   1      44.053  25.918  25.728  1.00  0.00     0.198 A 
ATOM     56  F   UNL A   1      44.037  28.004  26.821  1.00  0.00    -0.203 F 
ATOM     57  F   UNL A   1      42.572  22.751  26.677  1.00  0.00    -0.200 F 
ATOM     58  C   UNL A   1      43.681  24.583  25.682  1.00  0.00     0.200 A 
ATOM     59  F   UNL A   1      44.776  26.446  24.732  1.00  0.00    -0.200 F 
ATOM     60  F   UNL A   1      44.055  23.816  24.649  1.00  0.00    -0.200 F 
ENDBRANCH  26  50
BRANCH  38  61
ATOM     61  C   UNL A   1      45.171  27.548  34.305  1.00  0.00     0.064 A 
ATOM     62  C   UNL A   1      45.185  26.348  35.028  1.00  0.00     0.173 A 
ATOM     63  C   UNL A   1      46.365  28.280  34.213  1.00  0.00     0.173 A 
ATOM     64  F   UNL A   1      44.065  25.621  35.152  1.00  0.00    -0.203 F 
ATOM     65  C   UNL A   1      46.355  25.892  35.628  1.00  0.00     0.198 A 
ATOM     66  C   UNL A   1      47.538  27.807  34.793  1.00  0.00     0.198 A 
ATOM     67  F   UNL A   1      46.403  29.429  33.522  1.00  0.00    -0.203 F 
ATOM     68  F   UNL A   1      46.346  24.746  36.325  1.00  0.00    -0.200 F 
ATOM     69  C   UNL A   1      47.533  26.613  35.499  1.00  0.00     0.200 A 
ATOM     70  F   UNL A   1      48.679  28.497  34.652  1.00  0.00    -0.200 F 
ATOM     71  F   UNL A   1      48.665  26.155  36.051  1.00  0.00    -0.200 F 
ENDBRANCH  38  61
ENDBRANCH  12  13
ENDBRANCH   5   7
ENDBRANCH   2   3
ENDBRANCH   1   2
BRANCH   1  72
ATOM     72  C   UNL A   1      32.062  26.965  25.887  1.00  0.00     0.118 C 
BRANCH  72  73
ATOM     73  N   UNL A   1      31.335  25.985  26.677  1.00  0.00    -0.352 N 
ATOM     74  C   UNL A   1      31.280  24.623  26.530  1.00  0.00     0.255 C 
ATOM     75  H   UNL A   1      30.806  26.350  27.423  1.00  0.00     0.163 HD
ATOM     76  O   UNL A   1      30.515  23.963  27.233  1.00  0.00    -0.269 OA
BRANCH  74  77
ATOM     77  C   UNL A   1      32.073  23.946  25.485  1.00  0.00     0.082 A 
ATOM     78  C   UNL A   1      33.414  23.659  25.784  1.00  0.00     0.026 A 
ATOM     79  C   UNL A   1      31.553  23.629  24.224  1.00  0.00     0.128 A 
ATOM     80  C   UNL A   1      34.213  22.997  24.847  1.00  0.00    -0.017 A 
ATOM     81  C   UNL A   1      32.334  22.940  23.300  1.00  0.00     0.047 A 
ATOM     82  C   UNL A   1      33.655  22.619  23.616  1.00  0.00     0.012 A 
BRANCH  79  83
ATOM     83  O   UNL A   1      30.278  23.987  23.886  1.00  0.00    -0.507 OA
ATOM     84  H   UNL A   1      30.004  23.952  22.990  1.00  0.00     0.293 HD
ENDBRANCH  79  83
BRANCH  80  85
ATOM     85  C   UNL A   1      35.640  22.720  25.101  1.00  0.00    -0.011 A 
ATOM     86  C   UNL A   1      36.217  21.412  24.857  1.00  0.00     0.027 A 
ATOM     87  C   UNL A   1      36.415  23.691  25.615  1.00  0.00     0.080 A 
ATOM     88  C   UNL A   1      37.487  21.155  25.188  1.00  0.00     0.095 A 
ATOM     89  C   UNL A   1      37.836  23.422  25.974  1.00  0.00     0.255 A 
ATOM     90  N   UNL A   1      38.287  22.132  25.750  1.00  0.00    -0.258 N 
ATOM     91  O   UNL A   1      38.500  24.339  26.454  1.00  0.00    -0.269 OA
BRANCH  90  92
ATOM     92  C   UNL A   1      39.636  21.828  26.150  1.00  0.00     0.451 C 
ATOM     93  F   UNL A   1      39.846  22.128  27.453  1.00  0.00    -0.185 F 
ATOM     94  F   UNL A   1      39.905  20.511  25.972  1.00  0.00    -0.185 F 
ENDBRANCH  90  92
ENDBRANCH  80  85
ENDBRANCH  74  77
ENDBRANCH  72  73
ENDBRANCH   1  72
TORSDOF 13
ENDMDL
MODEL 3
REMARK VINA RESULT:     -12.5      3.136      4.430
REMARK SMILES O=C(NCCCNC(=O)c1cc(-c2ccn(C(F)F)c(=O)c2)ccc1O)c1ccc(-c2c3nc(c(-c4c(F)c(F)c(F)c(F)c4F)c4ccc([nH]4)c(-c4c(F)c(F)c(F)c(F)c4F)c4nc(c(-c5c(F)c(F)c(F)c(F)c5F)c5ccc2[nH]5)C=C4)C=C3)cc1
REMARK SMILES IDX 5 1 4 2 3 3 1 4 2 5 27 7 28 8 89 9 29 10 88 11 30 12 31 13
REMARK SMILES IDX 32 14 82 15 33 16 87 17 81 18 83 19 34 20 86 21 80 22 79 23
REMARK SMILES IDX 35 25 67 26 47 27 66 28 48 29 51 30 65 31 84 32 49 33 50 34
REMARK SMILES IDX 64 36 85 37 52 38 36 39 37 40 45 41 38 42 39 43 43 44 46 45
REMARK SMILES IDX 40 46 41 47 44 48 42 49 68 50 69 51 77 52 70 53 71 54 75 55
REMARK SMILES IDX 78 56 72 57 73 58 76 59 74 60 53 61 54 62 62 63 55 64 56 65
REMARK SMILES IDX 60 66 63 67 57 68 58 69 61 70 59 71 6 72 7 73 8 74 9 76
REMARK SMILES IDX 10 77 11 78 25 79 12 80 24 81 23 82 26 83 13 85 14 86 22 87
REMARK SMILES IDX 15 88 20 89 16 90 21 91 17 92 18 93 19 94
REMARK H PARENT 3 6 83 24 51 35 7 75 26 84
REMARK Flexibility Score: inf
ROOT
ATOM      1  C   UNL A   1      33.971  28.372  25.850  1.00  0.00     0.042 C 
ENDROOT
BRANCH   1   2
ATOM      2  C   UNL A   1      33.535  28.602  27.287  1.00  0.00     0.118 C 
BRANCH   2   3
ATOM      3  N   UNL A   1      33.579  30.005  27.673  1.00  0.00    -0.352 N 
ATOM      4  O   UNL A   1      34.290  31.878  28.681  1.00  0.00    -0.269 OA
ATOM      5  C   UNL A   1      34.559  30.745  28.283  1.00  0.00     0.251 C 
ATOM      6  H   UNL A   1      32.764  30.512  27.457  1.00  0.00     0.163 HD
BRANCH   5   7
ATOM      7  C   UNL A   1      35.927  30.212  28.480  1.00  0.00     0.039 A 
ATOM      8  C   UNL A   1      36.252  29.643  29.717  1.00  0.00     0.014 A 
ATOM      9  C   UNL A   1      36.915  30.337  27.503  1.00  0.00     0.014 A 
ATOM     10  C   UNL A   1      37.552  29.195  29.960  1.00  0.00     0.010 A 
ATOM     11  C   UNL A   1      38.174  29.778  27.699  1.00  0.00     0.010 A 
ATOM     12  C   UNL A   1      38.523  29.252  28.949  1.00  0.00    -0.014 A 
BRANCH  12  13
ATOM     13  C   UNL A   1      39.937  28.885  29.218  1.00  0.00     0.031 A 
ATOM     14  C   UNL A   1      40.789  29.790  30.069  1.00  0.00     0.074 A 
ATOM     15  C   UNL A   1      40.459  27.761  28.694  1.00  0.00     0.049 A 
ATOM     16  N   UNL A   1      42.048  29.667  30.407  1.00  0.00    -0.248 NA
ATOM     17  C   UNL A   1      40.154  31.015  30.582  1.00  0.00     0.031 C 
ATOM     18  C   UNL A   1      39.749  26.826  27.821  1.00  0.00     0.029 A 
ATOM     19  N   UNL A   1      41.709  27.211  28.827  1.00  0.00    -0.354 N 
ATOM     20  C   UNL A   1      42.351  30.804  31.147  1.00  0.00     0.074 A 
ATOM     21  C   UNL A   1      41.175  31.640  31.145  1.00  0.00     0.031 C 
ATOM     22  C   UNL A   1      40.559  25.793  27.535  1.00  0.00     0.029 A 
ATOM     23  C   UNL A   1      41.853  26.010  28.178  1.00  0.00     0.049 A 
ATOM     24  H   UNL A   1      42.434  27.636  29.340  1.00  0.00     0.167 HD
ATOM     25  C   UNL A   1      43.492  31.103  31.809  1.00  0.00     0.037 A 
ATOM     26  C   UNL A   1      42.907  25.174  28.118  1.00  0.00     0.037 A 
ATOM     27  C   UNL A   1      44.638  30.238  31.862  1.00  0.00     0.049 A 
ATOM     28  C   UNL A   1      44.172  25.528  28.853  1.00  0.00     0.074 A 
ATOM     29  C   UNL A   1      45.809  30.405  32.578  1.00  0.00     0.029 A 
ATOM     30  N   UNL A   1      44.751  29.041  31.174  1.00  0.00    -0.354 N 
ATOM     31  N   UNL A   1      44.420  26.568  29.612  1.00  0.00    -0.248 NA
ATOM     32  C   UNL A   1      45.302  24.597  28.722  1.00  0.00     0.031 C 
ATOM     33  C   UNL A   1      46.650  29.328  32.289  1.00  0.00     0.029 A 
ATOM     34  C   UNL A   1      45.987  28.471  31.423  1.00  0.00     0.049 A 
ATOM     35  H   UNL A   1      44.055  28.653  30.594  1.00  0.00     0.167 HD
ATOM     36  C   UNL A   1      45.726  26.414  30.057  1.00  0.00     0.074 A 
ATOM     37  C   UNL A   1      46.215  25.170  29.498  1.00  0.00     0.031 C 
ATOM     38  C   UNL A   1      46.455  27.233  30.854  1.00  0.00     0.037 A 
BRANCH  25  39
ATOM     39  C   UNL A   1      43.544  32.407  32.550  1.00  0.00     0.064 A 
ATOM     40  C   UNL A   1      43.149  32.503  33.893  1.00  0.00     0.173 A 
ATOM     41  C   UNL A   1      44.020  33.566  31.921  1.00  0.00     0.173 A 
ATOM     42  F   UNL A   1      42.675  31.426  34.537  1.00  0.00    -0.203 F 
ATOM     43  C   UNL A   1      43.197  33.720  34.569  1.00  0.00     0.198 A 
ATOM     44  C   UNL A   1      44.097  34.775  32.609  1.00  0.00     0.198 A 
ATOM     45  F   UNL A   1      44.418  33.528  30.640  1.00  0.00    -0.203 F 
ATOM     46  F   UNL A   1      42.762  33.798  35.834  1.00  0.00    -0.200 F 
ATOM     47  C   UNL A   1      43.677  34.852  33.928  1.00  0.00     0.200 A 
ATOM     48  F   UNL A   1      44.573  35.867  31.994  1.00  0.00    -0.200 F 
ATOM     49  F   UNL A   1      43.727  36.021  34.582  1.00  0.00    -0.200 F 
ENDBRANCH  25  39
BRANCH  26  50
ATOM     50  C   UNL A   1      42.784  23.897  27.370  1.00  0.00     0.064 A 
ATOM     51  C   UNL A   1      43.178  23.815  26.027  1.00  0.00     0.173 A 
ATOM     52  C   UNL A   1      42.322  22.725  27.988  1.00  0.00     0.173 A 
ATOM     53  F   UNL A   1      43.609  24.914  25.389  1.00  0.00    -0.203 F 
ATOM     54  C   UNL A   1      43.117  22.610  25.331  1.00  0.00     0.198 A 
ATOM     55  C   UNL A   1      42.283  21.516  27.297  1.00  0.00     0.198 A 
ATOM     56  F   UNL A   1      41.938  22.751  29.272  1.00  0.00    -0.203 F 
ATOM     57  F   UNL A   1      43.483  22.564  24.043  1.00  0.00    -0.200 F 
ATOM     58  C   UNL A   1      42.678  21.459  25.969  1.00  0.00     0.200 A 
ATOM     59  F   UNL A   1      41.873  20.404  27.921  1.00  0.00    -0.200 F 
ATOM     60  F   UNL A   1      42.638  20.297  25.304  1.00  0.00    -0.200 F 
ENDBRANCH  26  50
BRANCH  38  61
ATOM     61  C   UNL A   1      47.865  26.833  31.169  1.00  0.00     0.064 A 
ATOM     62  C   UNL A   1      48.146  25.932  32.205  1.00  0.00     0.173 A 
ATOM     63  C   UNL A   1      48.924  27.251  30.350  1.00  0.00     0.173 A 
ATOM     64  F   UNL A   1      47.166  25.514  33.020  1.00  0.00    -0.203 F 
ATOM     65  C   UNL A   1      49.439  25.460  32.407  1.00  0.00     0.198 A 
ATOM     66  C   UNL A   1      50.211  26.756  30.540  1.00  0.00     0.198 A 
ATOM     67  F   UNL A   1      48.702  28.104  29.339  1.00  0.00    -0.203 F 
ATOM     68  F   UNL A   1      49.689  24.607  33.411  1.00  0.00    -0.200 F 
ATOM     69  C   UNL A   1      50.467  25.860  31.567  1.00  0.00     0.200 A 
ATOM     70  F   UNL A   1      51.200  27.131  29.715  1.00  0.00    -0.200 F 
ATOM     71  F   UNL A   1      51.705  25.379  31.744  1.00  0.00    -0.200 F 
ENDBRANCH  38  61
ENDBRANCH  12  13
ENDBRANCH   5   7
ENDBRANCH   2   3
ENDBRANCH   1   2
BRANCH   1  72
ATOM     72  C   UNL A   1      33.244  29.240  24.836  1.00  0.00     0.118 C 
BRANCH  72  73
ATOM     73  N   UNL A   1      33.833  29.155  23.509  1.00  0.00    -0.352 N 
ATOM     74  C   UNL A   1      33.670  28.191  22.549  1.00  0.00     0.255 C 
ATOM     75  H   UNL A   1      34.434  29.896  23.265  1.00  0.00     0.163 HD
ATOM     76  O   UNL A   1      34.343  28.233  21.520  1.00  0.00    -0.269 OA
BRANCH  74  77
ATOM     77  C   UNL A   1      32.749  27.057  22.770  1.00  0.00     0.082 A 
ATOM     78  C   UNL A   1      33.309  25.860  23.241  1.00  0.00     0.026 A 
ATOM     79  C   UNL A   1      31.379  27.128  22.492  1.00  0.00     0.128 A 
ATOM     80  C   UNL A   1      32.489  24.757  23.495  1.00  0.00    -0.017 A 
ATOM     81  C   UNL A   1      30.552  26.044  22.774  1.00  0.00     0.047 A 
ATOM     82  C   UNL A   1      31.106  24.868  23.281  1.00  0.00     0.012 A 
BRANCH  79  83
ATOM     83  O   UNL A   1      30.836  28.257  21.944  1.00  0.00    -0.507 OA
ATOM     84  H   UNL A   1      31.347  29.041  21.886  1.00  0.00     0.293 HD
ENDBRANCH  79  83
BRANCH  80  85
ATOM     85  C   UNL A   1      33.042  23.465  23.943  1.00  0.00    -0.011 A 
ATOM     86  C   UNL A   1      34.465  23.188  23.896  1.00  0.00     0.027 A 
ATOM     87  C   UNL A   1      32.202  22.500  24.359  1.00  0.00     0.080 A 
ATOM     88  C   UNL A   1      34.934  21.976  24.212  1.00  0.00     0.095 A 
ATOM     89  C   UNL A   1      32.714  21.150  24.728  1.00  0.00     0.255 A 
ATOM     90  N   UNL A   1      34.081  20.964  24.608  1.00  0.00    -0.258 N 
ATOM     91  O   UNL A   1      31.905  20.298  25.090  1.00  0.00    -0.269 OA
BRANCH  90  92
ATOM     92  C   UNL A   1      34.594  19.649  24.894  1.00  0.00     0.451 C 
ATOM     93  F   UNL A   1      34.176  18.745  23.978  1.00  0.00    -0.185 F 
ATOM     94  F   UNL A   1      35.950  19.652  24.896  1.00  0.00    -0.185 F 
ENDBRANCH  90  92
ENDBRANCH  80  85
ENDBRANCH  74  77
ENDBRANCH  72  73
ENDBRANCH   1  72
TORSDOF 13
ENDMDL
