MODEL 1
REMARK VINA RESULT:     -11.3      0.000      0.000
REMARK SMILES Cc1oc(-c2cccs2)nc1C[N@@H+](C)CC(=O)NCCCNC(=O)c1ccc(-c2c3nc(c(-c4c(F)c(F)c(F)c(F)c4F)c4ccc([nH]4)c(-c4c(F)c(F)c(F)c(F)c4F)c4nc(c(-c5c(F)c(F)c(F)c(F)c5F)c5ccc2[nH]5)C=C4)C=C3)cc1
REMARK SMILES IDX 19 1 18 2 16 3 17 4 15 6 13 7 14 8 12 10 11 11 1 12 2 13
REMARK SMILES IDX 3 14 4 15 10 16 5 17 6 18 9 19 7 20 8 21 20 22 21 23 22 24
REMARK SMILES IDX 23 25 24 27 25 28 26 29 87 30 27 31 86 32 28 33 29 34 30 35
REMARK SMILES IDX 80 36 31 37 85 38 79 39 81 40 32 41 84 42 78 43 77 44 33 46
REMARK SMILES IDX 65 47 45 48 64 49 46 50 49 51 63 52 82 53 47 54 48 55 62 57
REMARK SMILES IDX 83 58 50 59 34 60 35 61 43 62 36 63 37 64 41 65 44 66 38 67
REMARK SMILES IDX 39 68 42 69 40 70 66 71 67 72 75 73 68 74 69 75 73 76 76 77
REMARK SMILES IDX 70 78 71 79 74 80 72 81 51 82 52 83 60 84 53 85 54 86 58 87
REMARK SMILES IDX 61 88 55 89 56 90 59 91 57 92
REMARK H PARENT 18 5 13 9 22 26 81 45 49 56
REMARK Flexibility Score: inf
ROOT
ATOM      1  C   UNL A   1      33.447  26.909  26.124  1.00  0.00     0.118 C 
ENDROOT
BRANCH   1   2
ATOM      2  N   UNL A   1      33.976  26.093  25.052  1.00  0.00    -0.351 N 
ATOM      3  C   UNL A   1      33.752  24.785  24.749  1.00  0.00     0.275 C 
ATOM      4  O   UNL A   1      34.448  24.291  23.857  1.00  0.00    -0.269 OA
ATOM      5  H   UNL A   1      34.596  26.557  24.445  1.00  0.00     0.163 HD
BRANCH   3   6
ATOM      6  C   UNL A   1      32.676  23.969  25.469  1.00  0.00     0.363 C 
BRANCH   6   7
ATOM      7  N   UNL A   1      31.297  24.444  25.294  1.00  0.00    -0.324 N 
ATOM      8  C   UNL A   1      30.351  24.052  26.317  1.00  0.00     0.333 C 
ATOM      9  H   UNL A   1      31.430  25.444  25.444  1.00  0.00     0.348 HD
BRANCH   7  10
ATOM     10  C   UNL A   1      30.749  24.345  23.938  1.00  0.00     0.323 C 
BRANCH  10  11
ATOM     11  C   UNL A   1      30.713  25.685  23.285  1.00  0.00     0.137 A 
ATOM     12  C   UNL A   1      32.452  25.634  21.301  1.00  0.00     0.090 C 
ATOM     13  C   UNL A   1      31.404  26.163  22.192  1.00  0.00     0.130 A 
ATOM     14  O   UNL A   1      30.962  27.431  21.937  1.00  0.00    -0.440 OA
ATOM     15  C   UNL A   1      30.036  27.683  22.920  1.00  0.00     0.236 A 
ATOM     16  N   UNL A   1      29.858  26.668  23.742  1.00  0.00    -0.207 NA
BRANCH  15  17
ATOM     17  C   UNL A   1      29.338  28.924  23.074  1.00  0.00     0.090 A 
ATOM     18  C   UNL A   1      29.877  30.117  23.512  1.00  0.00     0.025 A 
ATOM     19  S   UNL A   1      27.666  29.068  22.750  1.00  0.00    -0.139 S 
ATOM     20  C   UNL A   1      28.905  31.155  23.591  1.00  0.00     0.012 A 
ATOM     21  C   UNL A   1      27.652  30.711  23.232  1.00  0.00     0.065 A 
ENDBRANCH  15  17
ENDBRANCH  10  11
ENDBRANCH   7  10
ENDBRANCH   6   7
ENDBRANCH   3   6
ENDBRANCH   1   2
BRANCH   1  22
ATOM     22  C   UNL A   1      32.591  28.050  25.581  1.00  0.00     0.042 C 
BRANCH  22  23
ATOM     23  C   UNL A   1      33.373  29.292  25.171  1.00  0.00     0.118 C 
BRANCH  23  24
ATOM     24  N   UNL A   1      32.864  30.503  25.787  1.00  0.00    -0.352 N 
ATOM     25  C   UNL A   1      33.291  31.188  26.897  1.00  0.00     0.251 C 
ATOM     26  H   UNL A   1      32.084  30.898  25.335  1.00  0.00     0.163 HD
ATOM     27  O   UNL A   1      32.588  32.092  27.341  1.00  0.00    -0.269 OA
BRANCH  25  28
ATOM     28  C   UNL A   1      34.566  30.856  27.579  1.00  0.00     0.039 A 
ATOM     29  C   UNL A   1      34.692  29.589  28.162  1.00  0.00     0.014 A 
ATOM     30  C   UNL A   1      35.602  31.782  27.725  1.00  0.00     0.014 A 
ATOM     31  C   UNL A   1      35.856  29.245  28.855  1.00  0.00     0.010 A 
ATOM     32  C   UNL A   1      36.798  31.411  28.343  1.00  0.00     0.010 A 
ATOM     33  C   UNL A   1      36.928  30.148  28.938  1.00  0.00    -0.014 A 
BRANCH  33  34
ATOM     34  C   UNL A   1      38.162  29.794  29.687  1.00  0.00     0.031 A 
ATOM     35  C   UNL A   1      38.385  30.328  31.078  1.00  0.00     0.074 A 
ATOM     36  C   UNL A   1      39.097  29.013  29.113  1.00  0.00     0.049 A 
ATOM     37  N   UNL A   1      39.398  30.136  31.887  1.00  0.00    -0.248 NA
ATOM     38  C   UNL A   1      37.346  31.216  31.622  1.00  0.00     0.031 C 
ATOM     39  C   UNL A   1      39.030  28.475  27.753  1.00  0.00     0.029 A 
ATOM     40  N   UNL A   1      40.286  28.533  29.602  1.00  0.00    -0.354 N 
ATOM     41  C   UNL A   1      39.126  30.892  33.021  1.00  0.00     0.074 A 
ATOM     42  C   UNL A   1      37.879  31.585  32.777  1.00  0.00     0.031 C 
ATOM     43  C   UNL A   1      40.114  27.715  27.529  1.00  0.00     0.029 A 
ATOM     44  C   UNL A   1      40.962  27.729  28.717  1.00  0.00     0.049 A 
ATOM     45  H   UNL A   1      40.623  28.745  30.503  1.00  0.00     0.167 HD
ATOM     46  C   UNL A   1      39.835  30.981  34.172  1.00  0.00     0.037 A 
ATOM     47  C   UNL A   1      42.128  27.071  28.854  1.00  0.00     0.037 A 
ATOM     48  C   UNL A   1      41.052  30.262  34.435  1.00  0.00     0.049 A 
ATOM     49  C   UNL A   1      42.872  27.149  30.158  1.00  0.00     0.074 A 
ATOM     50  C   UNL A   1      41.813  30.241  35.591  1.00  0.00     0.029 A 
ATOM     51  N   UNL A   1      41.684  29.426  33.526  1.00  0.00    -0.354 N 
ATOM     52  N   UNL A   1      42.570  27.815  31.245  1.00  0.00    -0.248 NA
ATOM     53  C   UNL A   1      44.114  26.368  30.259  1.00  0.00     0.031 C 
ATOM     54  C   UNL A   1      42.921  29.415  35.372  1.00  0.00     0.029 A 
ATOM     55  C   UNL A   1      42.830  28.891  34.092  1.00  0.00     0.049 A 
ATOM     56  H   UNL A   1      41.366  29.240  32.613  1.00  0.00     0.167 HD
ATOM     57  C   UNL A   1      43.566  27.517  32.165  1.00  0.00     0.074 A 
ATOM     58  C   UNL A   1      44.473  26.595  31.515  1.00  0.00     0.031 C 
ATOM     59  C   UNL A   1      43.718  27.969  33.434  1.00  0.00     0.037 A 
BRANCH  46  60
ATOM     60  C   UNL A   1      39.299  31.886  35.243  1.00  0.00     0.064 A 
ATOM     61  C   UNL A   1      39.590  33.258  35.257  1.00  0.00     0.173 A 
ATOM     62  C   UNL A   1      38.463  31.381  36.251  1.00  0.00     0.173 A 
ATOM     63  F   UNL A   1      40.394  33.787  34.324  1.00  0.00    -0.203 F 
ATOM     64  C   UNL A   1      39.089  34.087  36.258  1.00  0.00     0.198 A 
ATOM     65  C   UNL A   1      37.941  32.218  37.234  1.00  0.00     0.198 A 
ATOM     66  F   UNL A   1      38.150  30.077  36.280  1.00  0.00    -0.203 F 
ATOM     67  F   UNL A   1      39.421  35.385  36.281  1.00  0.00    -0.200 F 
ATOM     68  C   UNL A   1      38.260  33.567  37.243  1.00  0.00     0.200 A 
ATOM     69  F   UNL A   1      37.133  31.716  38.179  1.00  0.00    -0.200 F 
ATOM     70  F   UNL A   1      37.777  34.366  38.204  1.00  0.00    -0.200 F 
ENDBRANCH  46  60
BRANCH  47  71
ATOM     71  C   UNL A   1      42.640  26.235  27.738  1.00  0.00     0.064 A 
ATOM     72  C   UNL A   1      43.571  26.751  26.825  1.00  0.00     0.173 A 
ATOM     73  C   UNL A   1      42.209  24.914  27.558  1.00  0.00     0.173 A 
ATOM     74  F   UNL A   1      43.997  28.017  26.947  1.00  0.00    -0.203 F 
ATOM     75  C   UNL A   1      44.040  25.981  25.763  1.00  0.00     0.198 A 
ATOM     76  C   UNL A   1      42.696  24.138  26.509  1.00  0.00     0.198 A 
ATOM     77  F   UNL A   1      41.322  24.375  28.407  1.00  0.00    -0.203 F 
ATOM     78  F   UNL A   1      44.898  26.511  24.881  1.00  0.00    -0.200 F 
ATOM     79  C   UNL A   1      43.605  24.673  25.608  1.00  0.00     0.200 A 
ATOM     80  F   UNL A   1      42.284  22.870  26.369  1.00  0.00    -0.200 F 
ATOM     81  F   UNL A   1      44.057  23.932  24.588  1.00  0.00    -0.200 F 
ENDBRANCH  47  71
BRANCH  59  82
ATOM     82  C   UNL A   1      44.890  27.446  34.210  1.00  0.00     0.064 A 
ATOM     83  C   UNL A   1      46.124  28.113  34.213  1.00  0.00     0.173 A 
ATOM     84  C   UNL A   1      44.772  26.275  34.972  1.00  0.00     0.173 A 
ATOM     85  F   UNL A   1      46.290  29.229  33.487  1.00  0.00    -0.203 F 
ATOM     86  C   UNL A   1      47.205  27.611  34.930  1.00  0.00     0.198 A 
ATOM     87  C   UNL A   1      45.848  25.789  35.709  1.00  0.00     0.198 A 
ATOM     88  F   UNL A   1      43.611  25.603  35.006  1.00  0.00    -0.203 F 
ATOM     89  F   UNL A   1      48.390  28.237  34.880  1.00  0.00    -0.200 F 
ATOM     90  C   UNL A   1      47.066  26.453  35.681  1.00  0.00     0.200 A 
ATOM     91  F   UNL A   1      45.710  24.676  36.441  1.00  0.00    -0.200 F 
ATOM     92  F   UNL A   1      48.109  25.969  36.369  1.00  0.00    -0.200 F 
ENDBRANCH  59  82
ENDBRANCH  33  34
ENDBRANCH  25  28
ENDBRANCH  23  24
ENDBRANCH  22  23
ENDBRANCH   1  22
TORSDOF 14
ENDMDL
MODEL 2
REMARK VINA RESULT:     -11.2      2.133      8.009
REMARK SMILES Cc1oc(-c2cccs2)nc1C[N@@H+](C)CC(=O)NCCCNC(=O)c1ccc(-c2c3nc(c(-c4c(F)c(F)c(F)c(F)c4F)c4ccc([nH]4)c(-c4c(F)c(F)c(F)c(F)c4F)c4nc(c(-c5c(F)c(F)c(F)c(F)c5F)c5ccc2[nH]5)C=C4)C=C3)cc1
REMARK SMILES IDX 19 1 18 2 16 3 17 4 15 6 13 7 14 8 12 10 11 11 1 12 2 13
REMARK SMILES IDX 3 14 4 15 10 16 5 17 6 18 9 19 7 20 8 21 20 22 21 23 22 24
REMARK SMILES IDX 23 25 24 27 25 28 26 29 87 30 27 31 86 32 28 33 29 34 30 35
REMARK SMILES IDX 80 36 31 37 85 38 79 39 81 40 32 41 84 42 78 43 77 44 33 46
REMARK SMILES IDX 65 47 45 48 64 49 46 50 49 51 63 52 82 53 47 54 48 55 62 57
REMARK SMILES IDX 83 58 50 59 34 60 35 61 43 62 36 63 37 64 41 65 44 66 38 67
REMARK SMILES IDX 39 68 42 69 40 70 66 71 67 72 75 73 68 74 69 75 73 76 76 77
REMARK SMILES IDX 70 78 71 79 74 80 72 81 51 82 52 83 60 84 53 85 54 86 58 87
REMARK SMILES IDX 61 88 55 89 56 90 59 91 57 92
REMARK H PARENT 18 5 13 9 22 26 81 45 49 56
REMARK Flexibility Score: inf
ROOT
ATOM      1  C   UNL A   1      31.423  30.910  26.350  1.00  0.00     0.118 C 
ENDROOT
BRANCH   1   2
ATOM      2  N   UNL A   1      32.785  30.417  26.352  1.00  0.00    -0.351 N 
ATOM      3  C   UNL A   1      33.274  29.184  26.655  1.00  0.00     0.275 C 
ATOM      4  O   UNL A   1      34.502  29.069  26.716  1.00  0.00    -0.269 OA
ATOM      5  H   UNL A   1      33.465  31.079  26.092  1.00  0.00     0.163 HD
BRANCH   3   6
ATOM      6  C   UNL A   1      32.345  27.990  26.893  1.00  0.00     0.363 C 
BRANCH   6   7
ATOM      7  N   UNL A   1      32.359  26.958  25.849  1.00  0.00    -0.324 N 
ATOM      8  C   UNL A   1      33.154  25.781  26.124  1.00  0.00     0.333 C 
ATOM      9  H   UNL A   1      31.395  26.629  25.907  1.00  0.00     0.348 HD
BRANCH   7  10
ATOM     10  C   UNL A   1      32.502  27.436  24.471  1.00  0.00     0.323 C 
BRANCH  10  11
ATOM     11  C   UNL A   1      31.196  27.925  23.944  1.00  0.00     0.137 A 
ATOM     12  C   UNL A   1      29.567  25.852  23.846  1.00  0.00     0.090 C 
ATOM     13  C   UNL A   1      30.012  27.252  23.730  1.00  0.00     0.130 A 
ATOM     14  O   UNL A   1      29.081  28.161  23.311  1.00  0.00    -0.440 OA
ATOM     15  C   UNL A   1      29.759  29.355  23.253  1.00  0.00     0.236 A 
ATOM     16  N   UNL A   1      31.021  29.257  23.625  1.00  0.00    -0.207 NA
BRANCH  15  17
ATOM     17  C   UNL A   1      29.184  30.591  22.816  1.00  0.00     0.090 A 
ATOM     18  C   UNL A   1      29.045  31.740  23.569  1.00  0.00     0.025 A 
ATOM     19  S   UNL A   1      28.539  30.784  21.245  1.00  0.00    -0.139 S 
ATOM     20  C   UNL A   1      28.395  32.784  22.852  1.00  0.00     0.012 A 
ATOM     21  C   UNL A   1      28.039  32.388  21.582  1.00  0.00     0.065 A 
ENDBRANCH  15  17
ENDBRANCH  10  11
ENDBRANCH   7  10
ENDBRANCH   6   7
ENDBRANCH   3   6
ENDBRANCH   1   2
BRANCH   1  22
ATOM     22  C   UNL A   1      31.378  32.413  26.614  1.00  0.00     0.042 C 
BRANCH  22  23
ATOM     23  C   UNL A   1      32.674  33.001  27.158  1.00  0.00     0.118 C 
BRANCH  23  24
ATOM     24  N   UNL A   1      32.511  34.356  27.652  1.00  0.00    -0.352 N 
ATOM     25  C   UNL A   1      33.071  34.985  28.735  1.00  0.00     0.251 C 
ATOM     26  H   UNL A   1      31.896  34.915  27.124  1.00  0.00     0.163 HD
ATOM     27  O   UNL A   1      32.641  36.086  29.069  1.00  0.00    -0.269 OA
BRANCH  25  28
ATOM     28  C   UNL A   1      34.168  34.365  29.518  1.00  0.00     0.039 A 
ATOM     29  C   UNL A   1      35.474  34.472  29.023  1.00  0.00     0.014 A 
ATOM     30  C   UNL A   1      33.935  33.618  30.676  1.00  0.00     0.014 A 
ATOM     31  C   UNL A   1      36.536  33.865  29.700  1.00  0.00     0.010 A 
ATOM     32  C   UNL A   1      35.003  33.084  31.398  1.00  0.00     0.010 A 
ATOM     33  C   UNL A   1      36.313  33.179  30.905  1.00  0.00    -0.014 A 
BRANCH  33  34
ATOM     34  C   UNL A   1      37.435  32.518  31.620  1.00  0.00     0.031 A 
ATOM     35  C   UNL A   1      38.183  31.381  30.975  1.00  0.00     0.074 A 
ATOM     36  C   UNL A   1      37.770  32.919  32.862  1.00  0.00     0.049 A 
ATOM     37  N   UNL A   1      39.185  30.677  31.441  1.00  0.00    -0.248 NA
ATOM     38  C   UNL A   1      37.730  30.963  29.639  1.00  0.00     0.031 C 
ATOM     39  C   UNL A   1      37.093  33.971  33.622  1.00  0.00     0.029 A 
ATOM     40  N   UNL A   1      38.768  32.492  33.702  1.00  0.00    -0.354 N 
ATOM     41  C   UNL A   1      39.465  29.725  30.468  1.00  0.00     0.074 A 
ATOM     42  C   UNL A   1      38.498  29.909  29.408  1.00  0.00     0.031 C 
ATOM     43  C   UNL A   1      37.712  34.126  34.803  1.00  0.00     0.029 A 
ATOM     44  C   UNL A   1      38.816  33.174  34.893  1.00  0.00     0.049 A 
ATOM     45  H   UNL A   1      39.391  31.764  33.472  1.00  0.00     0.167 HD
ATOM     46  C   UNL A   1      40.454  28.800  30.445  1.00  0.00     0.037 A 
ATOM     47  C   UNL A   1      39.661  33.052  35.934  1.00  0.00     0.037 A 
ATOM     48  C   UNL A   1      41.443  28.641  31.477  1.00  0.00     0.049 A 
ATOM     49  C   UNL A   1      40.778  32.048  35.864  1.00  0.00     0.074 A 
ATOM     50  C   UNL A   1      42.519  27.772  31.519  1.00  0.00     0.029 A 
ATOM     51  N   UNL A   1      41.480  29.380  32.651  1.00  0.00    -0.354 N 
ATOM     52  N   UNL A   1      41.071  31.200  34.909  1.00  0.00    -0.248 NA
ATOM     53  C   UNL A   1      41.694  31.998  37.013  1.00  0.00     0.031 C 
ATOM     54  C   UNL A   1      43.192  27.964  32.731  1.00  0.00     0.029 A 
ATOM     55  C   UNL A   1      42.557  28.980  33.427  1.00  0.00     0.049 A 
ATOM     56  H   UNL A   1      40.838  30.084  32.896  1.00  0.00     0.167 HD
ATOM     57  C   UNL A   1      42.215  30.534  35.328  1.00  0.00     0.074 A 
ATOM     58  C   UNL A   1      42.574  31.089  36.616  1.00  0.00     0.031 C 
ATOM     59  C   UNL A   1      42.904  29.547  34.703  1.00  0.00     0.037 A 
BRANCH  46  60
ATOM     60  C   UNL A   1      40.520  27.890  29.252  1.00  0.00     0.064 A 
ATOM     61  C   UNL A   1      39.699  26.758  29.148  1.00  0.00     0.173 A 
ATOM     62  C   UNL A   1      41.393  28.170  28.190  1.00  0.00     0.173 A 
ATOM     63  F   UNL A   1      38.858  26.440  30.142  1.00  0.00    -0.203 F 
ATOM     64  C   UNL A   1      39.772  25.920  28.038  1.00  0.00     0.198 A 
ATOM     65  C   UNL A   1      41.443  27.345  27.069  1.00  0.00     0.198 A 
ATOM     66  F   UNL A   1      42.195  29.244  28.238  1.00  0.00    -0.203 F 
ATOM     67  F   UNL A   1      39.015  24.815  27.982  1.00  0.00    -0.200 F 
ATOM     68  C   UNL A   1      40.640  26.218  26.996  1.00  0.00     0.200 A 
ATOM     69  F   UNL A   1      42.274  27.639  26.059  1.00  0.00    -0.200 F 
ATOM     70  F   UNL A   1      40.706  25.412  25.928  1.00  0.00    -0.200 F 
ENDBRANCH  46  60
BRANCH  47  71
ATOM     71  C   UNL A   1      39.512  33.940  37.114  1.00  0.00     0.064 A 
ATOM     72  C   UNL A   1      40.106  35.210  37.135  1.00  0.00     0.173 A 
ATOM     73  C   UNL A   1      38.781  33.540  38.241  1.00  0.00     0.173 A 
ATOM     74  F   UNL A   1      40.831  35.626  36.087  1.00  0.00    -0.203 F 
ATOM     75  C   UNL A   1      39.989  36.041  38.247  1.00  0.00     0.198 A 
ATOM     76  C   UNL A   1      38.645  34.381  39.343  1.00  0.00     0.198 A 
ATOM     77  F   UNL A   1      38.191  32.336  38.267  1.00  0.00    -0.203 F 
ATOM     78  F   UNL A   1      40.601  37.232  38.258  1.00  0.00    -0.200 F 
ATOM     79  C   UNL A   1      39.254  35.627  39.349  1.00  0.00     0.200 A 
ATOM     80  F   UNL A   1      37.925  33.984  40.402  1.00  0.00    -0.200 F 
ATOM     81  F   UNL A   1      39.141  36.427  40.418  1.00  0.00    -0.200 F 
ENDBRANCH  47  71
BRANCH  59  82
ATOM     82  C   UNL A   1      44.132  29.031  35.392  1.00  0.00     0.064 A 
ATOM     83  C   UNL A   1      44.072  27.962  36.297  1.00  0.00     0.173 A 
ATOM     84  C   UNL A   1      45.387  29.601  35.128  1.00  0.00     0.173 A 
ATOM     85  F   UNL A   1      42.892  27.394  36.592  1.00  0.00    -0.203 F 
ATOM     86  C   UNL A   1      45.219  27.500  36.935  1.00  0.00     0.198 A 
ATOM     87  C   UNL A   1      46.536  29.120  35.748  1.00  0.00     0.198 A 
ATOM     88  F   UNL A   1      45.498  30.623  34.266  1.00  0.00    -0.203 F 
ATOM     89  F   UNL A   1      45.130  26.509  37.834  1.00  0.00    -0.200 F 
ATOM     90  C   UNL A   1      46.450  28.075  36.658  1.00  0.00     0.200 A 
ATOM     91  F   UNL A   1      47.726  29.670  35.472  1.00  0.00    -0.200 F 
ATOM     92  F   UNL A   1      47.553  27.631  37.274  1.00  0.00    -0.200 F 
ENDBRANCH  59  82
ENDBRANCH  33  34
ENDBRANCH  25  28
ENDBRANCH  23  24
ENDBRANCH  22  23
ENDBRANCH   1  22
TORSDOF 14
ENDMDL
MODEL 3
REMARK VINA RESULT:     -11.1      2.098      7.909
REMARK SMILES Cc1oc(-c2cccs2)nc1C[N@@H+](C)CC(=O)NCCCNC(=O)c1ccc(-c2c3nc(c(-c4c(F)c(F)c(F)c(F)c4F)c4ccc([nH]4)c(-c4c(F)c(F)c(F)c(F)c4F)c4nc(c(-c5c(F)c(F)c(F)c(F)c5F)c5ccc2[nH]5)C=C4)C=C3)cc1
REMARK SMILES IDX 19 1 18 2 16 3 17 4 15 6 13 7 14 8 12 10 11 11 1 12 2 13
REMARK SMILES IDX 3 14 4 15 10 16 5 17 6 18 9 19 7 20 8 21 20 22 21 23 22 24
REMARK SMILES IDX 23 25 24 27 25 28 26 29 87 30 27 31 86 32 28 33 29 34 30 35
REMARK SMILES IDX 80 36 31 37 85 38 79 39 81 40 32 41 84 42 78 43 77 44 33 46
REMARK SMILES IDX 65 47 45 48 64 49 46 50 49 51 63 52 82 53 47 54 48 55 62 57
REMARK SMILES IDX 83 58 50 59 34 60 35 61 43 62 36 63 37 64 41 65 44 66 38 67
REMARK SMILES IDX 39 68 42 69 40 70 66 71 67 72 75 73 68 74 69 75 73 76 76 77
REMARK SMILES IDX 70 78 71 79 74 80 72 81 51 82 52 83 60 84 53 85 54 86 58 87
REMARK SMILES IDX 61 88 55 89 56 90 59 91 57 92
REMARK H PARENT 18 5 13 9 22 26 81 45 49 56
REMARK Flexibility Score: inf
ROOT
ATOM      1  C   UNL A   1      31.660  30.687  26.750  1.00  0.00     0.118 C 
ENDROOT
BRANCH   1   2
ATOM      2  N   UNL A   1      33.062  30.325  26.741  1.00  0.00    -0.351 N 
ATOM      3  C   UNL A   1      33.653  29.098  26.746  1.00  0.00     0.275 C 
ATOM      4  O   UNL A   1      34.880  29.071  26.883  1.00  0.00    -0.269 OA
ATOM      5  H   UNL A   1      33.687  31.085  26.729  1.00  0.00     0.163 HD
BRANCH   3   6
ATOM      6  C   UNL A   1      32.837  27.815  26.572  1.00  0.00     0.363 C 
BRANCH   6   7
ATOM      7  N   UNL A   1      33.103  27.055  25.344  1.00  0.00    -0.324 N 
ATOM      8  C   UNL A   1      33.980  25.912  25.477  1.00  0.00     0.333 C 
ATOM      9  H   UNL A   1      32.183  26.648  25.180  1.00  0.00     0.348 HD
BRANCH   7  10
ATOM     10  C   UNL A   1      33.374  27.849  24.141  1.00  0.00     0.323 C 
BRANCH  10  11
ATOM     11  C   UNL A   1      32.115  28.109  23.387  1.00  0.00     0.137 A 
ATOM     12  C   UNL A   1      31.639  25.980  21.901  1.00  0.00     0.090 C 
ATOM     13  C   UNL A   1      31.424  27.308  22.502  1.00  0.00     0.130 A 
ATOM     14  O   UNL A   1      30.283  27.970  22.140  1.00  0.00    -0.440 OA
ATOM     15  C   UNL A   1      30.352  29.173  22.800  1.00  0.00     0.236 A 
ATOM     16  N   UNL A   1      31.427  29.294  23.555  1.00  0.00    -0.207 NA
BRANCH  15  17
ATOM     17  C   UNL A   1      29.380  30.217  22.681  1.00  0.00     0.090 A 
ATOM     18  C   UNL A   1      28.711  30.835  23.719  1.00  0.00     0.025 A 
ATOM     19  S   UNL A   1      28.884  30.824  21.162  1.00  0.00    -0.139 S 
ATOM     20  C   UNL A   1      27.778  31.808  23.261  1.00  0.00     0.012 A 
ATOM     21  C   UNL A   1      27.750  31.883  21.886  1.00  0.00     0.065 A 
ENDBRANCH  15  17
ENDBRANCH  10  11
ENDBRANCH   7  10
ENDBRANCH   6   7
ENDBRANCH   3   6
ENDBRANCH   1   2
BRANCH   1  22
ATOM     22  C   UNL A   1      31.482  32.202  26.824  1.00  0.00     0.042 C 
BRANCH  22  23
ATOM     23  C   UNL A   1      32.772  32.984  27.036  1.00  0.00     0.118 C 
BRANCH  23  24
ATOM     24  N   UNL A   1      32.541  34.304  27.594  1.00  0.00    -0.352 N 
ATOM     25  C   UNL A   1      33.043  34.895  28.726  1.00  0.00     0.251 C 
ATOM     26  H   UNL A   1      31.923  34.867  27.075  1.00  0.00     0.163 HD
ATOM     27  O   UNL A   1      32.562  35.960  29.101  1.00  0.00    -0.269 OA
BRANCH  25  28
ATOM     28  C   UNL A   1      34.139  34.274  29.512  1.00  0.00     0.039 A 
ATOM     29  C   UNL A   1      35.457  34.491  29.092  1.00  0.00     0.014 A 
ATOM     30  C   UNL A   1      33.897  33.426  30.596  1.00  0.00     0.014 A 
ATOM     31  C   UNL A   1      36.520  33.891  29.771  1.00  0.00     0.010 A 
ATOM     32  C   UNL A   1      34.961  32.895  31.326  1.00  0.00     0.010 A 
ATOM     33  C   UNL A   1      36.283  33.100  30.907  1.00  0.00    -0.014 A 
BRANCH  33  34
ATOM     34  C   UNL A   1      37.409  32.445  31.623  1.00  0.00     0.031 A 
ATOM     35  C   UNL A   1      38.152  31.300  30.986  1.00  0.00     0.074 A 
ATOM     36  C   UNL A   1      37.751  32.860  32.858  1.00  0.00     0.049 A 
ATOM     37  N   UNL A   1      39.156  30.599  31.455  1.00  0.00    -0.248 NA
ATOM     38  C   UNL A   1      37.691  30.867  29.658  1.00  0.00     0.031 C 
ATOM     39  C   UNL A   1      37.080  33.921  33.611  1.00  0.00     0.029 A 
ATOM     40  N   UNL A   1      38.754  32.440  33.698  1.00  0.00    -0.354 N 
ATOM     41  C   UNL A   1      39.429  29.637  30.491  1.00  0.00     0.074 A 
ATOM     42  C   UNL A   1      38.456  29.810  29.435  1.00  0.00     0.031 C 
ATOM     43  C   UNL A   1      37.706  34.089  34.786  1.00  0.00     0.029 A 
ATOM     44  C   UNL A   1      38.809  33.136  34.880  1.00  0.00     0.049 A 
ATOM     45  H   UNL A   1      39.374  31.710  33.473  1.00  0.00     0.167 HD
ATOM     46  C   UNL A   1      40.417  28.710  30.473  1.00  0.00     0.037 A 
ATOM     47  C   UNL A   1      39.659  33.024  35.918  1.00  0.00     0.037 A 
ATOM     48  C   UNL A   1      41.411  28.562  31.502  1.00  0.00     0.049 A 
ATOM     49  C   UNL A   1      40.775  32.019  35.853  1.00  0.00     0.074 A 
ATOM     50  C   UNL A   1      42.486  27.692  31.547  1.00  0.00     0.029 A 
ATOM     51  N   UNL A   1      41.456  29.313  32.667  1.00  0.00    -0.354 N 
ATOM     52  N   UNL A   1      41.062  31.159  34.907  1.00  0.00    -0.248 NA
ATOM     53  C   UNL A   1      41.697  31.980  36.997  1.00  0.00     0.031 C 
ATOM     54  C   UNL A   1      43.166  27.896  32.753  1.00  0.00     0.029 A 
ATOM     55  C   UNL A   1      42.536  28.921  33.441  1.00  0.00     0.049 A 
ATOM     56  H   UNL A   1      40.816  30.021  32.908  1.00  0.00     0.167 HD
ATOM     57  C   UNL A   1      42.207  30.496  35.327  1.00  0.00     0.074 A 
ATOM     58  C   UNL A   1      42.574  31.065  36.606  1.00  0.00     0.031 C 
ATOM     59  C   UNL A   1      42.892  29.502  34.709  1.00  0.00     0.037 A 
BRANCH  46  60
ATOM     60  C   UNL A   1      40.475  27.787  29.291  1.00  0.00     0.064 A 
ATOM     61  C   UNL A   1      41.381  27.996  28.240  1.00  0.00     0.173 A 
ATOM     62  C   UNL A   1      39.635  26.665  29.220  1.00  0.00     0.173 A 
ATOM     63  F   UNL A   1      42.195  29.062  28.254  1.00  0.00    -0.203 F 
ATOM     64  C   UNL A   1      41.423  27.135  27.147  1.00  0.00     0.198 A 
ATOM     65  C   UNL A   1      39.699  25.789  28.139  1.00  0.00     0.198 A 
ATOM     66  F   UNL A   1      38.755  26.416  30.201  1.00  0.00    -0.203 F 
ATOM     67  F   UNL A   1      42.261  27.383  26.132  1.00  0.00    -0.200 F 
ATOM     68  C   UNL A   1      40.586  26.029  27.100  1.00  0.00     0.200 A 
ATOM     69  F   UNL A   1      38.898  24.716  28.099  1.00  0.00    -0.200 F 
ATOM     70  F   UNL A   1      40.630  25.199  26.049  1.00  0.00    -0.200 F 
ENDBRANCH  46  60
BRANCH  47  71
ATOM     71  C   UNL A   1      39.518  33.926  37.089  1.00  0.00     0.064 A 
ATOM     72  C   UNL A   1      38.799  33.522  38.223  1.00  0.00     0.173 A 
ATOM     73  C   UNL A   1      40.092  35.205  37.099  1.00  0.00     0.173 A 
ATOM     74  F   UNL A   1      38.216  32.315  38.250  1.00  0.00    -0.203 F 
ATOM     75  C   UNL A   1      38.644  34.371  39.317  1.00  0.00     0.198 A 
ATOM     76  C   UNL A   1      39.955  36.044  38.203  1.00  0.00     0.198 A 
ATOM     77  F   UNL A   1      40.792  35.634  36.040  1.00  0.00    -0.203 F 
ATOM     78  F   UNL A   1      37.917  33.976  40.371  1.00  0.00    -0.200 F 
ATOM     79  C   UNL A   1      39.226  35.629  39.307  1.00  0.00     0.200 A 
ATOM     80  F   UNL A   1      40.530  37.255  38.196  1.00  0.00    -0.200 F 
ATOM     81  F   UNL A   1      39.079  36.445  40.360  1.00  0.00    -0.200 F 
ENDBRANCH  47  71
BRANCH  59  82
ATOM     82  C   UNL A   1      44.123  28.992  35.397  1.00  0.00     0.064 A 
ATOM     83  C   UNL A   1      45.387  29.541  35.140  1.00  0.00     0.173 A 
ATOM     84  C   UNL A   1      44.033  27.955  36.337  1.00  0.00     0.173 A 
ATOM     85  F   UNL A   1      45.526  30.524  34.238  1.00  0.00    -0.203 F 
ATOM     86  C   UNL A   1      46.522  29.051  35.780  1.00  0.00     0.198 A 
ATOM     87  C   UNL A   1      45.165  27.484  36.994  1.00  0.00     0.198 A 
ATOM     88  F   UNL A   1      42.844  27.400  36.621  1.00  0.00    -0.203 F 
ATOM     89  F   UNL A   1      47.728  29.557  35.483  1.00  0.00    -0.200 F 
ATOM     90  C   UNL A   1      46.411  28.026  36.709  1.00  0.00     0.200 A 
ATOM     91  F   UNL A   1      45.056  26.501  37.898  1.00  0.00    -0.200 F 
ATOM     92  F   UNL A   1      47.504  27.555  37.322  1.00  0.00    -0.200 F 
ENDBRANCH  59  82
ENDBRANCH  33  34
ENDBRANCH  25  28
ENDBRANCH  23  24
ENDBRANCH  22  23
ENDBRANCH   1  22
TORSDOF 14
ENDMDL
