MODEL 1
REMARK VINA RESULT:     -12.7      0.000      0.000
REMARK SMILES COc1ccc(-c2ccc(CCC(=O)NCCCNC(=O)c3ccc(-c4c5nc(c(-c6c(F)c(F)c(F)c(F)c6F)c6ccc([nH]6)c(-c6c(F)c(F)c(F)c(F)c6F)c6nc(c(-c7c(F)c(F)c(F)c(F)c7F)c7ccc4[nH]7)C=C6)C=C5)cc3)n2-c2ccc(C(C)=O)cc2)cc1
REMARK SMILES IDX 16 1 15 2 13 3 14 4 12 6 11 7 10 8 7 9 8 10 85 11 9 12 6 13
REMARK SMILES IDX 3 14 4 15 96 16 5 17 95 18 2 19 1 20 86 21 87 22 94 23 88 24
REMARK SMILES IDX 93 25 89 26 90 27 91 28 92 29 17 30 18 31 19 32 20 33 21 35
REMARK SMILES IDX 22 36 23 37 84 38 24 39 83 40 25 41 26 42 27 43 77 44 28 45
REMARK SMILES IDX 82 46 76 47 78 48 29 49 81 50 75 51 74 52 30 54 62 55 42 56
REMARK SMILES IDX 61 57 43 58 46 59 60 60 79 61 44 62 45 63 59 65 80 66 47 67
REMARK SMILES IDX 31 68 32 69 40 70 33 71 34 72 38 73 41 74 35 75 36 76 39 77
REMARK SMILES IDX 37 78 63 79 64 80 72 81 65 82 66 83 70 84 73 85 67 86 68 87
REMARK SMILES IDX 71 88 69 89 48 90 49 91 57 92 50 93 51 94 55 95 58 96 52 97
REMARK SMILES IDX 53 98 56 99 54 100
REMARK H PARENT 15 5 19 34 78 53 46 64
REMARK Flexibility Score: inf
ROOT
ATOM      1  C   UNL A   1      36.061  21.614  25.462  1.00  0.00     0.117 C 
ENDROOT
BRANCH   1   2
ATOM      2  N   UNL A   1      34.745  21.026  25.276  1.00  0.00    -0.356 N 
ATOM      3  C   UNL A   1      33.537  21.465  25.739  1.00  0.00     0.220 C 
ATOM      4  O   UNL A   1      32.572  20.701  25.664  1.00  0.00    -0.275 OA
ATOM      5  H   UNL A   1      34.720  20.198  24.743  1.00  0.00     0.163 HD
BRANCH   3   6
ATOM      6  C   UNL A   1      33.384  22.877  26.278  1.00  0.00     0.106 C 
BRANCH   6   7
ATOM      7  C   UNL A   1      31.921  23.315  26.413  1.00  0.00     0.064 C 
BRANCH   7   8
ATOM      8  C   UNL A   1      31.393  23.994  25.173  1.00  0.00     0.024 A 
ATOM      9  C   UNL A   1      30.336  25.585  23.963  1.00  0.00     0.053 A 
ATOM     10  C   UNL A   1      30.346  24.407  23.227  1.00  0.00     0.029 A 
ATOM     11  N   UNL A   1      31.184  25.370  25.051  1.00  0.00    -0.314 N 
ATOM     12  C   UNL A   1      31.021  23.419  23.973  1.00  0.00     0.024 A 
BRANCH   9  13
ATOM     13  C   UNL A   1      29.784  26.870  23.531  1.00  0.00    -0.001 A 
ATOM     14  C   UNL A   1      28.720  29.286  22.563  1.00  0.00     0.118 A 
ATOM     15  C   UNL A   1      30.078  29.003  22.421  1.00  0.00     0.047 A 
ATOM     16  C   UNL A   1      27.884  28.352  23.174  1.00  0.00     0.047 A 
ATOM     17  C   UNL A   1      30.611  27.807  22.907  1.00  0.00     0.014 A 
ATOM     18  C   UNL A   1      28.416  27.148  23.655  1.00  0.00     0.014 A 
BRANCH  14  19
ATOM     19  O   UNL A   1      28.309  30.470  22.018  1.00  0.00    -0.497 OA
ATOM     20  C   UNL A   1      28.049  31.513  22.951  1.00  0.00     0.278 C 
ENDBRANCH  14  19
ENDBRANCH   9  13
BRANCH  11  21
ATOM     21  C   UNL A   1      31.923  26.372  25.732  1.00  0.00     0.046 A 
ATOM     22  C   UNL A   1      33.192  26.687  25.232  1.00  0.00     0.027 A 
ATOM     23  C   UNL A   1      31.373  27.121  26.772  1.00  0.00     0.027 A 
ATOM     24  C   UNL A   1      33.909  27.763  25.753  1.00  0.00     0.014 A 
ATOM     25  C   UNL A   1      32.107  28.188  27.305  1.00  0.00     0.014 A 
ATOM     26  C   UNL A   1      33.368  28.533  26.785  1.00  0.00     0.017 A 
BRANCH  26  27
ATOM     27  C   UNL A   1      34.066  29.726  27.356  1.00  0.00     0.159 C 
ATOM     28  C   UNL A   1      35.426  29.599  27.998  1.00  0.00     0.093 C 
ATOM     29  O   UNL A   1      33.526  30.830  27.277  1.00  0.00    -0.295 OA
ENDBRANCH  26  27
ENDBRANCH  11  21
ENDBRANCH   7   8
ENDBRANCH   6   7
ENDBRANCH   3   6
ENDBRANCH   1   2
BRANCH   1  30
ATOM     30  C   UNL A   1      37.143  20.567  25.240  1.00  0.00     0.042 C 
BRANCH  30  31
ATOM     31  C   UNL A   1      38.560  21.095  25.396  1.00  0.00     0.118 C 
BRANCH  31  32
ATOM     32  N   UNL A   1      39.502  20.023  25.663  1.00  0.00    -0.352 N 
ATOM     33  C   UNL A   1      40.805  20.084  26.063  1.00  0.00     0.251 C 
ATOM     34  H   UNL A   1      39.147  19.114  25.535  1.00  0.00     0.163 HD
ATOM     35  O   UNL A   1      41.488  19.048  25.971  1.00  0.00    -0.269 OA
BRANCH  33  36
ATOM     36  C   UNL A   1      41.440  21.320  26.583  1.00  0.00     0.039 A 
ATOM     37  C   UNL A   1      41.916  22.250  25.646  1.00  0.00     0.014 A 
ATOM     38  C   UNL A   1      41.647  21.558  27.947  1.00  0.00     0.014 A 
ATOM     39  C   UNL A   1      42.552  23.417  26.065  1.00  0.00     0.010 A 
ATOM     40  C   UNL A   1      42.252  22.735  28.374  1.00  0.00     0.010 A 
ATOM     41  C   UNL A   1      42.700  23.668  27.432  1.00  0.00    -0.014 A 
BRANCH  41  42
ATOM     42  C   UNL A   1      43.253  24.963  27.891  1.00  0.00     0.031 A 
ATOM     43  C   UNL A   1      42.183  25.981  28.278  1.00  0.00     0.074 A 
ATOM     44  C   UNL A   1      44.613  25.055  27.948  1.00  0.00     0.049 A 
ATOM     45  N   UNL A   1      42.286  27.259  28.488  1.00  0.00    -0.248 NA
ATOM     46  C   UNL A   1      40.779  25.515  28.441  1.00  0.00     0.031 C 
ATOM     47  C   UNL A   1      45.517  23.956  27.568  1.00  0.00     0.029 A 
ATOM     48  N   UNL A   1      45.508  26.040  28.328  1.00  0.00    -0.354 N 
ATOM     49  C   UNL A   1      41.047  27.697  28.998  1.00  0.00     0.074 A 
ATOM     50  C   UNL A   1      40.130  26.608  28.844  1.00  0.00     0.031 C 
ATOM     51  C   UNL A   1      46.803  24.338  27.676  1.00  0.00     0.029 A 
ATOM     52  C   UNL A   1      46.875  25.707  28.143  1.00  0.00     0.049 A 
ATOM     53  H   UNL A   1      45.218  26.905  28.697  1.00  0.00     0.167 HD
ATOM     54  C   UNL A   1      40.882  28.882  29.651  1.00  0.00     0.037 A 
ATOM     55  C   UNL A   1      47.994  26.474  28.329  1.00  0.00     0.037 A 
ATOM     56  C   UNL A   1      42.083  29.645  29.635  1.00  0.00     0.049 A 
ATOM     57  C   UNL A   1      47.537  27.696  29.012  1.00  0.00     0.074 A 
ATOM     58  C   UNL A   1      42.716  30.373  28.663  1.00  0.00     0.029 A 
ATOM     59  N   UNL A   1      42.931  29.504  30.703  1.00  0.00    -0.354 N 
ATOM     60  N   UNL A   1      47.175  27.741  30.260  1.00  0.00    -0.248 NA
ATOM     61  C   UNL A   1      47.430  28.950  28.260  1.00  0.00     0.031 C 
ATOM     62  C   UNL A   1      44.079  30.349  29.032  1.00  0.00     0.029 A 
ATOM     63  C   UNL A   1      44.215  29.660  30.241  1.00  0.00     0.049 A 
ATOM     64  H   UNL A   1      42.667  29.323  31.634  1.00  0.00     0.167 HD
ATOM     65  C   UNL A   1      46.488  28.931  30.331  1.00  0.00     0.074 A 
ATOM     66  C   UNL A   1      46.939  29.733  29.219  1.00  0.00     0.031 C 
ATOM     67  C   UNL A   1      45.272  28.954  30.931  1.00  0.00     0.037 A 
BRANCH  54  68
ATOM     68  C   UNL A   1      39.769  29.373  30.534  1.00  0.00     0.064 A 
ATOM     69  C   UNL A   1      38.884  30.355  30.021  1.00  0.00     0.173 A 
ATOM     70  C   UNL A   1      39.752  29.194  31.925  1.00  0.00     0.173 A 
ATOM     71  F   UNL A   1      38.801  30.577  28.699  1.00  0.00    -0.203 F 
ATOM     72  C   UNL A   1      38.134  31.183  30.852  1.00  0.00     0.198 A 
ATOM     73  C   UNL A   1      38.961  29.995  32.752  1.00  0.00     0.198 A 
ATOM     74  F   UNL A   1      40.574  28.319  32.520  1.00  0.00    -0.203 F 
ATOM     75  F   UNL A   1      37.417  32.186  30.326  1.00  0.00    -0.200 F 
ATOM     76  C   UNL A   1      38.185  31.013  32.221  1.00  0.00     0.200 A 
ATOM     77  F   UNL A   1      39.010  29.827  34.082  1.00  0.00    -0.200 F 
ATOM     78  F   UNL A   1      37.519  31.849  33.028  1.00  0.00    -0.200 F 
ENDBRANCH  54  68
BRANCH  55  79
ATOM     79  C   UNL A   1      49.476  26.386  28.014  1.00  0.00     0.064 A 
ATOM     80  C   UNL A   1      50.525  26.442  28.943  1.00  0.00     0.173 A 
ATOM     81  C   UNL A   1      49.908  26.129  26.681  1.00  0.00     0.173 A 
ATOM     82  F   UNL A   1      50.319  26.772  30.219  1.00  0.00    -0.203 F 
ATOM     83  C   UNL A   1      51.859  26.164  28.595  1.00  0.00     0.198 A 
ATOM     84  C   UNL A   1      51.226  25.814  26.340  1.00  0.00     0.198 A 
ATOM     85  F   UNL A   1      49.059  26.162  25.646  1.00  0.00    -0.203 F 
ATOM     86  F   UNL A   1      52.812  26.218  29.537  1.00  0.00    -0.200 F 
ATOM     87  C   UNL A   1      52.203  25.814  27.305  1.00  0.00     0.200 A 
ATOM     88  F   UNL A   1      51.525  25.489  25.075  1.00  0.00    -0.200 F 
ATOM     89  F   UNL A   1      53.465  25.490  26.993  1.00  0.00    -0.200 F 
ENDBRANCH  55  79
BRANCH  67  90
ATOM     90  C   UNL A   1      45.097  27.842  31.948  1.00  0.00     0.064 A 
ATOM     91  C   UNL A   1      45.717  27.934  33.204  1.00  0.00     0.173 A 
ATOM     92  C   UNL A   1      44.473  26.617  31.655  1.00  0.00     0.173 A 
ATOM     93  F   UNL A   1      46.322  29.075  33.571  1.00  0.00    -0.203 F 
ATOM     94  C   UNL A   1      45.737  26.854  34.093  1.00  0.00     0.198 A 
ATOM     95  C   UNL A   1      44.482  25.542  32.542  1.00  0.00     0.198 A 
ATOM     96  F   UNL A   1      43.840  26.439  30.499  1.00  0.00    -0.203 F 
ATOM     97  F   UNL A   1      46.357  26.974  35.274  1.00  0.00    -0.200 F 
ATOM     98  C   UNL A   1      45.126  25.657  33.758  1.00  0.00     0.200 A 
ATOM     99  F   UNL A   1      43.867  24.396  32.211  1.00  0.00    -0.200 F 
ATOM    100  F   UNL A   1      45.146  24.622  34.610  1.00  0.00    -0.200 F 
ENDBRANCH  67  90
ENDBRANCH  41  42
ENDBRANCH  33  36
ENDBRANCH  31  32
ENDBRANCH  30  31
ENDBRANCH   1  30
TORSDOF 16
ENDMDL
MODEL 2
REMARK VINA RESULT:     -12.3      3.082      5.065
REMARK SMILES COc1ccc(-c2ccc(CCC(=O)NCCCNC(=O)c3ccc(-c4c5nc(c(-c6c(F)c(F)c(F)c(F)c6F)c6ccc([nH]6)c(-c6c(F)c(F)c(F)c(F)c6F)c6nc(c(-c7c(F)c(F)c(F)c(F)c7F)c7ccc4[nH]7)C=C6)C=C5)cc3)n2-c2ccc(C(C)=O)cc2)cc1
REMARK SMILES IDX 16 1 15 2 13 3 14 4 12 6 11 7 10 8 7 9 8 10 85 11 9 12 6 13
REMARK SMILES IDX 3 14 4 15 96 16 5 17 95 18 2 19 1 20 86 21 87 22 94 23 88 24
REMARK SMILES IDX 93 25 89 26 90 27 91 28 92 29 17 30 18 31 19 32 20 33 21 35
REMARK SMILES IDX 22 36 23 37 84 38 24 39 83 40 25 41 26 42 27 43 77 44 28 45
REMARK SMILES IDX 82 46 76 47 78 48 29 49 81 50 75 51 74 52 30 54 62 55 42 56
REMARK SMILES IDX 61 57 43 58 46 59 60 60 79 61 44 62 45 63 59 65 80 66 47 67
REMARK SMILES IDX 31 68 32 69 40 70 33 71 34 72 38 73 41 74 35 75 36 76 39 77
REMARK SMILES IDX 37 78 63 79 64 80 72 81 65 82 66 83 70 84 73 85 67 86 68 87
REMARK SMILES IDX 71 88 69 89 48 90 49 91 57 92 50 93 51 94 55 95 58 96 52 97
REMARK SMILES IDX 53 98 56 99 54 100
REMARK H PARENT 15 5 19 34 78 53 46 64
REMARK Flexibility Score: inf
ROOT
ATOM      1  C   UNL A   1      36.061  23.173  23.891  1.00  0.00     0.117 C 
ENDROOT
BRANCH   1   2
ATOM      2  N   UNL A   1      34.920  22.273  23.926  1.00  0.00    -0.356 N 
ATOM      3  C   UNL A   1      33.637  22.502  23.518  1.00  0.00     0.220 C 
ATOM      4  O   UNL A   1      32.769  21.689  23.843  1.00  0.00    -0.275 OA
ATOM      5  H   UNL A   1      35.096  21.377  24.294  1.00  0.00     0.163 HD
BRANCH   3   6
ATOM      6  C   UNL A   1      33.306  23.698  22.641  1.00  0.00     0.106 C 
BRANCH   6   7
ATOM      7  C   UNL A   1      32.037  24.435  23.079  1.00  0.00     0.064 C 
BRANCH   7   8
ATOM      8  C   UNL A   1      32.204  25.168  24.389  1.00  0.00     0.024 A 
ATOM      9  C   UNL A   1      32.710  26.897  25.754  1.00  0.00     0.053 A 
ATOM     10  C   UNL A   1      32.803  25.720  26.484  1.00  0.00     0.029 A 
ATOM     11  N   UNL A   1      32.118  26.554  24.536  1.00  0.00    -0.314 N 
ATOM     12  C   UNL A   1      32.470  24.641  25.638  1.00  0.00     0.024 A 
BRANCH   9  13
ATOM     13  C   UNL A   1      32.920  28.253  26.268  1.00  0.00    -0.001 A 
ATOM     14  C   UNL A   1      33.306  30.801  27.391  1.00  0.00     0.118 A 
ATOM     15  C   UNL A   1      32.020  30.283  27.236  1.00  0.00     0.047 A 
ATOM     16  C   UNL A   1      34.406  30.037  27.001  1.00  0.00     0.047 A 
ATOM     17  C   UNL A   1      31.825  29.020  26.671  1.00  0.00     0.014 A 
ATOM     18  C   UNL A   1      34.212  28.767  26.442  1.00  0.00     0.014 A 
BRANCH  14  19
ATOM     19  O   UNL A   1      33.373  32.030  27.986  1.00  0.00    -0.497 OA
ATOM     20  C   UNL A   1      32.658  33.068  27.324  1.00  0.00     0.278 C 
ENDBRANCH  14  19
ENDBRANCH   9  13
BRANCH  11  21
ATOM     21  C   UNL A   1      31.326  27.414  23.732  1.00  0.00     0.046 A 
ATOM     22  C   UNL A   1      29.935  27.304  23.850  1.00  0.00     0.027 A 
ATOM     23  C   UNL A   1      31.886  28.428  22.956  1.00  0.00     0.027 A 
ATOM     24  C   UNL A   1      29.098  28.217  23.209  1.00  0.00     0.014 A 
ATOM     25  C   UNL A   1      31.039  29.330  22.299  1.00  0.00     0.014 A 
ATOM     26  C   UNL A   1      29.641  29.247  22.438  1.00  0.00     0.017 A 
BRANCH  26  27
ATOM     27  C   UNL A   1      28.801  30.283  21.764  1.00  0.00     0.159 C 
ATOM     28  C   UNL A   1      28.908  31.740  22.144  1.00  0.00     0.093 C 
ATOM     29  O   UNL A   1      28.026  29.937  20.871  1.00  0.00    -0.295 OA
ENDBRANCH  26  27
ENDBRANCH  11  21
ENDBRANCH   7   8
ENDBRANCH   6   7
ENDBRANCH   3   6
ENDBRANCH   1   2
BRANCH   1  30
ATOM     30  C   UNL A   1      35.916  24.251  24.957  1.00  0.00     0.042 C 
BRANCH  30  31
ATOM     31  C   UNL A   1      36.373  23.820  26.342  1.00  0.00     0.118 C 
BRANCH  31  32
ATOM     32  N   UNL A   1      37.557  22.982  26.275  1.00  0.00    -0.352 N 
ATOM     33  C   UNL A   1      38.866  23.301  26.490  1.00  0.00     0.251 C 
ATOM     34  H   UNL A   1      37.390  22.041  26.037  1.00  0.00     0.163 HD
ATOM     35  O   UNL A   1      39.730  22.486  26.118  1.00  0.00    -0.269 OA
BRANCH  33  36
ATOM     36  C   UNL A   1      39.301  24.567  27.128  1.00  0.00     0.039 A 
ATOM     37  C   UNL A   1      40.017  25.481  26.339  1.00  0.00     0.014 A 
ATOM     38  C   UNL A   1      39.095  24.851  28.484  1.00  0.00     0.014 A 
ATOM     39  C   UNL A   1      40.484  26.675  26.884  1.00  0.00     0.010 A 
ATOM     40  C   UNL A   1      39.530  26.056  29.027  1.00  0.00     0.010 A 
ATOM     41  C   UNL A   1      40.221  26.971  28.225  1.00  0.00    -0.014 A 
BRANCH  41  42
ATOM     42  C   UNL A   1      40.595  28.293  28.778  1.00  0.00     0.031 A 
ATOM     43  C   UNL A   1      39.412  29.247  28.932  1.00  0.00     0.074 A 
ATOM     44  C   UNL A   1      41.907  28.460  29.111  1.00  0.00     0.049 A 
ATOM     45  N   UNL A   1      39.398  30.527  29.151  1.00  0.00    -0.248 NA
ATOM     46  C   UNL A   1      38.033  28.702  28.808  1.00  0.00     0.031 C 
ATOM     47  C   UNL A   1      42.930  27.416  28.931  1.00  0.00     0.029 A 
ATOM     48  N   UNL A   1      42.648  29.492  29.659  1.00  0.00    -0.354 N 
ATOM     49  C   UNL A   1      38.059  30.892  29.394  1.00  0.00     0.074 A 
ATOM     50  C   UNL A   1      37.256  29.754  29.063  1.00  0.00     0.031 C 
ATOM     51  C   UNL A   1      44.143  27.870  29.296  1.00  0.00     0.029 A 
ATOM     52  C   UNL A   1      44.041  29.238  29.759  1.00  0.00     0.049 A 
ATOM     53  H   UNL A   1      42.241  30.337  29.956  1.00  0.00     0.167 HD
ATOM     54  C   UNL A   1      37.698  32.063  29.992  1.00  0.00     0.037 A 
ATOM     55  C   UNL A   1      45.054  30.065  30.165  1.00  0.00     0.037 A 
ATOM     56  C   UNL A   1      38.832  32.893  30.216  1.00  0.00     0.049 A 
ATOM     57  C   UNL A   1      44.399  31.256  30.733  1.00  0.00     0.074 A 
ATOM     58  C   UNL A   1      39.609  33.660  29.390  1.00  0.00     0.029 A 
ATOM     59  N   UNL A   1      39.451  32.794  31.436  1.00  0.00    -0.354 N 
ATOM     60  N   UNL A   1      43.788  31.274  31.880  1.00  0.00    -0.248 NA
ATOM     61  C   UNL A   1      44.377  32.507  29.967  1.00  0.00     0.031 C 
ATOM     62  C   UNL A   1      40.866  33.711  30.029  1.00  0.00     0.029 A 
ATOM     63  C   UNL A   1      40.791  33.024  31.245  1.00  0.00     0.049 A 
ATOM     64  H   UNL A   1      39.012  32.593  32.295  1.00  0.00     0.167 HD
ATOM     65  C   UNL A   1      43.036  32.424  31.802  1.00  0.00     0.074 A 
ATOM     66  C   UNL A   1      43.658  33.256  30.800  1.00  0.00     0.031 C 
ATOM     67  C   UNL A   1      41.723  32.375  32.141  1.00  0.00     0.037 A 
BRANCH  54  68
ATOM     68  C   UNL A   1      36.402  32.486  30.626  1.00  0.00     0.064 A 
ATOM     69  C   UNL A   1      35.622  33.472  29.971  1.00  0.00     0.173 A 
ATOM     70  C   UNL A   1      36.085  32.239  31.969  1.00  0.00     0.173 A 
ATOM     71  F   UNL A   1      35.825  33.757  28.675  1.00  0.00    -0.203 F 
ATOM     72  C   UNL A   1      34.681  34.242  30.650  1.00  0.00     0.198 A 
ATOM     73  C   UNL A   1      35.105  32.982  32.634  1.00  0.00     0.198 A 
ATOM     74  F   UNL A   1      36.782  31.354  32.694  1.00  0.00    -0.203 F 
ATOM     75  F   UNL A   1      34.066  35.255  30.021  1.00  0.00    -0.200 F 
ATOM     76  C   UNL A   1      34.433  34.007  31.987  1.00  0.00     0.200 A 
ATOM     77  F   UNL A   1      34.864  32.749  33.933  1.00  0.00    -0.200 F 
ATOM     78  F   UNL A   1      33.579  34.788  32.662  1.00  0.00    -0.200 F 
ENDBRANCH  54  68
BRANCH  55  79
ATOM     79  C   UNL A   1      46.571  30.063  30.160  1.00  0.00     0.064 A 
ATOM     80  C   UNL A   1      47.396  30.572  29.146  1.00  0.00     0.173 A 
ATOM     81  C   UNL A   1      47.289  29.601  31.301  1.00  0.00     0.173 A 
ATOM     82  F   UNL A   1      46.907  30.956  27.967  1.00  0.00    -0.203 F 
ATOM     83  C   UNL A   1      48.788  30.705  29.300  1.00  0.00     0.198 A 
ATOM     84  C   UNL A   1      48.665  29.768  31.471  1.00  0.00     0.198 A 
ATOM     85  F   UNL A   1      46.675  28.972  32.312  1.00  0.00    -0.203 F 
ATOM     86  F   UNL A   1      49.517  31.216  28.297  1.00  0.00    -0.200 F 
ATOM     87  C   UNL A   1      49.417  30.338  30.473  1.00  0.00     0.200 A 
ATOM     88  F   UNL A   1      49.243  29.391  32.621  1.00  0.00    -0.200 F 
ATOM     89  F   UNL A   1      50.733  30.525  30.637  1.00  0.00    -0.200 F 
ENDBRANCH  55  79
BRANCH  67  90
ATOM     90  C   UNL A   1      41.407  31.250  33.108  1.00  0.00     0.064 A 
ATOM     91  C   UNL A   1      41.819  31.337  34.447  1.00  0.00     0.173 A 
ATOM     92  C   UNL A   1      40.856  30.020  32.709  1.00  0.00     0.173 A 
ATOM     93  F   UNL A   1      42.340  32.482  34.914  1.00  0.00    -0.203 F 
ATOM     94  C   UNL A   1      41.715  30.248  35.318  1.00  0.00     0.198 A 
ATOM     95  C   UNL A   1      40.742  28.935  33.577  1.00  0.00     0.198 A 
ATOM     96  F   UNL A   1      40.417  29.845  31.465  1.00  0.00    -0.203 F 
ATOM     97  F   UNL A   1      42.138  30.363  36.584  1.00  0.00    -0.200 F 
ATOM     98  C   UNL A   1      41.183  29.046  34.881  1.00  0.00     0.200 A 
ATOM     99  F   UNL A   1      40.205  27.784  33.143  1.00  0.00    -0.200 F 
ATOM    100  F   UNL A   1      41.084  28.002  35.716  1.00  0.00    -0.200 F 
ENDBRANCH  67  90
ENDBRANCH  41  42
ENDBRANCH  33  36
ENDBRANCH  31  32
ENDBRANCH  30  31
ENDBRANCH   1  30
TORSDOF 16
ENDMDL
MODEL 3
REMARK VINA RESULT:     -12.2      4.891      9.499
REMARK SMILES COc1ccc(-c2ccc(CCC(=O)NCCCNC(=O)c3ccc(-c4c5nc(c(-c6c(F)c(F)c(F)c(F)c6F)c6ccc([nH]6)c(-c6c(F)c(F)c(F)c(F)c6F)c6nc(c(-c7c(F)c(F)c(F)c(F)c7F)c7ccc4[nH]7)C=C6)C=C5)cc3)n2-c2ccc(C(C)=O)cc2)cc1
REMARK SMILES IDX 16 1 15 2 13 3 14 4 12 6 11 7 10 8 7 9 8 10 85 11 9 12 6 13
REMARK SMILES IDX 3 14 4 15 96 16 5 17 95 18 2 19 1 20 86 21 87 22 94 23 88 24
REMARK SMILES IDX 93 25 89 26 90 27 91 28 92 29 17 30 18 31 19 32 20 33 21 35
REMARK SMILES IDX 22 36 23 37 84 38 24 39 83 40 25 41 26 42 27 43 77 44 28 45
REMARK SMILES IDX 82 46 76 47 78 48 29 49 81 50 75 51 74 52 30 54 62 55 42 56
REMARK SMILES IDX 61 57 43 58 46 59 60 60 79 61 44 62 45 63 59 65 80 66 47 67
REMARK SMILES IDX 31 68 32 69 40 70 33 71 34 72 38 73 41 74 35 75 36 76 39 77
REMARK SMILES IDX 37 78 63 79 64 80 72 81 65 82 66 83 70 84 73 85 67 86 68 87
REMARK SMILES IDX 71 88 69 89 48 90 49 91 57 92 50 93 51 94 55 95 58 96 52 97
REMARK SMILES IDX 53 98 56 99 54 100
REMARK H PARENT 15 5 19 34 78 53 46 64
REMARK Flexibility Score: inf
ROOT
ATOM      1  C   UNL A   1      44.186  29.901  36.963  1.00  0.00     0.117 C 
ENDROOT
BRANCH   1   2
ATOM      2  N   UNL A   1      42.972  29.115  36.817  1.00  0.00    -0.356 N 
ATOM      3  C   UNL A   1      41.982  29.235  35.883  1.00  0.00     0.220 C 
ATOM      4  O   UNL A   1      40.929  28.622  36.069  1.00  0.00    -0.275 OA
ATOM      5  H   UNL A   1      42.846  28.399  37.480  1.00  0.00     0.163 HD
BRANCH   3   6
ATOM      6  C   UNL A   1      42.202  30.058  34.625  1.00  0.00     0.106 C 
BRANCH   6   7
ATOM      7  C   UNL A   1      41.445  29.514  33.408  1.00  0.00     0.064 C 
BRANCH   7   8
ATOM      8  C   UNL A   1      40.187  30.290  33.103  1.00  0.00     0.024 A 
ATOM      9  C   UNL A   1      38.673  31.378  31.823  1.00  0.00     0.053 A 
ATOM     10  C   UNL A   1      38.548  31.830  33.130  1.00  0.00     0.029 A 
ATOM     11  N   UNL A   1      39.523  30.271  31.874  1.00  0.00    -0.314 N 
ATOM     12  C   UNL A   1      39.480  31.139  33.934  1.00  0.00     0.024 A 
BRANCH   9  13
ATOM     13  C   UNL A   1      37.857  31.796  30.682  1.00  0.00    -0.001 A 
ATOM     14  C   UNL A   1      36.206  32.677  28.583  1.00  0.00     0.118 A 
ATOM     15  C   UNL A   1      35.800  31.631  29.412  1.00  0.00     0.047 A 
ATOM     16  C   UNL A   1      37.432  33.299  28.813  1.00  0.00     0.047 A 
ATOM     17  C   UNL A   1      36.621  31.186  30.451  1.00  0.00     0.014 A 
ATOM     18  C   UNL A   1      38.254  32.859  29.860  1.00  0.00     0.014 A 
BRANCH  14  19
ATOM     19  O   UNL A   1      35.304  33.047  27.625  1.00  0.00    -0.497 OA
ATOM     20  C   UNL A   1      33.950  32.700  27.895  1.00  0.00     0.278 C 
ENDBRANCH  14  19
ENDBRANCH   9  13
BRANCH  11  21
ATOM     21  C   UNL A   1      39.509  29.178  30.970  1.00  0.00     0.046 A 
ATOM     22  C   UNL A   1      40.412  29.216  29.900  1.00  0.00     0.027 A 
ATOM     23  C   UNL A   1      38.737  28.039  31.194  1.00  0.00     0.027 A 
ATOM     24  C   UNL A   1      40.563  28.112  29.063  1.00  0.00     0.014 A 
ATOM     25  C   UNL A   1      38.878  26.940  30.338  1.00  0.00     0.014 A 
ATOM     26  C   UNL A   1      39.807  26.958  29.281  1.00  0.00     0.017 A 
BRANCH  26  27
ATOM     27  C   UNL A   1      39.954  25.725  28.447  1.00  0.00     0.159 C 
ATOM     28  C   UNL A   1      39.052  25.474  27.264  1.00  0.00     0.093 C 
ATOM     29  O   UNL A   1      40.842  24.917  28.725  1.00  0.00    -0.295 OA
ENDBRANCH  26  27
ENDBRANCH  11  21
ENDBRANCH   7   8
ENDBRANCH   6   7
ENDBRANCH   3   6
ENDBRANCH   1   2
BRANCH   1  30
ATOM     30  C   UNL A   1      45.156  29.202  37.905  1.00  0.00     0.042 C 
BRANCH  30  31
ATOM     31  C   UNL A   1      46.098  28.227  37.216  1.00  0.00     0.118 C 
BRANCH  31  32
ATOM     32  N   UNL A   1      45.759  26.850  37.527  1.00  0.00    -0.352 N 
ATOM     33  C   UNL A   1      45.168  25.898  36.748  1.00  0.00     0.251 C 
ATOM     34  H   UNL A   1      45.989  26.559  38.439  1.00  0.00     0.163 HD
ATOM     35  O   UNL A   1      44.737  24.875  37.310  1.00  0.00    -0.269 OA
BRANCH  33  36
ATOM     36  C   UNL A   1      45.007  26.033  35.280  1.00  0.00     0.039 A 
ATOM     37  C   UNL A   1      43.715  26.274  34.787  1.00  0.00     0.014 A 
ATOM     38  C   UNL A   1      46.061  25.859  34.375  1.00  0.00     0.014 A 
ATOM     39  C   UNL A   1      43.486  26.379  33.417  1.00  0.00     0.010 A 
ATOM     40  C   UNL A   1      45.846  25.994  33.007  1.00  0.00     0.010 A 
ATOM     41  C   UNL A   1      44.559  26.260  32.528  1.00  0.00    -0.014 A 
BRANCH  41  42
ATOM     42  C   UNL A   1      44.352  26.502  31.082  1.00  0.00     0.031 A 
ATOM     43  C   UNL A   1      44.378  27.980  30.700  1.00  0.00     0.074 A 
ATOM     44  C   UNL A   1      44.216  25.395  30.296  1.00  0.00     0.049 A 
ATOM     45  N   UNL A   1      44.005  28.564  29.601  1.00  0.00    -0.248 NA
ATOM     46  C   UNL A   1      44.877  28.967  31.696  1.00  0.00     0.031 C 
ATOM     47  C   UNL A   1      44.250  24.019  30.820  1.00  0.00     0.029 A 
ATOM     48  N   UNL A   1      44.034  25.179  28.941  1.00  0.00    -0.354 N 
ATOM     49  C   UNL A   1      44.408  29.911  29.689  1.00  0.00     0.074 A 
ATOM     50  C   UNL A   1      44.839  30.125  31.037  1.00  0.00     0.031 C 
ATOM     51  C   UNL A   1      44.041  23.129  29.832  1.00  0.00     0.029 A 
ATOM     52  C   UNL A   1      43.863  23.820  28.572  1.00  0.00     0.049 A 
ATOM     53  H   UNL A   1      44.025  25.912  28.285  1.00  0.00     0.167 HD
ATOM     54  C   UNL A   1      44.501  30.738  28.609  1.00  0.00     0.037 A 
ATOM     55  C   UNL A   1      43.578  23.275  27.348  1.00  0.00     0.037 A 
ATOM     56  C   UNL A   1      44.027  30.094  27.431  1.00  0.00     0.049 A 
ATOM     57  C   UNL A   1      43.714  24.374  26.377  1.00  0.00     0.074 A 
ATOM     58  C   UNL A   1      42.774  29.786  26.973  1.00  0.00     0.029 A 
ATOM     59  N   UNL A   1      44.952  29.447  26.654  1.00  0.00    -0.354 N 
ATOM     60  N   UNL A   1      44.852  24.877  26.000  1.00  0.00    -0.248 NA
ATOM     61  C   UNL A   1      42.511  24.992  25.808  1.00  0.00     0.031 C 
ATOM     62  C   UNL A   1      42.966  28.662  26.141  1.00  0.00     0.029 A 
ATOM     63  C   UNL A   1      44.331  28.365  26.078  1.00  0.00     0.049 A 
ATOM     64  H   UNL A   1      45.893  29.709  26.531  1.00  0.00     0.167 HD
ATOM     65  C   UNL A   1      44.478  26.071  25.428  1.00  0.00     0.074 A 
ATOM     66  C   UNL A   1      43.087  25.936  25.066  1.00  0.00     0.031 C 
ATOM     67  C   UNL A   1      45.138  27.204  25.777  1.00  0.00     0.037 A 
BRANCH  54  68
ATOM     68  C   UNL A   1      45.202  32.056  28.435  1.00  0.00     0.064 A 
ATOM     69  C   UNL A   1      46.617  32.082  28.505  1.00  0.00     0.173 A 
ATOM     70  C   UNL A   1      44.555  33.294  28.557  1.00  0.00     0.173 A 
ATOM     71  F   UNL A   1      47.331  30.953  28.365  1.00  0.00    -0.203 F 
ATOM     72  C   UNL A   1      47.323  33.245  28.804  1.00  0.00     0.198 A 
ATOM     73  C   UNL A   1      45.271  34.468  28.808  1.00  0.00     0.198 A 
ATOM     74  F   UNL A   1      43.218  33.382  28.540  1.00  0.00    -0.203 F 
ATOM     75  F   UNL A   1      48.649  33.193  28.996  1.00  0.00    -0.200 F 
ATOM     76  C   UNL A   1      46.647  34.437  28.972  1.00  0.00     0.200 A 
ATOM     77  F   UNL A   1      44.612  35.625  28.967  1.00  0.00    -0.200 F 
ATOM     78  F   UNL A   1      47.312  35.545  29.325  1.00  0.00    -0.200 F 
ENDBRANCH  54  68
BRANCH  55  79
ATOM     79  C   UNL A   1      43.172  21.923  26.792  1.00  0.00     0.064 A 
ATOM     80  C   UNL A   1      43.841  21.204  25.791  1.00  0.00     0.173 A 
ATOM     81  C   UNL A   1      42.070  21.220  27.359  1.00  0.00     0.173 A 
ATOM     82  F   UNL A   1      44.833  21.743  25.081  1.00  0.00    -0.203 F 
ATOM     83  C   UNL A   1      43.512  19.876  25.465  1.00  0.00     0.198 A 
ATOM     84  C   UNL A   1      41.766  19.888  27.065  1.00  0.00     0.198 A 
ATOM     85  F   UNL A   1      41.243  21.798  28.240  1.00  0.00    -0.203 F 
ATOM     86  F   UNL A   1      44.204  19.240  24.509  1.00  0.00    -0.200 F 
ATOM     87  C   UNL A   1      42.501  19.207  26.126  1.00  0.00     0.200 A 
ATOM     88  F   UNL A   1      40.771  19.274  27.719  1.00  0.00    -0.200 F 
ATOM     89  F   UNL A   1      42.233  17.924  25.854  1.00  0.00    -0.200 F 
ENDBRANCH  55  79
BRANCH  67  90
ATOM     90  C   UNL A   1      46.547  26.934  26.271  1.00  0.00     0.064 A 
ATOM     91  C   UNL A   1      47.557  26.585  25.359  1.00  0.00     0.173 A 
ATOM     92  C   UNL A   1      46.887  26.848  27.632  1.00  0.00     0.173 A 
ATOM     93  F   UNL A   1      47.321  26.655  24.040  1.00  0.00    -0.203 F 
ATOM     94  C   UNL A   1      48.813  26.147  25.789  1.00  0.00     0.198 A 
ATOM     95  C   UNL A   1      48.141  26.422  28.064  1.00  0.00     0.198 A 
ATOM     96  F   UNL A   1      46.005  27.178  28.572  1.00  0.00    -0.203 F 
ATOM     97  F   UNL A   1      49.744  25.803  24.890  1.00  0.00    -0.200 F 
ATOM     98  C   UNL A   1      49.103  26.059  27.142  1.00  0.00     0.200 A 
ATOM     99  F   UNL A   1      48.412  26.363  29.377  1.00  0.00    -0.200 F 
ATOM    100  F   UNL A   1      50.307  25.639  27.553  1.00  0.00    -0.200 F 
ENDBRANCH  67  90
ENDBRANCH  41  42
ENDBRANCH  33  36
ENDBRANCH  31  32
ENDBRANCH  30  31
ENDBRANCH   1  30
TORSDOF 16
ENDMDL
