MODEL 1
REMARK VINA RESULT:     -14.9      0.000      0.000
REMARK SMILES Cc1oc2cc3c(cc2c1C)[C@H](C)[C@@H](CC(=O)N[C@H](CC1=c2ccccc2=NC1)C(=O)NCCCNC(=O)c1ccc(-c2c4nc(c(-c5c(F)c(F)c(F)c(F)c5F)c5ccc([nH]5)c(-c5c(F)c(F)c(F)c(F)c5F)c5nc(c(-c6c(F)c(F)c(F)c(F)c6F)c6ccc2[nH]6)C=C5)C=C4)cc1)C(=O)O3
REMARK SMILES IDX 33 1 32 2 30 3 31 4 19 6 18 7 16 8 17 9 15 11 14 12 1 13
REMARK SMILES IDX 2 14 3 15 10 16 4 17 9 18 11 19 5 20 8 21 6 22 7 23 104 24
REMARK SMILES IDX 12 25 102 26 13 27 103 28 20 29 21 30 22 31 29 32 23 33
REMARK SMILES IDX 27 34 28 35 24 36 26 37 25 38 34 39 35 40 36 41 37 42 38 44
REMARK SMILES IDX 39 45 40 46 101 47 41 48 100 49 42 50 43 51 44 52 94 53
REMARK SMILES IDX 45 54 99 55 93 56 95 57 46 58 98 59 92 60 91 61 47 63 79 64
REMARK SMILES IDX 59 65 78 66 60 67 63 68 77 69 96 70 61 71 62 72 76 74 97 75
REMARK SMILES IDX 64 76 48 77 49 78 57 79 50 80 51 81 55 82 58 83 52 84 53 85
REMARK SMILES IDX 56 86 54 87 80 88 81 89 89 90 82 91 83 92 87 93 90 94 84 95
REMARK SMILES IDX 85 96 88 97 86 98 65 99 66 100 74 101 67 102 68 103 72 104
REMARK SMILES IDX 75 105 69 106 70 107 73 108 71 109
REMARK H PARENT 32 5 18 10 36 43 95 62 63 73
REMARK Flexibility Score: inf
ROOT
ATOM      1  C   UNL A   1      36.162  24.111  25.447  1.00  0.00     0.117 C 
ENDROOT
BRANCH   1   2
ATOM      2  N   UNL A   1      35.355  23.817  24.260  1.00  0.00    -0.354 N 
ATOM      3  C   UNL A   1      34.380  22.949  23.888  1.00  0.00     0.242 C 
ATOM      4  O   UNL A   1      34.137  22.974  22.667  1.00  0.00    -0.273 OA
ATOM      5  H   UNL A   1      35.588  24.422  23.518  1.00  0.00     0.163 HD
BRANCH   3   6
ATOM      6  C   UNL A   1      33.491  22.004  24.777  1.00  0.00     0.175 C 
BRANCH   6   7
ATOM      7  N   UNL A   1      32.494  22.396  25.796  1.00  0.00    -0.344 N 
ATOM      8  C   UNL A   1      32.267  23.398  26.665  1.00  0.00     0.221 C 
ATOM      9  O   UNL A   1      31.496  23.140  27.598  1.00  0.00    -0.275 OA
ATOM     10  H   UNL A   1      31.780  21.721  25.856  1.00  0.00     0.164 HD
BRANCH   8  11
ATOM     11  C   UNL A   1      32.735  24.816  26.493  1.00  0.00     0.116 C 
BRANCH  11  12
ATOM     12  C   UNL A   1      32.353  25.620  25.269  1.00  0.00     0.116 C 
ATOM     13  C   UNL A   1      28.281  31.859  21.153  1.00  0.00     0.088 C 
ATOM     14  C   UNL A   1      28.924  30.874  22.047  1.00  0.00     0.105 A 
ATOM     15  O   UNL A   1      29.100  29.631  21.526  1.00  0.00    -0.461 OA
ATOM     16  C   UNL A   1      29.435  30.940  23.332  1.00  0.00    -0.002 A 
ATOM     17  C   UNL A   1      29.796  28.905  22.437  1.00  0.00     0.138 A 
ATOM     18  C   UNL A   1      30.075  29.675  23.555  1.00  0.00     0.024 A 
ATOM     19  C   UNL A   1      29.382  32.108  24.242  1.00  0.00     0.049 C 
ATOM     20  C   UNL A   1      30.160  27.574  22.299  1.00  0.00     0.095 A 
ATOM     21  C   UNL A   1      30.871  29.094  24.568  1.00  0.00     0.020 A 
ATOM     22  C   UNL A   1      30.922  27.052  23.346  1.00  0.00     0.138 A 
ATOM     23  C   UNL A   1      31.430  27.823  24.412  1.00  0.00    -0.001 A 
ATOM     24  O   UNL A   1      30.992  25.660  23.401  1.00  0.00    -0.426 OA
ATOM     25  C   UNL A   1      32.269  27.142  25.517  1.00  0.00     0.035 C 
ATOM     26  C   UNL A   1      30.982  25.443  24.756  1.00  0.00     0.315 C 
ATOM     27  C   UNL A   1      33.668  27.635  25.803  1.00  0.00     0.014 C 
ATOM     28  O   UNL A   1      29.978  25.449  25.466  1.00  0.00    -0.251 OA
ENDBRANCH  11  12
ENDBRANCH   8  11
ENDBRANCH   6   7
BRANCH   6  29
ATOM     29  C   UNL A   1      34.234  20.635  25.135  1.00  0.00     0.068 C 
BRANCH  29  30
ATOM     30  C   UNL A   1      33.674  19.394  24.536  1.00  0.00    -0.037 C 
ATOM     31  C   UNL A   1      34.137  18.148  24.573  1.00  0.00     0.001 A 
ATOM     32  C   UNL A   1      32.401  19.419  23.754  1.00  0.00     0.174 C 
ATOM     33  C   UNL A   1      35.357  17.458  24.849  1.00  0.00     0.010 A 
ATOM     34  C   UNL A   1      32.861  17.422  24.427  1.00  0.00     0.065 A 
ATOM     35  N   UNL A   1      31.834  18.073  23.968  1.00  0.00    -0.280 NA
ATOM     36  C   UNL A   1      35.298  16.137  25.091  1.00  0.00     0.001 A 
ATOM     37  C   UNL A   1      32.848  16.050  24.972  1.00  0.00     0.028 A 
ATOM     38  C   UNL A   1      34.019  15.475  25.296  1.00  0.00     0.002 A 
ENDBRANCH  29  30
ENDBRANCH   6  29
ENDBRANCH   3   6
ENDBRANCH   1   2
BRANCH   1  39
ATOM     39  C   UNL A   1      36.883  22.848  25.985  1.00  0.00     0.042 C 
BRANCH  39  40
ATOM     40  C   UNL A   1      38.215  22.416  25.359  1.00  0.00     0.118 C 
BRANCH  40  41
ATOM     41  N   UNL A   1      39.114  21.718  26.282  1.00  0.00    -0.352 N 
ATOM     42  C   UNL A   1      40.018  22.085  27.266  1.00  0.00     0.251 C 
ATOM     43  H   UNL A   1      39.063  20.740  26.176  1.00  0.00     0.163 HD
ATOM     44  O   UNL A   1      40.626  21.184  27.822  1.00  0.00    -0.269 OA
BRANCH  42  45
ATOM     45  C   UNL A   1      40.348  23.492  27.658  1.00  0.00     0.039 A 
ATOM     46  C   UNL A   1      39.426  24.527  27.732  1.00  0.00     0.014 A 
ATOM     47  C   UNL A   1      41.669  23.770  28.070  1.00  0.00     0.014 A 
ATOM     48  C   UNL A   1      39.858  25.836  28.031  1.00  0.00     0.010 A 
ATOM     49  C   UNL A   1      42.102  25.086  28.353  1.00  0.00     0.010 A 
ATOM     50  C   UNL A   1      41.218  26.156  28.217  1.00  0.00    -0.014 A 
BRANCH  50  51
ATOM     51  C   UNL A   1      41.619  27.606  28.200  1.00  0.00     0.031 A 
ATOM     52  C   UNL A   1      40.467  28.534  28.070  1.00  0.00     0.074 A 
ATOM     53  C   UNL A   1      42.560  28.167  29.006  1.00  0.00     0.049 A 
ATOM     54  N   UNL A   1      39.778  28.986  29.072  1.00  0.00    -0.248 NA
ATOM     55  C   UNL A   1      39.930  28.867  26.754  1.00  0.00     0.031 C 
ATOM     56  C   UNL A   1      42.773  27.876  30.416  1.00  0.00     0.029 A 
ATOM     57  N   UNL A   1      43.482  29.179  28.743  1.00  0.00    -0.354 N 
ATOM     58  C   UNL A   1      38.689  29.629  28.533  1.00  0.00     0.074 A 
ATOM     59  C   UNL A   1      38.822  29.537  27.094  1.00  0.00     0.031 C 
ATOM     60  C   UNL A   1      43.784  28.619  30.895  1.00  0.00     0.029 A 
ATOM     61  C   UNL A   1      44.288  29.508  29.844  1.00  0.00     0.049 A 
ATOM     62  H   UNL A   1      43.560  29.620  27.868  1.00  0.00     0.167 HD
ATOM     63  C   UNL A   1      37.730  30.209  29.292  1.00  0.00     0.037 A 
ATOM     64  C   UNL A   1      44.766  30.751  30.151  1.00  0.00     0.037 A 
ATOM     65  C   UNL A   1      37.938  30.198  30.706  1.00  0.00     0.049 A 
ATOM     66  C   UNL A   1      43.533  31.443  30.658  1.00  0.00     0.074 A 
ATOM     67  C   UNL A   1      37.581  29.400  31.769  1.00  0.00     0.029 A 
ATOM     68  N   UNL A   1      38.740  31.177  31.244  1.00  0.00    -0.354 N 
ATOM     69  N   UNL A   1      43.051  31.358  31.870  1.00  0.00    -0.248 NA
ATOM     70  C   UNL A   1      42.586  31.922  29.652  1.00  0.00     0.031 C 
ATOM     71  C   UNL A   1      38.510  29.704  32.813  1.00  0.00     0.029 A 
ATOM     72  C   UNL A   1      39.417  30.628  32.303  1.00  0.00     0.049 A 
ATOM     73  H   UNL A   1      38.814  32.106  30.925  1.00  0.00     0.167 HD
ATOM     74  C   UNL A   1      41.667  31.454  31.708  1.00  0.00     0.074 A 
ATOM     75  C   UNL A   1      41.451  31.847  30.332  1.00  0.00     0.031 C 
ATOM     76  C   UNL A   1      40.777  30.992  32.631  1.00  0.00     0.037 A 
BRANCH  63  77
ATOM     77  C   UNL A   1      36.603  30.945  28.711  1.00  0.00     0.064 A 
ATOM     78  C   UNL A   1      36.659  32.343  28.674  1.00  0.00     0.173 A 
ATOM     79  C   UNL A   1      35.425  30.304  28.322  1.00  0.00     0.173 A 
ATOM     80  F   UNL A   1      37.789  32.978  29.025  1.00  0.00    -0.203 F 
ATOM     81  C   UNL A   1      35.549  33.085  28.303  1.00  0.00     0.198 A 
ATOM     82  C   UNL A   1      34.314  31.052  27.946  1.00  0.00     0.198 A 
ATOM     83  F   UNL A   1      35.345  28.965  28.333  1.00  0.00    -0.203 F 
ATOM     84  F   UNL A   1      35.612  34.423  28.306  1.00  0.00    -0.200 F 
ATOM     85  C   UNL A   1      34.372  32.439  27.951  1.00  0.00     0.200 A 
ATOM     86  F   UNL A   1      33.178  30.431  27.597  1.00  0.00    -0.200 F 
ATOM     87  F   UNL A   1      33.291  33.158  27.620  1.00  0.00    -0.200 F 
ENDBRANCH  63  77
BRANCH  64  88
ATOM     88  C   UNL A   1      45.800  31.392  29.293  1.00  0.00     0.064 A 
ATOM     89  C   UNL A   1      47.115  31.470  29.794  1.00  0.00     0.173 A 
ATOM     90  C   UNL A   1      45.593  31.977  28.038  1.00  0.00     0.173 A 
ATOM     91  F   UNL A   1      47.373  31.082  31.053  1.00  0.00    -0.203 F 
ATOM     92  C   UNL A   1      48.175  31.970  29.032  1.00  0.00     0.198 A 
ATOM     93  C   UNL A   1      46.651  32.467  27.269  1.00  0.00     0.198 A 
ATOM     94  F   UNL A   1      44.366  32.097  27.519  1.00  0.00    -0.203 F 
ATOM     95  F   UNL A   1      49.419  31.985  29.533  1.00  0.00    -0.200 F 
ATOM     96  C   UNL A   1      47.945  32.440  27.753  1.00  0.00     0.200 A 
ATOM     97  F   UNL A   1      46.407  32.954  26.043  1.00  0.00    -0.200 F 
ATOM     98  F   UNL A   1      48.959  32.875  26.992  1.00  0.00    -0.200 F 
ENDBRANCH  64  88
BRANCH  76  99
ATOM     99  C   UNL A   1      41.350  30.625  33.957  1.00  0.00     0.064 A 
ATOM    100  C   UNL A   1      41.709  29.296  34.217  1.00  0.00     0.173 A 
ATOM    101  C   UNL A   1      41.598  31.582  34.953  1.00  0.00     0.173 A 
ATOM    102  F   UNL A   1      41.491  28.345  33.295  1.00  0.00    -0.203 F 
ATOM    103  C   UNL A   1      42.325  28.943  35.412  1.00  0.00     0.198 A 
ATOM    104  C   UNL A   1      42.240  31.230  36.137  1.00  0.00     0.198 A 
ATOM    105  F   UNL A   1      41.244  32.865  34.777  1.00  0.00    -0.203 F 
ATOM    106  F   UNL A   1      42.673  27.668  35.635  1.00  0.00    -0.200 F 
ATOM    107  C   UNL A   1      42.607  29.913  36.364  1.00  0.00     0.200 A 
ATOM    108  F   UNL A   1      42.524  32.170  37.048  1.00  0.00    -0.200 F 
ATOM    109  F   UNL A   1      43.242  29.579  37.495  1.00  0.00    -0.200 F 
ENDBRANCH  76  99
ENDBRANCH  50  51
ENDBRANCH  42  45
ENDBRANCH  40  41
ENDBRANCH  39  40
ENDBRANCH   1  39
TORSDOF 15
ENDMDL
MODEL 2
REMARK VINA RESULT:     -14.5      2.936      8.840
REMARK SMILES Cc1oc2cc3c(cc2c1C)[C@H](C)[C@@H](CC(=O)N[C@H](CC1=c2ccccc2=NC1)C(=O)NCCCNC(=O)c1ccc(-c2c4nc(c(-c5c(F)c(F)c(F)c(F)c5F)c5ccc([nH]5)c(-c5c(F)c(F)c(F)c(F)c5F)c5nc(c(-c6c(F)c(F)c(F)c(F)c6F)c6ccc2[nH]6)C=C5)C=C4)cc1)C(=O)O3
REMARK SMILES IDX 33 1 32 2 30 3 31 4 19 6 18 7 16 8 17 9 15 11 14 12 1 13
REMARK SMILES IDX 2 14 3 15 10 16 4 17 9 18 11 19 5 20 8 21 6 22 7 23 104 24
REMARK SMILES IDX 12 25 102 26 13 27 103 28 20 29 21 30 22 31 29 32 23 33
REMARK SMILES IDX 27 34 28 35 24 36 26 37 25 38 34 39 35 40 36 41 37 42 38 44
REMARK SMILES IDX 39 45 40 46 101 47 41 48 100 49 42 50 43 51 44 52 94 53
REMARK SMILES IDX 45 54 99 55 93 56 95 57 46 58 98 59 92 60 91 61 47 63 79 64
REMARK SMILES IDX 59 65 78 66 60 67 63 68 77 69 96 70 61 71 62 72 76 74 97 75
REMARK SMILES IDX 64 76 48 77 49 78 57 79 50 80 51 81 55 82 58 83 52 84 53 85
REMARK SMILES IDX 56 86 54 87 80 88 81 89 89 90 82 91 83 92 87 93 90 94 84 95
REMARK SMILES IDX 85 96 88 97 86 98 65 99 66 100 74 101 67 102 68 103 72 104
REMARK SMILES IDX 75 105 69 106 70 107 73 108 71 109
REMARK H PARENT 32 5 18 10 36 43 95 62 63 73
REMARK Flexibility Score: inf
ROOT
ATOM      1  C   UNL A   1      32.274  28.972  25.326  1.00  0.00     0.117 C 
ENDROOT
BRANCH   1   2
ATOM      2  N   UNL A   1      31.490  27.915  25.972  1.00  0.00    -0.354 N 
ATOM      3  C   UNL A   1      30.813  26.794  25.613  1.00  0.00     0.242 C 
ATOM      4  O   UNL A   1      30.128  26.316  26.536  1.00  0.00    -0.273 OA
ATOM      5  H   UNL A   1      31.438  28.061  26.944  1.00  0.00     0.163 HD
BRANCH   3   6
ATOM      6  C   UNL A   1      30.841  26.001  24.255  1.00  0.00     0.175 C 
BRANCH   6   7
ATOM      7  N   UNL A   1      31.979  25.839  23.326  1.00  0.00    -0.344 N 
ATOM      8  C   UNL A   1      33.323  25.882  23.346  1.00  0.00     0.221 C 
ATOM      9  O   UNL A   1      33.875  26.053  22.252  1.00  0.00    -0.275 OA
ATOM     10  H   UNL A   1      31.655  25.640  22.418  1.00  0.00     0.164 HD
BRANCH   8  11
ATOM     11  C   UNL A   1      34.181  25.575  24.542  1.00  0.00     0.116 C 
BRANCH  11  12
ATOM     12  C   UNL A   1      34.297  24.163  25.077  1.00  0.00     0.116 C 
ATOM     13  C   UNL A   1      32.407  15.867  25.299  1.00  0.00     0.088 C 
ATOM     14  C   UNL A   1      32.627  17.311  25.077  1.00  0.00     0.105 A 
ATOM     15  O   UNL A   1      32.837  18.056  26.194  1.00  0.00    -0.461 OA
ATOM     16  C   UNL A   1      32.700  18.103  23.943  1.00  0.00    -0.002 A 
ATOM     17  C   UNL A   1      33.127  19.319  25.790  1.00  0.00     0.138 A 
ATOM     18  C   UNL A   1      33.106  19.399  24.406  1.00  0.00     0.024 A 
ATOM     19  C   UNL A   1      32.472  17.664  22.546  1.00  0.00     0.049 C 
ATOM     20  C   UNL A   1      33.383  20.394  26.627  1.00  0.00     0.095 A 
ATOM     21  C   UNL A   1      33.471  20.630  23.816  1.00  0.00     0.020 A 
ATOM     22  C   UNL A   1      33.711  21.588  25.982  1.00  0.00     0.138 A 
ATOM     23  C   UNL A   1      33.922  21.701  24.593  1.00  0.00    -0.001 A 
ATOM     24  O   UNL A   1      33.621  22.738  26.766  1.00  0.00    -0.426 OA
ATOM     25  C   UNL A   1      34.288  23.073  23.983  1.00  0.00     0.035 C 
ATOM     26  C   UNL A   1      33.154  23.651  25.854  1.00  0.00     0.315 C 
ATOM     27  C   UNL A   1      35.562  23.220  23.183  1.00  0.00     0.014 C 
ATOM     28  O   UNL A   1      31.980  23.764  25.505  1.00  0.00    -0.251 OA
ENDBRANCH  11  12
ENDBRANCH   8  11
ENDBRANCH   6   7
BRANCH   6  29
ATOM     29  C   UNL A   1      29.430  26.039  23.505  1.00  0.00     0.068 C 
BRANCH  29  30
ATOM     30  C   UNL A   1      28.714  27.342  23.493  1.00  0.00    -0.037 C 
ATOM     31  C   UNL A   1      29.091  28.516  22.996  1.00  0.00     0.001 A 
ATOM     32  C   UNL A   1      27.353  27.482  24.093  1.00  0.00     0.174 C 
ATOM     33  C   UNL A   1      30.288  29.176  22.579  1.00  0.00     0.010 A 
ATOM     34  C   UNL A   1      27.762  29.088  22.714  1.00  0.00     0.065 A 
ATOM     35  N   UNL A   1      26.730  28.558  23.299  1.00  0.00    -0.280 NA
ATOM     36  C   UNL A   1      30.173  30.277  21.816  1.00  0.00     0.001 A 
ATOM     37  C   UNL A   1      27.729  30.121  21.659  1.00  0.00     0.028 A 
ATOM     38  C   UNL A   1      28.890  30.651  21.241  1.00  0.00     0.002 A 
ENDBRANCH  29  30
ENDBRANCH   6  29
ENDBRANCH   3   6
ENDBRANCH   1   2
BRANCH   1  39
ATOM     39  C   UNL A   1      33.499  29.387  26.180  1.00  0.00     0.042 C 
BRANCH  39  40
ATOM     40  C   UNL A   1      33.278  30.139  27.499  1.00  0.00     0.118 C 
BRANCH  40  41
ATOM     41  N   UNL A   1      33.718  31.537  27.476  1.00  0.00    -0.352 N 
ATOM     42  C   UNL A   1      34.889  32.220  27.759  1.00  0.00     0.251 C 
ATOM     43  H   UNL A   1      32.999  32.143  27.184  1.00  0.00     0.163 HD
ATOM     44  O   UNL A   1      34.860  33.436  27.645  1.00  0.00    -0.269 OA
BRANCH  42  45
ATOM     45  C   UNL A   1      36.160  31.598  28.247  1.00  0.00     0.039 A 
ATOM     46  C   UNL A   1      36.681  30.399  27.780  1.00  0.00     0.014 A 
ATOM     47  C   UNL A   1      36.932  32.319  29.184  1.00  0.00     0.014 A 
ATOM     48  C   UNL A   1      37.844  29.858  28.368  1.00  0.00     0.010 A 
ATOM     49  C   UNL A   1      38.086  31.766  29.783  1.00  0.00     0.010 A 
ATOM     50  C   UNL A   1      38.487  30.469  29.464  1.00  0.00    -0.014 A 
BRANCH  50  51
ATOM     51  C   UNL A   1      39.503  29.669  30.232  1.00  0.00     0.031 A 
ATOM     52  C   UNL A   1      39.603  28.258  29.781  1.00  0.00     0.074 A 
ATOM     53  C   UNL A   1      40.736  30.113  30.597  1.00  0.00     0.049 A 
ATOM     54  N   UNL A   1      40.370  27.853  28.816  1.00  0.00    -0.248 NA
ATOM     55  C   UNL A   1      38.693  27.246  30.309  1.00  0.00     0.031 C 
ATOM     56  C   UNL A   1      41.632  30.929  29.791  1.00  0.00     0.029 A 
ATOM     57  N   UNL A   1      41.478  29.861  31.749  1.00  0.00    -0.354 N 
ATOM     58  C   UNL A   1      40.023  26.545  28.569  1.00  0.00     0.074 A 
ATOM     59  C   UNL A   1      38.984  26.205  29.519  1.00  0.00     0.031 C 
ATOM     60  C   UNL A   1      42.768  31.175  30.466  1.00  0.00     0.029 A 
ATOM     61  C   UNL A   1      42.733  30.489  31.760  1.00  0.00     0.049 A 
ATOM     62  H   UNL A   1      41.153  29.296  32.485  1.00  0.00     0.167 HD
ATOM     63  C   UNL A   1      40.606  25.802  27.600  1.00  0.00     0.037 A 
ATOM     64  C   UNL A   1      43.878  29.993  32.318  1.00  0.00     0.037 A 
ATOM     65  C   UNL A   1      41.677  26.416  26.878  1.00  0.00     0.049 A 
ATOM     66  C   UNL A   1      44.261  28.918  31.342  1.00  0.00     0.074 A 
ATOM     67  C   UNL A   1      41.824  27.130  25.711  1.00  0.00     0.029 A 
ATOM     68  N   UNL A   1      42.930  26.385  27.443  1.00  0.00    -0.354 N 
ATOM     69  N   UNL A   1      44.914  29.095  30.224  1.00  0.00    -0.248 NA
ATOM     70  C   UNL A   1      43.526  27.656  31.431  1.00  0.00     0.031 C 
ATOM     71  C   UNL A   1      43.063  27.832  25.838  1.00  0.00     0.029 A 
ATOM     72  C   UNL A   1      43.571  27.550  27.104  1.00  0.00     0.049 A 
ATOM     73  H   UNL A   1      43.302  25.657  27.992  1.00  0.00     0.167 HD
ATOM     74  C   UNL A   1      44.399  28.128  29.357  1.00  0.00     0.074 A 
ATOM     75  C   UNL A   1      43.590  27.248  30.172  1.00  0.00     0.031 C 
ATOM     76  C   UNL A   1      44.479  28.229  27.999  1.00  0.00     0.037 A 
BRANCH  63  77
ATOM     77  C   UNL A   1      40.274  24.391  27.382  1.00  0.00     0.064 A 
ATOM     78  C   UNL A   1      41.175  23.412  27.816  1.00  0.00     0.173 A 
ATOM     79  C   UNL A   1      39.159  24.001  26.637  1.00  0.00     0.173 A 
ATOM     80  F   UNL A   1      42.244  23.763  28.550  1.00  0.00    -0.203 F 
ATOM     81  C   UNL A   1      40.993  22.082  27.474  1.00  0.00     0.198 A 
ATOM     82  C   UNL A   1      38.977  22.665  26.298  1.00  0.00     0.198 A 
ATOM     83  F   UNL A   1      38.270  24.914  26.219  1.00  0.00    -0.203 F 
ATOM     84  F   UNL A   1      41.885  21.164  27.871  1.00  0.00    -0.200 F 
ATOM     85  C   UNL A   1      39.900  21.709  26.704  1.00  0.00     0.200 A 
ATOM     86  F   UNL A   1      37.917  22.301  25.562  1.00  0.00    -0.200 F 
ATOM     87  F   UNL A   1      39.740  20.427  26.349  1.00  0.00    -0.200 F 
ENDBRANCH  63  77
BRANCH  64  88
ATOM     88  C   UNL A   1      44.004  29.874  33.796  1.00  0.00     0.064 A 
ATOM     89  C   UNL A   1      45.098  30.511  34.418  1.00  0.00     0.173 A 
ATOM     90  C   UNL A   1      43.162  29.146  34.646  1.00  0.00     0.173 A 
ATOM     91  F   UNL A   1      46.044  31.095  33.666  1.00  0.00    -0.203 F 
ATOM     92  C   UNL A   1      45.255  30.535  35.807  1.00  0.00     0.198 A 
ATOM     93  C   UNL A   1      43.310  29.176  36.035  1.00  0.00     0.198 A 
ATOM     94  F   UNL A   1      42.178  28.380  34.163  1.00  0.00    -0.203 F 
ATOM     95  F   UNL A   1      46.287  31.191  36.358  1.00  0.00    -0.200 F 
ATOM     96  C   UNL A   1      44.339  29.892  36.618  1.00  0.00     0.200 A 
ATOM     97  F   UNL A   1      42.435  28.517  36.808  1.00  0.00    -0.200 F 
ATOM     98  F   UNL A   1      44.449  29.949  37.952  1.00  0.00    -0.200 F 
ENDBRANCH  64  88
BRANCH  76  99
ATOM     99  C   UNL A   1      45.387  29.290  27.481  1.00  0.00     0.064 A 
ATOM    100  C   UNL A   1      44.866  30.543  27.131  1.00  0.00     0.173 A 
ATOM    101  C   UNL A   1      46.773  29.100  27.376  1.00  0.00     0.173 A 
ATOM    102  F   UNL A   1      43.546  30.773  27.213  1.00  0.00    -0.203 F 
ATOM    103  C   UNL A   1      45.703  31.577  26.727  1.00  0.00     0.198 A 
ATOM    104  C   UNL A   1      47.611  30.146  26.998  1.00  0.00     0.198 A 
ATOM    105  F   UNL A   1      47.327  27.911  27.663  1.00  0.00    -0.203 F 
ATOM    106  F   UNL A   1      45.186  32.772  26.410  1.00  0.00    -0.200 F 
ATOM    107  C   UNL A   1      47.076  31.384  26.679  1.00  0.00     0.200 A 
ATOM    108  F   UNL A   1      48.938  29.961  26.966  1.00  0.00    -0.200 F 
ATOM    109  F   UNL A   1      47.885  32.395  26.334  1.00  0.00    -0.200 F 
ENDBRANCH  76  99
ENDBRANCH  50  51
ENDBRANCH  42  45
ENDBRANCH  40  41
ENDBRANCH  39  40
ENDBRANCH   1  39
TORSDOF 15
ENDMDL
MODEL 3
REMARK VINA RESULT:     -14.5      3.368      9.355
REMARK SMILES Cc1oc2cc3c(cc2c1C)[C@H](C)[C@@H](CC(=O)N[C@H](CC1=c2ccccc2=NC1)C(=O)NCCCNC(=O)c1ccc(-c2c4nc(c(-c5c(F)c(F)c(F)c(F)c5F)c5ccc([nH]5)c(-c5c(F)c(F)c(F)c(F)c5F)c5nc(c(-c6c(F)c(F)c(F)c(F)c6F)c6ccc2[nH]6)C=C5)C=C4)cc1)C(=O)O3
REMARK SMILES IDX 33 1 32 2 30 3 31 4 19 6 18 7 16 8 17 9 15 11 14 12 1 13
REMARK SMILES IDX 2 14 3 15 10 16 4 17 9 18 11 19 5 20 8 21 6 22 7 23 104 24
REMARK SMILES IDX 12 25 102 26 13 27 103 28 20 29 21 30 22 31 29 32 23 33
REMARK SMILES IDX 27 34 28 35 24 36 26 37 25 38 34 39 35 40 36 41 37 42 38 44
REMARK SMILES IDX 39 45 40 46 101 47 41 48 100 49 42 50 43 51 44 52 94 53
REMARK SMILES IDX 45 54 99 55 93 56 95 57 46 58 98 59 92 60 91 61 47 63 79 64
REMARK SMILES IDX 59 65 78 66 60 67 63 68 77 69 96 70 61 71 62 72 76 74 97 75
REMARK SMILES IDX 64 76 48 77 49 78 57 79 50 80 51 81 55 82 58 83 52 84 53 85
REMARK SMILES IDX 56 86 54 87 80 88 81 89 89 90 82 91 83 92 87 93 90 94 84 95
REMARK SMILES IDX 85 96 88 97 86 98 65 99 66 100 74 101 67 102 68 103 72 104
REMARK SMILES IDX 75 105 69 106 70 107 73 108 71 109
REMARK H PARENT 32 5 18 10 36 43 95 62 63 73
REMARK Flexibility Score: inf
ROOT
ATOM      1  C   UNL A   1      32.106  27.416  26.846  1.00  0.00     0.117 C 
ENDROOT
BRANCH   1   2
ATOM      2  N   UNL A   1      31.404  26.130  26.829  1.00  0.00    -0.354 N 
ATOM      3  C   UNL A   1      30.780  25.329  25.928  1.00  0.00     0.242 C 
ATOM      4  O   UNL A   1      30.154  24.390  26.454  1.00  0.00    -0.273 OA
ATOM      5  H   UNL A   1      31.376  25.733  27.730  1.00  0.00     0.163 HD
BRANCH   3   6
ATOM      6  C   UNL A   1      30.807  25.381  24.357  1.00  0.00     0.175 C 
BRANCH   6   7
ATOM      7  N   UNL A   1      31.990  25.342  23.471  1.00  0.00    -0.344 N 
ATOM      8  C   UNL A   1      33.088  24.589  23.272  1.00  0.00     0.221 C 
ATOM      9  O   UNL A   1      34.012  25.134  22.656  1.00  0.00    -0.275 OA
ATOM     10  H   UNL A   1      31.968  26.092  22.834  1.00  0.00     0.164 HD
BRANCH   8  11
ATOM     11  C   UNL A   1      33.201  23.123  23.584  1.00  0.00     0.116 C 
BRANCH  11  12
ATOM     12  C   UNL A   1      34.377  22.581  24.368  1.00  0.00     0.116 C 
ATOM     13  C   UNL A   1      41.978  23.141  28.159  1.00  0.00     0.088 C 
ATOM     14  C   UNL A   1      40.668  23.256  27.485  1.00  0.00     0.105 A 
ATOM     15  O   UNL A   1      40.264  22.161  26.788  1.00  0.00    -0.461 OA
ATOM     16  C   UNL A   1      39.709  24.253  27.425  1.00  0.00    -0.002 A 
ATOM     17  C   UNL A   1      39.007  22.410  26.338  1.00  0.00     0.138 A 
ATOM     18  C   UNL A   1      38.591  23.669  26.741  1.00  0.00     0.024 A 
ATOM     19  C   UNL A   1      39.811  25.610  28.012  1.00  0.00     0.049 C 
ATOM     20  C   UNL A   1      38.245  21.550  25.561  1.00  0.00     0.095 A 
ATOM     21  C   UNL A   1      37.267  24.052  26.427  1.00  0.00     0.020 A 
ATOM     22  C   UNL A   1      36.957  22.000  25.262  1.00  0.00     0.138 A 
ATOM     23  C   UNL A   1      36.382  23.164  25.810  1.00  0.00    -0.001 A 
ATOM     24  O   UNL A   1      36.319  21.337  24.214  1.00  0.00    -0.426 OA
ATOM     25  C   UNL A   1      34.943  23.566  25.414  1.00  0.00     0.035 C 
ATOM     26  C   UNL A   1      35.631  22.367  23.623  1.00  0.00     0.315 C 
ATOM     27  C   UNL A   1      33.894  23.742  26.488  1.00  0.00     0.014 C 
ATOM     28  O   UNL A   1      36.117  23.188  22.846  1.00  0.00    -0.251 OA
ENDBRANCH  11  12
ENDBRANCH   8  11
ENDBRANCH   6   7
BRANCH   6  29
ATOM     29  C   UNL A   1      29.619  26.268  23.761  1.00  0.00     0.068 C 
BRANCH  29  30
ATOM     30  C   UNL A   1      29.947  27.674  23.404  1.00  0.00    -0.037 C 
ATOM     31  C   UNL A   1      29.139  28.694  23.130  1.00  0.00     0.001 A 
ATOM     32  C   UNL A   1      31.365  28.137  23.311  1.00  0.00     0.174 C 
ATOM     33  C   UNL A   1      27.780  28.922  22.754  1.00  0.00     0.010 A 
ATOM     34  C   UNL A   1      30.017  29.803  23.544  1.00  0.00     0.065 A 
ATOM     35  N   UNL A   1      31.289  29.567  23.666  1.00  0.00    -0.280 NA
ATOM     36  C   UNL A   1      27.281  30.162  22.899  1.00  0.00     0.001 A 
ATOM     37  C   UNL A   1      29.323  31.048  23.931  1.00  0.00     0.028 A 
ATOM     38  C   UNL A   1      28.020  31.179  23.629  1.00  0.00     0.002 A 
ENDBRANCH  29  30
ENDBRANCH   6  29
ENDBRANCH   3   6
ENDBRANCH   1   2
BRANCH   1  39
ATOM     39  C   UNL A   1      33.500  27.324  26.173  1.00  0.00     0.042 C 
BRANCH  39  40
ATOM     40  C   UNL A   1      34.183  28.604  25.675  1.00  0.00     0.118 C 
BRANCH  40  41
ATOM     41  N   UNL A   1      33.551  29.842  26.138  1.00  0.00    -0.352 N 
ATOM     42  C   UNL A   1      33.845  30.826  27.068  1.00  0.00     0.251 C 
ATOM     43  H   UNL A   1      32.704  30.020  25.669  1.00  0.00     0.163 HD
ATOM     44  O   UNL A   1      33.029  31.726  27.197  1.00  0.00    -0.269 OA
BRANCH  42  45
ATOM     45  C   UNL A   1      35.046  30.843  27.963  1.00  0.00     0.039 A 
ATOM     46  C   UNL A   1      35.576  29.725  28.592  1.00  0.00     0.014 A 
ATOM     47  C   UNL A   1      35.744  32.061  28.108  1.00  0.00     0.014 A 
ATOM     48  C   UNL A   1      36.661  29.865  29.482  1.00  0.00     0.010 A 
ATOM     49  C   UNL A   1      36.820  32.201  29.014  1.00  0.00     0.010 A 
ATOM     50  C   UNL A   1      37.213  31.122  29.804  1.00  0.00    -0.014 A 
BRANCH  50  51
ATOM     51  C   UNL A   1      38.128  31.215  30.995  1.00  0.00     0.031 A 
ATOM     52  C   UNL A   1      39.238  30.231  30.964  1.00  0.00     0.074 A 
ATOM     53  C   UNL A   1      38.571  32.375  31.552  1.00  0.00     0.049 A 
ATOM     54  N   UNL A   1      40.377  30.434  30.376  1.00  0.00    -0.248 NA
ATOM     55  C   UNL A   1      39.039  28.875  31.468  1.00  0.00     0.031 C 
ATOM     56  C   UNL A   1      38.985  33.573  30.835  1.00  0.00     0.029 A 
ATOM     57  N   UNL A   1      38.814  32.698  32.886  1.00  0.00    -0.354 N 
ATOM     58  C   UNL A   1      41.038  29.228  30.388  1.00  0.00     0.074 A 
ATOM     59  C   UNL A   1      40.177  28.289  31.077  1.00  0.00     0.031 C 
ATOM     60  C   UNL A   1      39.369  34.523  31.705  1.00  0.00     0.029 A 
ATOM     61  C   UNL A   1      39.290  34.004  33.073  1.00  0.00     0.049 A 
ATOM     62  H   UNL A   1      38.666  32.067  33.626  1.00  0.00     0.167 HD
ATOM     63  C   UNL A   1      42.261  29.056  29.834  1.00  0.00     0.037 A 
ATOM     64  C   UNL A   1      40.183  34.408  34.025  1.00  0.00     0.037 A 
ATOM     65  C   UNL A   1      42.889  30.221  29.295  1.00  0.00     0.049 A 
ATOM     66  C   UNL A   1      41.476  33.856  33.496  1.00  0.00     0.074 A 
ATOM     67  C   UNL A   1      42.981  30.838  28.068  1.00  0.00     0.029 A 
ATOM     68  N   UNL A   1      43.567  31.043  30.164  1.00  0.00    -0.354 N 
ATOM     69  N   UNL A   1      42.232  34.413  32.588  1.00  0.00    -0.248 NA
ATOM     70  C   UNL A   1      41.715  32.428  33.704  1.00  0.00     0.031 C 
ATOM     71  C   UNL A   1      43.357  32.190  28.340  1.00  0.00     0.029 A 
ATOM     72  C   UNL A   1      43.415  32.334  29.724  1.00  0.00     0.049 A 
ATOM     73  H   UNL A   1      44.072  30.757  30.959  1.00  0.00     0.167 HD
ATOM     74  C   UNL A   1      42.796  33.342  31.891  1.00  0.00     0.074 A 
ATOM     75  C   UNL A   1      42.478  32.154  32.656  1.00  0.00     0.031 C 
ATOM     76  C   UNL A   1      43.291  33.456  30.626  1.00  0.00     0.037 A 
BRANCH  63  77
ATOM     77  C   UNL A   1      42.985  27.784  29.903  1.00  0.00     0.064 A 
ATOM     78  C   UNL A   1      43.552  27.396  31.122  1.00  0.00     0.173 A 
ATOM     79  C   UNL A   1      43.243  27.018  28.763  1.00  0.00     0.173 A 
ATOM     80  F   UNL A   1      43.300  28.106  32.234  1.00  0.00    -0.203 F 
ATOM     81  C   UNL A   1      44.394  26.298  31.193  1.00  0.00     0.198 A 
ATOM     82  C   UNL A   1      44.086  25.915  28.838  1.00  0.00     0.198 A 
ATOM     83  F   UNL A   1      42.703  27.356  27.583  1.00  0.00    -0.203 F 
ATOM     84  F   UNL A   1      44.953  25.963  32.364  1.00  0.00    -0.200 F 
ATOM     85  C   UNL A   1      44.672  25.564  30.048  1.00  0.00     0.200 A 
ATOM     86  F   UNL A   1      44.349  25.198  27.736  1.00  0.00    -0.200 F 
ATOM     87  F   UNL A   1      45.509  24.520  30.112  1.00  0.00    -0.200 F 
ENDBRANCH  63  77
BRANCH  64  88
ATOM     88  C   UNL A   1      39.796  34.420  35.462  1.00  0.00     0.064 A 
ATOM     89  C   UNL A   1      39.922  35.633  36.169  1.00  0.00     0.173 A 
ATOM     90  C   UNL A   1      39.356  33.323  36.213  1.00  0.00     0.173 A 
ATOM     91  F   UNL A   1      40.488  36.695  35.575  1.00  0.00    -0.203 F 
ATOM     92  C   UNL A   1      39.501  35.771  37.496  1.00  0.00     0.198 A 
ATOM     93  C   UNL A   1      38.924  33.459  37.535  1.00  0.00     0.198 A 
ATOM     94  F   UNL A   1      39.335  32.089  35.698  1.00  0.00    -0.203 F 
ATOM     95  F   UNL A   1      39.598  36.956  38.115  1.00  0.00    -0.200 F 
ATOM     96  C   UNL A   1      38.971  34.686  38.168  1.00  0.00     0.200 A 
ATOM     97  F   UNL A   1      38.446  32.389  38.188  1.00  0.00    -0.200 F 
ATOM     98  F   UNL A   1      38.517  34.816  39.422  1.00  0.00    -0.200 F 
ENDBRANCH  64  88
BRANCH  76  99
ATOM     99  C   UNL A   1      43.455  34.846  30.118  1.00  0.00     0.064 A 
ATOM    100  C   UNL A   1      44.633  35.554  30.391  1.00  0.00     0.173 A 
ATOM    101  C   UNL A   1      42.484  35.467  29.319  1.00  0.00     0.173 A 
ATOM    102  F   UNL A   1      45.592  35.002  31.152  1.00  0.00    -0.203 F 
ATOM    103  C   UNL A   1      44.847  36.820  29.856  1.00  0.00     0.198 A 
ATOM    104  C   UNL A   1      42.713  36.723  28.762  1.00  0.00     0.198 A 
ATOM    105  F   UNL A   1      41.319  34.855  29.051  1.00  0.00    -0.203 F 
ATOM    106  F   UNL A   1      45.987  37.474  30.119  1.00  0.00    -0.200 F 
ATOM    107  C   UNL A   1      43.895  37.395  29.027  1.00  0.00     0.200 A 
ATOM    108  F   UNL A   1      41.798  37.271  27.950  1.00  0.00    -0.200 F 
ATOM    109  F   UNL A   1      44.123  38.595  28.475  1.00  0.00    -0.200 F 
ENDBRANCH  76  99
ENDBRANCH  50  51
ENDBRANCH  42  45
ENDBRANCH  40  41
ENDBRANCH  39  40
ENDBRANCH   1  39
TORSDOF 15
ENDMDL
