MODEL 1
REMARK VINA RESULT:     -13.2      0.000      0.000
REMARK SMILES CCCc1cc2c(cc1Cl)C=C(C(=O)NCCCNC(=O)c1ccc(-c3c4nc(c(-c5c(F)c(F)c(F)c(F)c5F)c5ccc([nH]5)c(-c5c(F)c(F)c(F)c(F)c5F)c5nc(c(-c6c(F)c(F)c(F)c(F)c6F)c6ccc3[nH]6)C=C5)C=C4)cc1)[C@H](C(F)(F)F)O2
REMARK SMILES IDX 17 1 16 2 15 3 13 4 14 5 12 7 4 8 5 9 9 10 6 11 8 12 10 13
REMARK SMILES IDX 7 14 90 15 11 16 85 17 3 18 2 19 1 20 86 21 87 22 88 23
REMARK SMILES IDX 89 24 18 25 19 26 20 27 21 29 22 30 23 31 84 32 24 33 83 34
REMARK SMILES IDX 25 35 26 36 27 37 77 38 28 39 82 40 76 41 78 42 29 43 81 44
REMARK SMILES IDX 75 45 74 46 30 48 62 49 42 50 61 51 43 52 46 53 60 54 79 55
REMARK SMILES IDX 44 56 45 57 59 59 80 60 47 61 31 62 32 63 40 64 33 65 34 66
REMARK SMILES IDX 38 67 41 68 35 69 36 70 39 71 37 72 63 73 64 74 72 75 65 76
REMARK SMILES IDX 66 77 70 78 73 79 67 80 68 81 71 82 69 83 48 84 49 85 57 86
REMARK SMILES IDX 50 87 51 88 55 89 58 90 52 91 53 92 56 93 54 94
REMARK H PARENT 15 6 19 28 78 47 46 58
REMARK Flexibility Score: inf
ROOT
ATOM      1  C   UNL A   1      31.456  32.296  26.546  1.00  0.00     0.042 C 
ENDROOT
BRANCH   1   2
ATOM      2  C   UNL A   1      31.604  30.799  26.303  1.00  0.00     0.118 C 
BRANCH   2   3
ATOM      3  N   UNL A   1      31.259  30.440  24.935  1.00  0.00    -0.352 N 
ATOM      4  C   UNL A   1      31.255  29.327  24.163  1.00  0.00     0.251 C 
ATOM      5  O   UNL A   1      30.806  29.482  23.023  1.00  0.00    -0.270 OA
ATOM      6  H   UNL A   1      30.941  31.223  24.430  1.00  0.00     0.163 HD
BRANCH   4   7
ATOM      7  C   UNL A   1      31.739  27.983  24.586  1.00  0.00     0.067 C 
ATOM      8  C   UNL A   1      32.233  23.360  26.558  1.00  0.00    -0.026 A 
ATOM      9  C   UNL A   1      33.110  24.356  26.113  1.00  0.00     0.052 A 
ATOM     10  C   UNL A   1      30.864  23.679  26.612  1.00  0.00     0.045 A 
ATOM     11  C   UNL A   1      32.637  25.572  25.637  1.00  0.00     0.128 A 
ATOM     12  C   UNL A   1      30.396  24.939  26.199  1.00  0.00     0.032 A 
ATOM     13  Cl  UNL A   1      29.682  22.567  27.209  1.00  0.00    -0.084 Cl
ATOM     14  C   UNL A   1      31.285  25.888  25.692  1.00  0.00     0.019 A 
ATOM     15  O   UNL A   1      33.583  26.423  25.146  1.00  0.00    -0.475 OA
ATOM     16  C   UNL A   1      30.864  27.222  25.273  1.00  0.00     0.025 C 
ATOM     17  C   UNL A   1      33.085  27.423  24.223  1.00  0.00     0.314 C 
BRANCH   8  18
ATOM     18  C   UNL A   1      32.821  22.031  26.985  1.00  0.00     0.037 C 
BRANCH  18  19
ATOM     19  C   UNL A   1      33.339  21.136  25.843  1.00  0.00     0.001 C 
ATOM     20  C   UNL A   1      32.289  20.691  24.830  1.00  0.00     0.004 C 
ENDBRANCH  18  19
ENDBRANCH   8  18
BRANCH  17  21
ATOM     21  C   UNL A   1      33.169  26.933  22.766  1.00  0.00     0.429 C 
ATOM     22  F   UNL A   1      31.981  26.523  22.274  1.00  0.00    -0.167 F 
ATOM     23  F   UNL A   1      33.637  27.887  21.926  1.00  0.00    -0.167 F 
ATOM     24  F   UNL A   1      34.028  25.885  22.675  1.00  0.00    -0.167 F 
ENDBRANCH  17  21
ENDBRANCH   4   7
ENDBRANCH   2   3
ENDBRANCH   1   2
BRANCH   1  25
ATOM     25  C   UNL A   1      32.658  32.881  27.275  1.00  0.00     0.118 C 
BRANCH  25  26
ATOM     26  N   UNL A   1      32.445  34.276  27.646  1.00  0.00    -0.352 N 
ATOM     27  C   UNL A   1      33.013  35.029  28.649  1.00  0.00     0.251 C 
ATOM     28  H   UNL A   1      31.791  34.757  27.089  1.00  0.00     0.163 HD
ATOM     29  O   UNL A   1      32.528  36.112  28.946  1.00  0.00    -0.269 OA
BRANCH  27  30
ATOM     30  C   UNL A   1      34.191  34.517  29.382  1.00  0.00     0.039 A 
ATOM     31  C   UNL A   1      35.464  34.592  28.819  1.00  0.00     0.014 A 
ATOM     32  C   UNL A   1      34.019  33.951  30.649  1.00  0.00     0.014 A 
ATOM     33  C   UNL A   1      36.519  33.919  29.416  1.00  0.00     0.010 A 
ATOM     34  C   UNL A   1      35.113  33.378  31.306  1.00  0.00     0.010 A 
ATOM     35  C   UNL A   1      36.361  33.305  30.669  1.00  0.00    -0.014 A 
BRANCH  35  36
ATOM     36  C   UNL A   1      37.513  32.589  31.276  1.00  0.00     0.031 A 
ATOM     37  C   UNL A   1      37.979  32.921  32.669  1.00  0.00     0.074 A 
ATOM     38  C   UNL A   1      38.097  31.586  30.592  1.00  0.00     0.049 A 
ATOM     39  N   UNL A   1      38.958  32.394  33.359  1.00  0.00    -0.248 NA
ATOM     40  C   UNL A   1      37.257  33.987  33.381  1.00  0.00     0.031 C 
ATOM     41  C   UNL A   1      37.721  31.159  29.242  1.00  0.00     0.029 A 
ATOM     42  N   UNL A   1      39.103  30.723  30.943  1.00  0.00    -0.354 N 
ATOM     43  C   UNL A   1      38.981  33.073  34.571  1.00  0.00     0.074 A 
ATOM     44  C   UNL A   1      37.943  34.077  34.511  1.00  0.00     0.031 C 
ATOM     45  C   UNL A   1      38.437  30.077  28.906  1.00  0.00     0.029 A 
ATOM     46  C   UNL A   1      39.381  29.782  29.980  1.00  0.00     0.049 A 
ATOM     47  H   UNL A   1      39.582  30.772  31.802  1.00  0.00     0.167 HD
ATOM     48  C   UNL A   1      39.784  32.862  35.641  1.00  0.00     0.037 A 
ATOM     49  C   UNL A   1      40.303  28.803  29.952  1.00  0.00     0.037 A 
ATOM     50  C   UNL A   1      40.795  31.840  35.706  1.00  0.00     0.049 A 
ATOM     51  C   UNL A   1      41.220  28.633  31.129  1.00  0.00     0.074 A 
ATOM     52  C   UNL A   1      41.645  31.536  36.754  1.00  0.00     0.029 A 
ATOM     53  N   UNL A   1      41.092  30.953  34.681  1.00  0.00    -0.354 N 
ATOM     54  N   UNL A   1      41.227  29.279  32.269  1.00  0.00    -0.248 NA
ATOM     55  C   UNL A   1      42.265  27.608  31.013  1.00  0.00     0.031 C 
ATOM     56  C   UNL A   1      42.490  30.499  36.346  1.00  0.00     0.029 A 
ATOM     57  C   UNL A   1      42.131  30.120  35.064  1.00  0.00     0.049 A 
ATOM     58  H   UNL A   1      40.632  30.921  33.811  1.00  0.00     0.167 HD
ATOM     59  C   UNL A   1      42.266  28.734  33.009  1.00  0.00     0.074 A 
ATOM     60  C   UNL A   1      42.851  27.685  32.200  1.00  0.00     0.031 C 
ATOM     61  C   UNL A   1      42.701  29.079  34.246  1.00  0.00     0.037 A 
BRANCH  48  62
ATOM     62  C   UNL A   1      39.610  33.754  36.838  1.00  0.00     0.064 A 
ATOM     63  C   UNL A   1      40.197  35.026  36.901  1.00  0.00     0.173 A 
ATOM     64  C   UNL A   1      38.783  33.361  37.903  1.00  0.00     0.173 A 
ATOM     65  F   UNL A   1      41.004  35.447  35.916  1.00  0.00    -0.203 F 
ATOM     66  C   UNL A   1      39.975  35.865  37.990  1.00  0.00     0.198 A 
ATOM     67  C   UNL A   1      38.540  34.214  38.977  1.00  0.00     0.198 A 
ATOM     68  F   UNL A   1      38.191  32.157  37.891  1.00  0.00    -0.203 F 
ATOM     69  F   UNL A   1      40.574  37.063  38.044  1.00  0.00    -0.200 F 
ATOM     70  C   UNL A   1      39.139  35.463  39.022  1.00  0.00     0.200 A 
ATOM     71  F   UNL A   1      37.718  33.829  39.963  1.00  0.00    -0.200 F 
ATOM     72  F   UNL A   1      38.912  36.280  40.059  1.00  0.00    -0.200 F 
ENDBRANCH  48  62
BRANCH  49  73
ATOM     73  C   UNL A   1      40.399  27.917  28.763  1.00  0.00     0.064 A 
ATOM     74  C   UNL A   1      39.695  26.707  28.707  1.00  0.00     0.173 A 
ATOM     75  C   UNL A   1      41.170  28.275  27.645  1.00  0.00     0.173 A 
ATOM     76  F   UNL A   1      38.961  26.310  29.758  1.00  0.00    -0.203 F 
ATOM     77  C   UNL A   1      39.762  25.886  27.583  1.00  0.00     0.198 A 
ATOM     78  C   UNL A   1      41.209  27.470  26.510  1.00  0.00     0.198 A 
ATOM     79  F   UNL A   1      41.861  29.425  27.646  1.00  0.00    -0.203 F 
ATOM     80  F   UNL A   1      39.105  24.718  27.569  1.00  0.00    -0.200 F 
ATOM     81  C   UNL A   1      40.510  26.274  26.481  1.00  0.00     0.200 A 
ATOM     82  F   UNL A   1      41.918  27.859  25.441  1.00  0.00    -0.200 F 
ATOM     83  F   UNL A   1      40.559  25.493  25.394  1.00  0.00    -0.200 F 
ENDBRANCH  49  73
BRANCH  61  84
ATOM     84  C   UNL A   1      43.862  28.314  34.810  1.00  0.00     0.064 A 
ATOM     85  C   UNL A   1      43.677  27.108  35.500  1.00  0.00     0.173 A 
ATOM     86  C   UNL A   1      45.178  28.751  34.590  1.00  0.00     0.173 A 
ATOM     87  F   UNL A   1      42.438  26.655  35.748  1.00  0.00    -0.203 F 
ATOM     88  C   UNL A   1      44.766  26.373  35.960  1.00  0.00     0.198 A 
ATOM     89  C   UNL A   1      46.265  27.998  35.025  1.00  0.00     0.198 A 
ATOM     90  F   UNL A   1      45.408  29.895  33.928  1.00  0.00    -0.203 F 
ATOM     91  F   UNL A   1      44.564  25.240  36.648  1.00  0.00    -0.200 F 
ATOM     92  C   UNL A   1      46.057  26.812  35.713  1.00  0.00     0.200 A 
ATOM     93  F   UNL A   1      47.512  28.415  34.768  1.00  0.00    -0.200 F 
ATOM     94  F   UNL A   1      47.104  26.093  36.139  1.00  0.00    -0.200 F 
ENDBRANCH  61  84
ENDBRANCH  35  36
ENDBRANCH  27  30
ENDBRANCH  25  26
ENDBRANCH   1  25
TORSDOF 13
ENDMDL
MODEL 2
REMARK VINA RESULT:     -13.2      0.218      1.599
REMARK SMILES CCCc1cc2c(cc1Cl)C=C(C(=O)NCCCNC(=O)c1ccc(-c3c4nc(c(-c5c(F)c(F)c(F)c(F)c5F)c5ccc([nH]5)c(-c5c(F)c(F)c(F)c(F)c5F)c5nc(c(-c6c(F)c(F)c(F)c(F)c6F)c6ccc3[nH]6)C=C5)C=C4)cc1)[C@H](C(F)(F)F)O2
REMARK SMILES IDX 17 1 16 2 15 3 13 4 14 5 12 7 4 8 5 9 9 10 6 11 8 12 10 13
REMARK SMILES IDX 7 14 90 15 11 16 85 17 3 18 2 19 1 20 86 21 87 22 88 23
REMARK SMILES IDX 89 24 18 25 19 26 20 27 21 29 22 30 23 31 84 32 24 33 83 34
REMARK SMILES IDX 25 35 26 36 27 37 77 38 28 39 82 40 76 41 78 42 29 43 81 44
REMARK SMILES IDX 75 45 74 46 30 48 62 49 42 50 61 51 43 52 46 53 60 54 79 55
REMARK SMILES IDX 44 56 45 57 59 59 80 60 47 61 31 62 32 63 40 64 33 65 34 66
REMARK SMILES IDX 38 67 41 68 35 69 36 70 39 71 37 72 63 73 64 74 72 75 65 76
REMARK SMILES IDX 66 77 70 78 73 79 67 80 68 81 71 82 69 83 48 84 49 85 57 86
REMARK SMILES IDX 50 87 51 88 55 89 58 90 52 91 53 92 56 93 54 94
REMARK H PARENT 15 6 19 28 78 47 46 58
REMARK Flexibility Score: inf
ROOT
ATOM      1  C   UNL A   1      31.407  32.229  26.535  1.00  0.00     0.042 C 
ENDROOT
BRANCH   1   2
ATOM      2  C   UNL A   1      31.575  30.735  26.288  1.00  0.00     0.118 C 
BRANCH   2   3
ATOM      3  N   UNL A   1      31.293  30.384  24.903  1.00  0.00    -0.352 N 
ATOM      4  C   UNL A   1      31.332  29.277  24.124  1.00  0.00     0.251 C 
ATOM      5  O   UNL A   1      30.932  29.438  22.967  1.00  0.00    -0.270 OA
ATOM      6  H   UNL A   1      30.991  31.168  24.391  1.00  0.00     0.163 HD
BRANCH   4   7
ATOM      7  C   UNL A   1      31.809  27.934  24.557  1.00  0.00     0.067 C 
ATOM      8  C   UNL A   1      32.271  23.317  26.553  1.00  0.00    -0.026 A 
ATOM      9  C   UNL A   1      33.154  24.310  26.113  1.00  0.00     0.052 A 
ATOM     10  C   UNL A   1      30.902  23.640  26.592  1.00  0.00     0.045 A 
ATOM     11  C   UNL A   1      32.690  25.525  25.628  1.00  0.00     0.128 A 
ATOM     12  C   UNL A   1      30.441  24.900  26.168  1.00  0.00     0.032 A 
ATOM     13  Cl  UNL A   1      29.711  22.533  27.181  1.00  0.00    -0.084 Cl
ATOM     14  C   UNL A   1      31.338  25.845  25.667  1.00  0.00     0.019 A 
ATOM     15  O   UNL A   1      33.642  26.372  25.143  1.00  0.00    -0.475 OA
ATOM     16  C   UNL A   1      30.924  27.177  25.238  1.00  0.00     0.025 C 
ATOM     17  C   UNL A   1      33.157  27.369  24.211  1.00  0.00     0.314 C 
BRANCH   8  18
ATOM     18  C   UNL A   1      32.850  21.989  26.992  1.00  0.00     0.037 C 
BRANCH  18  19
ATOM     19  C   UNL A   1      33.323  21.063  25.855  1.00  0.00     0.001 C 
ATOM     20  C   UNL A   1      32.276  20.737  24.796  1.00  0.00     0.004 C 
ENDBRANCH  18  19
ENDBRANCH   8  18
BRANCH  17  21
ATOM     21  C   UNL A   1      33.255  26.873  22.757  1.00  0.00     0.429 C 
ATOM     22  F   UNL A   1      32.059  26.541  22.227  1.00  0.00    -0.167 F 
ATOM     23  F   UNL A   1      33.811  27.793  21.933  1.00  0.00    -0.167 F 
ATOM     24  F   UNL A   1      34.046  25.771  22.693  1.00  0.00    -0.167 F 
ENDBRANCH  17  21
ENDBRANCH   4   7
ENDBRANCH   2   3
ENDBRANCH   1   2
BRANCH   1  25
ATOM     25  C   UNL A   1      32.575  32.816  27.316  1.00  0.00     0.118 C 
BRANCH  25  26
ATOM     26  N   UNL A   1      32.366  34.225  27.634  1.00  0.00    -0.352 N 
ATOM     27  C   UNL A   1      32.944  35.017  28.600  1.00  0.00     0.251 C 
ATOM     28  H   UNL A   1      31.704  34.683  27.066  1.00  0.00     0.163 HD
ATOM     29  O   UNL A   1      32.462  36.111  28.859  1.00  0.00    -0.269 OA
BRANCH  27  30
ATOM     30  C   UNL A   1      34.131  34.535  29.338  1.00  0.00     0.039 A 
ATOM     31  C   UNL A   1      35.403  34.632  28.776  1.00  0.00     0.014 A 
ATOM     32  C   UNL A   1      33.970  33.976  30.609  1.00  0.00     0.014 A 
ATOM     33  C   UNL A   1      36.472  33.985  29.379  1.00  0.00     0.010 A 
ATOM     34  C   UNL A   1      35.074  33.430  31.272  1.00  0.00     0.010 A 
ATOM     35  C   UNL A   1      36.324  33.379  30.637  1.00  0.00    -0.014 A 
BRANCH  35  36
ATOM     36  C   UNL A   1      37.489  32.691  31.251  1.00  0.00     0.031 A 
ATOM     37  C   UNL A   1      37.945  33.041  32.644  1.00  0.00     0.074 A 
ATOM     38  C   UNL A   1      38.097  31.696  30.574  1.00  0.00     0.049 A 
ATOM     39  N   UNL A   1      38.933  32.538  33.339  1.00  0.00    -0.248 NA
ATOM     40  C   UNL A   1      37.197  34.095  33.348  1.00  0.00     0.031 C 
ATOM     41  C   UNL A   1      37.734  31.254  29.226  1.00  0.00     0.029 A 
ATOM     42  N   UNL A   1      39.121  30.858  30.932  1.00  0.00    -0.354 N 
ATOM     43  C   UNL A   1      38.938  33.225  34.547  1.00  0.00     0.074 A 
ATOM     44  C   UNL A   1      37.878  34.206  34.480  1.00  0.00     0.031 C 
ATOM     45  C   UNL A   1      38.475  30.186  28.898  1.00  0.00     0.029 A 
ATOM     46  C   UNL A   1      39.422  29.918  29.975  1.00  0.00     0.049 A 
ATOM     47  H   UNL A   1      39.596  30.922  31.793  1.00  0.00     0.167 HD
ATOM     48  C   UNL A   1      39.742  33.037  35.621  1.00  0.00     0.037 A 
ATOM     49  C   UNL A   1      40.365  28.959  29.955  1.00  0.00     0.037 A 
ATOM     50  C   UNL A   1      40.775  32.038  35.694  1.00  0.00     0.049 A 
ATOM     51  C   UNL A   1      41.282  28.815  31.137  1.00  0.00     0.074 A 
ATOM     52  C   UNL A   1      41.629  31.758  36.746  1.00  0.00     0.029 A 
ATOM     53  N   UNL A   1      41.094  31.152  34.675  1.00  0.00    -0.354 N 
ATOM     54  N   UNL A   1      41.272  29.468  32.273  1.00  0.00    -0.248 NA
ATOM     55  C   UNL A   1      42.350  27.812  31.028  1.00  0.00     0.031 C 
ATOM     56  C   UNL A   1      42.497  30.737  36.346  1.00  0.00     0.029 A 
ATOM     57  C   UNL A   1      42.150  30.344  35.065  1.00  0.00     0.049 A 
ATOM     58  H   UNL A   1      40.637  31.104  33.804  1.00  0.00     0.167 HD
ATOM     59  C   UNL A   1      42.321  28.949  33.019  1.00  0.00     0.074 A 
ATOM     60  C   UNL A   1      42.930  27.909  32.217  1.00  0.00     0.031 C 
ATOM     61  C   UNL A   1      42.744  29.311  34.255  1.00  0.00     0.037 A 
BRANCH  48  62
ATOM     62  C   UNL A   1      39.546  33.931  36.812  1.00  0.00     0.064 A 
ATOM     63  C   UNL A   1      38.766  33.538  37.908  1.00  0.00     0.173 A 
ATOM     64  C   UNL A   1      40.211  35.166  36.892  1.00  0.00     0.173 A 
ATOM     65  F   UNL A   1      38.100  32.373  37.881  1.00  0.00    -0.203 F 
ATOM     66  C   UNL A   1      38.644  34.352  39.033  1.00  0.00     0.198 A 
ATOM     67  C   UNL A   1      40.111  35.964  38.029  1.00  0.00     0.198 A 
ATOM     68  F   UNL A   1      40.976  35.588  35.875  1.00  0.00    -0.203 F 
ATOM     69  F   UNL A   1      37.864  33.970  40.054  1.00  0.00    -0.200 F 
ATOM     70  C   UNL A   1      39.325  35.559  39.096  1.00  0.00     0.200 A 
ATOM     71  F   UNL A   1      40.784  37.121  38.094  1.00  0.00    -0.200 F 
ATOM     72  F   UNL A   1      39.222  36.331  40.186  1.00  0.00    -0.200 F 
ENDBRANCH  48  62
BRANCH  49  73
ATOM     73  C   UNL A   1      40.483  28.068  28.772  1.00  0.00     0.064 A 
ATOM     74  C   UNL A   1      39.805  26.844  28.721  1.00  0.00     0.173 A 
ATOM     75  C   UNL A   1      41.250  28.436  27.655  1.00  0.00     0.173 A 
ATOM     76  F   UNL A   1      39.076  26.437  29.771  1.00  0.00    -0.203 F 
ATOM     77  C   UNL A   1      39.893  26.019  27.601  1.00  0.00     0.198 A 
ATOM     78  C   UNL A   1      41.310  27.626  26.524  1.00  0.00     0.198 A 
ATOM     79  F   UNL A   1      41.917  29.601  27.652  1.00  0.00    -0.203 F 
ATOM     80  F   UNL A   1      39.261  24.837  27.592  1.00  0.00    -0.200 F 
ATOM     81  C   UNL A   1      40.636  26.416  26.499  1.00  0.00     0.200 A 
ATOM     82  F   UNL A   1      42.014  28.025  25.455  1.00  0.00    -0.200 F 
ATOM     83  F   UNL A   1      40.705  25.631  25.417  1.00  0.00    -0.200 F 
ENDBRANCH  49  73
BRANCH  61  84
ATOM     84  C   UNL A   1      43.920  28.574  34.826  1.00  0.00     0.064 A 
ATOM     85  C   UNL A   1      45.227  29.064  34.688  1.00  0.00     0.173 A 
ATOM     86  C   UNL A   1      43.731  27.409  35.585  1.00  0.00     0.173 A 
ATOM     87  F   UNL A   1      45.461  30.166  33.960  1.00  0.00    -0.203 F 
ATOM     88  C   UNL A   1      46.302  28.407  35.279  1.00  0.00     0.198 A 
ATOM     89  C   UNL A   1      44.805  26.772  36.200  1.00  0.00     0.198 A 
ATOM     90  F   UNL A   1      42.500  26.903  35.752  1.00  0.00    -0.203 F 
ATOM     91  F   UNL A   1      47.546  28.875  35.105  1.00  0.00    -0.200 F 
ATOM     92  C   UNL A   1      46.090  27.270  36.043  1.00  0.00     0.200 A 
ATOM     93  F   UNL A   1      44.595  25.684  36.952  1.00  0.00    -0.200 F 
ATOM     94  F   UNL A   1      47.124  26.651  36.628  1.00  0.00    -0.200 F 
ENDBRANCH  61  84
ENDBRANCH  35  36
ENDBRANCH  27  30
ENDBRANCH  25  26
ENDBRANCH   1  25
TORSDOF 13
ENDMDL
MODEL 3
REMARK VINA RESULT:     -13.1      0.336      7.378
REMARK SMILES CCCc1cc2c(cc1Cl)C=C(C(=O)NCCCNC(=O)c1ccc(-c3c4nc(c(-c5c(F)c(F)c(F)c(F)c5F)c5ccc([nH]5)c(-c5c(F)c(F)c(F)c(F)c5F)c5nc(c(-c6c(F)c(F)c(F)c(F)c6F)c6ccc3[nH]6)C=C5)C=C4)cc1)[C@H](C(F)(F)F)O2
REMARK SMILES IDX 17 1 16 2 15 3 13 4 14 5 12 7 4 8 5 9 9 10 6 11 8 12 10 13
REMARK SMILES IDX 7 14 90 15 11 16 85 17 3 18 2 19 1 20 86 21 87 22 88 23
REMARK SMILES IDX 89 24 18 25 19 26 20 27 21 29 22 30 23 31 84 32 24 33 83 34
REMARK SMILES IDX 25 35 26 36 27 37 77 38 28 39 82 40 76 41 78 42 29 43 81 44
REMARK SMILES IDX 75 45 74 46 30 48 62 49 42 50 61 51 43 52 46 53 60 54 79 55
REMARK SMILES IDX 44 56 45 57 59 59 80 60 47 61 31 62 32 63 40 64 33 65 34 66
REMARK SMILES IDX 38 67 41 68 35 69 36 70 39 71 37 72 63 73 64 74 72 75 65 76
REMARK SMILES IDX 66 77 70 78 73 79 67 80 68 81 71 82 69 83 48 84 49 85 57 86
REMARK SMILES IDX 50 87 51 88 55 89 58 90 52 91 53 92 56 93 54 94
REMARK H PARENT 15 6 19 28 78 47 46 58
REMARK Flexibility Score: inf
ROOT
ATOM      1  C   UNL A   1      31.436  32.320  26.568  1.00  0.00     0.042 C 
ENDROOT
BRANCH   1   2
ATOM      2  C   UNL A   1      31.578  30.822  26.331  1.00  0.00     0.118 C 
BRANCH   2   3
ATOM      3  N   UNL A   1      31.166  30.449  24.985  1.00  0.00    -0.352 N 
ATOM      4  C   UNL A   1      31.139  29.331  24.220  1.00  0.00     0.251 C 
ATOM      5  O   UNL A   1      30.626  29.472  23.106  1.00  0.00    -0.270 OA
ATOM      6  H   UNL A   1      30.807  31.223  24.495  1.00  0.00     0.163 HD
BRANCH   4   7
ATOM      7  C   UNL A   1      31.669  27.998  24.623  1.00  0.00     0.067 C 
ATOM      8  C   UNL A   1      32.303  23.345  26.483  1.00  0.00    -0.026 A 
ATOM      9  C   UNL A   1      33.148  24.392  26.098  1.00  0.00     0.052 A 
ATOM     10  C   UNL A   1      30.919  23.602  26.498  1.00  0.00     0.045 A 
ATOM     11  C   UNL A   1      32.638  25.599  25.639  1.00  0.00     0.128 A 
ATOM     12  C   UNL A   1      30.409  24.852  26.103  1.00  0.00     0.032 A 
ATOM     13  Cl  UNL A   1      29.769  22.422  27.021  1.00  0.00    -0.084 Cl
ATOM     14  C   UNL A   1      31.271  25.854  25.654  1.00  0.00     0.019 A 
ATOM     15  O   UNL A   1      33.560  26.505  25.206  1.00  0.00    -0.475 OA
ATOM     16  C   UNL A   1      30.805  27.179  25.257  1.00  0.00     0.025 C 
ATOM     17  C   UNL A   1      33.050  27.509  24.293  1.00  0.00     0.314 C 
BRANCH   8  18
ATOM     18  C   UNL A   1      32.934  22.032  26.895  1.00  0.00     0.037 C 
BRANCH  18  19
ATOM     19  C   UNL A   1      33.440  21.148  25.739  1.00  0.00     0.001 C 
ATOM     20  C   UNL A   1      32.356  20.446  24.927  1.00  0.00     0.004 C 
ENDBRANCH  18  19
ENDBRANCH   8  18
BRANCH  17  21
ATOM     21  C   UNL A   1      33.206  27.066  22.827  1.00  0.00     0.429 C 
ATOM     22  F   UNL A   1      33.751  28.018  22.040  1.00  0.00    -0.167 F 
ATOM     23  F   UNL A   1      33.977  25.959  22.701  1.00  0.00    -0.167 F 
ATOM     24  F   UNL A   1      31.993  26.753  22.303  1.00  0.00    -0.167 F 
ENDBRANCH  17  21
ENDBRANCH   4   7
ENDBRANCH   2   3
ENDBRANCH   1   2
BRANCH   1  25
ATOM     25  C   UNL A   1      32.652  32.907  27.271  1.00  0.00     0.118 C 
BRANCH  25  26
ATOM     26  N   UNL A   1      32.455  34.310  27.622  1.00  0.00    -0.352 N 
ATOM     27  C   UNL A   1      33.001  35.060  28.639  1.00  0.00     0.251 C 
ATOM     28  H   UNL A   1      31.832  34.798  27.037  1.00  0.00     0.163 HD
ATOM     29  O   UNL A   1      32.528  36.156  28.908  1.00  0.00    -0.269 OA
BRANCH  27  30
ATOM     30  C   UNL A   1      34.140  34.531  29.419  1.00  0.00     0.039 A 
ATOM     31  C   UNL A   1      35.438  34.600  28.915  1.00  0.00     0.014 A 
ATOM     32  C   UNL A   1      33.907  33.956  30.672  1.00  0.00     0.014 A 
ATOM     33  C   UNL A   1      36.459  33.912  29.552  1.00  0.00     0.010 A 
ATOM     34  C   UNL A   1      34.965  33.367  31.372  1.00  0.00     0.010 A 
ATOM     35  C   UNL A   1      36.239  33.289  30.791  1.00  0.00    -0.014 A 
BRANCH  35  36
ATOM     36  C   UNL A   1      37.356  32.557  31.443  1.00  0.00     0.031 A 
ATOM     37  C   UNL A   1      38.093  31.465  30.712  1.00  0.00     0.074 A 
ATOM     38  C   UNL A   1      37.754  32.928  32.676  1.00  0.00     0.049 A 
ATOM     39  N   UNL A   1      39.095  30.730  31.121  1.00  0.00    -0.248 NA
ATOM     40  C   UNL A   1      37.645  31.153  29.346  1.00  0.00     0.031 C 
ATOM     41  C   UNL A   1      37.131  33.985  33.477  1.00  0.00     0.029 A 
ATOM     42  N   UNL A   1      38.789  32.487  33.460  1.00  0.00    -0.354 N 
ATOM     43  C   UNL A   1      39.383  29.860  30.076  1.00  0.00     0.074 A 
ATOM     44  C   UNL A   1      38.427  30.132  29.026  1.00  0.00     0.031 C 
ATOM     45  C   UNL A   1      37.834  34.156  34.605  1.00  0.00     0.029 A 
ATOM     46  C   UNL A   1      38.907  33.168  34.648  1.00  0.00     0.049 A 
ATOM     47  H   UNL A   1      39.390  31.753  33.197  1.00  0.00     0.167 HD
ATOM     48  C   UNL A   1      40.368  28.934  29.995  1.00  0.00     0.037 A 
ATOM     49  C   UNL A   1      39.768  33.005  35.669  1.00  0.00     0.037 A 
ATOM     50  C   UNL A   1      41.336  28.690  31.032  1.00  0.00     0.049 A 
ATOM     51  C   UNL A   1      40.812  31.929  35.576  1.00  0.00     0.074 A 
ATOM     52  C   UNL A   1      42.384  27.787  31.035  1.00  0.00     0.029 A 
ATOM     53  N   UNL A   1      41.377  29.354  32.250  1.00  0.00    -0.354 N 
ATOM     54  N   UNL A   1      41.075  31.118  34.581  1.00  0.00    -0.248 NA
ATOM     55  C   UNL A   1      41.671  31.735  36.752  1.00  0.00     0.031 C 
ATOM     56  C   UNL A   1      43.029  27.868  32.273  1.00  0.00     0.029 A 
ATOM     57  C   UNL A   1      42.416  28.860  33.022  1.00  0.00     0.049 A 
ATOM     58  H   UNL A   1      40.760  30.070  32.524  1.00  0.00     0.167 HD
ATOM     59  C   UNL A   1      42.133  30.327  35.003  1.00  0.00     0.074 A 
ATOM     60  C   UNL A   1      42.482  30.772  36.336  1.00  0.00     0.031 C 
ATOM     61  C   UNL A   1      42.753  29.315  34.347  1.00  0.00     0.037 A 
BRANCH  48  62
ATOM     62  C   UNL A   1      40.456  28.106  28.745  1.00  0.00     0.064 A 
ATOM     63  C   UNL A   1      41.240  28.502  27.652  1.00  0.00     0.173 A 
ATOM     64  C   UNL A   1      39.808  26.862  28.669  1.00  0.00     0.173 A 
ATOM     65  F   UNL A   1      41.872  29.686  27.668  1.00  0.00    -0.203 F 
ATOM     66  C   UNL A   1      41.360  27.693  26.525  1.00  0.00     0.198 A 
ATOM     67  C   UNL A   1      39.954  26.043  27.553  1.00  0.00     0.198 A 
ATOM     68  F   UNL A   1      39.050  26.431  29.689  1.00  0.00    -0.203 F 
ATOM     69  F   UNL A   1      42.088  28.109  25.478  1.00  0.00    -0.200 F 
ATOM     70  C   UNL A   1      40.726  26.461  26.479  1.00  0.00     0.200 A 
ATOM     71  F   UNL A   1      39.354  24.845  27.520  1.00  0.00    -0.200 F 
ATOM     72  F   UNL A   1      40.859  25.676  25.402  1.00  0.00    -0.200 F 
ENDBRANCH  48  62
BRANCH  49  73
ATOM     73  C   UNL A   1      39.669  33.885  36.862  1.00  0.00     0.064 A 
ATOM     74  C   UNL A   1      40.322  35.124  36.900  1.00  0.00     0.173 A 
ATOM     75  C   UNL A   1      38.895  33.522  37.975  1.00  0.00     0.173 A 
ATOM     76  F   UNL A   1      41.090  35.509  35.869  1.00  0.00    -0.203 F 
ATOM     77  C   UNL A   1      40.209  35.964  38.006  1.00  0.00     0.198 A 
ATOM     78  C   UNL A   1      38.757  34.376  39.067  1.00  0.00     0.198 A 
ATOM     79  F   UNL A   1      38.247  32.347  37.988  1.00  0.00    -0.203 F 
ATOM     80  F   UNL A   1      40.871  37.129  38.031  1.00  0.00    -0.200 F 
ATOM     81  C   UNL A   1      39.418  35.593  39.084  1.00  0.00     0.200 A 
ATOM     82  F   UNL A   1      37.975  34.021  40.095  1.00  0.00    -0.200 F 
ATOM     83  F   UNL A   1      39.296  36.409  40.140  1.00  0.00    -0.200 F 
ENDBRANCH  49  73
BRANCH  61  84
ATOM     84  C   UNL A   1      43.879  28.620  35.053  1.00  0.00     0.064 A 
ATOM     85  C   UNL A   1      45.192  29.109  34.993  1.00  0.00     0.173 A 
ATOM     86  C   UNL A   1      43.630  27.500  35.862  1.00  0.00     0.173 A 
ATOM     87  F   UNL A   1      45.483  30.168  34.222  1.00  0.00    -0.203 F 
ATOM     88  C   UNL A   1      46.217  28.494  35.706  1.00  0.00     0.198 A 
ATOM     89  C   UNL A   1      44.652  26.907  36.598  1.00  0.00     0.198 A 
ATOM     90  F   UNL A   1      42.390  26.998  35.959  1.00  0.00    -0.203 F 
ATOM     91  F   UNL A   1      47.471  28.957  35.606  1.00  0.00    -0.200 F 
ATOM     92  C   UNL A   1      45.945  27.402  36.516  1.00  0.00     0.200 A 
ATOM     93  F   UNL A   1      44.383  25.863  37.394  1.00  0.00    -0.200 F 
ATOM     94  F   UNL A   1      46.929  26.825  37.217  1.00  0.00    -0.200 F 
ENDBRANCH  61  84
ENDBRANCH  35  36
ENDBRANCH  27  30
ENDBRANCH  25  26
ENDBRANCH   1  25
TORSDOF 13
ENDMDL
