MODEL 1
REMARK VINA RESULT:     -12.4      0.000      0.000
REMARK SMILES C[C@H](Oc1ccccc1Cl)C(=O)N1CCCC[C@H]1C(=O)NCCCNC(=O)c1ccc(-c2c3nc(c(-c4c(F)c(F)c(F)c(F)c4F)c4ccc([nH]4)c(-c4c(F)c(F)c(F)c(F)c4F)c4nc(c(-c5c(F)c(F)c(F)c(F)c5F)c5ccc2[nH]5)C=C4)C=C3)cc1
REMARK SMILES IDX 22 1 21 2 19 3 20 4 18 6 13 7 14 8 15 9 17 10 16 11 11 12
REMARK SMILES IDX 12 13 2 14 1 15 3 16 4 17 5 18 9 19 6 20 8 21 10 22 7 23
REMARK SMILES IDX 23 24 24 25 25 26 26 27 27 29 28 30 29 31 90 32 30 33 89 34
REMARK SMILES IDX 31 35 32 36 33 37 83 38 34 39 88 40 82 41 84 42 35 43 87 44
REMARK SMILES IDX 81 45 80 46 36 48 68 49 48 50 67 51 49 52 52 53 66 54 85 55
REMARK SMILES IDX 50 56 51 57 65 59 86 60 53 61 37 62 38 63 46 64 39 65 40 66
REMARK SMILES IDX 44 67 47 68 41 69 42 70 45 71 43 72 69 73 70 74 78 75 71 76
REMARK SMILES IDX 72 77 76 78 79 79 73 80 74 81 77 82 75 83 54 84 55 85 63 86
REMARK SMILES IDX 56 87 57 88 61 89 64 90 58 91 59 92 62 93 60 94
REMARK H PARENT 21 5 25 28 84 47 52 58
REMARK Flexibility Score: inf
ROOT
ATOM      1  C   UNL A   1      31.396  30.640  25.419  1.00  0.00     0.117 C 
ENDROOT
BRANCH   1   2
ATOM      2  N   UNL A   1      32.727  30.182  25.679  1.00  0.00    -0.354 N 
ATOM      3  C   UNL A   1      33.164  28.891  25.688  1.00  0.00     0.242 C 
ATOM      4  O   UNL A   1      34.341  28.722  26.012  1.00  0.00    -0.273 OA
ATOM      5  H   UNL A   1      33.400  30.874  25.874  1.00  0.00     0.163 HD
BRANCH   3   6
ATOM      6  C   UNL A   1      32.208  27.730  25.247  1.00  0.00     0.174 C 
ATOM      7  N   UNL A   1      32.342  27.369  23.813  1.00  0.00    -0.327 N 
ATOM      8  C   UNL A   1      33.659  26.851  23.452  1.00  0.00     0.120 C 
ATOM      9  C   UNL A   1      34.009  25.598  24.247  1.00  0.00     0.022 C 
ATOM     10  C   UNL A   1      32.504  26.471  26.097  1.00  0.00     0.035 C 
ATOM     11  C   UNL A   1      33.846  25.810  25.749  1.00  0.00     0.004 C 
BRANCH   7  12
ATOM     12  C   UNL A   1      31.265  27.016  22.981  1.00  0.00     0.264 C 
ATOM     13  O   UNL A   1      31.459  26.634  21.820  1.00  0.00    -0.271 OA
BRANCH  12  14
ATOM     14  C   UNL A   1      29.813  27.396  23.413  1.00  0.00     0.259 C 
ATOM     15  C   UNL A   1      29.190  26.083  23.928  1.00  0.00     0.064 C 
BRANCH  14  16
ATOM     16  O   UNL A   1      29.158  28.120  22.376  1.00  0.00    -0.479 OA
BRANCH  16  17
ATOM     17  C   UNL A   1      28.808  29.442  22.436  1.00  0.00     0.139 A 
ATOM     18  C   UNL A   1      29.582  30.517  21.998  1.00  0.00     0.048 A 
ATOM     19  C   UNL A   1      27.613  29.731  23.127  1.00  0.00     0.083 A 
ATOM     20  C   UNL A   1      29.272  31.828  22.393  1.00  0.00     0.004 A 
ATOM     21  C   UNL A   1      27.276  31.043  23.480  1.00  0.00     0.024 A 
ATOM     22  Cl  UNL A   1      26.545  28.466  23.636  1.00  0.00    -0.080 Cl
ATOM     23  C   UNL A   1      28.132  32.089  23.151  1.00  0.00     0.002 A 
ENDBRANCH  16  17
ENDBRANCH  14  16
ENDBRANCH  12  14
ENDBRANCH   7  12
ENDBRANCH   3   6
ENDBRANCH   1   2
BRANCH   1  24
ATOM     24  C   UNL A   1      31.079  31.939  26.122  1.00  0.00     0.042 C 
BRANCH  24  25
ATOM     25  C   UNL A   1      32.038  32.239  27.249  1.00  0.00     0.118 C 
BRANCH  25  26
ATOM     26  N   UNL A   1      32.181  33.675  27.477  1.00  0.00    -0.352 N 
ATOM     27  C   UNL A   1      33.019  34.386  28.299  1.00  0.00     0.251 C 
ATOM     28  H   UNL A   1      31.567  34.232  26.947  1.00  0.00     0.163 HD
ATOM     29  O   UNL A   1      32.783  35.572  28.508  1.00  0.00    -0.269 OA
BRANCH  27  30
ATOM     30  C   UNL A   1      34.190  33.743  28.934  1.00  0.00     0.039 A 
ATOM     31  C   UNL A   1      35.470  34.215  28.634  1.00  0.00     0.014 A 
ATOM     32  C   UNL A   1      34.043  32.647  29.783  1.00  0.00     0.014 A 
ATOM     33  C   UNL A   1      36.585  33.612  29.221  1.00  0.00     0.010 A 
ATOM     34  C   UNL A   1      35.130  32.159  30.489  1.00  0.00     0.010 A 
ATOM     35  C   UNL A   1      36.420  32.597  30.176  1.00  0.00    -0.014 A 
BRANCH  35  36
ATOM     36  C   UNL A   1      37.577  31.915  30.803  1.00  0.00     0.031 A 
ATOM     37  C   UNL A   1      37.995  32.289  32.203  1.00  0.00     0.074 A 
ATOM     38  C   UNL A   1      38.280  31.011  30.097  1.00  0.00     0.049 A 
ATOM     39  N   UNL A   1      39.016  31.865  32.905  1.00  0.00    -0.248 NA
ATOM     40  C   UNL A   1      37.188  33.311  32.890  1.00  0.00     0.031 C 
ATOM     41  C   UNL A   1      38.011  30.618  28.713  1.00  0.00     0.029 A 
ATOM     42  N   UNL A   1      39.372  30.260  30.449  1.00  0.00    -0.354 N 
ATOM     43  C   UNL A   1      38.980  32.585  34.093  1.00  0.00     0.074 A 
ATOM     44  C   UNL A   1      37.895  33.531  33.986  1.00  0.00     0.031 C 
ATOM     45  C   UNL A   1      38.886  29.668  28.347  1.00  0.00     0.029 A 
ATOM     46  C   UNL A   1      39.801  29.416  29.456  1.00  0.00     0.049 A 
ATOM     47  H   UNL A   1      39.806  30.320  31.330  1.00  0.00     0.167 HD
ATOM     48  C   UNL A   1      39.758  32.443  35.193  1.00  0.00     0.037 A 
ATOM     49  C   UNL A   1      40.818  28.535  29.448  1.00  0.00     0.037 A 
ATOM     50  C   UNL A   1      40.809  31.470  35.306  1.00  0.00     0.049 A 
ATOM     51  C   UNL A   1      41.652  28.380  30.690  1.00  0.00     0.074 A 
ATOM     52  C   UNL A   1      41.619  31.194  36.393  1.00  0.00     0.029 A 
ATOM     53  N   UNL A   1      41.192  30.606  34.290  1.00  0.00    -0.354 N 
ATOM     54  N   UNL A   1      41.563  29.013  31.835  1.00  0.00    -0.248 NA
ATOM     55  C   UNL A   1      42.718  27.372  30.643  1.00  0.00     0.031 C 
ATOM     56  C   UNL A   1      42.526  30.198  36.018  1.00  0.00     0.029 A 
ATOM     57  C   UNL A   1      42.240  29.807  34.720  1.00  0.00     0.049 A 
ATOM     58  H   UNL A   1      40.781  30.567  33.397  1.00  0.00     0.167 HD
ATOM     59  C   UNL A   1      42.537  28.459  32.655  1.00  0.00     0.074 A 
ATOM     60  C   UNL A   1      43.188  27.422  31.881  1.00  0.00     0.031 C 
ATOM     61  C   UNL A   1      42.868  28.778  33.932  1.00  0.00     0.037 A 
BRANCH  48  62
ATOM     62  C   UNL A   1      39.485  33.354  36.358  1.00  0.00     0.064 A 
ATOM     63  C   UNL A   1      38.645  32.972  37.416  1.00  0.00     0.173 A 
ATOM     64  C   UNL A   1      40.083  34.621  36.427  1.00  0.00     0.173 A 
ATOM     65  F   UNL A   1      38.032  31.777  37.395  1.00  0.00    -0.203 F 
ATOM     66  C   UNL A   1      38.384  33.835  38.476  1.00  0.00     0.198 A 
ATOM     67  C   UNL A   1      39.850  35.469  37.508  1.00  0.00     0.198 A 
ATOM     68  F   UNL A   1      40.897  35.040  35.445  1.00  0.00    -0.203 F 
ATOM     69  F   UNL A   1      37.526  33.471  39.440  1.00  0.00    -0.200 F 
ATOM     70  C   UNL A   1      38.993  35.079  38.525  1.00  0.00     0.200 A 
ATOM     71  F   UNL A   1      40.451  36.665  37.560  1.00  0.00    -0.200 F 
ATOM     72  F   UNL A   1      38.747  35.909  39.549  1.00  0.00    -0.200 F 
ENDBRANCH  48  62
BRANCH  49  73
ATOM     73  C   UNL A   1      41.075  27.704  28.242  1.00  0.00     0.064 A 
ATOM     74  C   UNL A   1      40.493  26.435  28.107  1.00  0.00     0.173 A 
ATOM     75  C   UNL A   1      41.909  28.151  27.208  1.00  0.00     0.173 A 
ATOM     76  F   UNL A   1      39.697  25.957  29.076  1.00  0.00    -0.203 F 
ATOM     77  C   UNL A   1      40.762  25.632  27.001  1.00  0.00     0.198 A 
ATOM     78  C   UNL A   1      42.151  27.361  26.086  1.00  0.00     0.198 A 
ATOM     79  F   UNL A   1      42.480  29.362  27.282  1.00  0.00    -0.203 F 
ATOM     80  F   UNL A   1      40.236  24.402  26.924  1.00  0.00    -0.200 F 
ATOM     81  C   UNL A   1      41.587  26.098  25.988  1.00  0.00     0.200 A 
ATOM     82  F   UNL A   1      42.933  27.823  25.100  1.00  0.00    -0.200 F 
ATOM     83  F   UNL A   1      41.844  25.328  24.923  1.00  0.00    -0.200 F 
ENDBRANCH  49  73
BRANCH  61  84
ATOM     84  C   UNL A   1      43.951  27.961  34.580  1.00  0.00     0.064 A 
ATOM     85  C   UNL A   1      45.298  28.351  34.540  1.00  0.00     0.173 A 
ATOM     86  C   UNL A   1      43.631  26.773  35.254  1.00  0.00     0.173 A 
ATOM     87  F   UNL A   1      45.658  29.473  33.898  1.00  0.00    -0.203 F 
ATOM     88  C   UNL A   1      46.289  27.557  35.109  1.00  0.00     0.198 A 
ATOM     89  C   UNL A   1      44.620  26.002  35.857  1.00  0.00     0.198 A 
ATOM     90  F   UNL A   1      42.356  26.360  35.332  1.00  0.00    -0.203 F 
ATOM     91  F   UNL A   1      47.576  27.912  34.995  1.00  0.00    -0.200 F 
ATOM     92  C   UNL A   1      45.949  26.387  35.772  1.00  0.00     0.200 A 
ATOM     93  F   UNL A   1      44.288  24.881  36.513  1.00  0.00    -0.200 F 
ATOM     94  F   UNL A   1      46.906  25.623  36.318  1.00  0.00    -0.200 F 
ENDBRANCH  61  84
ENDBRANCH  35  36
ENDBRANCH  27  30
ENDBRANCH  25  26
ENDBRANCH  24  25
ENDBRANCH   1  24
TORSDOF 14
ENDMDL
MODEL 2
REMARK VINA RESULT:     -12.3      0.571      7.392
REMARK SMILES C[C@H](Oc1ccccc1Cl)C(=O)N1CCCC[C@H]1C(=O)NCCCNC(=O)c1ccc(-c2c3nc(c(-c4c(F)c(F)c(F)c(F)c4F)c4ccc([nH]4)c(-c4c(F)c(F)c(F)c(F)c4F)c4nc(c(-c5c(F)c(F)c(F)c(F)c5F)c5ccc2[nH]5)C=C4)C=C3)cc1
REMARK SMILES IDX 22 1 21 2 19 3 20 4 18 6 13 7 14 8 15 9 17 10 16 11 11 12
REMARK SMILES IDX 12 13 2 14 1 15 3 16 4 17 5 18 9 19 6 20 8 21 10 22 7 23
REMARK SMILES IDX 23 24 24 25 25 26 26 27 27 29 28 30 29 31 90 32 30 33 89 34
REMARK SMILES IDX 31 35 32 36 33 37 83 38 34 39 88 40 82 41 84 42 35 43 87 44
REMARK SMILES IDX 81 45 80 46 36 48 68 49 48 50 67 51 49 52 52 53 66 54 85 55
REMARK SMILES IDX 50 56 51 57 65 59 86 60 53 61 37 62 38 63 46 64 39 65 40 66
REMARK SMILES IDX 44 67 47 68 41 69 42 70 45 71 43 72 69 73 70 74 78 75 71 76
REMARK SMILES IDX 72 77 76 78 79 79 73 80 74 81 77 82 75 83 54 84 55 85 63 86
REMARK SMILES IDX 56 87 57 88 61 89 64 90 58 91 59 92 62 93 60 94
REMARK H PARENT 21 5 25 28 84 47 52 58
REMARK Flexibility Score: inf
ROOT
ATOM      1  C   UNL A   1      31.448  30.526  25.493  1.00  0.00     0.117 C 
ENDROOT
BRANCH   1   2
ATOM      2  N   UNL A   1      32.753  30.027  25.801  1.00  0.00    -0.354 N 
ATOM      3  C   UNL A   1      33.156  28.724  25.797  1.00  0.00     0.242 C 
ATOM      4  O   UNL A   1      34.313  28.517  26.168  1.00  0.00    -0.273 OA
ATOM      5  H   UNL A   1      33.435  30.696  26.042  1.00  0.00     0.163 HD
BRANCH   3   6
ATOM      6  C   UNL A   1      32.192  27.600  25.286  1.00  0.00     0.174 C 
ATOM      7  N   UNL A   1      32.356  27.295  23.842  1.00  0.00    -0.327 N 
ATOM      8  C   UNL A   1      33.673  26.767  23.493  1.00  0.00     0.120 C 
ATOM      9  C   UNL A   1      33.981  25.477  24.245  1.00  0.00     0.022 C 
ATOM     10  C   UNL A   1      32.444  26.303  26.090  1.00  0.00     0.035 C 
ATOM     11  C   UNL A   1      33.783  25.631  25.750  1.00  0.00     0.004 C 
BRANCH   7  12
ATOM     12  C   UNL A   1      31.295  26.996  22.969  1.00  0.00     0.264 C 
ATOM     13  O   UNL A   1      31.510  26.702  21.787  1.00  0.00    -0.271 OA
BRANCH  12  14
ATOM     14  C   UNL A   1      29.833  27.331  23.406  1.00  0.00     0.259 C 
ATOM     15  C   UNL A   1      29.248  25.996  23.911  1.00  0.00     0.064 C 
BRANCH  14  16
ATOM     16  O   UNL A   1      29.157  28.044  22.375  1.00  0.00    -0.479 OA
BRANCH  16  17
ATOM     17  C   UNL A   1      28.779  29.358  22.443  1.00  0.00     0.139 A 
ATOM     18  C   UNL A   1      29.529  30.451  22.003  1.00  0.00     0.048 A 
ATOM     19  C   UNL A   1      27.583  29.619  23.142  1.00  0.00     0.083 A 
ATOM     20  C   UNL A   1      29.193  31.753  22.404  1.00  0.00     0.004 A 
ATOM     21  C   UNL A   1      27.221  30.923  23.501  1.00  0.00     0.024 A 
ATOM     22  Cl  UNL A   1      26.545  28.331  23.653  1.00  0.00    -0.080 Cl
ATOM     23  C   UNL A   1      28.053  31.988  23.170  1.00  0.00     0.002 A 
ENDBRANCH  16  17
ENDBRANCH  14  16
ENDBRANCH  12  14
ENDBRANCH   7  12
ENDBRANCH   3   6
ENDBRANCH   1   2
BRANCH   1  24
ATOM     24  C   UNL A   1      31.173  31.869  26.128  1.00  0.00     0.042 C 
BRANCH  24  25
ATOM     25  C   UNL A   1      32.197  32.237  27.175  1.00  0.00     0.118 C 
BRANCH  25  26
ATOM     26  N   UNL A   1      32.248  33.680  27.406  1.00  0.00    -0.352 N 
ATOM     27  C   UNL A   1      32.996  34.435  28.272  1.00  0.00     0.251 C 
ATOM     28  H   UNL A   1      31.636  34.202  26.839  1.00  0.00     0.163 HD
ATOM     29  O   UNL A   1      32.685  35.607  28.463  1.00  0.00    -0.269 OA
BRANCH  27  30
ATOM     30  C   UNL A   1      34.162  33.858  28.975  1.00  0.00     0.039 A 
ATOM     31  C   UNL A   1      35.430  34.400  28.750  1.00  0.00     0.014 A 
ATOM     32  C   UNL A   1      34.027  32.755  29.817  1.00  0.00     0.014 A 
ATOM     33  C   UNL A   1      36.541  33.859  29.401  1.00  0.00     0.010 A 
ATOM     34  C   UNL A   1      35.096  32.327  30.587  1.00  0.00     0.010 A 
ATOM     35  C   UNL A   1      36.377  32.836  30.348  1.00  0.00    -0.014 A 
BRANCH  35  36
ATOM     36  C   UNL A   1      37.531  32.219  31.043  1.00  0.00     0.031 A 
ATOM     37  C   UNL A   1      38.345  31.160  30.343  1.00  0.00     0.074 A 
ATOM     38  C   UNL A   1      37.806  32.564  32.314  1.00  0.00     0.049 A 
ATOM     39  N   UNL A   1      39.346  30.448  30.796  1.00  0.00    -0.248 NA
ATOM     40  C   UNL A   1      37.954  30.821  28.964  1.00  0.00     0.031 C 
ATOM     41  C   UNL A   1      37.047  33.525  33.117  1.00  0.00     0.029 A 
ATOM     42  N   UNL A   1      38.801  32.139  33.157  1.00  0.00    -0.354 N 
ATOM     43  C   UNL A   1      39.677  29.570  29.771  1.00  0.00     0.074 A 
ATOM     44  C   UNL A   1      38.723  29.777  28.707  1.00  0.00     0.031 C 
ATOM     45  C   UNL A   1      37.629  33.649  34.320  1.00  0.00     0.029 A 
ATOM     46  C   UNL A   1      38.774  32.747  34.387  1.00  0.00     0.049 A 
ATOM     47  H   UNL A   1      39.469  31.463  32.904  1.00  0.00     0.167 HD
ATOM     48  C   UNL A   1      40.711  28.698  29.704  1.00  0.00     0.037 A 
ATOM     49  C   UNL A   1      39.589  32.592  35.447  1.00  0.00     0.037 A 
ATOM     50  C   UNL A   1      41.682  28.530  30.750  1.00  0.00     0.049 A 
ATOM     51  C   UNL A   1      40.744  31.635  35.339  1.00  0.00     0.074 A 
ATOM     52  C   UNL A   1      42.805  27.723  30.768  1.00  0.00     0.029 A 
ATOM     53  N   UNL A   1      41.644  29.190  31.971  1.00  0.00    -0.354 N 
ATOM     54  N   UNL A   1      41.094  30.864  34.337  1.00  0.00    -0.248 NA
ATOM     55  C   UNL A   1      41.629  31.539  36.506  1.00  0.00     0.031 C 
ATOM     56  C   UNL A   1      43.418  27.857  32.018  1.00  0.00     0.029 A 
ATOM     57  C   UNL A   1      42.715  28.795  32.755  1.00  0.00     0.049 A 
ATOM     58  H   UNL A   1      40.957  29.842  32.239  1.00  0.00     0.167 HD
ATOM     59  C   UNL A   1      42.255  30.218  34.739  1.00  0.00     0.074 A 
ATOM     60  C   UNL A   1      42.562  30.708  36.067  1.00  0.00     0.031 C 
ATOM     61  C   UNL A   1      43.002  29.301  34.073  1.00  0.00     0.037 A 
BRANCH  48  62
ATOM     62  C   UNL A   1      40.846  27.874  28.453  1.00  0.00     0.064 A 
ATOM     63  C   UNL A   1      41.601  28.315  27.355  1.00  0.00     0.173 A 
ATOM     64  C   UNL A   1      40.224  26.621  28.354  1.00  0.00     0.173 A 
ATOM     65  F   UNL A   1      42.205  29.514  27.387  1.00  0.00    -0.203 F 
ATOM     66  C   UNL A   1      41.698  27.552  26.194  1.00  0.00     0.198 A 
ATOM     67  C   UNL A   1      40.353  25.843  27.206  1.00  0.00     0.198 A 
ATOM     68  F   UNL A   1      39.490  26.148  29.373  1.00  0.00    -0.203 F 
ATOM     69  F   UNL A   1      42.371  28.026  25.136  1.00  0.00    -0.200 F 
ATOM     70  C   UNL A   1      41.080  26.313  26.124  1.00  0.00     0.200 A 
ATOM     71  F   UNL A   1      39.766  24.640  27.146  1.00  0.00    -0.200 F 
ATOM     72  F   UNL A   1      41.177  25.576  25.009  1.00  0.00    -0.200 F 
ENDBRANCH  48  62
BRANCH  49  73
ATOM     73  C   UNL A   1      39.369  33.393  36.680  1.00  0.00     0.064 A 
ATOM     74  C   UNL A   1      38.581  32.895  37.728  1.00  0.00     0.173 A 
ATOM     75  C   UNL A   1      39.928  34.668  36.836  1.00  0.00     0.173 A 
ATOM     76  F   UNL A   1      38.013  31.684  37.622  1.00  0.00    -0.203 F 
ATOM     77  C   UNL A   1      38.335  33.656  38.869  1.00  0.00     0.198 A 
ATOM     78  C   UNL A   1      39.709  35.415  37.991  1.00  0.00     0.198 A 
ATOM     79  F   UNL A   1      40.701  35.185  35.868  1.00  0.00    -0.203 F 
ATOM     80  F   UNL A   1      37.533  33.178  39.831  1.00  0.00    -0.200 F 
ATOM     81  C   UNL A   1      38.903  34.914  39.002  1.00  0.00     0.200 A 
ATOM     82  F   UNL A   1      40.276  36.622  38.124  1.00  0.00    -0.200 F 
ATOM     83  F   UNL A   1      38.668  35.644  40.100  1.00  0.00    -0.200 F 
ENDBRANCH  49  73
BRANCH  61  84
ATOM     84  C   UNL A   1      44.246  28.809  34.758  1.00  0.00     0.064 A 
ATOM     85  C   UNL A   1      44.243  27.662  35.566  1.00  0.00     0.173 A 
ATOM     86  C   UNL A   1      45.460  29.495  34.597  1.00  0.00     0.173 A 
ATOM     87  F   UNL A   1      43.106  26.976  35.761  1.00  0.00    -0.203 F 
ATOM     88  C   UNL A   1      45.397  27.248  36.225  1.00  0.00     0.198 A 
ATOM     89  C   UNL A   1      46.621  29.056  35.226  1.00  0.00     0.198 A 
ATOM     90  F   UNL A   1      45.521  30.592  33.826  1.00  0.00    -0.203 F 
ATOM     91  F   UNL A   1      45.353  26.193  37.050  1.00  0.00    -0.200 F 
ATOM     92  C   UNL A   1      46.585  27.942  36.050  1.00  0.00     0.200 A 
ATOM     93  F   UNL A   1      47.772  29.716  35.041  1.00  0.00    -0.200 F 
ATOM     94  F   UNL A   1      47.695  27.543  36.688  1.00  0.00    -0.200 F 
ENDBRANCH  61  84
ENDBRANCH  35  36
ENDBRANCH  27  30
ENDBRANCH  25  26
ENDBRANCH  24  25
ENDBRANCH   1  24
TORSDOF 14
ENDMDL
MODEL 3
REMARK VINA RESULT:     -12.2      4.456      7.780
REMARK SMILES C[C@H](Oc1ccccc1Cl)C(=O)N1CCCC[C@H]1C(=O)NCCCNC(=O)c1ccc(-c2c3nc(c(-c4c(F)c(F)c(F)c(F)c4F)c4ccc([nH]4)c(-c4c(F)c(F)c(F)c(F)c4F)c4nc(c(-c5c(F)c(F)c(F)c(F)c5F)c5ccc2[nH]5)C=C4)C=C3)cc1
REMARK SMILES IDX 22 1 21 2 19 3 20 4 18 6 13 7 14 8 15 9 17 10 16 11 11 12
REMARK SMILES IDX 12 13 2 14 1 15 3 16 4 17 5 18 9 19 6 20 8 21 10 22 7 23
REMARK SMILES IDX 23 24 24 25 25 26 26 27 27 29 28 30 29 31 90 32 30 33 89 34
REMARK SMILES IDX 31 35 32 36 33 37 83 38 34 39 88 40 82 41 84 42 35 43 87 44
REMARK SMILES IDX 81 45 80 46 36 48 68 49 48 50 67 51 49 52 52 53 66 54 85 55
REMARK SMILES IDX 50 56 51 57 65 59 86 60 53 61 37 62 38 63 46 64 39 65 40 66
REMARK SMILES IDX 44 67 47 68 41 69 42 70 45 71 43 72 69 73 70 74 78 75 71 76
REMARK SMILES IDX 72 77 76 78 79 79 73 80 74 81 77 82 75 83 54 84 55 85 63 86
REMARK SMILES IDX 56 87 57 88 61 89 64 90 58 91 59 92 62 93 60 94
REMARK H PARENT 21 5 25 28 84 47 52 58
REMARK Flexibility Score: inf
ROOT
ATOM      1  C   UNL A   1      32.920  34.573  28.275  1.00  0.00     0.117 C 
ENDROOT
BRANCH   1   2
ATOM      2  N   UNL A   1      32.972  35.918  28.763  1.00  0.00    -0.354 N 
ATOM      3  C   UNL A   1      32.916  36.322  30.064  1.00  0.00     0.242 C 
ATOM      4  O   UNL A   1      32.903  37.540  30.249  1.00  0.00    -0.273 OA
ATOM      5  H   UNL A   1      33.058  36.628  28.086  1.00  0.00     0.163 HD
BRANCH   3   6
ATOM      6  C   UNL A   1      32.928  35.266  31.221  1.00  0.00     0.174 C 
ATOM      7  N   UNL A   1      34.265  35.088  31.842  1.00  0.00    -0.327 N 
ATOM      8  C   UNL A   1      34.778  36.287  32.501  1.00  0.00     0.120 C 
ATOM      9  C   UNL A   1      33.847  36.763  33.609  1.00  0.00     0.022 C 
ATOM     10  C   UNL A   1      31.933  35.701  32.323  1.00  0.00     0.035 C 
ATOM     11  C   UNL A   1      32.410  36.923  33.121  1.00  0.00     0.004 C 
BRANCH   7  12
ATOM     12  C   UNL A   1      34.782  33.852  32.269  1.00  0.00     0.264 C 
ATOM     13  O   UNL A   1      34.027  32.927  32.593  1.00  0.00    -0.271 OA
BRANCH  12  14
ATOM     14  C   UNL A   1      36.298  33.745  32.629  1.00  0.00     0.259 C 
ATOM     15  C   UNL A   1      37.032  33.711  31.273  1.00  0.00     0.064 C 
BRANCH  14  16
ATOM     16  O   UNL A   1      36.514  32.694  33.566  1.00  0.00    -0.479 OA
BRANCH  16  17
ATOM     17  C   UNL A   1      37.429  31.686  33.424  1.00  0.00     0.139 A 
ATOM     18  C   UNL A   1      37.184  30.428  32.872  1.00  0.00     0.048 A 
ATOM     19  C   UNL A   1      38.689  31.911  34.015  1.00  0.00     0.083 A 
ATOM     20  C   UNL A   1      38.094  29.376  33.064  1.00  0.00     0.004 A 
ATOM     21  C   UNL A   1      39.618  30.874  34.163  1.00  0.00     0.024 A 
ATOM     22  Cl  UNL A   1      39.115  33.464  34.650  1.00  0.00    -0.080 Cl
ATOM     23  C   UNL A   1      39.300  29.592  33.727  1.00  0.00     0.002 A 
ENDBRANCH  16  17
ENDBRANCH  14  16
ENDBRANCH  12  14
ENDBRANCH   7  12
ENDBRANCH   3   6
ENDBRANCH   1   2
BRANCH   1  24
ATOM     24  C   UNL A   1      34.290  33.963  28.101  1.00  0.00     0.042 C 
BRANCH  24  25
ATOM     25  C   UNL A   1      34.466  32.692  28.898  1.00  0.00     0.118 C 
BRANCH  25  26
ATOM     26  N   UNL A   1      33.871  31.538  28.226  1.00  0.00    -0.352 N 
ATOM     27  C   UNL A   1      34.428  30.385  27.736  1.00  0.00     0.251 C 
ATOM     28  H   UNL A   1      32.896  31.601  28.103  1.00  0.00     0.163 HD
ATOM     29  O   UNL A   1      33.765  29.674  26.987  1.00  0.00    -0.269 OA
BRANCH  27  30
ATOM     30  C   UNL A   1      35.808  29.994  28.094  1.00  0.00     0.039 A 
ATOM     31  C   UNL A   1      36.043  29.377  29.326  1.00  0.00     0.014 A 
ATOM     32  C   UNL A   1      36.883  30.272  27.251  1.00  0.00     0.014 A 
ATOM     33  C   UNL A   1      37.343  29.010  29.681  1.00  0.00     0.010 A 
ATOM     34  C   UNL A   1      38.140  29.761  27.527  1.00  0.00     0.010 A 
ATOM     35  C   UNL A   1      38.397  29.173  28.769  1.00  0.00    -0.014 A 
BRANCH  35  36
ATOM     36  C   UNL A   1      39.795  28.819  29.114  1.00  0.00     0.031 A 
ATOM     37  C   UNL A   1      40.623  29.770  29.941  1.00  0.00     0.074 A 
ATOM     38  C   UNL A   1      40.331  27.681  28.637  1.00  0.00     0.049 A 
ATOM     39  N   UNL A   1      41.881  29.683  30.293  1.00  0.00    -0.248 NA
ATOM     40  C   UNL A   1      39.966  31.007  30.394  1.00  0.00     0.031 C 
ATOM     41  C   UNL A   1      39.648  26.718  27.772  1.00  0.00     0.029 A 
ATOM     42  N   UNL A   1      41.581  27.144  28.811  1.00  0.00    -0.354 N 
ATOM     43  C   UNL A   1      42.162  30.858  30.979  1.00  0.00     0.074 A 
ATOM     44  C   UNL A   1      40.975  31.679  30.923  1.00  0.00     0.031 C 
ATOM     45  C   UNL A   1      40.472  25.687  27.526  1.00  0.00     0.029 A 
ATOM     46  C   UNL A   1      41.751  25.937  28.181  1.00  0.00     0.049 A 
ATOM     47  H   UNL A   1      42.287  27.582  29.338  1.00  0.00     0.167 HD
ATOM     48  C   UNL A   1      43.294  31.207  31.635  1.00  0.00     0.037 A 
ATOM     49  C   UNL A   1      42.824  25.125  28.143  1.00  0.00     0.037 A 
ATOM     50  C   UNL A   1      44.456  30.365  31.723  1.00  0.00     0.049 A 
ATOM     51  C   UNL A   1      44.062  25.523  28.899  1.00  0.00     0.074 A 
ATOM     52  C   UNL A   1      45.635  30.587  32.410  1.00  0.00     0.029 A 
ATOM     53  N   UNL A   1      44.581  29.131  31.100  1.00  0.00    -0.354 N 
ATOM     54  N   UNL A   1      44.291  26.603  29.608  1.00  0.00    -0.248 NA
ATOM     55  C   UNL A   1      45.185  24.580  28.863  1.00  0.00     0.031 C 
ATOM     56  C   UNL A   1      46.493  29.510  32.163  1.00  0.00     0.029 A 
ATOM     57  C   UNL A   1      45.825  28.587  31.375  1.00  0.00     0.049 A 
ATOM     58  H   UNL A   1      43.888  28.706  30.546  1.00  0.00     0.167 HD
ATOM     59  C   UNL A   1      45.570  26.453  30.129  1.00  0.00     0.074 A 
ATOM     60  C   UNL A   1      46.054  25.167  29.672  1.00  0.00     0.031 C 
ATOM     61  C   UNL A   1      46.282  27.301  30.913  1.00  0.00     0.037 A 
BRANCH  48  62
ATOM     62  C   UNL A   1      43.319  32.547  32.317  1.00  0.00     0.064 A 
ATOM     63  C   UNL A   1      43.632  33.726  31.621  1.00  0.00     0.173 A 
ATOM     64  C   UNL A   1      43.012  32.659  33.681  1.00  0.00     0.173 A 
ATOM     65  F   UNL A   1      43.950  33.677  30.317  1.00  0.00    -0.203 F 
ATOM     66  C   UNL A   1      43.673  34.956  32.271  1.00  0.00     0.198 A 
ATOM     67  C   UNL A   1      43.017  33.896  34.320  1.00  0.00     0.198 A 
ATOM     68  F   UNL A   1      42.704  31.566  34.397  1.00  0.00    -0.203 F 
ATOM     69  F   UNL A   1      44.039  36.057  31.598  1.00  0.00    -0.200 F 
ATOM     70  C   UNL A   1      43.358  35.042  33.618  1.00  0.00     0.200 A 
ATOM     71  F   UNL A   1      42.699  33.978  35.620  1.00  0.00    -0.200 F 
ATOM     72  F   UNL A   1      43.392  36.227  34.243  1.00  0.00    -0.200 F 
ENDBRANCH  48  62
BRANCH  49  73
ATOM     73  C   UNL A   1      42.759  23.838  27.401  1.00  0.00     0.064 A 
ATOM     74  C   UNL A   1      42.304  22.669  28.029  1.00  0.00     0.173 A 
ATOM     75  C   UNL A   1      43.154  23.744  26.060  1.00  0.00     0.173 A 
ATOM     76  F   UNL A   1      41.926  22.704  29.316  1.00  0.00    -0.203 F 
ATOM     77  C   UNL A   1      42.279  21.451  27.355  1.00  0.00     0.198 A 
ATOM     78  C   UNL A   1      43.098  22.533  25.376  1.00  0.00     0.198 A 
ATOM     79  F   UNL A   1      43.585  24.836  25.409  1.00  0.00    -0.203 F 
ATOM     80  F   UNL A   1      41.893  20.340  27.996  1.00  0.00    -0.200 F 
ATOM     81  C   UNL A   1      42.672  21.384  26.026  1.00  0.00     0.200 A 
ATOM     82  F   UNL A   1      43.459  22.476  24.086  1.00  0.00    -0.200 F 
ATOM     83  F   UNL A   1      42.646  20.213  25.376  1.00  0.00    -0.200 F 
ENDBRANCH  49  73
BRANCH  61  84
ATOM     84  C   UNL A   1      47.640  26.838  31.360  1.00  0.00     0.064 A 
ATOM     85  C   UNL A   1      48.808  27.185  30.665  1.00  0.00     0.173 A 
ATOM     86  C   UNL A   1      47.772  26.038  32.505  1.00  0.00     0.173 A 
ATOM     87  F   UNL A   1      48.736  27.939  29.556  1.00  0.00    -0.203 F 
ATOM     88  C   UNL A   1      50.051  26.709  31.072  1.00  0.00     0.198 A 
ATOM     89  C   UNL A   1      49.020  25.597  32.933  1.00  0.00     0.198 A 
ATOM     90  F   UNL A   1      46.688  25.687  33.214  1.00  0.00    -0.203 F 
ATOM     91  F   UNL A   1      51.144  26.993  30.350  1.00  0.00    -0.200 F 
ATOM     92  C   UNL A   1      50.157  25.921  32.208  1.00  0.00     0.200 A 
ATOM     93  F   UNL A   1      49.122  24.851  34.041  1.00  0.00    -0.200 F 
ATOM     94  F   UNL A   1      51.355  25.461  32.597  1.00  0.00    -0.200 F 
ENDBRANCH  61  84
ENDBRANCH  35  36
ENDBRANCH  27  30
ENDBRANCH  25  26
ENDBRANCH  24  25
ENDBRANCH   1  24
TORSDOF 14
ENDMDL
