MODEL 1
REMARK VINA RESULT:     -13.9      0.000      0.000
REMARK SMILES Cc1ccc(C)c(-n2nc(C)c(/C=C(/C#N)C(=O)NCCCNC(=O)c3ccc(-c4c5nc(c(-c6c(F)c(F)c(F)c(F)c6F)c6ccc([nH]6)c(-c6c(F)c(F)c(F)c(F)c6F)c6nc(c(-c7c(F)c(F)c(F)c(F)c7F)c7ccc4[nH]7)C=C6)C=C5)cc3)c2Cl)c1
REMARK SMILES IDX 21 1 20 2 19 3 17 4 18 5 14 7 13 8 12 9 8 10 9 11 89 12
REMARK SMILES IDX 10 13 90 14 11 15 7 16 1 17 2 18 3 19 91 20 4 21 5 22 6 23
REMARK SMILES IDX 15 24 16 25 22 26 23 27 24 28 25 30 26 31 27 32 88 33 28 34
REMARK SMILES IDX 87 35 29 36 30 37 31 38 81 39 32 40 86 41 80 42 82 43 33 44
REMARK SMILES IDX 85 45 79 46 78 47 34 49 66 50 46 51 65 52 47 53 50 54 64 55
REMARK SMILES IDX 83 56 48 57 49 58 63 60 84 61 51 62 35 63 36 64 44 65 37 66
REMARK SMILES IDX 38 67 42 68 45 69 39 70 40 71 43 72 41 73 67 74 68 75 76 76
REMARK SMILES IDX 69 77 70 78 74 79 77 80 71 81 72 82 75 83 73 84 52 85 53 86
REMARK SMILES IDX 61 87 54 88 55 89 59 90 62 91 56 92 57 93 60 94 58 95
REMARK H PARENT 19 6 23 29 82 48 50 59
REMARK Flexibility Score: inf
ROOT
ATOM      1  C   UNL A   1      32.464  28.973  26.934  1.00  0.00     0.042 C 
ENDROOT
BRANCH   1   2
ATOM      2  C   UNL A   1      31.894  29.739  25.716  1.00  0.00     0.118 C 
BRANCH   2   3
ATOM      3  N   UNL A   1      32.740  29.620  24.511  1.00  0.00    -0.351 N 
ATOM      4  C   UNL A   1      32.620  28.935  23.326  1.00  0.00     0.261 C 
ATOM      5  O   UNL A   1      33.612  28.891  22.602  1.00  0.00    -0.268 OA
ATOM      6  H   UNL A   1      33.571  30.147  24.570  1.00  0.00     0.163 HD
BRANCH   4   7
ATOM      7  C   UNL A   1      31.355  28.219  22.948  1.00  0.00     0.117 C 
ATOM      8  C   UNL A   1      30.990  26.987  23.333  1.00  0.00     0.038 C 
BRANCH   8   9
ATOM      9  C   UNL A   1      31.667  26.025  24.168  1.00  0.00     0.036 A 
ATOM     10  N   UNL A   1      33.174  24.474  24.749  1.00  0.00    -0.221 N 
ATOM     11  N   UNL A   1      32.301  24.513  25.783  1.00  0.00    -0.171 NA
ATOM     12  C   UNL A   1      32.828  25.387  23.779  1.00  0.00     0.140 A 
ATOM     13  C   UNL A   1      31.432  25.488  25.474  1.00  0.00     0.069 A 
ATOM     14  Cl  UNL A   1      33.707  25.482  22.311  1.00  0.00    -0.061 Cl
ATOM     15  C   UNL A   1      30.430  25.820  26.520  1.00  0.00     0.069 C 
BRANCH  10  16
ATOM     16  C   UNL A   1      34.338  23.672  24.855  1.00  0.00     0.069 A 
ATOM     17  C   UNL A   1      37.895  24.131  26.157  1.00  0.00     0.044 C 
ATOM     18  C   UNL A   1      36.663  23.514  25.563  1.00  0.00    -0.049 A 
ATOM     19  C   UNL A   1      36.667  22.170  25.184  1.00  0.00     0.004 A 
ATOM     20  C   UNL A   1      35.498  24.265  25.385  1.00  0.00     0.032 A 
ATOM     21  C   UNL A   1      35.515  21.577  24.658  1.00  0.00     0.006 A 
ATOM     22  C   UNL A   1      34.327  22.312  24.494  1.00  0.00    -0.025 A 
ATOM     23  C   UNL A   1      33.159  21.598  23.873  1.00  0.00     0.047 C 
ENDBRANCH  10  16
ENDBRANCH   8   9
BRANCH   7  24
ATOM     24  C   UNL A   1      30.456  29.178  22.182  1.00  0.00     0.105 C 
ATOM     25  N   UNL A   1      29.711  29.973  21.547  1.00  0.00    -0.192 NA
ENDBRANCH   7  24
ENDBRANCH   4   7
ENDBRANCH   2   3
ENDBRANCH   1   2
BRANCH   1  26
ATOM     26  C   UNL A   1      33.769  29.465  27.570  1.00  0.00     0.118 C 
BRANCH  26  27
ATOM     27  N   UNL A   1      34.007  30.899  27.360  1.00  0.00    -0.352 N 
ATOM     28  C   UNL A   1      35.021  31.779  27.719  1.00  0.00     0.251 C 
ATOM     29  H   UNL A   1      33.286  31.335  26.851  1.00  0.00     0.163 HD
ATOM     30  O   UNL A   1      34.840  32.976  27.613  1.00  0.00    -0.269 OA
BRANCH  28  31
ATOM     31  C   UNL A   1      36.321  31.282  28.230  1.00  0.00     0.039 A 
ATOM     32  C   UNL A   1      37.044  31.899  29.257  1.00  0.00     0.014 A 
ATOM     33  C   UNL A   1      36.849  30.149  27.664  1.00  0.00     0.014 A 
ATOM     34  C   UNL A   1      38.303  31.380  29.589  1.00  0.00     0.010 A 
ATOM     35  C   UNL A   1      37.756  29.415  28.346  1.00  0.00     0.010 A 
ATOM     36  C   UNL A   1      38.669  30.140  29.061  1.00  0.00    -0.014 A 
BRANCH  36  37
ATOM     37  C   UNL A   1      39.956  29.491  29.226  1.00  0.00     0.031 A 
ATOM     38  C   UNL A   1      40.296  29.180  30.623  1.00  0.00     0.074 A 
ATOM     39  C   UNL A   1      40.604  28.862  28.216  1.00  0.00     0.049 A 
ATOM     40  N   UNL A   1      41.209  29.727  31.348  1.00  0.00    -0.248 NA
ATOM     41  C   UNL A   1      39.426  28.240  31.346  1.00  0.00     0.031 C 
ATOM     42  C   UNL A   1      40.176  28.649  26.826  1.00  0.00     0.029 A 
ATOM     43  N   UNL A   1      41.765  28.154  28.277  1.00  0.00    -0.354 N 
ATOM     44  C   UNL A   1      41.150  29.071  32.570  1.00  0.00     0.074 A 
ATOM     45  C   UNL A   1      39.903  28.353  32.585  1.00  0.00     0.031 C 
ATOM     46  C   UNL A   1      40.958  27.702  26.256  1.00  0.00     0.029 A 
ATOM     47  C   UNL A   1      42.010  27.333  27.186  1.00  0.00     0.049 A 
ATOM     48  H   UNL A   1      42.385  28.221  29.039  1.00  0.00     0.167 HD
ATOM     49  C   UNL A   1      42.249  28.955  33.362  1.00  0.00     0.037 A 
ATOM     50  C   UNL A   1      42.972  26.377  27.102  1.00  0.00     0.037 A 
ATOM     51  C   UNL A   1      43.312  29.824  32.916  1.00  0.00     0.049 A 
ATOM     52  C   UNL A   1      43.965  26.658  28.178  1.00  0.00     0.074 A 
ATOM     53  C   UNL A   1      43.400  31.182  32.659  1.00  0.00     0.029 A 
ATOM     54  N   UNL A   1      44.381  29.263  32.256  1.00  0.00    -0.354 N 
ATOM     55  N   UNL A   1      44.762  27.692  28.190  1.00  0.00    -0.248 NA
ATOM     56  C   UNL A   1      43.744  26.032  29.475  1.00  0.00     0.031 C 
ATOM     57  C   UNL A   1      44.168  31.279  31.460  1.00  0.00     0.029 A 
ATOM     58  C   UNL A   1      44.561  29.989  31.105  1.00  0.00     0.049 A 
ATOM     59  H   UNL A   1      44.914  28.490  32.552  1.00  0.00     0.167 HD
ATOM     60  C   UNL A   1      44.792  28.102  29.515  1.00  0.00     0.074 A 
ATOM     61  C   UNL A   1      44.223  26.990  30.272  1.00  0.00     0.031 C 
ATOM     62  C   UNL A   1      44.991  29.412  29.852  1.00  0.00     0.037 A 
BRANCH  49  63
ATOM     63  C   UNL A   1      42.487  27.816  34.317  1.00  0.00     0.064 A 
ATOM     64  C   UNL A   1      43.099  26.643  33.836  1.00  0.00     0.173 A 
ATOM     65  C   UNL A   1      41.918  27.721  35.606  1.00  0.00     0.173 A 
ATOM     66  F   UNL A   1      43.646  26.613  32.611  1.00  0.00    -0.203 F 
ATOM     67  C   UNL A   1      43.086  25.453  34.565  1.00  0.00     0.198 A 
ATOM     68  C   UNL A   1      41.966  26.549  36.359  1.00  0.00     0.198 A 
ATOM     69  F   UNL A   1      41.192  28.709  36.143  1.00  0.00    -0.203 F 
ATOM     70  F   UNL A   1      43.567  24.332  34.012  1.00  0.00    -0.200 F 
ATOM     71  C   UNL A   1      42.521  25.407  35.826  1.00  0.00     0.200 A 
ATOM     72  F   UNL A   1      41.396  26.523  37.571  1.00  0.00    -0.200 F 
ATOM     73  F   UNL A   1      42.461  24.254  36.505  1.00  0.00    -0.200 F 
ENDBRANCH  49  63
BRANCH  50  74
ATOM     74  C   UNL A   1      42.949  25.094  26.352  1.00  0.00     0.064 A 
ATOM     75  C   UNL A   1      43.866  24.842  25.318  1.00  0.00     0.173 A 
ATOM     76  C   UNL A   1      42.203  23.985  26.802  1.00  0.00     0.173 A 
ATOM     77  F   UNL A   1      44.657  25.826  24.862  1.00  0.00    -0.203 F 
ATOM     78  C   UNL A   1      44.042  23.560  24.783  1.00  0.00     0.198 A 
ATOM     79  C   UNL A   1      42.371  22.709  26.260  1.00  0.00     0.198 A 
ATOM     80  F   UNL A   1      41.371  24.094  27.846  1.00  0.00    -0.203 F 
ATOM     81  F   UNL A   1      44.977  23.348  23.846  1.00  0.00    -0.200 F 
ATOM     82  C   UNL A   1      43.298  22.493  25.259  1.00  0.00     0.200 A 
ATOM     83  F   UNL A   1      41.681  21.676  26.763  1.00  0.00    -0.200 F 
ATOM     84  F   UNL A   1      43.507  21.255  24.791  1.00  0.00    -0.200 F 
ENDBRANCH  50  74
BRANCH  62  85
ATOM     85  C   UNL A   1      45.438  30.370  28.782  1.00  0.00     0.064 A 
ATOM     86  C   UNL A   1      44.563  31.050  27.915  1.00  0.00     0.173 A 
ATOM     87  C   UNL A   1      46.791  30.736  28.738  1.00  0.00     0.173 A 
ATOM     88  F   UNL A   1      43.242  30.850  27.968  1.00  0.00    -0.203 F 
ATOM     89  C   UNL A   1      45.030  32.008  27.017  1.00  0.00     0.198 A 
ATOM     90  C   UNL A   1      47.249  31.722  27.868  1.00  0.00     0.198 A 
ATOM     91  F   UNL A   1      47.669  30.167  29.581  1.00  0.00    -0.203 F 
ATOM     92  F   UNL A   1      44.173  32.630  26.193  1.00  0.00    -0.200 F 
ATOM     93  C   UNL A   1      46.372  32.349  26.999  1.00  0.00     0.200 A 
ATOM     94  F   UNL A   1      48.539  32.087  27.893  1.00  0.00    -0.200 F 
ATOM     95  F   UNL A   1      46.813  33.303  26.166  1.00  0.00    -0.200 F 
ENDBRANCH  62  85
ENDBRANCH  36  37
ENDBRANCH  28  31
ENDBRANCH  26  27
ENDBRANCH   1  26
TORSDOF 13
ENDMDL
MODEL 2
REMARK VINA RESULT:     -13.8      3.205      8.674
REMARK SMILES Cc1ccc(C)c(-n2nc(C)c(/C=C(/C#N)C(=O)NCCCNC(=O)c3ccc(-c4c5nc(c(-c6c(F)c(F)c(F)c(F)c6F)c6ccc([nH]6)c(-c6c(F)c(F)c(F)c(F)c6F)c6nc(c(-c7c(F)c(F)c(F)c(F)c7F)c7ccc4[nH]7)C=C6)C=C5)cc3)c2Cl)c1
REMARK SMILES IDX 21 1 20 2 19 3 17 4 18 5 14 7 13 8 12 9 8 10 9 11 89 12
REMARK SMILES IDX 10 13 90 14 11 15 7 16 1 17 2 18 3 19 91 20 4 21 5 22 6 23
REMARK SMILES IDX 15 24 16 25 22 26 23 27 24 28 25 30 26 31 27 32 88 33 28 34
REMARK SMILES IDX 87 35 29 36 30 37 31 38 81 39 32 40 86 41 80 42 82 43 33 44
REMARK SMILES IDX 85 45 79 46 78 47 34 49 66 50 46 51 65 52 47 53 50 54 64 55
REMARK SMILES IDX 83 56 48 57 49 58 63 60 84 61 51 62 35 63 36 64 44 65 37 66
REMARK SMILES IDX 38 67 42 68 45 69 39 70 40 71 43 72 41 73 67 74 68 75 76 76
REMARK SMILES IDX 69 77 70 78 74 79 77 80 71 81 72 82 75 83 73 84 52 85 53 86
REMARK SMILES IDX 61 87 54 88 55 89 59 90 62 91 56 92 57 93 60 94 58 95
REMARK H PARENT 19 6 23 29 82 48 50 59
REMARK Flexibility Score: inf
ROOT
ATOM      1  C   UNL A   1      37.777  21.493  24.875  1.00  0.00     0.042 C 
ENDROOT
BRANCH   1   2
ATOM      2  C   UNL A   1      36.255  21.766  24.838  1.00  0.00     0.118 C 
BRANCH   2   3
ATOM      3  N   UNL A   1      35.615  21.649  26.165  1.00  0.00    -0.351 N 
ATOM      4  C   UNL A   1      34.331  21.400  26.585  1.00  0.00     0.261 C 
ATOM      5  O   UNL A   1      34.090  21.570  27.779  1.00  0.00    -0.268 OA
ATOM      6  H   UNL A   1      36.247  21.777  26.910  1.00  0.00     0.163 HD
BRANCH   4   7
ATOM      7  C   UNL A   1      33.247  20.994  25.629  1.00  0.00     0.117 C 
ATOM      8  C   UNL A   1      32.169  21.719  25.290  1.00  0.00     0.038 C 
BRANCH   8   9
ATOM      9  C   UNL A   1      31.741  23.026  25.725  1.00  0.00     0.036 A 
ATOM     10  N   UNL A   1      31.782  25.252  25.969  1.00  0.00    -0.221 N 
ATOM     11  N   UNL A   1      30.770  24.834  26.765  1.00  0.00    -0.171 NA
ATOM     12  C   UNL A   1      32.365  24.188  25.318  1.00  0.00     0.140 A 
ATOM     13  C   UNL A   1      30.694  23.508  26.573  1.00  0.00     0.069 A 
ATOM     14  Cl  UNL A   1      33.738  24.418  24.318  1.00  0.00    -0.061 Cl
ATOM     15  C   UNL A   1      29.566  22.818  27.250  1.00  0.00     0.069 C 
BRANCH  10  16
ATOM     16  C   UNL A   1      31.999  26.641  25.795  1.00  0.00     0.069 A 
ATOM     17  C   UNL A   1      34.448  29.240  27.138  1.00  0.00     0.044 C 
ATOM     18  C   UNL A   1      33.328  28.599  26.373  1.00  0.00    -0.049 A 
ATOM     19  C   UNL A   1      32.570  29.354  25.476  1.00  0.00     0.004 A 
ATOM     20  C   UNL A   1      33.031  27.243  26.537  1.00  0.00     0.032 A 
ATOM     21  C   UNL A   1      31.545  28.759  24.735  1.00  0.00     0.006 A 
ATOM     22  C   UNL A   1      31.247  27.391  24.871  1.00  0.00    -0.025 A 
ATOM     23  C   UNL A   1      30.093  26.857  24.069  1.00  0.00     0.047 C 
ENDBRANCH  10  16
ENDBRANCH   8   9
BRANCH   7  24
ATOM     24  C   UNL A   1      33.642  19.685  24.963  1.00  0.00     0.105 C 
ATOM     25  N   UNL A   1      33.970  18.600  24.411  1.00  0.00    -0.192 NA
ENDBRANCH   7  24
ENDBRANCH   4   7
ENDBRANCH   2   3
ENDBRANCH   1   2
BRANCH   1  26
ATOM     26  C   UNL A   1      38.572  21.913  26.116  1.00  0.00     0.118 C 
BRANCH  26  27
ATOM     27  N   UNL A   1      40.025  21.820  25.929  1.00  0.00    -0.352 N 
ATOM     28  C   UNL A   1      41.081  22.715  26.059  1.00  0.00     0.251 C 
ATOM     29  H   UNL A   1      40.317  20.923  25.649  1.00  0.00     0.163 HD
ATOM     30  O   UNL A   1      42.171  22.423  25.606  1.00  0.00    -0.269 OA
BRANCH  28  31
ATOM     31  C   UNL A   1      40.902  24.019  26.740  1.00  0.00     0.039 A 
ATOM     32  C   UNL A   1      39.841  24.895  26.483  1.00  0.00     0.014 A 
ATOM     33  C   UNL A   1      41.830  24.392  27.680  1.00  0.00     0.014 A 
ATOM     34  C   UNL A   1      39.833  26.137  27.131  1.00  0.00     0.010 A 
ATOM     35  C   UNL A   1      41.506  25.307  28.620  1.00  0.00     0.010 A 
ATOM     36  C   UNL A   1      40.734  26.346  28.177  1.00  0.00    -0.014 A 
BRANCH  36  37
ATOM     37  C   UNL A   1      40.926  27.588  28.902  1.00  0.00     0.031 A 
ATOM     38  C   UNL A   1      41.975  28.454  28.341  1.00  0.00     0.074 A 
ATOM     39  C   UNL A   1      40.000  28.106  29.743  1.00  0.00     0.049 A 
ATOM     40  N   UNL A   1      43.121  28.731  28.857  1.00  0.00    -0.248 NA
ATOM     41  C   UNL A   1      41.781  28.967  26.976  1.00  0.00     0.031 C 
ATOM     42  C   UNL A   1      38.654  27.610  30.064  1.00  0.00     0.029 A 
ATOM     43  N   UNL A   1      40.039  29.295  30.405  1.00  0.00    -0.354 N 
ATOM     44  C   UNL A   1      43.725  29.604  27.963  1.00  0.00     0.074 A 
ATOM     45  C   UNL A   1      42.970  29.520  26.741  1.00  0.00     0.031 C 
ATOM     46  C   UNL A   1      37.950  28.589  30.681  1.00  0.00     0.029 A 
ATOM     47  C   UNL A   1      38.821  29.728  30.909  1.00  0.00     0.049 A 
ATOM     48  H   UNL A   1      40.871  29.810  30.517  1.00  0.00     0.167 HD
ATOM     49  C   UNL A   1      44.636  30.524  28.380  1.00  0.00     0.037 A 
ATOM     50  C   UNL A   1      38.554  30.963  31.410  1.00  0.00     0.037 A 
ATOM     51  C   UNL A   1      45.072  30.255  29.730  1.00  0.00     0.049 A 
ATOM     52  C   UNL A   1      39.864  31.603  31.722  1.00  0.00     0.074 A 
ATOM     53  C   UNL A   1      45.609  29.149  30.365  1.00  0.00     0.029 A 
ATOM     54  N   UNL A   1      44.590  31.053  30.743  1.00  0.00    -0.354 N 
ATOM     55  N   UNL A   1      40.666  31.209  32.674  1.00  0.00    -0.248 NA
ATOM     56  C   UNL A   1      40.493  32.390  30.669  1.00  0.00     0.031 C 
ATOM     57  C   UNL A   1      44.951  29.097  31.631  1.00  0.00     0.029 A 
ATOM     58  C   UNL A   1      44.116  30.211  31.718  1.00  0.00     0.049 A 
ATOM     59  H   UNL A   1      44.585  32.038  30.764  1.00  0.00     0.167 HD
ATOM     60  C   UNL A   1      41.939  31.320  32.134  1.00  0.00     0.074 A 
ATOM     61  C   UNL A   1      41.777  32.138  30.935  1.00  0.00     0.031 C 
ATOM     62  C   UNL A   1      42.956  30.497  32.531  1.00  0.00     0.037 A 
BRANCH  49  63
ATOM     63  C   UNL A   1      44.868  31.850  27.707  1.00  0.00     0.064 A 
ATOM     64  C   UNL A   1      46.071  32.053  27.004  1.00  0.00     0.173 A 
ATOM     65  C   UNL A   1      44.093  33.008  27.932  1.00  0.00     0.173 A 
ATOM     66  F   UNL A   1      46.900  31.026  26.760  1.00  0.00    -0.203 F 
ATOM     67  C   UNL A   1      46.490  33.326  26.612  1.00  0.00     0.198 A 
ATOM     68  C   UNL A   1      44.482  34.267  27.481  1.00  0.00     0.198 A 
ATOM     69  F   UNL A   1      42.992  32.996  28.694  1.00  0.00    -0.203 F 
ATOM     70  F   UNL A   1      47.700  33.484  26.061  1.00  0.00    -0.200 F 
ATOM     71  C   UNL A   1      45.695  34.432  26.850  1.00  0.00     0.200 A 
ATOM     72  F   UNL A   1      43.703  35.328  27.738  1.00  0.00    -0.200 F 
ATOM     73  F   UNL A   1      46.118  35.659  26.522  1.00  0.00    -0.200 F 
ENDBRANCH  49  63
BRANCH  50  74
ATOM     74  C   UNL A   1      37.280  31.726  31.377  1.00  0.00     0.064 A 
ATOM     75  C   UNL A   1      36.528  31.934  32.546  1.00  0.00     0.173 A 
ATOM     76  C   UNL A   1      36.903  32.492  30.255  1.00  0.00     0.173 A 
ATOM     77  F   UNL A   1      36.847  31.287  33.678  1.00  0.00    -0.203 F 
ATOM     78  C   UNL A   1      35.482  32.862  32.596  1.00  0.00     0.198 A 
ATOM     79  C   UNL A   1      35.851  33.411  30.303  1.00  0.00     0.198 A 
ATOM     80  F   UNL A   1      37.612  32.443  29.120  1.00  0.00    -0.203 F 
ATOM     81  F   UNL A   1      34.835  33.081  33.750  1.00  0.00    -0.200 F 
ATOM     82  C   UNL A   1      35.148  33.604  31.475  1.00  0.00     0.200 A 
ATOM     83  F   UNL A   1      35.570  34.158  29.225  1.00  0.00    -0.200 F 
ATOM     84  F   UNL A   1      34.186  34.536  31.537  1.00  0.00    -0.200 F 
ENDBRANCH  50  74
BRANCH  62  85
ATOM     85  C   UNL A   1      42.753  29.637  33.748  1.00  0.00     0.064 A 
ATOM     86  C   UNL A   1      42.160  28.361  33.724  1.00  0.00     0.173 A 
ATOM     87  C   UNL A   1      43.323  30.053  34.960  1.00  0.00     0.173 A 
ATOM     88  F   UNL A   1      41.694  27.835  32.587  1.00  0.00    -0.203 F 
ATOM     89  C   UNL A   1      42.098  27.568  34.869  1.00  0.00     0.198 A 
ATOM     90  C   UNL A   1      43.296  29.241  36.091  1.00  0.00     0.198 A 
ATOM     91  F   UNL A   1      43.956  31.235  35.035  1.00  0.00    -0.203 F 
ATOM     92  F   UNL A   1      41.514  26.361  34.818  1.00  0.00    -0.200 F 
ATOM     93  C   UNL A   1      42.673  28.005  36.050  1.00  0.00     0.200 A 
ATOM     94  F   UNL A   1      43.901  29.646  37.217  1.00  0.00    -0.200 F 
ATOM     95  F   UNL A   1      42.653  27.222  37.138  1.00  0.00    -0.200 F 
ENDBRANCH  62  85
ENDBRANCH  36  37
ENDBRANCH  28  31
ENDBRANCH  26  27
ENDBRANCH   1  26
TORSDOF 13
ENDMDL
MODEL 3
REMARK VINA RESULT:     -13.6      1.214      1.823
REMARK SMILES Cc1ccc(C)c(-n2nc(C)c(/C=C(/C#N)C(=O)NCCCNC(=O)c3ccc(-c4c5nc(c(-c6c(F)c(F)c(F)c(F)c6F)c6ccc([nH]6)c(-c6c(F)c(F)c(F)c(F)c6F)c6nc(c(-c7c(F)c(F)c(F)c(F)c7F)c7ccc4[nH]7)C=C6)C=C5)cc3)c2Cl)c1
REMARK SMILES IDX 21 1 20 2 19 3 17 4 18 5 14 7 13 8 12 9 8 10 9 11 89 12
REMARK SMILES IDX 10 13 90 14 11 15 7 16 1 17 2 18 3 19 91 20 4 21 5 22 6 23
REMARK SMILES IDX 15 24 16 25 22 26 23 27 24 28 25 30 26 31 27 32 88 33 28 34
REMARK SMILES IDX 87 35 29 36 30 37 31 38 81 39 32 40 86 41 80 42 82 43 33 44
REMARK SMILES IDX 85 45 79 46 78 47 34 49 66 50 46 51 65 52 47 53 50 54 64 55
REMARK SMILES IDX 83 56 48 57 49 58 63 60 84 61 51 62 35 63 36 64 44 65 37 66
REMARK SMILES IDX 38 67 42 68 45 69 39 70 40 71 43 72 41 73 67 74 68 75 76 76
REMARK SMILES IDX 69 77 70 78 74 79 77 80 71 81 72 82 75 83 73 84 52 85 53 86
REMARK SMILES IDX 61 87 54 88 55 89 59 90 62 91 56 92 57 93 60 94 58 95
REMARK H PARENT 19 6 23 29 82 48 50 59
REMARK Flexibility Score: inf
ROOT
ATOM      1  C   UNL A   1      32.370  28.494  26.933  1.00  0.00     0.042 C 
ENDROOT
BRANCH   1   2
ATOM      2  C   UNL A   1      32.187  27.076  26.342  1.00  0.00     0.118 C 
BRANCH   2   3
ATOM      3  N   UNL A   1      33.020  26.838  25.145  1.00  0.00    -0.351 N 
ATOM      4  C   UNL A   1      32.785  26.265  23.918  1.00  0.00     0.261 C 
ATOM      5  O   UNL A   1      33.763  26.040  23.209  1.00  0.00    -0.268 OA
ATOM      6  H   UNL A   1      33.946  27.160  25.250  1.00  0.00     0.163 HD
BRANCH   4   7
ATOM      7  C   UNL A   1      31.404  25.875  23.476  1.00  0.00     0.117 C 
ATOM      8  C   UNL A   1      30.794  24.702  23.708  1.00  0.00     0.038 C 
BRANCH   8   9
ATOM      9  C   UNL A   1      31.255  23.524  24.400  1.00  0.00     0.036 A 
ATOM     10  N   UNL A   1      32.369  21.609  24.727  1.00  0.00    -0.221 N 
ATOM     11  N   UNL A   1      31.577  21.741  25.818  1.00  0.00    -0.171 NA
ATOM     12  C   UNL A   1      32.209  22.677  23.874  1.00  0.00     0.140 A 
ATOM     13  C   UNL A   1      30.957  22.920  25.663  1.00  0.00     0.069 A 
ATOM     14  Cl  UNL A   1      33.019  22.720  22.363  1.00  0.00    -0.061 Cl
ATOM     15  C   UNL A   1      30.112  23.364  26.801  1.00  0.00     0.069 C 
BRANCH  10  16
ATOM     16  C   UNL A   1      33.308  20.549  24.676  1.00  0.00     0.069 A 
ATOM     17  C   UNL A   1      33.329  16.939  23.439  1.00  0.00     0.044 C 
ATOM     18  C   UNL A   1      33.771  18.247  24.027  1.00  0.00    -0.049 A 
ATOM     19  C   UNL A   1      35.090  18.413  24.453  1.00  0.00     0.004 A 
ATOM     20  C   UNL A   1      32.879  19.316  24.151  1.00  0.00     0.032 A 
ATOM     21  C   UNL A   1      35.520  19.637  24.973  1.00  0.00     0.006 A 
ATOM     22  C   UNL A   1      34.642  20.730  25.084  1.00  0.00    -0.025 A 
ATOM     23  C   UNL A   1      35.186  21.988  25.704  1.00  0.00     0.047 C 
ENDBRANCH  10  16
ENDBRANCH   8   9
BRANCH   7  24
ATOM     24  C   UNL A   1      30.724  27.087  22.856  1.00  0.00     0.105 C 
ATOM     25  N   UNL A   1      30.160  28.091  22.343  1.00  0.00    -0.192 NA
ENDBRANCH   7  24
ENDBRANCH   4   7
ENDBRANCH   2   3
ENDBRANCH   1   2
BRANCH   1  26
ATOM     26  C   UNL A   1      33.788  28.990  27.235  1.00  0.00     0.118 C 
BRANCH  26  27
ATOM     27  N   UNL A   1      33.921  30.449  27.142  1.00  0.00    -0.352 N 
ATOM     28  C   UNL A   1      34.847  31.373  27.611  1.00  0.00     0.251 C 
ATOM     29  H   UNL A   1      33.189  30.867  26.632  1.00  0.00     0.163 HD
ATOM     30  O   UNL A   1      34.577  32.557  27.584  1.00  0.00    -0.269 OA
BRANCH  28  31
ATOM     31  C   UNL A   1      36.160  30.939  28.144  1.00  0.00     0.039 A 
ATOM     32  C   UNL A   1      36.836  31.589  29.182  1.00  0.00     0.014 A 
ATOM     33  C   UNL A   1      36.750  29.831  27.589  1.00  0.00     0.014 A 
ATOM     34  C   UNL A   1      38.112  31.130  29.536  1.00  0.00     0.010 A 
ATOM     35  C   UNL A   1      37.679  29.141  28.287  1.00  0.00     0.010 A 
ATOM     36  C   UNL A   1      38.545  29.909  29.017  1.00  0.00    -0.014 A 
BRANCH  36  37
ATOM     37  C   UNL A   1      39.858  29.321  29.204  1.00  0.00     0.031 A 
ATOM     38  C   UNL A   1      40.194  29.039  30.608  1.00  0.00     0.074 A 
ATOM     39  C   UNL A   1      40.547  28.714  28.209  1.00  0.00     0.049 A 
ATOM     40  N   UNL A   1      41.071  29.634  31.339  1.00  0.00    -0.248 NA
ATOM     41  C   UNL A   1      39.358  28.067  31.330  1.00  0.00     0.031 C 
ATOM     42  C   UNL A   1      40.148  28.468  26.816  1.00  0.00     0.029 A 
ATOM     43  N   UNL A   1      41.739  28.061  28.291  1.00  0.00    -0.354 N 
ATOM     44  C   UNL A   1      41.026  28.988  32.566  1.00  0.00     0.074 A 
ATOM     45  C   UNL A   1      39.813  28.213  32.573  1.00  0.00     0.031 C 
ATOM     46  C   UNL A   1      40.979  27.553  26.265  1.00  0.00     0.029 A 
ATOM     47  C   UNL A   1      42.035  27.241  27.212  1.00  0.00     0.049 A 
ATOM     48  H   UNL A   1      42.345  28.162  29.060  1.00  0.00     0.167 HD
ATOM     49  C   UNL A   1      42.119  28.930  33.374  1.00  0.00     0.037 A 
ATOM     50  C   UNL A   1      43.041  26.330  27.150  1.00  0.00     0.037 A 
ATOM     51  C   UNL A   1      43.146  29.843  32.932  1.00  0.00     0.049 A 
ATOM     52  C   UNL A   1      44.006  26.666  28.235  1.00  0.00     0.074 A 
ATOM     53  C   UNL A   1      43.176  31.201  32.664  1.00  0.00     0.029 A 
ATOM     54  N   UNL A   1      44.249  29.326  32.292  1.00  0.00    -0.354 N 
ATOM     55  N   UNL A   1      44.755  27.736  28.247  1.00  0.00    -0.248 NA
ATOM     56  C   UNL A   1      43.797  26.043  29.536  1.00  0.00     0.031 C 
ATOM     57  C   UNL A   1      43.953  31.322  31.473  1.00  0.00     0.029 A 
ATOM     58  C   UNL A   1      44.411  30.048  31.136  1.00  0.00     0.049 A 
ATOM     59  H   UNL A   1      44.813  28.581  32.603  1.00  0.00     0.167 HD
ATOM     60  C   UNL A   1      44.749  28.159  29.568  1.00  0.00     0.074 A 
ATOM     61  C   UNL A   1      44.222  27.030  30.329  1.00  0.00     0.031 C 
ATOM     62  C   UNL A   1      44.883  29.480  29.894  1.00  0.00     0.037 A 
BRANCH  49  63
ATOM     63  C   UNL A   1      42.397  27.812  34.343  1.00  0.00     0.064 A 
ATOM     64  C   UNL A   1      43.014  26.640  33.869  1.00  0.00     0.173 A 
ATOM     65  C   UNL A   1      41.860  27.732  35.647  1.00  0.00     0.173 A 
ATOM     66  F   UNL A   1      43.532  26.595  32.632  1.00  0.00    -0.203 F 
ATOM     67  C   UNL A   1      43.036  25.463  34.619  1.00  0.00     0.198 A 
ATOM     68  C   UNL A   1      41.943  26.576  36.419  1.00  0.00     0.198 A 
ATOM     69  F   UNL A   1      41.133  28.720  36.184  1.00  0.00    -0.203 F 
ATOM     70  F   UNL A   1      43.520  24.339  34.075  1.00  0.00    -0.200 F 
ATOM     71  C   UNL A   1      42.502  25.432  35.894  1.00  0.00     0.200 A 
ATOM     72  F   UNL A   1      41.403  26.564  37.646  1.00  0.00    -0.200 F 
ATOM     73  F   UNL A   1      42.475  24.291  36.594  1.00  0.00    -0.200 F 
ENDBRANCH  49  63
BRANCH  50  74
ATOM     74  C   UNL A   1      43.087  25.040  26.412  1.00  0.00     0.064 A 
ATOM     75  C   UNL A   1      43.966  24.853  25.331  1.00  0.00     0.173 A 
ATOM     76  C   UNL A   1      42.463  23.878  26.910  1.00  0.00     0.173 A 
ATOM     77  F   UNL A   1      44.644  25.894  24.825  1.00  0.00    -0.203 F 
ATOM     78  C   UNL A   1      44.220  23.584  24.798  1.00  0.00     0.198 A 
ATOM     79  C   UNL A   1      42.709  22.614  26.370  1.00  0.00     0.198 A 
ATOM     80  F   UNL A   1      41.682  23.930  27.998  1.00  0.00    -0.203 F 
ATOM     81  F   UNL A   1      45.119  23.439  23.814  1.00  0.00    -0.200 F 
ATOM     82  C   UNL A   1      43.596  22.464  25.323  1.00  0.00     0.200 A 
ATOM     83  F   UNL A   1      42.137  21.532  26.918  1.00  0.00    -0.200 F 
ATOM     84  F   UNL A   1      43.884  21.242  24.853  1.00  0.00    -0.200 F 
ENDBRANCH  50  74
BRANCH  62  85
ATOM     85  C   UNL A   1      45.299  30.448  28.821  1.00  0.00     0.064 A 
ATOM     86  C   UNL A   1      44.405  31.079  27.936  1.00  0.00     0.173 A 
ATOM     87  C   UNL A   1      46.635  30.874  28.790  1.00  0.00     0.173 A 
ATOM     88  F   UNL A   1      43.094  30.819  27.975  1.00  0.00    -0.203 F 
ATOM     89  C   UNL A   1      44.839  32.049  27.034  1.00  0.00     0.198 A 
ATOM     90  C   UNL A   1      47.058  31.872  27.916  1.00  0.00     0.198 A 
ATOM     91  F   UNL A   1      47.527  30.355  29.648  1.00  0.00    -0.203 F 
ATOM     92  F   UNL A   1      43.965  32.624  26.194  1.00  0.00    -0.200 F 
ATOM     93  C   UNL A   1      46.164  32.451  27.030  1.00  0.00     0.200 A 
ATOM     94  F   UNL A   1      48.330  32.296  27.953  1.00  0.00    -0.200 F 
ATOM     95  F   UNL A   1      46.572  33.416  26.193  1.00  0.00    -0.200 F 
ENDBRANCH  62  85
ENDBRANCH  36  37
ENDBRANCH  28  31
ENDBRANCH  26  27
ENDBRANCH   1  26
TORSDOF 13
ENDMDL
