MODEL 1
REMARK VINA RESULT:     -14.0      0.000      0.000
REMARK SMILES CC1=C(C(=O)NCCCNC(=O)c2ccc(-c3c4nc(c(-c5c(F)c(F)c(F)c(F)c5F)c5ccc([nH]5)c(-c5c(F)c(F)c(F)c(F)c5F)c5nc(c(-c6c(F)c(F)c(F)c(F)c6F)c6ccc3[nH]6)C=C5)C=C4)cc2)[C@H](c2ccc(Cl)cc2)n2ncnc2N1
REMARK SMILES IDX 8 1 7 2 6 3 4 4 5 5 3 7 1 8 2 9 89 10 76 11 88 12 84 14
REMARK SMILES IDX 87 15 85 16 86 17 77 18 78 19 83 20 79 21 82 22 80 23 81 24
REMARK SMILES IDX 9 25 10 26 11 27 12 29 13 30 14 31 75 32 15 33 74 34 16 35
REMARK SMILES IDX 17 36 18 37 68 38 19 39 73 40 67 41 69 42 20 43 72 44 66 45
REMARK SMILES IDX 65 46 21 48 53 49 33 50 52 51 34 52 37 53 51 54 70 55 35 56
REMARK SMILES IDX 36 57 50 59 71 60 38 61 22 62 23 63 31 64 24 65 25 66 29 67
REMARK SMILES IDX 32 68 26 69 27 70 30 71 28 72 54 73 55 74 63 75 56 76 57 77
REMARK SMILES IDX 61 78 64 79 58 80 59 81 62 82 60 83 39 84 40 85 48 86 41 87
REMARK SMILES IDX 42 88 46 89 49 90 43 91 44 92 47 93 45 94
REMARK H PARENT 6 6 89 13 10 28 69 47 37 58
REMARK Flexibility Score: inf
ROOT
ATOM      1  C   UNL A   1      38.875  21.453  25.778  1.00  0.00     0.042 C 
ENDROOT
BRANCH   1   2
ATOM      2  C   UNL A   1      37.945  22.673  25.701  1.00  0.00     0.118 C 
BRANCH   2   3
ATOM      3  N   UNL A   1      37.481  22.894  24.352  1.00  0.00    -0.352 N 
ATOM      4  C   UNL A   1      36.299  22.965  23.714  1.00  0.00     0.251 C 
ATOM      5  O   UNL A   1      36.434  23.093  22.488  1.00  0.00    -0.270 OA
ATOM      6  H   UNL A   1      38.233  23.029  23.731  1.00  0.00     0.163 HD
BRANCH   4   7
ATOM      7  C   UNL A   1      34.897  22.925  24.271  1.00  0.00     0.065 C 
ATOM      8  C   UNL A   1      33.464  24.556  22.877  1.00  0.00     0.065 C 
ATOM      9  C   UNL A   1      33.749  23.620  24.012  1.00  0.00     0.026 C 
ATOM     10  N   UNL A   1      32.684  23.576  24.918  1.00  0.00    -0.328 N 
ATOM     11  C   UNL A   1      34.856  21.903  25.464  1.00  0.00     0.179 C 
ATOM     12  C   UNL A   1      32.799  23.104  26.167  1.00  0.00     0.226 A 
ATOM     13  H   UNL A   1      31.806  23.908  24.622  1.00  0.00     0.169 HD
ATOM     14  N   UNL A   1      33.889  22.348  26.475  1.00  0.00    -0.219 N 
ATOM     15  N   UNL A   1      32.039  23.236  27.220  1.00  0.00    -0.200 NA
ATOM     16  N   UNL A   1      33.891  21.996  27.776  1.00  0.00    -0.157 NA
ATOM     17  C   UNL A   1      32.747  22.561  28.182  1.00  0.00     0.248 A 
BRANCH  11  18
ATOM     18  C   UNL A   1      34.537  20.471  24.968  1.00  0.00    -0.018 A 
ATOM     19  C   UNL A   1      33.248  20.070  24.561  1.00  0.00     0.008 A 
ATOM     20  C   UNL A   1      35.566  19.511  24.895  1.00  0.00     0.008 A 
ATOM     21  C   UNL A   1      32.998  18.771  24.106  1.00  0.00     0.021 A 
ATOM     22  C   UNL A   1      35.320  18.216  24.422  1.00  0.00     0.021 A 
ATOM     23  C   UNL A   1      34.036  17.852  24.033  1.00  0.00     0.041 A 
ATOM     24  Cl  UNL A   1      33.730  16.259  23.461  1.00  0.00    -0.084 Cl
ENDBRANCH  11  18
ENDBRANCH   4   7
ENDBRANCH   2   3
ENDBRANCH   1   2
BRANCH   1  25
ATOM     25  C   UNL A   1      40.023  21.663  26.748  1.00  0.00     0.118 C 
BRANCH  25  26
ATOM     26  N   UNL A   1      41.277  21.932  26.038  1.00  0.00    -0.352 N 
ATOM     27  C   UNL A   1      41.952  23.133  25.884  1.00  0.00     0.251 C 
ATOM     28  H   UNL A   1      41.700  21.151  25.611  1.00  0.00     0.163 HD
ATOM     29  O   UNL A   1      42.808  23.282  25.046  1.00  0.00    -0.269 OA
BRANCH  27  30
ATOM     30  C   UNL A   1      41.562  24.232  26.782  1.00  0.00     0.039 A 
ATOM     31  C   UNL A   1      42.199  24.410  28.011  1.00  0.00     0.014 A 
ATOM     32  C   UNL A   1      40.684  25.178  26.273  1.00  0.00     0.014 A 
ATOM     33  C   UNL A   1      42.039  25.625  28.669  1.00  0.00     0.010 A 
ATOM     34  C   UNL A   1      40.687  26.433  26.826  1.00  0.00     0.010 A 
ATOM     35  C   UNL A   1      41.319  26.659  28.047  1.00  0.00    -0.014 A 
BRANCH  35  36
ATOM     36  C   UNL A   1      41.303  28.005  28.617  1.00  0.00     0.031 A 
ATOM     37  C   UNL A   1      42.418  28.912  28.214  1.00  0.00     0.074 A 
ATOM     38  C   UNL A   1      40.263  28.499  29.323  1.00  0.00     0.049 A 
ATOM     39  N   UNL A   1      43.345  29.400  28.973  1.00  0.00    -0.248 NA
ATOM     40  C   UNL A   1      42.575  29.257  26.793  1.00  0.00     0.031 C 
ATOM     41  C   UNL A   1      38.951  27.899  29.594  1.00  0.00     0.029 A 
ATOM     42  N   UNL A   1      40.142  29.734  29.881  1.00  0.00    -0.354 N 
ATOM     43  C   UNL A   1      44.115  30.242  28.172  1.00  0.00     0.074 A 
ATOM     44  C   UNL A   1      43.678  30.013  26.819  1.00  0.00     0.031 C 
ATOM     45  C   UNL A   1      38.100  28.846  30.040  1.00  0.00     0.029 A 
ATOM     46  C   UNL A   1      38.856  30.059  30.279  1.00  0.00     0.049 A 
ATOM     47  H   UNL A   1      40.905  30.345  29.993  1.00  0.00     0.167 HD
ATOM     48  C   UNL A   1      44.919  31.199  28.720  1.00  0.00     0.037 A 
ATOM     49  C   UNL A   1      38.434  31.242  30.779  1.00  0.00     0.037 A 
ATOM     50  C   UNL A   1      45.146  30.947  30.122  1.00  0.00     0.049 A 
ATOM     51  C   UNL A   1      39.627  31.943  31.309  1.00  0.00     0.074 A 
ATOM     52  C   UNL A   1      45.691  29.899  30.841  1.00  0.00     0.029 A 
ATOM     53  N   UNL A   1      44.451  31.691  31.044  1.00  0.00    -0.354 N 
ATOM     54  N   UNL A   1      40.293  31.542  32.357  1.00  0.00    -0.248 NA
ATOM     55  C   UNL A   1      40.351  32.827  30.409  1.00  0.00     0.031 C 
ATOM     56  C   UNL A   1      44.862  29.779  31.997  1.00  0.00     0.029 A 
ATOM     57  C   UNL A   1      43.915  30.802  31.943  1.00  0.00     0.049 A 
ATOM     58  H   UNL A   1      44.355  32.670  31.057  1.00  0.00     0.167 HD
ATOM     59  C   UNL A   1      41.624  31.750  32.027  1.00  0.00     0.074 A 
ATOM     60  C   UNL A   1      41.592  32.633  30.862  1.00  0.00     0.031 C 
ATOM     61  C   UNL A   1      42.615  30.967  32.547  1.00  0.00     0.037 A 
BRANCH  48  62
ATOM     62  C   UNL A   1      45.228  32.541  28.096  1.00  0.00     0.064 A 
ATOM     63  C   UNL A   1      44.176  33.450  27.855  1.00  0.00     0.173 A 
ATOM     64  C   UNL A   1      46.446  32.843  27.450  1.00  0.00     0.173 A 
ATOM     65  F   UNL A   1      42.968  33.262  28.411  1.00  0.00    -0.203 F 
ATOM     66  C   UNL A   1      44.305  34.516  26.960  1.00  0.00     0.198 A 
ATOM     67  C   UNL A   1      46.587  33.940  26.599  1.00  0.00     0.198 A 
ATOM     68  F   UNL A   1      47.510  32.036  27.523  1.00  0.00    -0.203 F 
ATOM     69  F   UNL A   1      43.237  35.268  26.660  1.00  0.00    -0.200 F 
ATOM     70  C   UNL A   1      45.509  34.754  26.325  1.00  0.00     0.200 A 
ATOM     71  F   UNL A   1      47.760  34.147  25.983  1.00  0.00    -0.200 F 
ATOM     72  F   UNL A   1      45.618  35.730  25.414  1.00  0.00    -0.200 F 
ENDBRANCH  48  62
BRANCH  49  73
ATOM     73  C   UNL A   1      37.115  31.887  30.609  1.00  0.00     0.064 A 
ATOM     74  C   UNL A   1      36.157  31.855  31.633  1.00  0.00     0.173 A 
ATOM     75  C   UNL A   1      36.872  32.781  29.546  1.00  0.00     0.173 A 
ATOM     76  F   UNL A   1      36.334  31.057  32.695  1.00  0.00    -0.203 F 
ATOM     77  C   UNL A   1      35.039  32.692  31.613  1.00  0.00     0.198 A 
ATOM     78  C   UNL A   1      35.751  33.610  29.523  1.00  0.00     0.198 A 
ATOM     79  F   UNL A   1      37.765  32.933  28.557  1.00  0.00    -0.203 F 
ATOM     80  F   UNL A   1      34.179  32.681  32.641  1.00  0.00    -0.200 F 
ATOM     81  C   UNL A   1      34.844  33.578  30.565  1.00  0.00     0.200 A 
ATOM     82  F   UNL A   1      35.591  34.485  28.520  1.00  0.00    -0.200 F 
ATOM     83  F   UNL A   1      33.806  34.427  30.579  1.00  0.00    -0.200 F 
ENDBRANCH  49  73
BRANCH  61  84
ATOM     84  C   UNL A   1      42.258  30.030  33.669  1.00  0.00     0.064 A 
ATOM     85  C   UNL A   1      41.796  28.714  33.480  1.00  0.00     0.173 A 
ATOM     86  C   UNL A   1      42.520  30.431  34.986  1.00  0.00     0.173 A 
ATOM     87  F   UNL A   1      41.628  28.210  32.253  1.00  0.00    -0.203 F 
ATOM     88  C   UNL A   1      41.552  27.867  34.559  1.00  0.00     0.198 A 
ATOM     89  C   UNL A   1      42.312  29.570  36.060  1.00  0.00     0.198 A 
ATOM     90  F   UNL A   1      43.020  31.652  35.229  1.00  0.00    -0.203 F 
ATOM     91  F   UNL A   1      41.093  26.625  34.348  1.00  0.00    -0.200 F 
ATOM     92  C   UNL A   1      41.815  28.294  35.848  1.00  0.00     0.200 A 
ATOM     93  F   UNL A   1      42.617  29.969  37.302  1.00  0.00    -0.200 F 
ATOM     94  F   UNL A   1      41.614  27.468  36.885  1.00  0.00    -0.200 F 
ENDBRANCH  61  84
ENDBRANCH  35  36
ENDBRANCH  27  30
ENDBRANCH  25  26
ENDBRANCH   1  25
TORSDOF 11
ENDMDL
MODEL 2
REMARK VINA RESULT:     -13.8      3.578      6.467
REMARK SMILES CC1=C(C(=O)NCCCNC(=O)c2ccc(-c3c4nc(c(-c5c(F)c(F)c(F)c(F)c5F)c5ccc([nH]5)c(-c5c(F)c(F)c(F)c(F)c5F)c5nc(c(-c6c(F)c(F)c(F)c(F)c6F)c6ccc3[nH]6)C=C5)C=C4)cc2)[C@H](c2ccc(Cl)cc2)n2ncnc2N1
REMARK SMILES IDX 8 1 7 2 6 3 4 4 5 5 3 7 1 8 2 9 89 10 76 11 88 12 84 14
REMARK SMILES IDX 87 15 85 16 86 17 77 18 78 19 83 20 79 21 82 22 80 23 81 24
REMARK SMILES IDX 9 25 10 26 11 27 12 29 13 30 14 31 75 32 15 33 74 34 16 35
REMARK SMILES IDX 17 36 18 37 68 38 19 39 73 40 67 41 69 42 20 43 72 44 66 45
REMARK SMILES IDX 65 46 21 48 53 49 33 50 52 51 34 52 37 53 51 54 70 55 35 56
REMARK SMILES IDX 36 57 50 59 71 60 38 61 22 62 23 63 31 64 24 65 25 66 29 67
REMARK SMILES IDX 32 68 26 69 27 70 30 71 28 72 54 73 55 74 63 75 56 76 57 77
REMARK SMILES IDX 61 78 64 79 58 80 59 81 62 82 60 83 39 84 40 85 48 86 41 87
REMARK SMILES IDX 42 88 46 89 49 90 43 91 44 92 47 93 45 94
REMARK H PARENT 6 6 89 13 10 28 69 47 37 58
REMARK Flexibility Score: inf
ROOT
ATOM      1  C   UNL A   1      42.087  21.563  27.405  1.00  0.00     0.042 C 
ENDROOT
BRANCH   1   2
ATOM      2  C   UNL A   1      43.175  22.410  28.080  1.00  0.00     0.118 C 
BRANCH   2   3
ATOM      3  N   UNL A   1      44.424  22.332  27.358  1.00  0.00    -0.352 N 
ATOM      4  C   UNL A   1      45.234  23.175  26.695  1.00  0.00     0.251 C 
ATOM      5  O   UNL A   1      46.183  22.588  26.155  1.00  0.00    -0.270 OA
ATOM      6  H   UNL A   1      44.776  21.413  27.350  1.00  0.00     0.163 HD
BRANCH   4   7
ATOM      7  C   UNL A   1      45.151  24.674  26.541  1.00  0.00     0.065 C 
ATOM      8  C   UNL A   1      43.262  25.176  24.857  1.00  0.00     0.065 C 
ATOM      9  C   UNL A   1      44.424  25.511  25.741  1.00  0.00     0.026 C 
ATOM     10  N   UNL A   1      44.799  26.852  25.606  1.00  0.00    -0.328 N 
ATOM     11  C   UNL A   1      46.230  25.339  27.470  1.00  0.00     0.179 C 
ATOM     12  C   UNL A   1      45.987  27.327  26.004  1.00  0.00     0.226 A 
ATOM     13  H   UNL A   1      44.157  27.477  25.198  1.00  0.00     0.169 HD
ATOM     14  N   UNL A   1      46.735  26.572  26.854  1.00  0.00    -0.219 N 
ATOM     15  N   UNL A   1      46.621  28.433  25.718  1.00  0.00    -0.200 NA
ATOM     16  N   UNL A   1      47.921  27.156  27.117  1.00  0.00    -0.157 NA
ATOM     17  C   UNL A   1      47.801  28.281  26.403  1.00  0.00     0.248 A 
BRANCH  11  18
ATOM     18  C   UNL A   1      45.666  25.605  28.888  1.00  0.00    -0.018 A 
ATOM     19  C   UNL A   1      44.314  25.923  29.127  1.00  0.00     0.008 A 
ATOM     20  C   UNL A   1      46.516  25.514  30.008  1.00  0.00     0.008 A 
ATOM     21  C   UNL A   1      43.834  26.144  30.422  1.00  0.00     0.021 A 
ATOM     22  C   UNL A   1      46.033  25.717  31.306  1.00  0.00     0.021 A 
ATOM     23  C   UNL A   1      44.695  26.035  31.507  1.00  0.00     0.041 A 
ATOM     24  Cl  UNL A   1      44.102  26.295  33.100  1.00  0.00    -0.084 Cl
ENDBRANCH  11  18
ENDBRANCH   4   7
ENDBRANCH   2   3
ENDBRANCH   1   2
BRANCH   1  25
ATOM     25  C   UNL A   1      41.665  22.129  26.062  1.00  0.00     0.118 C 
BRANCH  25  26
ATOM     26  N   UNL A   1      40.211  22.303  25.990  1.00  0.00    -0.352 N 
ATOM     27  C   UNL A   1      39.427  23.320  26.510  1.00  0.00     0.251 C 
ATOM     28  H   UNL A   1      39.723  21.598  25.504  1.00  0.00     0.163 HD
ATOM     29  O   UNL A   1      38.232  23.205  26.637  1.00  0.00    -0.269 OA
BRANCH  27  30
ATOM     30  C   UNL A   1      40.125  24.549  26.923  1.00  0.00     0.039 A 
ATOM     31  C   UNL A   1      40.280  25.614  26.035  1.00  0.00     0.014 A 
ATOM     32  C   UNL A   1      40.441  24.670  28.269  1.00  0.00     0.014 A 
ATOM     33  C   UNL A   1      40.641  26.856  26.548  1.00  0.00     0.010 A 
ATOM     34  C   UNL A   1      40.604  25.929  28.787  1.00  0.00     0.010 A 
ATOM     35  C   UNL A   1      40.754  27.023  27.938  1.00  0.00    -0.014 A 
BRANCH  35  36
ATOM     36  C   UNL A   1      40.931  28.354  28.518  1.00  0.00     0.031 A 
ATOM     37  C   UNL A   1      42.140  29.113  28.083  1.00  0.00     0.074 A 
ATOM     38  C   UNL A   1      39.988  28.969  29.264  1.00  0.00     0.049 A 
ATOM     39  N   UNL A   1      43.147  29.469  28.813  1.00  0.00    -0.248 NA
ATOM     40  C   UNL A   1      42.292  29.452  26.661  1.00  0.00     0.031 C 
ATOM     41  C   UNL A   1      38.620  28.540  29.577  1.00  0.00     0.029 A 
ATOM     42  N   UNL A   1      40.047  30.202  29.836  1.00  0.00    -0.354 N 
ATOM     43  C   UNL A   1      43.992  30.213  27.992  1.00  0.00     0.074 A 
ATOM     44  C   UNL A   1      43.483  30.059  26.653  1.00  0.00     0.031 C 
ATOM     45  C   UNL A   1      37.914  29.584  30.060  1.00  0.00     0.029 A 
ATOM     46  C   UNL A   1      38.828  30.686  30.281  1.00  0.00     0.049 A 
ATOM     47  H   UNL A   1      40.886  30.709  29.925  1.00  0.00     0.167 HD
ATOM     48  C   UNL A   1      44.931  31.052  28.518  1.00  0.00     0.037 A 
ATOM     49  C   UNL A   1      38.579  31.908  30.804  1.00  0.00     0.037 A 
ATOM     50  C   UNL A   1      45.171  30.757  29.909  1.00  0.00     0.049 A 
ATOM     51  C   UNL A   1      39.871  32.442  31.298  1.00  0.00     0.074 A 
ATOM     52  C   UNL A   1      45.600  29.638  30.601  1.00  0.00     0.029 A 
ATOM     53  N   UNL A   1      44.609  31.573  30.860  1.00  0.00    -0.354 N 
ATOM     54  N   UNL A   1      40.515  31.946  32.318  1.00  0.00    -0.248 NA
ATOM     55  C   UNL A   1      40.672  33.235  30.379  1.00  0.00     0.031 C 
ATOM     56  C   UNL A   1      44.802  29.613  31.785  1.00  0.00     0.029 A 
ATOM     57  C   UNL A   1      43.994  30.750  31.772  1.00  0.00     0.049 A 
ATOM     58  H   UNL A   1      44.641  32.556  30.885  1.00  0.00     0.167 HD
ATOM     59  C   UNL A   1      41.849  31.985  31.943  1.00  0.00     0.074 A 
ATOM     60  C   UNL A   1      41.893  32.878  30.786  1.00  0.00     0.031 C 
ATOM     61  C   UNL A   1      42.747  31.074  32.422  1.00  0.00     0.037 A 
BRANCH  48  62
ATOM     62  C   UNL A   1      45.390  32.351  27.894  1.00  0.00     0.064 A 
ATOM     63  C   UNL A   1      44.436  33.342  27.582  1.00  0.00     0.173 A 
ATOM     64  C   UNL A   1      46.663  32.534  27.313  1.00  0.00     0.173 A 
ATOM     65  F   UNL A   1      43.188  33.271  28.073  1.00  0.00    -0.203 F 
ATOM     66  C   UNL A   1      44.706  34.377  26.681  1.00  0.00     0.198 A 
ATOM     67  C   UNL A   1      46.946  33.598  26.456  1.00  0.00     0.198 A 
ATOM     68  F   UNL A   1      47.646  31.639  27.456  1.00  0.00    -0.203 F 
ATOM     69  F   UNL A   1      43.726  35.212  26.312  1.00  0.00    -0.200 F 
ATOM     70  C   UNL A   1      45.959  34.497  26.111  1.00  0.00     0.200 A 
ATOM     71  F   UNL A   1      48.163  33.691  25.903  1.00  0.00    -0.200 F 
ATOM     72  F   UNL A   1      46.202  35.443  25.194  1.00  0.00    -0.200 F 
ENDBRANCH  48  62
BRANCH  49  73
ATOM     73  C   UNL A   1      37.351  32.719  30.686  1.00  0.00     0.064 A 
ATOM     74  C   UNL A   1      37.019  33.357  29.481  1.00  0.00     0.173 A 
ATOM     75  C   UNL A   1      36.341  32.662  31.667  1.00  0.00     0.173 A 
ATOM     76  F   UNL A   1      37.915  33.422  28.485  1.00  0.00    -0.203 F 
ATOM     77  C   UNL A   1      35.741  33.875  29.257  1.00  0.00     0.198 A 
ATOM     78  C   UNL A   1      35.068  33.187  31.445  1.00  0.00     0.198 A 
ATOM     79  F   UNL A   1      36.541  32.012  32.823  1.00  0.00    -0.203 F 
ATOM     80  F   UNL A   1      35.440  34.418  28.069  1.00  0.00    -0.200 F 
ATOM     81  C   UNL A   1      34.763  33.778  30.234  1.00  0.00     0.200 A 
ATOM     82  F   UNL A   1      34.122  33.058  32.386  1.00  0.00    -0.200 F 
ATOM     83  F   UNL A   1      33.519  34.217  29.994  1.00  0.00    -0.200 F 
ENDBRANCH  49  73
BRANCH  61  84
ATOM     84  C   UNL A   1      42.311  30.177  33.549  1.00  0.00     0.064 A 
ATOM     85  C   UNL A   1      41.729  28.909  33.367  1.00  0.00     0.173 A 
ATOM     86  C   UNL A   1      42.613  30.557  34.863  1.00  0.00     0.173 A 
ATOM     87  F   UNL A   1      41.511  28.418  32.142  1.00  0.00    -0.203 F 
ATOM     88  C   UNL A   1      41.413  28.091  34.450  1.00  0.00     0.198 A 
ATOM     89  C   UNL A   1      42.332  29.722  35.941  1.00  0.00     0.198 A 
ATOM     90  F   UNL A   1      43.225  31.728  35.100  1.00  0.00    -0.203 F 
ATOM     91  F   UNL A   1      40.841  26.895  34.245  1.00  0.00    -0.200 F 
ATOM     92  C   UNL A   1      41.719  28.496  35.736  1.00  0.00     0.200 A 
ATOM     93  F   UNL A   1      42.677  30.096  37.181  1.00  0.00    -0.200 F 
ATOM     94  F   UNL A   1      41.448  27.696  36.777  1.00  0.00    -0.200 F 
ENDBRANCH  61  84
ENDBRANCH  35  36
ENDBRANCH  27  30
ENDBRANCH  25  26
ENDBRANCH   1  25
TORSDOF 11
ENDMDL
MODEL 3
REMARK VINA RESULT:     -13.6      4.100      7.027
REMARK SMILES CC1=C(C(=O)NCCCNC(=O)c2ccc(-c3c4nc(c(-c5c(F)c(F)c(F)c(F)c5F)c5ccc([nH]5)c(-c5c(F)c(F)c(F)c(F)c5F)c5nc(c(-c6c(F)c(F)c(F)c(F)c6F)c6ccc3[nH]6)C=C5)C=C4)cc2)[C@H](c2ccc(Cl)cc2)n2ncnc2N1
REMARK SMILES IDX 8 1 7 2 6 3 4 4 5 5 3 7 1 8 2 9 89 10 76 11 88 12 84 14
REMARK SMILES IDX 87 15 85 16 86 17 77 18 78 19 83 20 79 21 82 22 80 23 81 24
REMARK SMILES IDX 9 25 10 26 11 27 12 29 13 30 14 31 75 32 15 33 74 34 16 35
REMARK SMILES IDX 17 36 18 37 68 38 19 39 73 40 67 41 69 42 20 43 72 44 66 45
REMARK SMILES IDX 65 46 21 48 53 49 33 50 52 51 34 52 37 53 51 54 70 55 35 56
REMARK SMILES IDX 36 57 50 59 71 60 38 61 22 62 23 63 31 64 24 65 25 66 29 67
REMARK SMILES IDX 32 68 26 69 27 70 30 71 28 72 54 73 55 74 63 75 56 76 57 77
REMARK SMILES IDX 61 78 64 79 58 80 59 81 62 82 60 83 39 84 40 85 48 86 41 87
REMARK SMILES IDX 42 88 46 89 49 90 43 91 44 92 47 93 45 94
REMARK H PARENT 6 6 89 13 10 28 69 47 37 58
REMARK Flexibility Score: inf
ROOT
ATOM      1  C   UNL A   1      43.984  22.131  26.104  1.00  0.00     0.042 C 
ENDROOT
BRANCH   1   2
ATOM      2  C   UNL A   1      44.458  23.029  27.256  1.00  0.00     0.118 C 
BRANCH   2   3
ATOM      3  N   UNL A   1      45.872  23.305  27.159  1.00  0.00    -0.352 N 
ATOM      4  C   UNL A   1      46.657  24.381  26.980  1.00  0.00     0.251 C 
ATOM      5  O   UNL A   1      47.855  24.078  26.879  1.00  0.00    -0.270 OA
ATOM      6  H   UNL A   1      46.405  22.481  27.247  1.00  0.00     0.163 HD
BRANCH   4   7
ATOM      7  C   UNL A   1      46.290  25.843  26.905  1.00  0.00     0.065 C 
ATOM      8  C   UNL A   1      44.421  26.082  25.142  1.00  0.00     0.065 C 
ATOM      9  C   UNL A   1      45.451  26.575  26.111  1.00  0.00     0.026 C 
ATOM     10  N   UNL A   1      45.562  27.969  26.073  1.00  0.00    -0.328 N 
ATOM     11  C   UNL A   1      47.172  26.640  27.933  1.00  0.00     0.179 C 
ATOM     12  C   UNL A   1      46.614  28.637  26.567  1.00  0.00     0.226 A 
ATOM     13  H   UNL A   1      44.831  28.485  25.664  1.00  0.00     0.169 HD
ATOM     14  N   UNL A   1      47.454  27.985  27.417  1.00  0.00    -0.219 N 
ATOM     15  N   UNL A   1      47.033  29.861  26.381  1.00  0.00    -0.200 NA
ATOM     16  N   UNL A   1      48.489  28.768  27.782  1.00  0.00    -0.157 NA
ATOM     17  C   UNL A   1      48.185  29.894  27.125  1.00  0.00     0.248 A 
BRANCH  11  18
ATOM     18  C   UNL A   1      46.500  26.699  29.327  1.00  0.00    -0.018 A 
ATOM     19  C   UNL A   1      45.109  26.848  29.501  1.00  0.00     0.008 A 
ATOM     20  C   UNL A   1      47.289  26.583  30.489  1.00  0.00     0.008 A 
ATOM     21  C   UNL A   1      44.534  26.883  30.776  1.00  0.00     0.021 A 
ATOM     22  C   UNL A   1      46.711  26.599  31.764  1.00  0.00     0.021 A 
ATOM     23  C   UNL A   1      45.337  26.753  31.902  1.00  0.00     0.041 A 
ATOM     24  Cl  UNL A   1      44.626  26.784  33.468  1.00  0.00    -0.084 Cl
ENDBRANCH  11  18
ENDBRANCH   4   7
ENDBRANCH   2   3
ENDBRANCH   1   2
BRANCH   1  25
ATOM     25  C   UNL A   1      42.912  22.794  25.259  1.00  0.00     0.118 C 
BRANCH  25  26
ATOM     26  N   UNL A   1      41.569  22.468  25.751  1.00  0.00    -0.352 N 
ATOM     27  C   UNL A   1      40.773  23.171  26.641  1.00  0.00     0.251 C 
ATOM     28  H   UNL A   1      41.179  21.635  25.400  1.00  0.00     0.163 HD
ATOM     29  O   UNL A   1      39.823  22.664  27.186  1.00  0.00    -0.269 OA
BRANCH  27  30
ATOM     30  C   UNL A   1      41.152  24.568  26.910  1.00  0.00     0.039 A 
ATOM     31  C   UNL A   1      40.699  25.601  26.089  1.00  0.00     0.014 A 
ATOM     32  C   UNL A   1      41.808  24.822  28.106  1.00  0.00     0.014 A 
ATOM     33  C   UNL A   1      40.800  26.908  26.554  1.00  0.00     0.010 A 
ATOM     34  C   UNL A   1      41.727  26.084  28.636  1.00  0.00     0.010 A 
ATOM     35  C   UNL A   1      41.271  27.144  27.856  1.00  0.00    -0.014 A 
BRANCH  35  36
ATOM     36  C   UNL A   1      41.200  28.481  28.445  1.00  0.00     0.031 A 
ATOM     37  C   UNL A   1      42.274  29.439  28.052  1.00  0.00     0.074 A 
ATOM     38  C   UNL A   1      40.142  28.920  29.161  1.00  0.00     0.049 A 
ATOM     39  N   UNL A   1      43.182  29.956  28.815  1.00  0.00    -0.248 NA
ATOM     40  C   UNL A   1      42.411  29.811  26.636  1.00  0.00     0.031 C 
ATOM     41  C   UNL A   1      38.858  28.261  29.428  1.00  0.00     0.029 A 
ATOM     42  N   UNL A   1      39.972  30.140  29.738  1.00  0.00    -0.354 N 
ATOM     43  C   UNL A   1      43.913  30.840  28.023  1.00  0.00     0.074 A 
ATOM     44  C   UNL A   1      43.481  30.612  26.669  1.00  0.00     0.031 C 
ATOM     45  C   UNL A   1      37.969  29.165  29.891  1.00  0.00     0.029 A 
ATOM     46  C   UNL A   1      38.674  30.405  30.145  1.00  0.00     0.049 A 
ATOM     47  H   UNL A   1      40.708  30.782  29.856  1.00  0.00     0.167 HD
ATOM     48  C   UNL A   1      44.677  31.823  28.582  1.00  0.00     0.037 A 
ATOM     49  C   UNL A   1      38.204  31.562  30.663  1.00  0.00     0.037 A 
ATOM     50  C   UNL A   1      44.921  31.561  29.980  1.00  0.00     0.049 A 
ATOM     51  C   UNL A   1      39.369  32.306  31.199  1.00  0.00     0.074 A 
ATOM     52  C   UNL A   1      45.512  30.526  30.682  1.00  0.00     0.029 A 
ATOM     53  N   UNL A   1      44.198  32.261  30.914  1.00  0.00    -0.354 N 
ATOM     54  N   UNL A   1      40.056  31.918  32.239  1.00  0.00    -0.248 NA
ATOM     55  C   UNL A   1      40.052  33.231  30.309  1.00  0.00     0.031 C 
ATOM     56  C   UNL A   1      44.694  30.356  31.839  1.00  0.00     0.029 A 
ATOM     57  C   UNL A   1      43.704  31.339  31.803  1.00  0.00     0.049 A 
ATOM     58  H   UNL A   1      44.061  33.236  30.942  1.00  0.00     0.167 HD
ATOM     59  C   UNL A   1      41.375  32.187  31.907  1.00  0.00     0.074 A 
ATOM     60  C   UNL A   1      41.302  33.084  30.755  1.00  0.00     0.031 C 
ATOM     61  C   UNL A   1      42.400  31.440  32.413  1.00  0.00     0.037 A 
BRANCH  48  62
ATOM     62  C   UNL A   1      44.928  33.186  27.977  1.00  0.00     0.064 A 
ATOM     63  C   UNL A   1      46.255  33.636  27.815  1.00  0.00     0.173 A 
ATOM     64  C   UNL A   1      43.933  34.177  27.840  1.00  0.00     0.173 A 
ATOM     65  F   UNL A   1      47.286  32.784  27.929  1.00  0.00    -0.203 F 
ATOM     66  C   UNL A   1      46.564  34.987  27.632  1.00  0.00     0.198 A 
ATOM     67  C   UNL A   1      44.242  35.517  27.603  1.00  0.00     0.198 A 
ATOM     68  F   UNL A   1      42.636  33.917  28.039  1.00  0.00    -0.203 F 
ATOM     69  F   UNL A   1      47.844  35.383  27.622  1.00  0.00    -0.200 F 
ATOM     70  C   UNL A   1      45.556  35.928  27.536  1.00  0.00     0.200 A 
ATOM     71  F   UNL A   1      43.251  36.416  27.525  1.00  0.00    -0.200 F 
ATOM     72  F   UNL A   1      45.849  37.231  27.431  1.00  0.00    -0.200 F 
ENDBRANCH  48  62
BRANCH  49  73
ATOM     73  C   UNL A   1      36.859  32.153  30.506  1.00  0.00     0.064 A 
ATOM     74  C   UNL A   1      35.939  32.147  31.565  1.00  0.00     0.173 A 
ATOM     75  C   UNL A   1      36.548  32.977  29.405  1.00  0.00     0.173 A 
ATOM     76  F   UNL A   1      36.181  31.417  32.663  1.00  0.00    -0.203 F 
ATOM     77  C   UNL A   1      34.793  32.945  31.540  1.00  0.00     0.198 A 
ATOM     78  C   UNL A   1      35.399  33.766  29.378  1.00  0.00     0.198 A 
ATOM     79  F   UNL A   1      37.400  33.102  28.377  1.00  0.00    -0.203 F 
ATOM     80  F   UNL A   1      33.970  32.964  32.598  1.00  0.00    -0.200 F 
ATOM     81  C   UNL A   1      34.530  33.764  30.453  1.00  0.00     0.200 A 
ATOM     82  F   UNL A   1      35.174  34.578  28.335  1.00  0.00    -0.200 F 
ATOM     83  F   UNL A   1      33.465  34.578  30.458  1.00  0.00    -0.200 F 
ENDBRANCH  49  73
BRANCH  61  84
ATOM     84  C   UNL A   1      42.088  30.472  33.523  1.00  0.00     0.064 A 
ATOM     85  C   UNL A   1      41.724  29.128  33.318  1.00  0.00     0.173 A 
ATOM     86  C   UNL A   1      42.293  30.882  34.847  1.00  0.00     0.173 A 
ATOM     87  F   UNL A   1      41.618  28.621  32.084  1.00  0.00    -0.203 F 
ATOM     88  C   UNL A   1      41.519  28.259  34.387  1.00  0.00     0.198 A 
ATOM     89  C   UNL A   1      42.125  30.002  35.912  1.00  0.00     0.198 A 
ATOM     90  F   UNL A   1      42.701  32.134  35.106  1.00  0.00    -0.203 F 
ATOM     91  F   UNL A   1      41.152  26.989  34.160  1.00  0.00    -0.200 F 
ATOM     92  C   UNL A   1      41.724  28.695  35.684  1.00  0.00     0.200 A 
ATOM     93  F   UNL A   1      42.375  30.413  37.162  1.00  0.00    -0.200 F 
ATOM     94  F   UNL A   1      41.561  27.851  36.712  1.00  0.00    -0.200 F 
ENDBRANCH  61  84
ENDBRANCH  35  36
ENDBRANCH  27  30
ENDBRANCH  25  26
ENDBRANCH   1  25
TORSDOF 11
ENDMDL
