MODEL 1
REMARK VINA RESULT:     -12.9      0.000      0.000
REMARK SMILES C[C@@H]1CN(c2ccc(N)cc2C(=O)NCCCNC(=O)c2ccc(-c3c4nc(c(-c5c(F)c(F)c(F)c(F)c5F)c5ccc([nH]5)c(-c5c(F)c(F)c(F)c(F)c5F)c5nc(c(-c6c(F)c(F)c(F)c(F)c6F)c6ccc3[nH]6)C=C5)C=C4)cc2)C[C@H]1C
REMARK SMILES IDX 16 1 15 2 14 3 12 4 13 5 11 7 5 8 6 9 7 10 10 11 8 12 4 13
REMARK SMILES IDX 1 14 2 15 3 16 85 17 84 18 86 19 9 20 17 23 18 24 19 25
REMARK SMILES IDX 20 27 21 28 22 29 83 30 23 31 82 32 24 33 25 34 26 35 76 36
REMARK SMILES IDX 27 37 81 38 75 39 77 40 28 41 80 42 74 43 73 44 29 46 61 47
REMARK SMILES IDX 41 48 60 49 42 50 45 51 59 52 78 53 43 54 44 55 58 57 79 58
REMARK SMILES IDX 46 59 30 60 31 61 39 62 32 63 33 64 37 65 40 66 34 67 35 68
REMARK SMILES IDX 38 69 36 70 62 71 63 72 71 73 64 74 65 75 69 76 72 77 66 78
REMARK SMILES IDX 67 79 70 80 68 81 47 82 48 83 56 84 49 85 50 86 54 87 57 88
REMARK SMILES IDX 51 89 52 90 55 91 53 92
REMARK H PARENT 14 6 9 21 9 22 18 26 77 45 45 56
REMARK Flexibility Score: inf
ROOT
ATOM      1  C   UNL A   1      37.835  19.847  24.827  1.00  0.00     0.042 C 
ENDROOT
BRANCH   1   2
ATOM      2  C   UNL A   1      37.019  21.069  24.507  1.00  0.00     0.118 C 
BRANCH   2   3
ATOM      3  N   UNL A   1      36.163  21.590  25.518  1.00  0.00    -0.352 N 
ATOM      4  C   UNL A   1      34.852  21.212  25.708  1.00  0.00     0.253 C 
ATOM      5  O   UNL A   1      34.466  21.226  26.882  1.00  0.00    -0.269 OA
ATOM      6  H   UNL A   1      36.535  22.269  26.125  1.00  0.00     0.163 HD
BRANCH   4   7
ATOM      7  C   UNL A   1      33.833  20.989  24.610  1.00  0.00     0.065 A 
ATOM      8  C   UNL A   1      33.232  19.818  24.067  1.00  0.00     0.050 A 
ATOM      9  C   UNL A   1      32.322  20.017  22.997  1.00  0.00     0.029 A 
ATOM     10  C   UNL A   1      31.992  21.276  22.486  1.00  0.00     0.027 A 
ATOM     11  C   UNL A   1      33.480  22.254  24.053  1.00  0.00     0.041 A 
ATOM     12  C   UNL A   1      32.545  22.415  23.034  1.00  0.00     0.032 A 
BRANCH   8  13
ATOM     13  N   UNL A   1      33.427  18.501  24.436  1.00  0.00    -0.370 N 
ATOM     14  C   UNL A   1      35.694  15.830  25.483  1.00  0.00     0.010 C 
ATOM     15  C   UNL A   1      34.491  16.381  24.721  1.00  0.00     0.010 C 
ATOM     16  C   UNL A   1      34.719  17.826  24.240  1.00  0.00     0.120 C 
ATOM     17  C   UNL A   1      33.227  16.477  25.589  1.00  0.00     0.010 C 
ATOM     18  C   UNL A   1      32.398  17.581  24.904  1.00  0.00     0.120 C 
ATOM     19  C   UNL A   1      32.488  15.166  25.782  1.00  0.00     0.010 C 
ENDBRANCH   8  13
BRANCH  12  20
ATOM     20  N   UNL A   1      32.291  23.666  22.500  1.00  0.00    -0.399 N 
ATOM     21  H   UNL A   1      31.901  23.746  21.599  1.00  0.00     0.156 HD
ATOM     22  H   UNL A   1      32.500  24.476  23.020  1.00  0.00     0.156 HD
ENDBRANCH  12  20
ENDBRANCH   4   7
ENDBRANCH   2   3
ENDBRANCH   1   2
BRANCH   1  23
ATOM     23  C   UNL A   1      38.830  20.009  25.965  1.00  0.00     0.118 C 
BRANCH  23  24
ATOM     24  N   UNL A   1      40.039  19.186  25.897  1.00  0.00    -0.352 N 
ATOM     25  C   UNL A   1      41.380  19.450  26.062  1.00  0.00     0.251 C 
ATOM     26  H   UNL A   1      39.853  18.242  25.689  1.00  0.00     0.163 HD
ATOM     27  O   UNL A   1      42.189  18.547  25.887  1.00  0.00    -0.269 OA
BRANCH  25  28
ATOM     28  C   UNL A   1      41.867  20.800  26.419  1.00  0.00     0.039 A 
ATOM     29  C   UNL A   1      42.269  21.063  27.734  1.00  0.00     0.014 A 
ATOM     30  C   UNL A   1      41.907  21.823  25.479  1.00  0.00     0.014 A 
ATOM     31  C   UNL A   1      42.767  22.326  28.071  1.00  0.00     0.010 A 
ATOM     32  C   UNL A   1      42.562  23.007  25.764  1.00  0.00     0.010 A 
ATOM     33  C   UNL A   1      42.951  23.296  27.075  1.00  0.00    -0.014 A 
BRANCH  33  34
ATOM     34  C   UNL A   1      43.464  24.656  27.365  1.00  0.00     0.031 A 
ATOM     35  C   UNL A   1      42.539  25.684  27.967  1.00  0.00     0.074 A 
ATOM     36  C   UNL A   1      44.713  24.995  26.999  1.00  0.00     0.049 A 
ATOM     37  N   UNL A   1      42.737  26.959  28.184  1.00  0.00    -0.248 NA
ATOM     38  C   UNL A   1      41.182  25.226  28.318  1.00  0.00     0.031 C 
ATOM     39  C   UNL A   1      45.680  24.105  26.353  1.00  0.00     0.029 A 
ATOM     40  N   UNL A   1      45.382  26.186  27.112  1.00  0.00    -0.354 N 
ATOM     41  C   UNL A   1      41.525  27.453  28.651  1.00  0.00     0.074 A 
ATOM     42  C   UNL A   1      40.575  26.365  28.603  1.00  0.00     0.031 C 
ATOM     43  C   UNL A   1      46.834  24.766  26.173  1.00  0.00     0.029 A 
ATOM     44  C   UNL A   1      46.672  26.137  26.647  1.00  0.00     0.049 A 
ATOM     45  H   UNL A   1      44.974  26.999  27.489  1.00  0.00     0.167 HD
ATOM     46  C   UNL A   1      41.235  28.693  29.112  1.00  0.00     0.037 A 
ATOM     47  C   UNL A   1      47.616  27.095  26.619  1.00  0.00     0.037 A 
ATOM     48  C   UNL A   1      42.203  29.754  29.198  1.00  0.00     0.049 A 
ATOM     49  C   UNL A   1      47.282  28.459  27.156  1.00  0.00     0.074 A 
ATOM     50  C   UNL A   1      42.051  31.024  29.720  1.00  0.00     0.029 A 
ATOM     51  N   UNL A   1      43.512  29.659  28.744  1.00  0.00    -0.354 N 
ATOM     52  N   UNL A   1      46.157  28.899  27.667  1.00  0.00    -0.248 NA
ATOM     53  C   UNL A   1      48.358  29.456  27.125  1.00  0.00     0.031 C 
ATOM     54  C   UNL A   1      43.252  31.719  29.531  1.00  0.00     0.029 A 
ATOM     55  C   UNL A   1      44.174  30.858  28.952  1.00  0.00     0.049 A 
ATOM     56  H   UNL A   1      43.911  28.858  28.336  1.00  0.00     0.167 HD
ATOM     57  C   UNL A   1      46.399  30.211  28.052  1.00  0.00     0.074 A 
ATOM     58  C   UNL A   1      47.785  30.485  27.729  1.00  0.00     0.031 C 
ATOM     59  C   UNL A   1      45.554  31.108  28.623  1.00  0.00     0.037 A 
BRANCH  46  60
ATOM     60  C   UNL A   1      39.817  28.956  29.548  1.00  0.00     0.064 A 
ATOM     61  C   UNL A   1      39.385  28.722  30.864  1.00  0.00     0.173 A 
ATOM     62  C   UNL A   1      38.869  29.431  28.629  1.00  0.00     0.173 A 
ATOM     63  F   UNL A   1      40.243  28.255  31.785  1.00  0.00    -0.203 F 
ATOM     64  C   UNL A   1      38.051  28.893  31.226  1.00  0.00     0.198 A 
ATOM     65  C   UNL A   1      37.545  29.644  29.005  1.00  0.00     0.198 A 
ATOM     66  F   UNL A   1      39.222  29.679  27.358  1.00  0.00    -0.203 F 
ATOM     67  F   UNL A   1      37.648  28.578  32.466  1.00  0.00    -0.200 F 
ATOM     68  C   UNL A   1      37.134  29.360  30.299  1.00  0.00     0.200 A 
ATOM     69  F   UNL A   1      36.662  30.109  28.111  1.00  0.00    -0.200 F 
ATOM     70  F   UNL A   1      35.849  29.521  30.646  1.00  0.00    -0.200 F 
ENDBRANCH  46  60
BRANCH  47  71
ATOM     71  C   UNL A   1      48.983  26.772  26.134  1.00  0.00     0.064 A 
ATOM     72  C   UNL A   1      49.923  26.187  26.996  1.00  0.00     0.173 A 
ATOM     73  C   UNL A   1      49.377  27.016  24.811  1.00  0.00     0.173 A 
ATOM     74  F   UNL A   1      49.598  25.948  28.275  1.00  0.00    -0.203 F 
ATOM     75  C   UNL A   1      51.209  25.878  26.559  1.00  0.00     0.198 A 
ATOM     76  C   UNL A   1      50.654  26.680  24.366  1.00  0.00     0.198 A 
ATOM     77  F   UNL A   1      48.513  27.564  23.942  1.00  0.00    -0.203 F 
ATOM     78  F   UNL A   1      52.097  25.358  27.416  1.00  0.00    -0.200 F 
ATOM     79  C   UNL A   1      51.572  26.118  25.243  1.00  0.00     0.200 A 
ATOM     80  F   UNL A   1      50.996  26.895  23.089  1.00  0.00    -0.200 F 
ATOM     81  F   UNL A   1      52.805  25.811  24.820  1.00  0.00    -0.200 F 
ENDBRANCH  47  71
BRANCH  59  82
ATOM     82  C   UNL A   1      46.129  32.450  28.979  1.00  0.00     0.064 A 
ATOM     83  C   UNL A   1      46.093  33.533  28.087  1.00  0.00     0.173 A 
ATOM     84  C   UNL A   1      46.725  32.653  30.233  1.00  0.00     0.173 A 
ATOM     85  F   UNL A   1      45.545  33.390  26.871  1.00  0.00    -0.203 F 
ATOM     86  C   UNL A   1      46.677  34.753  28.420  1.00  0.00     0.198 A 
ATOM     87  C   UNL A   1      47.270  33.886  30.578  1.00  0.00     0.198 A 
ATOM     88  F   UNL A   1      46.775  31.655  31.128  1.00  0.00    -0.203 F 
ATOM     89  F   UNL A   1      46.698  35.749  27.523  1.00  0.00    -0.200 F 
ATOM     90  C   UNL A   1      47.260  34.930  29.665  1.00  0.00     0.200 A 
ATOM     91  F   UNL A   1      47.815  34.059  31.789  1.00  0.00    -0.200 F 
ATOM     92  F   UNL A   1      47.824  36.103  29.983  1.00  0.00    -0.200 F 
ENDBRANCH  59  82
ENDBRANCH  33  34
ENDBRANCH  25  28
ENDBRANCH  23  24
ENDBRANCH   1  23
TORSDOF 12
ENDMDL
MODEL 2
REMARK VINA RESULT:     -12.9      0.090      1.622
REMARK SMILES C[C@@H]1CN(c2ccc(N)cc2C(=O)NCCCNC(=O)c2ccc(-c3c4nc(c(-c5c(F)c(F)c(F)c(F)c5F)c5ccc([nH]5)c(-c5c(F)c(F)c(F)c(F)c5F)c5nc(c(-c6c(F)c(F)c(F)c(F)c6F)c6ccc3[nH]6)C=C5)C=C4)cc2)C[C@H]1C
REMARK SMILES IDX 16 1 15 2 14 3 12 4 13 5 11 7 5 8 6 9 7 10 10 11 8 12 4 13
REMARK SMILES IDX 1 14 2 15 3 16 85 17 84 18 86 19 9 20 17 23 18 24 19 25
REMARK SMILES IDX 20 27 21 28 22 29 83 30 23 31 82 32 24 33 25 34 26 35 76 36
REMARK SMILES IDX 27 37 81 38 75 39 77 40 28 41 80 42 74 43 73 44 29 46 61 47
REMARK SMILES IDX 41 48 60 49 42 50 45 51 59 52 78 53 43 54 44 55 58 57 79 58
REMARK SMILES IDX 46 59 30 60 31 61 39 62 32 63 33 64 37 65 40 66 34 67 35 68
REMARK SMILES IDX 38 69 36 70 62 71 63 72 71 73 64 74 65 75 69 76 72 77 66 78
REMARK SMILES IDX 67 79 70 80 68 81 47 82 48 83 56 84 49 85 50 86 54 87 57 88
REMARK SMILES IDX 51 89 52 90 55 91 53 92
REMARK H PARENT 14 6 9 21 9 22 18 26 77 45 45 56
REMARK Flexibility Score: inf
ROOT
ATOM      1  C   UNL A   1      37.801  19.706  24.973  1.00  0.00     0.042 C 
ENDROOT
BRANCH   1   2
ATOM      2  C   UNL A   1      36.977  20.897  24.565  1.00  0.00     0.118 C 
BRANCH   2   3
ATOM      3  N   UNL A   1      36.123  21.489  25.537  1.00  0.00    -0.352 N 
ATOM      4  C   UNL A   1      34.794  21.171  25.712  1.00  0.00     0.253 C 
ATOM      5  O   UNL A   1      34.386  21.244  26.877  1.00  0.00    -0.269 OA
ATOM      6  H   UNL A   1      36.511  22.175  26.127  1.00  0.00     0.163 HD
BRANCH   4   7
ATOM      7  C   UNL A   1      33.790  20.948  24.602  1.00  0.00     0.065 A 
ATOM      8  C   UNL A   1      33.196  19.778  24.051  1.00  0.00     0.050 A 
ATOM      9  C   UNL A   1      32.300  19.977  22.970  1.00  0.00     0.029 A 
ATOM     10  C   UNL A   1      31.974  21.235  22.456  1.00  0.00     0.027 A 
ATOM     11  C   UNL A   1      33.442  22.213  24.041  1.00  0.00     0.041 A 
ATOM     12  C   UNL A   1      32.520  22.375  23.011  1.00  0.00     0.032 A 
BRANCH   8  13
ATOM     13  N   UNL A   1      33.387  18.460  24.421  1.00  0.00    -0.370 N 
ATOM     14  C   UNL A   1      35.650  15.780  25.455  1.00  0.00     0.010 C 
ATOM     15  C   UNL A   1      34.443  16.335  24.701  1.00  0.00     0.010 C 
ATOM     16  C   UNL A   1      34.674  17.779  24.215  1.00  0.00     0.120 C 
ATOM     17  C   UNL A   1      33.187  16.440  25.581  1.00  0.00     0.010 C 
ATOM     18  C   UNL A   1      32.358  17.547  24.900  1.00  0.00     0.120 C 
ATOM     19  C   UNL A   1      32.443  15.133  25.782  1.00  0.00     0.010 C 
ENDBRANCH   8  13
BRANCH  12  20
ATOM     20  N   UNL A   1      32.272  23.626  22.475  1.00  0.00    -0.399 N 
ATOM     21  H   UNL A   1      31.646  23.722  21.721  1.00  0.00     0.156 HD
ATOM     22  H   UNL A   1      32.720  24.420  22.847  1.00  0.00     0.156 HD
ENDBRANCH  12  20
ENDBRANCH   4   7
ENDBRANCH   2   3
ENDBRANCH   1   2
BRANCH   1  23
ATOM     23  C   UNL A   1      38.897  19.990  25.987  1.00  0.00     0.118 C 
BRANCH  23  24
ATOM     24  N   UNL A   1      40.109  19.175  25.883  1.00  0.00    -0.352 N 
ATOM     25  C   UNL A   1      41.452  19.445  26.022  1.00  0.00     0.251 C 
ATOM     26  H   UNL A   1      39.924  18.232  25.668  1.00  0.00     0.163 HD
ATOM     27  O   UNL A   1      42.261  18.549  25.818  1.00  0.00    -0.269 OA
BRANCH  25  28
ATOM     28  C   UNL A   1      41.939  20.793  26.384  1.00  0.00     0.039 A 
ATOM     29  C   UNL A   1      42.310  21.060  27.707  1.00  0.00     0.014 A 
ATOM     30  C   UNL A   1      42.009  21.811  25.440  1.00  0.00     0.014 A 
ATOM     31  C   UNL A   1      42.808  22.322  28.050  1.00  0.00     0.010 A 
ATOM     32  C   UNL A   1      42.665  22.992  25.736  1.00  0.00     0.010 A 
ATOM     33  C   UNL A   1      43.024  23.285  27.054  1.00  0.00    -0.014 A 
BRANCH  33  34
ATOM     34  C   UNL A   1      43.539  24.643  27.350  1.00  0.00     0.031 A 
ATOM     35  C   UNL A   1      42.612  25.674  27.946  1.00  0.00     0.074 A 
ATOM     36  C   UNL A   1      44.792  24.979  26.994  1.00  0.00     0.049 A 
ATOM     37  N   UNL A   1      42.812  26.948  28.167  1.00  0.00    -0.248 NA
ATOM     38  C   UNL A   1      41.251  25.219  28.286  1.00  0.00     0.031 C 
ATOM     39  C   UNL A   1      45.760  24.087  26.354  1.00  0.00     0.029 A 
ATOM     40  N   UNL A   1      45.463  26.167  27.113  1.00  0.00    -0.354 N 
ATOM     41  C   UNL A   1      41.598  27.444  28.625  1.00  0.00     0.074 A 
ATOM     42  C   UNL A   1      40.645  26.359  28.568  1.00  0.00     0.031 C 
ATOM     43  C   UNL A   1      46.917  24.745  26.184  1.00  0.00     0.029 A 
ATOM     44  C   UNL A   1      46.756  26.115  26.658  1.00  0.00     0.049 A 
ATOM     45  H   UNL A   1      45.055  26.981  27.488  1.00  0.00     0.167 HD
ATOM     46  C   UNL A   1      41.308  28.685  29.086  1.00  0.00     0.037 A 
ATOM     47  C   UNL A   1      47.704  27.070  26.639  1.00  0.00     0.037 A 
ATOM     48  C   UNL A   1      42.278  29.742  29.181  1.00  0.00     0.049 A 
ATOM     49  C   UNL A   1      47.369  28.435  27.176  1.00  0.00     0.074 A 
ATOM     50  C   UNL A   1      42.127  31.012  29.704  1.00  0.00     0.029 A 
ATOM     51  N   UNL A   1      43.591  29.644  28.737  1.00  0.00    -0.354 N 
ATOM     52  N   UNL A   1      46.242  28.877  27.679  1.00  0.00    -0.248 NA
ATOM     53  C   UNL A   1      48.449  29.428  27.154  1.00  0.00     0.031 C 
ATOM     54  C   UNL A   1      43.331  31.703  29.524  1.00  0.00     0.029 A 
ATOM     55  C   UNL A   1      44.255  30.841  28.951  1.00  0.00     0.049 A 
ATOM     56  H   UNL A   1      43.991  28.842  28.330  1.00  0.00     0.167 HD
ATOM     57  C   UNL A   1      46.484  30.188  28.067  1.00  0.00     0.074 A 
ATOM     58  C   UNL A   1      47.875  30.459  27.756  1.00  0.00     0.031 C 
ATOM     59  C   UNL A   1      45.639  31.087  28.633  1.00  0.00     0.037 A 
BRANCH  46  60
ATOM     60  C   UNL A   1      39.888  28.951  29.511  1.00  0.00     0.064 A 
ATOM     61  C   UNL A   1      39.450  28.733  30.828  1.00  0.00     0.173 A 
ATOM     62  C   UNL A   1      38.944  29.414  28.581  1.00  0.00     0.173 A 
ATOM     63  F   UNL A   1      40.303  28.278  31.758  1.00  0.00    -0.203 F 
ATOM     64  C   UNL A   1      38.113  28.907  31.181  1.00  0.00     0.198 A 
ATOM     65  C   UNL A   1      37.618  29.630  28.949  1.00  0.00     0.198 A 
ATOM     66  F   UNL A   1      39.304  29.647  27.310  1.00  0.00    -0.203 F 
ATOM     67  F   UNL A   1      37.705  28.606  32.422  1.00  0.00    -0.200 F 
ATOM     68  C   UNL A   1      37.200  29.361  30.243  1.00  0.00     0.200 A 
ATOM     69  F   UNL A   1      36.739  30.084  28.044  1.00  0.00    -0.200 F 
ATOM     70  F   UNL A   1      35.914  29.525  30.582  1.00  0.00    -0.200 F 
ENDBRANCH  46  60
BRANCH  47  71
ATOM     71  C   UNL A   1      49.073  26.744  26.164  1.00  0.00     0.064 A 
ATOM     72  C   UNL A   1      49.445  27.001  24.836  1.00  0.00     0.173 A 
ATOM     73  C   UNL A   1      50.041  26.193  27.017  1.00  0.00     0.173 A 
ATOM     74  F   UNL A   1      48.550  27.513  23.979  1.00  0.00    -0.203 F 
ATOM     75  C   UNL A   1      50.724  26.701  24.374  1.00  0.00     0.198 A 
ATOM     76  C   UNL A   1      51.329  25.920  26.561  1.00  0.00     0.198 A 
ATOM     77  F   UNL A   1      49.741  25.938  28.299  1.00  0.00    -0.203 F 
ATOM     78  F   UNL A   1      51.037  26.919  23.090  1.00  0.00    -0.200 F 
ATOM     79  C   UNL A   1      51.668  26.167  25.238  1.00  0.00     0.200 A 
ATOM     80  F   UNL A   1      52.245  25.422  27.403  1.00  0.00    -0.200 F 
ATOM     81  F   UNL A   1      52.901  25.889  24.796  1.00  0.00    -0.200 F 
ENDBRANCH  47  71
BRANCH  59  82
ATOM     82  C   UNL A   1      46.215  32.427  28.995  1.00  0.00     0.064 A 
ATOM     83  C   UNL A   1      46.811  32.667  30.243  1.00  0.00     0.173 A 
ATOM     84  C   UNL A   1      46.170  33.486  28.075  1.00  0.00     0.173 A 
ATOM     85  F   UNL A   1      46.869  31.692  31.163  1.00  0.00    -0.203 F 
ATOM     86  C   UNL A   1      47.293  33.931  30.573  1.00  0.00     0.198 A 
ATOM     87  C   UNL A   1      46.691  34.736  28.395  1.00  0.00     0.198 A 
ATOM     88  F   UNL A   1      45.624  33.307  26.863  1.00  0.00    -0.203 F 
ATOM     89  F   UNL A   1      47.787  34.156  31.799  1.00  0.00    -0.200 F 
ATOM     90  C   UNL A   1      47.237  34.962  29.648  1.00  0.00     0.200 A 
ATOM     91  F   UNL A   1      46.654  35.725  27.491  1.00  0.00    -0.200 F 
ATOM     92  F   UNL A   1      47.700  36.178  29.970  1.00  0.00    -0.200 F 
ENDBRANCH  59  82
ENDBRANCH  33  34
ENDBRANCH  25  28
ENDBRANCH  23  24
ENDBRANCH   1  23
TORSDOF 12
ENDMDL
MODEL 3
REMARK VINA RESULT:     -12.8      6.490     11.804
REMARK SMILES C[C@@H]1CN(c2ccc(N)cc2C(=O)NCCCNC(=O)c2ccc(-c3c4nc(c(-c5c(F)c(F)c(F)c(F)c5F)c5ccc([nH]5)c(-c5c(F)c(F)c(F)c(F)c5F)c5nc(c(-c6c(F)c(F)c(F)c(F)c6F)c6ccc3[nH]6)C=C5)C=C4)cc2)C[C@H]1C
REMARK SMILES IDX 16 1 15 2 14 3 12 4 13 5 11 7 5 8 6 9 7 10 10 11 8 12 4 13
REMARK SMILES IDX 1 14 2 15 3 16 85 17 84 18 86 19 9 20 17 23 18 24 19 25
REMARK SMILES IDX 20 27 21 28 22 29 83 30 23 31 82 32 24 33 25 34 26 35 76 36
REMARK SMILES IDX 27 37 81 38 75 39 77 40 28 41 80 42 74 43 73 44 29 46 61 47
REMARK SMILES IDX 41 48 60 49 42 50 45 51 59 52 78 53 43 54 44 55 58 57 79 58
REMARK SMILES IDX 46 59 30 60 31 61 39 62 32 63 33 64 37 65 40 66 34 67 35 68
REMARK SMILES IDX 38 69 36 70 62 71 63 72 71 73 64 74 65 75 69 76 72 77 66 78
REMARK SMILES IDX 67 79 70 80 68 81 47 82 48 83 56 84 49 85 50 86 54 87 57 88
REMARK SMILES IDX 51 89 52 90 55 91 53 92
REMARK H PARENT 14 6 9 21 9 22 18 26 77 45 45 56
REMARK Flexibility Score: inf
ROOT
ATOM      1  C   UNL A   1      31.331  31.626  26.526  1.00  0.00     0.042 C 
ENDROOT
BRANCH   1   2
ATOM      2  C   UNL A   1      31.659  30.159  26.583  1.00  0.00     0.118 C 
BRANCH   2   3
ATOM      3  N   UNL A   1      32.494  29.617  25.566  1.00  0.00    -0.352 N 
ATOM      4  C   UNL A   1      32.054  29.207  24.326  1.00  0.00     0.253 C 
ATOM      5  O   UNL A   1      32.861  29.369  23.403  1.00  0.00    -0.269 OA
ATOM      6  H   UNL A   1      33.454  29.529  25.763  1.00  0.00     0.163 HD
BRANCH   4   7
ATOM      7  C   UNL A   1      30.790  28.419  24.058  1.00  0.00     0.065 A 
ATOM      8  C   UNL A   1      29.532  28.767  23.490  1.00  0.00     0.050 A 
ATOM      9  C   UNL A   1      28.561  27.734  23.433  1.00  0.00     0.029 A 
ATOM     10  C   UNL A   1      28.790  26.430  23.881  1.00  0.00     0.027 A 
ATOM     11  C   UNL A   1      30.981  27.082  24.515  1.00  0.00     0.041 A 
ATOM     12  C   UNL A   1      30.021  26.081  24.400  1.00  0.00     0.032 A 
BRANCH   8  13
ATOM     13  N   UNL A   1      29.120  29.989  22.993  1.00  0.00    -0.370 N 
ATOM     14  C   UNL A   1      29.125  33.638  23.219  1.00  0.00     0.010 C 
ATOM     15  C   UNL A   1      28.471  32.288  22.936  1.00  0.00     0.010 C 
ATOM     16  C   UNL A   1      29.011  31.176  23.855  1.00  0.00     0.120 C 
ATOM     17  C   UNL A   1      28.764  31.769  21.519  1.00  0.00     0.010 C 
ATOM     18  C   UNL A   1      28.608  30.241  21.652  1.00  0.00     0.120 C 
ATOM     19  C   UNL A   1      27.917  32.393  20.427  1.00  0.00     0.010 C 
ENDBRANCH   8  13
BRANCH  12  20
ATOM     20  N   UNL A   1      30.251  24.818  24.917  1.00  0.00    -0.399 N 
ATOM     21  H   UNL A   1      29.708  24.489  25.670  1.00  0.00     0.156 HD
ATOM     22  H   UNL A   1      30.955  24.248  24.532  1.00  0.00     0.156 HD
ENDBRANCH  12  20
ENDBRANCH   4   7
ENDBRANCH   2   3
ENDBRANCH   1   2
BRANCH   1  23
ATOM     23  C   UNL A   1      32.523  32.564  26.614  1.00  0.00     0.118 C 
BRANCH  23  24
ATOM     24  N   UNL A   1      32.306  33.831  27.317  1.00  0.00    -0.352 N 
ATOM     25  C   UNL A   1      32.953  34.466  28.353  1.00  0.00     0.251 C 
ATOM     26  H   UNL A   1      31.534  34.336  26.974  1.00  0.00     0.163 HD
ATOM     27  O   UNL A   1      32.498  35.522  28.777  1.00  0.00    -0.269 OA
BRANCH  25  28
ATOM     28  C   UNL A   1      34.161  33.893  28.983  1.00  0.00     0.039 A 
ATOM     29  C   UNL A   1      35.410  34.477  28.738  1.00  0.00     0.014 A 
ATOM     30  C   UNL A   1      34.086  32.765  29.791  1.00  0.00     0.014 A 
ATOM     31  C   UNL A   1      36.553  33.964  29.359  1.00  0.00     0.010 A 
ATOM     32  C   UNL A   1      35.179  32.371  30.542  1.00  0.00     0.010 A 
ATOM     33  C   UNL A   1      36.437  32.928  30.297  1.00  0.00    -0.014 A 
BRANCH  33  34
ATOM     34  C   UNL A   1      37.608  32.332  30.984  1.00  0.00     0.031 A 
ATOM     35  C   UNL A   1      38.405  31.257  30.290  1.00  0.00     0.074 A 
ATOM     36  C   UNL A   1      37.889  32.678  32.253  1.00  0.00     0.049 A 
ATOM     37  N   UNL A   1      39.381  30.515  30.748  1.00  0.00    -0.248 NA
ATOM     38  C   UNL A   1      38.011  30.931  28.907  1.00  0.00     0.031 C 
ATOM     39  C   UNL A   1      37.152  33.660  33.050  1.00  0.00     0.029 A 
ATOM     40  N   UNL A   1      38.871  32.233  33.100  1.00  0.00    -0.354 N 
ATOM     41  C   UNL A   1      39.678  29.616  29.730  1.00  0.00     0.074 A 
ATOM     42  C   UNL A   1      38.727  29.846  28.668  1.00  0.00     0.031 C 
ATOM     43  C   UNL A   1      37.738  33.781  34.251  1.00  0.00     0.029 A 
ATOM     44  C   UNL A   1      38.860  32.851  34.325  1.00  0.00     0.049 A 
ATOM     45  H   UNL A   1      39.520  31.536  32.853  1.00  0.00     0.167 HD
ATOM     46  C   UNL A   1      40.678  28.704  29.669  1.00  0.00     0.037 A 
ATOM     47  C   UNL A   1      39.676  32.687  35.382  1.00  0.00     0.037 A 
ATOM     48  C   UNL A   1      41.647  28.519  30.715  1.00  0.00     0.049 A 
ATOM     49  C   UNL A   1      40.794  31.685  35.286  1.00  0.00     0.074 A 
ATOM     50  C   UNL A   1      42.750  27.686  30.737  1.00  0.00     0.029 A 
ATOM     51  N   UNL A   1      41.624  29.185  31.933  1.00  0.00    -0.354 N 
ATOM     52  N   UNL A   1      41.118  30.893  34.292  1.00  0.00    -0.248 NA
ATOM     53  C   UNL A   1      41.668  31.567  36.459  1.00  0.00     0.031 C 
ATOM     54  C   UNL A   1      43.362  27.806  31.990  1.00  0.00     0.029 A 
ATOM     55  C   UNL A   1      42.680  28.765  32.725  1.00  0.00     0.049 A 
ATOM     56  H   UNL A   1      40.955  29.859  32.196  1.00  0.00     0.167 HD
ATOM     57  C   UNL A   1      42.254  30.208  34.704  1.00  0.00     0.074 A 
ATOM     58  C   UNL A   1      42.570  30.696  36.032  1.00  0.00     0.031 C 
ATOM     59  C   UNL A   1      42.974  29.265  34.044  1.00  0.00     0.037 A 
BRANCH  46  60
ATOM     60  C   UNL A   1      40.756  27.845  28.435  1.00  0.00     0.064 A 
ATOM     61  C   UNL A   1      40.132  26.588  28.359  1.00  0.00     0.173 A 
ATOM     62  C   UNL A   1      41.483  28.277  27.315  1.00  0.00     0.173 A 
ATOM     63  F   UNL A   1      39.434  26.116  29.403  1.00  0.00    -0.203 F 
ATOM     64  C   UNL A   1      40.285  25.774  27.239  1.00  0.00     0.198 A 
ATOM     65  C   UNL A   1      41.597  27.479  26.179  1.00  0.00     0.198 A 
ATOM     66  F   UNL A   1      42.096  29.471  27.324  1.00  0.00    -0.203 F 
ATOM     67  F   UNL A   1      39.753  24.543  27.229  1.00  0.00    -0.200 F 
ATOM     68  C   UNL A   1      41.012  26.222  26.148  1.00  0.00     0.200 A 
ATOM     69  F   UNL A   1      42.288  27.920  25.118  1.00  0.00    -0.200 F 
ATOM     70  F   UNL A   1      41.162  25.437  25.072  1.00  0.00    -0.200 F 
ENDBRANCH  46  60
BRANCH  47  71
ATOM     71  C   UNL A   1      39.511  33.544  36.585  1.00  0.00     0.064 A 
ATOM     72  C   UNL A   1      40.147  34.791  36.661  1.00  0.00     0.173 A 
ATOM     73  C   UNL A   1      38.708  33.154  37.666  1.00  0.00     0.173 A 
ATOM     74  F   UNL A   1      40.937  35.201  35.658  1.00  0.00    -0.203 F 
ATOM     75  C   UNL A   1      40.003  35.607  37.781  1.00  0.00     0.198 A 
ATOM     76  C   UNL A   1      38.541  33.984  38.773  1.00  0.00     0.198 A 
ATOM     77  F   UNL A   1      38.068  31.975  37.639  1.00  0.00    -0.203 F 
ATOM     78  F   UNL A   1      40.656  36.775  37.843  1.00  0.00    -0.200 F 
ATOM     79  C   UNL A   1      39.195  35.206  38.834  1.00  0.00     0.200 A 
ATOM     80  F   UNL A   1      37.745  33.602  39.781  1.00  0.00    -0.200 F 
ATOM     81  F   UNL A   1      39.048  35.995  39.905  1.00  0.00    -0.200 F 
ENDBRANCH  47  71
BRANCH  59  82
ATOM     82  C   UNL A   1      44.202  28.742  34.736  1.00  0.00     0.064 A 
ATOM     83  C   UNL A   1      45.457  29.349  34.582  1.00  0.00     0.173 A 
ATOM     84  C   UNL A   1      44.116  27.614  35.568  1.00  0.00     0.173 A 
ATOM     85  F   UNL A   1      45.596  30.422  33.789  1.00  0.00    -0.203 F 
ATOM     86  C   UNL A   1      46.589  28.815  35.193  1.00  0.00     0.198 A 
ATOM     87  C   UNL A   1      45.242  27.110  36.211  1.00  0.00     0.198 A 
ATOM     88  F   UNL A   1      42.937  27.003  35.761  1.00  0.00    -0.203 F 
ATOM     89  F   UNL A   1      47.790  29.367  34.969  1.00  0.00    -0.200 F 
ATOM     90  C   UNL A   1      46.480  27.701  36.010  1.00  0.00     0.200 A 
ATOM     91  F   UNL A   1      45.130  26.044  37.016  1.00  0.00    -0.200 F 
ATOM     92  F   UNL A   1      47.571  27.188  36.596  1.00  0.00    -0.200 F 
ENDBRANCH  59  82
ENDBRANCH  33  34
ENDBRANCH  25  28
ENDBRANCH  23  24
ENDBRANCH   1  23
TORSDOF 12
ENDMDL
