MODEL 1
REMARK VINA RESULT:     -11.1      0.000      0.000
REMARK SMILES O=C(COc1cccc(/C=C2\SC(=O)N(c3cccc(Cl)c3)C2=O)c1)NCCCNC(=O)c1ccc(-c2c3nc(c(-c4c(F)c(F)c(F)c(F)c4F)c4ccc([nH]4)c(-c4c(F)c(F)c(F)c(F)c4F)c4nc(c(-c5c(F)c(F)c(F)c(F)c5F)c5ccc2[nH]5)C=C4)C=C3)cc1
REMARK SMILES IDX 27 1 26 2 1 3 2 4 3 6 4 7 5 8 6 9 25 10 7 11 9 12 8 13 10 14
REMARK SMILES IDX 11 15 12 16 23 17 13 18 15 19 24 20 14 21 16 22 17 23 22 24
REMARK SMILES IDX 18 25 20 26 19 27 21 28 28 29 29 30 30 31 31 32 32 34 33 35
REMARK SMILES IDX 34 36 95 37 35 38 94 39 36 40 37 41 38 42 88 43 39 44 93 45
REMARK SMILES IDX 87 46 89 47 40 48 92 49 86 50 85 51 41 53 73 54 53 55 72 56
REMARK SMILES IDX 54 57 57 58 71 59 90 60 55 61 56 62 70 64 91 65 58 66 42 67
REMARK SMILES IDX 43 68 51 69 44 70 45 71 49 72 52 73 46 74 47 75 50 76 48 77
REMARK SMILES IDX 74 78 75 79 83 80 76 81 77 82 81 83 84 84 78 85 79 86 82 87
REMARK SMILES IDX 80 88 59 89 60 90 68 91 61 92 62 93 66 94 69 95 63 96 64 97
REMARK SMILES IDX 67 98 65 99
REMARK H PARENT 26 5 30 33 89 52 57 63
REMARK Flexibility Score: inf
ROOT
ATOM      1  C   UNL A   1      33.939  35.024  29.057  1.00  0.00     0.117 C 
ENDROOT
BRANCH   1   2
ATOM      2  N   UNL A   1      34.372  34.994  30.439  1.00  0.00    -0.353 N 
ATOM      3  O   UNL A   1      32.387  35.737  31.317  1.00  0.00    -0.271 OA
ATOM      4  C   UNL A   1      33.492  35.226  31.478  1.00  0.00     0.257 C 
ATOM      5  H   UNL A   1      35.317  34.803  30.643  1.00  0.00     0.163 HD
BRANCH   4   6
ATOM      6  C   UNL A   1      33.982  34.749  32.855  1.00  0.00     0.329 C 
BRANCH   6   7
ATOM      7  O   UNL A   1      34.468  33.415  32.969  1.00  0.00    -0.484 OA
BRANCH   7   8
ATOM      8  C   UNL A   1      35.799  33.285  33.271  1.00  0.00     0.120 A 
ATOM      9  C   UNL A   1      36.528  34.456  33.467  1.00  0.00     0.046 A 
ATOM     10  C   UNL A   1      36.476  32.071  33.239  1.00  0.00     0.054 A 
ATOM     11  C   UNL A   1      37.916  34.402  33.641  1.00  0.00     0.004 A 
ATOM     12  C   UNL A   1      37.871  32.011  33.335  1.00  0.00    -0.021 A 
ATOM     13  C   UNL A   1      38.594  33.181  33.562  1.00  0.00     0.008 A 
BRANCH  12  14
ATOM     14  C   UNL A   1      38.513  30.710  33.110  1.00  0.00     0.029 C 
ATOM     15  C   UNL A   1      39.419  30.182  33.949  1.00  0.00     0.083 C 
ATOM     16  S   UNL A   1      39.872  30.772  35.497  1.00  0.00    -0.022 SA
ATOM     17  C   UNL A   1      40.232  28.984  33.598  1.00  0.00     0.272 C 
ATOM     18  C   UNL A   1      41.141  29.576  35.682  1.00  0.00     0.298 C 
ATOM     19  N   UNL A   1      41.153  28.717  34.602  1.00  0.00    -0.236 N 
ATOM     20  O   UNL A   1      40.052  28.366  32.556  1.00  0.00    -0.268 OA
ATOM     21  O   UNL A   1      41.910  29.629  36.626  1.00  0.00    -0.260 OA
BRANCH  19  22
ATOM     22  C   UNL A   1      42.084  27.637  34.522  1.00  0.00     0.054 A 
ATOM     23  C   UNL A   1      43.338  27.804  33.913  1.00  0.00     0.027 A 
ATOM     24  C   UNL A   1      41.763  26.373  35.044  1.00  0.00     0.047 A 
ATOM     25  C   UNL A   1      44.244  26.741  33.826  1.00  0.00     0.004 A 
ATOM     26  C   UNL A   1      42.658  25.308  34.925  1.00  0.00     0.043 A 
ATOM     27  C   UNL A   1      43.899  25.487  34.322  1.00  0.00     0.020 A 
ATOM     28  Cl  UNL A   1      42.209  23.749  35.501  1.00  0.00    -0.084 Cl
ENDBRANCH  19  22
ENDBRANCH  12  14
ENDBRANCH   7   8
ENDBRANCH   6   7
ENDBRANCH   4   6
ENDBRANCH   1   2
BRANCH   1  29
ATOM     29  C   UNL A   1      34.477  33.882  28.214  1.00  0.00     0.042 C 
BRANCH  29  30
ATOM     30  C   UNL A   1      34.684  32.584  28.982  1.00  0.00     0.118 C 
BRANCH  30  31
ATOM     31  N   UNL A   1      34.041  31.429  28.372  1.00  0.00    -0.352 N 
ATOM     32  C   UNL A   1      34.554  30.212  28.000  1.00  0.00     0.251 C 
ATOM     33  H   UNL A   1      33.078  31.540  28.195  1.00  0.00     0.163 HD
ATOM     34  O   UNL A   1      33.825  29.394  27.445  1.00  0.00    -0.269 OA
BRANCH  32  35
ATOM     35  C   UNL A   1      35.974  29.868  28.234  1.00  0.00     0.039 A 
ATOM     36  C   UNL A   1      36.326  29.329  29.476  1.00  0.00     0.014 A 
ATOM     37  C   UNL A   1      36.964  30.112  27.280  1.00  0.00     0.014 A 
ATOM     38  C   UNL A   1      37.656  28.998  29.743  1.00  0.00     0.010 A 
ATOM     39  C   UNL A   1      38.276  29.703  27.514  1.00  0.00     0.010 A 
ATOM     40  C   UNL A   1      38.640  29.161  28.755  1.00  0.00    -0.014 A 
BRANCH  40  41
ATOM     41  C   UNL A   1      40.056  28.804  29.028  1.00  0.00     0.031 A 
ATOM     42  C   UNL A   1      40.941  29.749  29.793  1.00  0.00     0.074 A 
ATOM     43  C   UNL A   1      40.554  27.644  28.560  1.00  0.00     0.049 A 
ATOM     44  N   UNL A   1      42.203  29.623  30.122  1.00  0.00    -0.248 NA
ATOM     45  C   UNL A   1      40.337  31.020  30.225  1.00  0.00     0.031 C 
ATOM     46  C   UNL A   1      39.815  26.668  27.758  1.00  0.00     0.029 A 
ATOM     47  N   UNL A   1      41.803  27.090  28.692  1.00  0.00    -0.354 N 
ATOM     48  C   UNL A   1      42.543  30.796  30.781  1.00  0.00     0.074 A 
ATOM     49  C   UNL A   1      41.375  31.649  30.757  1.00  0.00     0.031 C 
ATOM     50  C   UNL A   1      40.615  25.621  27.496  1.00  0.00     0.029 A 
ATOM     51  C   UNL A   1      41.927  25.863  28.087  1.00  0.00     0.049 A 
ATOM     52  H   UNL A   1      42.540  27.530  29.175  1.00  0.00     0.167 HD
ATOM     53  C   UNL A   1      43.714  31.124  31.380  1.00  0.00     0.037 A 
ATOM     54  C   UNL A   1      42.980  25.026  28.025  1.00  0.00     0.037 A 
ATOM     55  C   UNL A   1      44.866  30.263  31.431  1.00  0.00     0.049 A 
ATOM     56  C   UNL A   1      44.258  25.400  28.725  1.00  0.00     0.074 A 
ATOM     57  C   UNL A   1      46.083  30.483  32.052  1.00  0.00     0.029 A 
ATOM     58  N   UNL A   1      44.939  29.010  30.840  1.00  0.00    -0.354 N 
ATOM     59  N   UNL A   1      44.546  26.484  29.403  1.00  0.00    -0.248 NA
ATOM     60  C   UNL A   1      45.352  24.420  28.665  1.00  0.00     0.031 C 
ATOM     61  C   UNL A   1      46.906  29.378  31.806  1.00  0.00     0.029 A 
ATOM     62  C   UNL A   1      46.185  28.448  31.074  1.00  0.00     0.049 A 
ATOM     63  H   UNL A   1      44.214  28.582  30.329  1.00  0.00     0.167 HD
ATOM     64  C   UNL A   1      45.838  26.303  29.881  1.00  0.00     0.074 A 
ATOM     65  C   UNL A   1      46.272  24.999  29.426  1.00  0.00     0.031 C 
ATOM     66  C   UNL A   1      46.595  27.142  30.628  1.00  0.00     0.037 A 
BRANCH  53  67
ATOM     67  C   UNL A   1      43.802  32.473  32.034  1.00  0.00     0.064 A 
ATOM     68  C   UNL A   1      43.518  32.649  33.397  1.00  0.00     0.173 A 
ATOM     69  C   UNL A   1      44.199  33.599  31.298  1.00  0.00     0.173 A 
ATOM     70  F   UNL A   1      43.120  31.607  34.144  1.00  0.00    -0.203 F 
ATOM     71  C   UNL A   1      43.597  33.906  33.990  1.00  0.00     0.198 A 
ATOM     72  C   UNL A   1      44.309  34.849  31.902  1.00  0.00     0.198 A 
ATOM     73  F   UNL A   1      44.488  33.486  29.992  1.00  0.00    -0.203 F 
ATOM     74  F   UNL A   1      43.269  34.058  35.281  1.00  0.00    -0.200 F 
ATOM     75  C   UNL A   1      43.999  35.003  33.244  1.00  0.00     0.200 A 
ATOM     76  F   UNL A   1      44.709  35.906  31.182  1.00  0.00    -0.200 F 
ATOM     77  F   UNL A   1      44.080  36.211  33.817  1.00  0.00    -0.200 F 
ENDBRANCH  53  67
BRANCH  54  78
ATOM     78  C   UNL A   1      42.852  23.726  27.317  1.00  0.00     0.064 A 
ATOM     79  C   UNL A   1      42.310  22.605  27.961  1.00  0.00     0.173 A 
ATOM     80  C   UNL A   1      43.276  23.574  25.988  1.00  0.00     0.173 A 
ATOM     81  F   UNL A   1      41.910  22.697  29.239  1.00  0.00    -0.203 F 
ATOM     82  C   UNL A   1      42.221  21.375  27.314  1.00  0.00     0.198 A 
ATOM     83  C   UNL A   1      43.159  22.350  25.334  1.00  0.00     0.198 A 
ATOM     84  F   UNL A   1      43.796  24.617  25.326  1.00  0.00    -0.203 F 
ATOM     85  F   UNL A   1      41.744  20.309  27.971  1.00  0.00    -0.200 F 
ATOM     86  C   UNL A   1      42.640  21.250  25.999  1.00  0.00     0.200 A 
ATOM     87  F   UNL A   1      43.553  22.236  24.058  1.00  0.00    -0.200 F 
ATOM     88  F   UNL A   1      42.553  20.066  25.376  1.00  0.00    -0.200 F 
ENDBRANCH  54  78
BRANCH  66  89
ATOM     89  C   UNL A   1      47.952  26.651  31.046  1.00  0.00     0.064 A 
ATOM     90  C   UNL A   1      48.133  25.871  32.198  1.00  0.00     0.173 A 
ATOM     91  C   UNL A   1      49.082  26.953  30.272  1.00  0.00     0.173 A 
ATOM     92  F   UNL A   1      47.086  25.565  32.979  1.00  0.00    -0.203 F 
ATOM     93  C   UNL A   1      49.403  25.445  32.580  1.00  0.00     0.198 A 
ATOM     94  C   UNL A   1      50.345  26.500  30.640  1.00  0.00     0.198 A 
ATOM     95  F   UNL A   1      48.960  27.689  29.156  1.00  0.00    -0.203 F 
ATOM     96  F   UNL A   1      49.563  24.752  33.716  1.00  0.00    -0.200 F 
ATOM     97  C   UNL A   1      50.507  25.756  31.799  1.00  0.00     0.200 A 
ATOM     98  F   UNL A   1      51.408  26.789  29.877  1.00  0.00    -0.200 F 
ATOM     99  F   UNL A   1      51.728  25.347  32.168  1.00  0.00    -0.200 F 
ENDBRANCH  66  89
ENDBRANCH  40  41
ENDBRANCH  32  35
ENDBRANCH  30  31
ENDBRANCH  29  30
ENDBRANCH   1  29
TORSDOF 14
ENDMDL
MODEL 2
REMARK VINA RESULT:     -10.9      4.732      8.443
REMARK SMILES O=C(COc1cccc(/C=C2\SC(=O)N(c3cccc(Cl)c3)C2=O)c1)NCCCNC(=O)c1ccc(-c2c3nc(c(-c4c(F)c(F)c(F)c(F)c4F)c4ccc([nH]4)c(-c4c(F)c(F)c(F)c(F)c4F)c4nc(c(-c5c(F)c(F)c(F)c(F)c5F)c5ccc2[nH]5)C=C4)C=C3)cc1
REMARK SMILES IDX 27 1 26 2 1 3 2 4 3 6 4 7 5 8 6 9 25 10 7 11 9 12 8 13 10 14
REMARK SMILES IDX 11 15 12 16 23 17 13 18 15 19 24 20 14 21 16 22 17 23 22 24
REMARK SMILES IDX 18 25 20 26 19 27 21 28 28 29 29 30 30 31 31 32 32 34 33 35
REMARK SMILES IDX 34 36 95 37 35 38 94 39 36 40 37 41 38 42 88 43 39 44 93 45
REMARK SMILES IDX 87 46 89 47 40 48 92 49 86 50 85 51 41 53 73 54 53 55 72 56
REMARK SMILES IDX 54 57 57 58 71 59 90 60 55 61 56 62 70 64 91 65 58 66 42 67
REMARK SMILES IDX 43 68 51 69 44 70 45 71 49 72 52 73 46 74 47 75 50 76 48 77
REMARK SMILES IDX 74 78 75 79 83 80 76 81 77 82 81 83 84 84 78 85 79 86 82 87
REMARK SMILES IDX 80 88 59 89 60 90 68 91 61 92 62 93 66 94 69 95 63 96 64 97
REMARK SMILES IDX 67 98 65 99
REMARK H PARENT 26 5 30 33 89 52 57 63
REMARK Flexibility Score: inf
ROOT
ATOM      1  C   UNL A   1      34.591  34.728  28.648  1.00  0.00     0.117 C 
ENDROOT
BRANCH   1   2
ATOM      2  N   UNL A   1      34.488  33.387  28.109  1.00  0.00    -0.353 N 
ATOM      3  O   UNL A   1      36.745  32.977  28.081  1.00  0.00    -0.271 OA
ATOM      4  C   UNL A   1      35.591  32.564  28.002  1.00  0.00     0.257 C 
ATOM      5  H   UNL A   1      33.609  33.055  27.812  1.00  0.00     0.163 HD
BRANCH   4   6
ATOM      6  C   UNL A   1      35.265  31.072  27.826  1.00  0.00     0.329 C 
BRANCH   6   7
ATOM      7  O   UNL A   1      33.912  30.657  27.986  1.00  0.00    -0.484 OA
BRANCH   7   8
ATOM      8  C   UNL A   1      33.271  30.248  26.845  1.00  0.00     0.120 A 
ATOM      9  C   UNL A   1      32.088  30.902  26.506  1.00  0.00     0.046 A 
ATOM     10  C   UNL A   1      33.655  29.131  26.111  1.00  0.00     0.054 A 
ATOM     11  C   UNL A   1      31.312  30.444  25.434  1.00  0.00     0.004 A 
ATOM     12  C   UNL A   1      32.848  28.619  25.088  1.00  0.00    -0.021 A 
ATOM     13  C   UNL A   1      31.683  29.294  24.730  1.00  0.00     0.008 A 
BRANCH  12  14
ATOM     14  C   UNL A   1      33.241  27.337  24.489  1.00  0.00     0.029 C 
ATOM     15  C   UNL A   1      32.906  26.147  25.014  1.00  0.00     0.083 C 
ATOM     16  S   UNL A   1      31.832  25.851  26.320  1.00  0.00    -0.022 SA
ATOM     17  C   UNL A   1      33.502  24.867  24.539  1.00  0.00     0.272 C 
ATOM     18  C   UNL A   1      32.183  24.133  26.339  1.00  0.00     0.298 C 
ATOM     19  N   UNL A   1      33.054  23.809  25.318  1.00  0.00    -0.236 N 
ATOM     20  O   UNL A   1      34.267  24.828  23.583  1.00  0.00    -0.268 OA
ATOM     21  O   UNL A   1      31.741  23.419  27.223  1.00  0.00    -0.260 OA
BRANCH  19  22
ATOM     22  C   UNL A   1      33.481  22.463  25.106  1.00  0.00     0.054 A 
ATOM     23  C   UNL A   1      34.717  22.009  25.595  1.00  0.00     0.027 A 
ATOM     24  C   UNL A   1      32.679  21.560  24.390  1.00  0.00     0.047 A 
ATOM     25  C   UNL A   1      35.138  20.693  25.376  1.00  0.00     0.004 A 
ATOM     26  C   UNL A   1      33.120  20.258  24.146  1.00  0.00     0.043 A 
ATOM     27  C   UNL A   1      34.344  19.819  24.639  1.00  0.00     0.020 A 
ATOM     28  Cl  UNL A   1      32.153  19.194  23.199  1.00  0.00    -0.084 Cl
ENDBRANCH  19  22
ENDBRANCH  12  14
ENDBRANCH   7   8
ENDBRANCH   6   7
ENDBRANCH   4   6
ENDBRANCH   1   2
BRANCH   1  29
ATOM     29  C   UNL A   1      33.258  35.429  28.828  1.00  0.00     0.042 C 
BRANCH  29  30
ATOM     30  C   UNL A   1      33.285  36.573  29.833  1.00  0.00     0.118 C 
BRANCH  30  31
ATOM     31  N   UNL A   1      32.347  36.413  30.935  1.00  0.00    -0.352 N 
ATOM     32  C   UNL A   1      32.453  35.701  32.103  1.00  0.00     0.251 C 
ATOM     33  H   UNL A   1      31.495  36.895  30.822  1.00  0.00     0.163 HD
ATOM     34  O   UNL A   1      31.499  35.665  32.876  1.00  0.00    -0.269 OA
BRANCH  32  35
ATOM     35  C   UNL A   1      33.684  34.955  32.445  1.00  0.00     0.039 A 
ATOM     36  C   UNL A   1      34.913  35.604  32.287  1.00  0.00     0.014 A 
ATOM     37  C   UNL A   1      33.653  33.623  32.866  1.00  0.00     0.014 A 
ATOM     38  C   UNL A   1      36.100  34.934  32.589  1.00  0.00     0.010 A 
ATOM     39  C   UNL A   1      34.831  32.984  33.249  1.00  0.00     0.010 A 
ATOM     40  C   UNL A   1      36.069  33.625  33.095  1.00  0.00    -0.014 A 
BRANCH  40  41
ATOM     41  C   UNL A   1      37.327  32.909  33.427  1.00  0.00     0.031 A 
ATOM     42  C   UNL A   1      38.045  33.197  34.716  1.00  0.00     0.074 A 
ATOM     43  C   UNL A   1      37.840  32.021  32.554  1.00  0.00     0.049 A 
ATOM     44  N   UNL A   1      39.158  32.685  35.180  1.00  0.00    -0.248 NA
ATOM     45  C   UNL A   1      37.449  34.219  35.592  1.00  0.00     0.031 C 
ATOM     46  C   UNL A   1      37.270  31.693  31.247  1.00  0.00     0.029 A 
ATOM     47  N   UNL A   1      38.960  31.231  32.636  1.00  0.00    -0.354 N 
ATOM     48  C   UNL A   1      39.400  33.329  36.386  1.00  0.00     0.074 A 
ATOM     49  C   UNL A   1      38.352  34.311  36.557  1.00  0.00     0.031 C 
ATOM     50  C   UNL A   1      38.025  30.748  30.664  1.00  0.00     0.029 A 
ATOM     51  C   UNL A   1      39.146  30.423  31.541  1.00  0.00     0.049 A 
ATOM     52  H   UNL A   1      39.572  31.243  33.408  1.00  0.00     0.167 HD
ATOM     53  C   UNL A   1      40.388  33.104  37.284  1.00  0.00     0.037 A 
ATOM     54  C   UNL A   1      40.107  29.517  31.281  1.00  0.00     0.037 A 
ATOM     55  C   UNL A   1      41.413  32.105  37.128  1.00  0.00     0.049 A 
ATOM     56  C   UNL A   1      41.175  29.264  32.310  1.00  0.00     0.074 A 
ATOM     57  C   UNL A   1      42.432  31.767  38.001  1.00  0.00     0.029 A 
ATOM     58  N   UNL A   1      41.544  31.279  36.021  1.00  0.00    -0.354 N 
ATOM     59  N   UNL A   1      41.354  29.832  33.477  1.00  0.00    -0.248 NA
ATOM     60  C   UNL A   1      42.165  28.226  31.989  1.00  0.00     0.031 C 
ATOM     61  C   UNL A   1      43.202  30.760  37.407  1.00  0.00     0.029 A 
ATOM     62  C   UNL A   1      42.632  30.436  36.186  1.00  0.00     0.049 A 
ATOM     63  H   UNL A   1      40.951  31.288  35.235  1.00  0.00     0.167 HD
ATOM     64  C   UNL A   1      42.452  29.199  34.046  1.00  0.00     0.074 A 
ATOM     65  C   UNL A   1      42.888  28.193  33.100  1.00  0.00     0.031 C 
ATOM     66  C   UNL A   1      43.044  29.429  35.243  1.00  0.00     0.037 A 
BRANCH  53  67
ATOM     67  C   UNL A   1      40.403  33.952  38.523  1.00  0.00     0.064 A 
ATOM     68  C   UNL A   1      39.663  33.602  39.663  1.00  0.00     0.173 A 
ATOM     69  C   UNL A   1      41.185  35.116  38.583  1.00  0.00     0.173 A 
ATOM     70  F   UNL A   1      38.888  32.507  39.655  1.00  0.00    -0.203 F 
ATOM     71  C   UNL A   1      39.680  34.401  40.803  1.00  0.00     0.198 A 
ATOM     72  C   UNL A   1      41.225  35.895  39.736  1.00  0.00     0.198 A 
ATOM     73  F   UNL A   1      41.916  35.495  37.523  1.00  0.00    -0.203 F 
ATOM     74  F   UNL A   1      38.923  34.074  41.860  1.00  0.00    -0.200 F 
ATOM     75  C   UNL A   1      40.466  35.542  40.842  1.00  0.00     0.200 A 
ATOM     76  F   UNL A   1      41.994  36.992  39.776  1.00  0.00    -0.200 F 
ATOM     77  F   UNL A   1      40.486  36.307  41.941  1.00  0.00    -0.200 F 
ENDBRANCH  53  67
BRANCH  54  78
ATOM     78  C   UNL A   1      40.073  28.744  30.013  1.00  0.00     0.064 A 
ATOM     79  C   UNL A   1      39.450  27.490  29.952  1.00  0.00     0.173 A 
ATOM     80  C   UNL A   1      40.667  29.236  28.842  1.00  0.00     0.173 A 
ATOM     81  F   UNL A   1      38.885  26.969  31.052  1.00  0.00    -0.203 F 
ATOM     82  C   UNL A   1      39.446  26.744  28.775  1.00  0.00     0.198 A 
ATOM     83  C   UNL A   1      40.637  28.501  27.659  1.00  0.00     0.198 A 
ATOM     84  F   UNL A   1      41.271  30.433  28.847  1.00  0.00    -0.203 F 
ATOM     85  F   UNL A   1      38.886  25.527  28.759  1.00  0.00    -0.200 F 
ATOM     86  C   UNL A   1      40.035  27.253  27.628  1.00  0.00     0.200 A 
ATOM     87  F   UNL A   1      41.196  29.002  26.548  1.00  0.00    -0.200 F 
ATOM     88  F   UNL A   1      40.029  26.536  26.495  1.00  0.00    -0.200 F 
ENDBRANCH  54  78
BRANCH  66  89
ATOM     89  C   UNL A   1      44.195  28.541  35.619  1.00  0.00     0.064 A 
ATOM     90  C   UNL A   1      45.511  28.830  35.228  1.00  0.00     0.173 A 
ATOM     91  C   UNL A   1      43.978  27.393  36.396  1.00  0.00     0.173 A 
ATOM     92  F   UNL A   1      45.770  29.909  34.473  1.00  0.00    -0.203 F 
ATOM     93  C   UNL A   1      46.561  27.981  35.568  1.00  0.00     0.198 A 
ATOM     94  C   UNL A   1      45.033  26.563  36.761  1.00  0.00     0.198 A 
ATOM     95  F   UNL A   1      42.739  27.077  36.804  1.00  0.00    -0.203 F 
ATOM     96  F   UNL A   1      47.801  28.243  35.134  1.00  0.00    -0.200 F 
ATOM     97  C   UNL A   1      46.322  26.851  36.338  1.00  0.00     0.200 A 
ATOM     98  F   UNL A   1      44.803  25.481  37.517  1.00  0.00    -0.200 F 
ATOM     99  F   UNL A   1      47.333  26.035  36.665  1.00  0.00    -0.200 F 
ENDBRANCH  66  89
ENDBRANCH  40  41
ENDBRANCH  32  35
ENDBRANCH  30  31
ENDBRANCH  29  30
ENDBRANCH   1  29
TORSDOF 14
ENDMDL
MODEL 3
REMARK VINA RESULT:     -10.8      0.944      2.183
REMARK SMILES O=C(COc1cccc(/C=C2\SC(=O)N(c3cccc(Cl)c3)C2=O)c1)NCCCNC(=O)c1ccc(-c2c3nc(c(-c4c(F)c(F)c(F)c(F)c4F)c4ccc([nH]4)c(-c4c(F)c(F)c(F)c(F)c4F)c4nc(c(-c5c(F)c(F)c(F)c(F)c5F)c5ccc2[nH]5)C=C4)C=C3)cc1
REMARK SMILES IDX 27 1 26 2 1 3 2 4 3 6 4 7 5 8 6 9 25 10 7 11 9 12 8 13 10 14
REMARK SMILES IDX 11 15 12 16 23 17 13 18 15 19 24 20 14 21 16 22 17 23 22 24
REMARK SMILES IDX 18 25 20 26 19 27 21 28 28 29 29 30 30 31 31 32 32 34 33 35
REMARK SMILES IDX 34 36 95 37 35 38 94 39 36 40 37 41 38 42 88 43 39 44 93 45
REMARK SMILES IDX 87 46 89 47 40 48 92 49 86 50 85 51 41 53 73 54 53 55 72 56
REMARK SMILES IDX 54 57 57 58 71 59 90 60 55 61 56 62 70 64 91 65 58 66 42 67
REMARK SMILES IDX 43 68 51 69 44 70 45 71 49 72 52 73 46 74 47 75 50 76 48 77
REMARK SMILES IDX 74 78 75 79 83 80 76 81 77 82 81 83 84 84 78 85 79 86 82 87
REMARK SMILES IDX 80 88 59 89 60 90 68 91 61 92 62 93 66 94 69 95 63 96 64 97
REMARK SMILES IDX 67 98 65 99
REMARK H PARENT 26 5 30 33 89 52 57 63
REMARK Flexibility Score: inf
ROOT
ATOM      1  C   UNL A   1      34.460  34.381  30.267  1.00  0.00     0.117 C 
ENDROOT
BRANCH   1   2
ATOM      2  N   UNL A   1      34.958  34.678  31.594  1.00  0.00    -0.353 N 
ATOM      3  O   UNL A   1      32.906  34.657  32.620  1.00  0.00    -0.271 OA
ATOM      4  C   UNL A   1      34.131  34.652  32.700  1.00  0.00     0.257 C 
ATOM      5  H   UNL A   1      35.910  34.906  31.711  1.00  0.00     0.163 HD
BRANCH   4   6
ATOM      6  C   UNL A   1      34.864  34.565  34.049  1.00  0.00     0.329 C 
BRANCH   6   7
ATOM      7  O   UNL A   1      35.373  33.298  34.455  1.00  0.00    -0.484 OA
BRANCH   7   8
ATOM      8  C   UNL A   1      36.732  33.139  34.357  1.00  0.00     0.120 A 
ATOM      9  C   UNL A   1      37.513  34.292  34.356  1.00  0.00     0.046 A 
ATOM     10  C   UNL A   1      37.342  31.914  34.107  1.00  0.00     0.054 A 
ATOM     11  C   UNL A   1      38.891  34.210  34.121  1.00  0.00     0.004 A 
ATOM     12  C   UNL A   1      38.704  31.829  33.794  1.00  0.00    -0.021 A 
ATOM     13  C   UNL A   1      39.488  32.980  33.826  1.00  0.00     0.008 A 
BRANCH  12  14
ATOM     14  C   UNL A   1      39.223  30.523  33.369  1.00  0.00     0.029 C 
ATOM     15  C   UNL A   1      40.182  29.859  34.037  1.00  0.00     0.083 C 
ATOM     16  S   UNL A   1      40.850  30.259  35.567  1.00  0.00    -0.022 SA
ATOM     17  C   UNL A   1      40.863  28.660  33.475  1.00  0.00     0.272 C 
ATOM     18  C   UNL A   1      42.045  28.979  35.480  1.00  0.00     0.298 C 
ATOM     19  N   UNL A   1      41.873  28.237  34.329  1.00  0.00    -0.236 N 
ATOM     20  O   UNL A   1      40.521  28.165  32.408  1.00  0.00    -0.268 OA
ATOM     21  O   UNL A   1      42.921  28.889  36.324  1.00  0.00    -0.260 OA
BRANCH  19  22
ATOM     22  C   UNL A   1      42.711  27.119  34.032  1.00  0.00     0.054 A 
ATOM     23  C   UNL A   1      43.671  27.184  33.010  1.00  0.00     0.027 A 
ATOM     24  C   UNL A   1      42.588  25.920  34.752  1.00  0.00     0.047 A 
ATOM     25  C   UNL A   1      44.484  26.084  32.714  1.00  0.00     0.004 A 
ATOM     26  C   UNL A   1      43.379  24.815  34.431  1.00  0.00     0.043 A 
ATOM     27  C   UNL A   1      44.329  24.892  33.418  1.00  0.00     0.020 A 
ATOM     28  Cl  UNL A   1      43.154  23.331  35.275  1.00  0.00    -0.084 Cl
ENDBRANCH  19  22
ENDBRANCH  12  14
ENDBRANCH   7   8
ENDBRANCH   6   7
ENDBRANCH   4   6
ENDBRANCH   1   2
BRANCH   1  29
ATOM     29  C   UNL A   1      34.523  32.911  29.895  1.00  0.00     0.042 C 
BRANCH  29  30
ATOM     30  C   UNL A   1      34.438  32.642  28.399  1.00  0.00     0.118 C 
BRANCH  30  31
ATOM     31  N   UNL A   1      33.830  31.363  28.063  1.00  0.00    -0.352 N 
ATOM     32  C   UNL A   1      34.381  30.110  27.961  1.00  0.00     0.251 C 
ATOM     33  H   UNL A   1      32.863  31.403  27.879  1.00  0.00     0.163 HD
ATOM     34  O   UNL A   1      33.677  29.169  27.606  1.00  0.00    -0.269 OA
BRANCH  32  35
ATOM     35  C   UNL A   1      35.813  29.869  28.246  1.00  0.00     0.039 A 
ATOM     36  C   UNL A   1      36.731  30.050  27.205  1.00  0.00     0.014 A 
ATOM     37  C   UNL A   1      36.258  29.424  29.493  1.00  0.00     0.014 A 
ATOM     38  C   UNL A   1      38.091  29.824  27.427  1.00  0.00     0.010 A 
ATOM     39  C   UNL A   1      37.623  29.283  29.737  1.00  0.00     0.010 A 
ATOM     40  C   UNL A   1      38.552  29.461  28.702  1.00  0.00    -0.014 A 
BRANCH  40  41
ATOM     41  C   UNL A   1      39.998  29.228  28.949  1.00  0.00     0.031 A 
ATOM     42  C   UNL A   1      40.820  30.262  29.670  1.00  0.00     0.074 A 
ATOM     43  C   UNL A   1      40.580  28.101  28.498  1.00  0.00     0.049 A 
ATOM     44  N   UNL A   1      42.094  30.247  29.971  1.00  0.00    -0.248 NA
ATOM     45  C   UNL A   1      40.123  31.490  30.085  1.00  0.00     0.031 C 
ATOM     46  C   UNL A   1      39.906  27.047  27.738  1.00  0.00     0.029 A 
ATOM     47  N   UNL A   1      41.873  27.654  28.613  1.00  0.00    -0.354 N 
ATOM     48  C   UNL A   1      42.351  31.462  30.593  1.00  0.00     0.074 A 
ATOM     49  C   UNL A   1      41.117  32.215  30.576  1.00  0.00     0.031 C 
ATOM     50  C   UNL A   1      40.783  26.062  27.483  1.00  0.00     0.029 A 
ATOM     51  C   UNL A   1      42.084  26.426  28.036  1.00  0.00     0.049 A 
ATOM     52  H   UNL A   1      42.582  28.165  29.068  1.00  0.00     0.167 HD
ATOM     53  C   UNL A   1      43.504  31.899  31.155  1.00  0.00     0.037 A 
ATOM     54  C   UNL A   1      43.200  25.676  27.969  1.00  0.00     0.037 A 
ATOM     55  C   UNL A   1      44.724  31.137  31.200  1.00  0.00     0.049 A 
ATOM     56  C   UNL A   1      44.458  26.171  28.629  1.00  0.00     0.074 A 
ATOM     57  C   UNL A   1      45.932  31.472  31.785  1.00  0.00     0.029 A 
ATOM     58  N   UNL A   1      44.887  29.879  30.638  1.00  0.00    -0.354 N 
ATOM     59  N   UNL A   1      44.671  27.292  29.273  1.00  0.00    -0.248 NA
ATOM     60  C   UNL A   1      45.628  25.283  28.566  1.00  0.00     0.031 C 
ATOM     61  C   UNL A   1      46.838  30.432  31.547  1.00  0.00     0.029 A 
ATOM     62  C   UNL A   1      46.179  29.427  30.856  1.00  0.00     0.049 A 
ATOM     63  H   UNL A   1      44.188  29.380  30.155  1.00  0.00     0.167 HD
ATOM     64  C   UNL A   1      45.983  27.230  29.724  1.00  0.00     0.074 A 
ATOM     65  C   UNL A   1      46.513  25.954  29.290  1.00  0.00     0.031 C 
ATOM     66  C   UNL A   1      46.686  28.147  30.432  1.00  0.00     0.037 A 
BRANCH  53  67
ATOM     67  C   UNL A   1      43.495  33.268  31.774  1.00  0.00     0.064 A 
ATOM     68  C   UNL A   1      43.829  34.412  31.033  1.00  0.00     0.173 A 
ATOM     69  C   UNL A   1      43.125  33.442  33.116  1.00  0.00     0.173 A 
ATOM     70  F   UNL A   1      44.203  34.299  29.749  1.00  0.00    -0.203 F 
ATOM     71  C   UNL A   1      43.823  35.674  31.620  1.00  0.00     0.198 A 
ATOM     72  C   UNL A   1      43.089  34.710  33.691  1.00  0.00     0.198 A 
ATOM     73  F   UNL A   1      42.792  32.383  33.869  1.00  0.00    -0.203 F 
ATOM     74  F   UNL A   1      44.197  36.745  30.907  1.00  0.00    -0.200 F 
ATOM     75  C   UNL A   1      43.447  35.823  32.946  1.00  0.00     0.200 A 
ATOM     76  F   UNL A   1      42.714  34.854  34.970  1.00  0.00    -0.200 F 
ATOM     77  F   UNL A   1      43.436  37.039  33.509  1.00  0.00    -0.200 F 
ENDBRANCH  53  67
BRANCH  54  78
ATOM     78  C   UNL A   1      43.164  24.352  27.296  1.00  0.00     0.064 A 
ATOM     79  C   UNL A   1      43.547  24.217  25.954  1.00  0.00     0.173 A 
ATOM     80  C   UNL A   1      42.738  23.200  27.972  1.00  0.00     0.173 A 
ATOM     81  F   UNL A   1      43.942  25.295  25.259  1.00  0.00    -0.203 F 
ATOM     82  C   UNL A   1      43.482  22.985  25.306  1.00  0.00     0.198 A 
ATOM     83  C   UNL A   1      42.701  21.963  27.331  1.00  0.00     0.198 A 
ATOM     84  F   UNL A   1      42.366  23.275  29.258  1.00  0.00    -0.203 F 
ATOM     85  F   UNL A   1      43.808  22.895  24.010  1.00  0.00    -0.200 F 
ATOM     86  C   UNL A   1      43.064  21.858  25.997  1.00  0.00     0.200 A 
ATOM     87  F   UNL A   1      42.309  20.874  28.006  1.00  0.00    -0.200 F 
ATOM     88  F   UNL A   1      43.002  20.673  25.374  1.00  0.00    -0.200 F 
ENDBRANCH  54  78
BRANCH  66  89
ATOM     89  C   UNL A   1      48.087  27.780  30.829  1.00  0.00     0.064 A 
ATOM     90  C   UNL A   1      49.179  28.000  29.977  1.00  0.00     0.173 A 
ATOM     91  C   UNL A   1      48.339  27.212  32.087  1.00  0.00     0.173 A 
ATOM     92  F   UNL A   1      48.989  28.528  28.758  1.00  0.00    -0.203 F 
ATOM     93  C   UNL A   1      50.467  27.630  30.355  1.00  0.00     0.198 A 
ATOM     94  C   UNL A   1      49.631  26.872  32.475  1.00  0.00     0.198 A 
ATOM     95  F   UNL A   1      47.329  26.988  32.943  1.00  0.00    -0.203 F 
ATOM     96  F   UNL A   1      51.488  27.795  29.503  1.00  0.00    -0.200 F 
ATOM     97  C   UNL A   1      50.693  27.071  31.605  1.00  0.00     0.200 A 
ATOM     98  F   UNL A   1      49.849  26.345  33.687  1.00  0.00    -0.200 F 
ATOM     99  F   UNL A   1      51.933  26.715  31.968  1.00  0.00    -0.200 F 
ENDBRANCH  66  89
ENDBRANCH  40  41
ENDBRANCH  32  35
ENDBRANCH  30  31
ENDBRANCH  29  30
ENDBRANCH   1  29
TORSDOF 14
ENDMDL
