MODEL 1
REMARK VINA RESULT:     -12.2      0.000      0.000
REMARK SMILES COc1cc(S(=O)(=O)CCO)cc(C(=O)NCCCNC(=O)c2ccc(-c3c4nc(c(-c5c(F)c(F)c(F)c(F)c5F)c5ccc([nH]5)c(-c5c(F)c(F)c(F)c(F)c5F)c5nc(c(-c6c(F)c(F)c(F)c(F)c6F)c6ccc3[nH]6)C=C5)C=C4)cc2)c1OC
REMARK SMILES IDX 17 1 16 2 14 3 15 4 13 6 3 7 4 8 86 9 5 10 12 11 2 12 1 13
REMARK SMILES IDX 87 14 88 15 6 16 7 17 8 18 9 19 10 20 11 21 18 23 19 24
REMARK SMILES IDX 20 25 21 26 22 28 23 29 24 30 85 31 25 32 84 33 26 34 27 35
REMARK SMILES IDX 28 36 78 37 29 38 83 39 77 40 79 41 30 42 82 43 76 44 75 45
REMARK SMILES IDX 31 47 63 48 43 49 62 50 44 51 47 52 61 53 80 54 45 55 46 56
REMARK SMILES IDX 60 58 81 59 48 60 32 61 33 62 41 63 34 64 35 65 39 66 42 67
REMARK SMILES IDX 36 68 37 69 40 70 38 71 64 72 65 73 73 74 66 75 67 76 71 77
REMARK SMILES IDX 74 78 68 79 69 80 72 81 70 82 49 83 50 84 58 85 51 86 52 87
REMARK SMILES IDX 56 88 59 89 53 90 54 91 57 92 55 93
REMARK H PARENT 16 5 11 22 20 27 79 46 47 57
REMARK Flexibility Score: inf
ROOT
ATOM      1  C   UNL A   1      32.129  30.199  26.697  1.00  0.00     0.118 C 
ENDROOT
BRANCH   1   2
ATOM      2  N   UNL A   1      33.025  29.895  25.607  1.00  0.00    -0.352 N 
ATOM      3  C   UNL A   1      32.740  29.313  24.395  1.00  0.00     0.255 C 
ATOM      4  O   UNL A   1      33.616  29.329  23.529  1.00  0.00    -0.269 OA
ATOM      5  H   UNL A   1      33.968  30.139  25.750  1.00  0.00     0.163 HD
BRANCH   3   6
ATOM      6  C   UNL A   1      31.493  28.538  24.146  1.00  0.00     0.086 A 
ATOM      7  C   UNL A   1      30.084  26.573  24.040  1.00  0.00     0.162 A 
ATOM      8  C   UNL A   1      29.061  27.355  23.478  1.00  0.00     0.070 A 
ATOM      9  C   UNL A   1      31.293  27.171  24.447  1.00  0.00     0.173 A 
ATOM     10  C   UNL A   1      29.231  28.730  23.289  1.00  0.00     0.072 A 
ATOM     11  C   UNL A   1      30.462  29.305  23.563  1.00  0.00     0.038 A 
BRANCH   7  12
ATOM     12  O   UNL A   1      29.856  25.225  23.972  1.00  0.00    -0.493 OA
ATOM     13  C   UNL A   1      30.723  24.478  23.128  1.00  0.00     0.278 C 
ENDBRANCH   7  12
BRANCH   9  14
ATOM     14  O   UNL A   1      32.249  26.569  25.223  1.00  0.00    -0.492 OA
ATOM     15  C   UNL A   1      31.991  26.394  26.612  1.00  0.00     0.278 C 
ENDBRANCH   9  14
BRANCH  10  16
ATOM     16  S   UNL A   1      27.844  29.663  22.683  1.00  0.00     0.180 S 
ATOM     17  O   UNL A   1      28.093  29.848  21.270  1.00  0.00    -0.224 OA
ATOM     18  O   UNL A   1      26.653  28.948  23.126  1.00  0.00    -0.224 OA
BRANCH  16  19
ATOM     19  C   UNL A   1      27.803  31.279  23.418  1.00  0.00     0.170 C 
BRANCH  19  20
ATOM     20  C   UNL A   1      28.211  32.390  22.473  1.00  0.00     0.172 C 
BRANCH  20  21
ATOM     21  O   UNL A   1      29.528  32.169  22.000  1.00  0.00    -0.395 OA
ATOM     22  H   UNL A   1      30.107  31.948  22.746  1.00  0.00     0.210 HD
ENDBRANCH  20  21
ENDBRANCH  19  20
ENDBRANCH  16  19
ENDBRANCH  10  16
ENDBRANCH   3   6
ENDBRANCH   1   2
BRANCH   1  23
ATOM     23  C   UNL A   1      31.750  31.658  26.862  1.00  0.00     0.042 C 
BRANCH  23  24
ATOM     24  C   UNL A   1      32.926  32.583  27.137  1.00  0.00     0.118 C 
BRANCH  24  25
ATOM     25  N   UNL A   1      32.544  33.921  27.577  1.00  0.00    -0.352 N 
ATOM     26  C   UNL A   1      33.040  34.768  28.540  1.00  0.00     0.251 C 
ATOM     27  H   UNL A   1      31.775  34.292  27.086  1.00  0.00     0.163 HD
ATOM     28  O   UNL A   1      32.438  35.812  28.783  1.00  0.00    -0.269 OA
BRANCH  26  29
ATOM     29  C   UNL A   1      34.242  34.430  29.337  1.00  0.00     0.039 A 
ATOM     30  C   UNL A   1      34.071  33.909  30.626  1.00  0.00     0.014 A 
ATOM     31  C   UNL A   1      35.531  34.624  28.850  1.00  0.00     0.014 A 
ATOM     32  C   UNL A   1      35.178  33.468  31.359  1.00  0.00     0.010 A 
ATOM     33  C   UNL A   1      36.619  34.080  29.524  1.00  0.00     0.010 A 
ATOM     34  C   UNL A   1      36.455  33.478  30.779  1.00  0.00    -0.014 A 
BRANCH  34  35
ATOM     35  C   UNL A   1      37.629  32.839  31.432  1.00  0.00     0.031 A 
ATOM     36  C   UNL A   1      38.308  31.660  30.789  1.00  0.00     0.074 A 
ATOM     37  C   UNL A   1      38.002  33.239  32.665  1.00  0.00     0.049 A 
ATOM     38  N   UNL A   1      39.217  30.856  31.281  1.00  0.00    -0.248 NA
ATOM     39  C   UNL A   1      37.881  31.316  29.423  1.00  0.00     0.031 C 
ATOM     40  C   UNL A   1      37.394  34.336  33.420  1.00  0.00     0.029 A 
ATOM     41  N   UNL A   1      38.968  32.753  33.512  1.00  0.00    -0.354 N 
ATOM     42  C   UNL A   1      39.443  29.898  30.302  1.00  0.00     0.074 A 
ATOM     43  C   UNL A   1      38.544  30.190  29.207  1.00  0.00     0.031 C 
ATOM     44  C   UNL A   1      38.008  34.451  34.607  1.00  0.00     0.029 A 
ATOM     45  C   UNL A   1      39.018  33.402  34.722  1.00  0.00     0.049 A 
ATOM     46  H   UNL A   1      39.568  32.010  33.275  1.00  0.00     0.167 HD
ATOM     47  C   UNL A   1      40.337  28.880  30.307  1.00  0.00     0.037 A 
ATOM     48  C   UNL A   1      39.771  33.167  35.813  1.00  0.00     0.037 A 
ATOM     49  C   UNL A   1      41.260  28.619  31.380  1.00  0.00     0.049 A 
ATOM     50  C   UNL A   1      40.745  32.022  35.798  1.00  0.00     0.074 A 
ATOM     51  C   UNL A   1      42.265  27.671  31.441  1.00  0.00     0.029 A 
ATOM     52  N   UNL A   1      41.289  29.312  32.581  1.00  0.00    -0.354 N 
ATOM     53  N   UNL A   1      40.998  31.165  34.839  1.00  0.00    -0.248 NA
ATOM     54  C   UNL A   1      41.535  31.807  37.019  1.00  0.00     0.031 C 
ATOM     55  C   UNL A   1      42.872  27.757  32.698  1.00  0.00     0.029 A 
ATOM     56  C   UNL A   1      42.275  28.789  33.404  1.00  0.00     0.049 A 
ATOM     57  H   UNL A   1      40.697  30.063  32.815  1.00  0.00     0.167 HD
ATOM     58  C   UNL A   1      41.984  30.322  35.332  1.00  0.00     0.074 A 
ATOM     59  C   UNL A   1      42.297  30.781  36.669  1.00  0.00     0.031 C 
ATOM     60  C   UNL A   1      42.572  29.258  34.732  1.00  0.00     0.037 A 
BRANCH  47  61
ATOM     61  C   UNL A   1      40.368  27.974  29.110  1.00  0.00     0.064 A 
ATOM     62  C   UNL A   1      39.626  26.784  29.067  1.00  0.00     0.173 A 
ATOM     63  C   UNL A   1      41.118  28.320  27.974  1.00  0.00     0.173 A 
ATOM     64  F   UNL A   1      38.902  26.402  30.129  1.00  0.00    -0.203 F 
ATOM     65  C   UNL A   1      39.658  25.960  27.945  1.00  0.00     0.198 A 
ATOM     66  C   UNL A   1      41.122  27.509  26.843  1.00  0.00     0.198 A 
ATOM     67  F   UNL A   1      41.841  29.451  27.960  1.00  0.00    -0.203 F 
ATOM     68  F   UNL A   1      38.980  24.804  27.948  1.00  0.00    -0.200 F 
ATOM     69  C   UNL A   1      40.399  26.326  26.833  1.00  0.00     0.200 A 
ATOM     70  F   UNL A   1      41.830  27.870  25.764  1.00  0.00    -0.200 F 
ATOM     71  F   UNL A   1      40.422  25.534  25.752  1.00  0.00    -0.200 F 
ENDBRANCH  47  61
BRANCH  48  72
ATOM     72  C   UNL A   1      39.634  34.035  37.012  1.00  0.00     0.064 A 
ATOM     73  C   UNL A   1      40.323  35.252  37.098  1.00  0.00     0.173 A 
ATOM     74  C   UNL A   1      38.815  33.671  38.091  1.00  0.00     0.173 A 
ATOM     75  F   UNL A   1      41.135  35.631  36.100  1.00  0.00    -0.203 F 
ATOM     76  C   UNL A   1      40.213  36.065  38.224  1.00  0.00     0.198 A 
ATOM     77  C   UNL A   1      38.682  34.499  39.205  1.00  0.00     0.198 A 
ATOM     78  F   UNL A   1      38.130  32.519  38.057  1.00  0.00    -0.203 F 
ATOM     79  F   UNL A   1      40.916  37.202  38.297  1.00  0.00    -0.200 F 
ATOM     80  C   UNL A   1      39.388  35.691  39.274  1.00  0.00     0.200 A 
ATOM     81  F   UNL A   1      37.872  34.141  40.210  1.00  0.00    -0.200 F 
ATOM     82  F   UNL A   1      39.276  36.477  40.353  1.00  0.00    -0.200 F 
ENDBRANCH  48  72
BRANCH  60  83
ATOM     83  C   UNL A   1      43.623  28.525  35.511  1.00  0.00     0.064 A 
ATOM     84  C   UNL A   1      43.287  27.485  36.391  1.00  0.00     0.173 A 
ATOM     85  C   UNL A   1      44.981  28.827  35.334  1.00  0.00     0.173 A 
ATOM     86  F   UNL A   1      42.001  27.172  36.606  1.00  0.00    -0.203 F 
ATOM     87  C   UNL A   1      44.274  26.783  37.077  1.00  0.00     0.198 A 
ATOM     88  C   UNL A   1      45.967  28.104  36.001  1.00  0.00     0.198 A 
ATOM     89  F   UNL A   1      45.353  29.809  34.501  1.00  0.00    -0.203 F 
ATOM     90  F   UNL A   1      43.931  25.819  37.941  1.00  0.00    -0.200 F 
ATOM     91  C   UNL A   1      45.614  27.088  36.874  1.00  0.00     0.200 A 
ATOM     92  F   UNL A   1      47.260  28.390  35.795  1.00  0.00    -0.200 F 
ATOM     93  F   UNL A   1      46.562  26.402  37.527  1.00  0.00    -0.200 F 
ENDBRANCH  60  83
ENDBRANCH  34  35
ENDBRANCH  26  29
ENDBRANCH  24  25
ENDBRANCH  23  24
ENDBRANCH   1  23
TORSDOF 16
ENDMDL
MODEL 2
REMARK VINA RESULT:     -11.9      6.645     11.948
REMARK SMILES COc1cc(S(=O)(=O)CCO)cc(C(=O)NCCCNC(=O)c2ccc(-c3c4nc(c(-c5c(F)c(F)c(F)c(F)c5F)c5ccc([nH]5)c(-c5c(F)c(F)c(F)c(F)c5F)c5nc(c(-c6c(F)c(F)c(F)c(F)c6F)c6ccc3[nH]6)C=C5)C=C4)cc2)c1OC
REMARK SMILES IDX 17 1 16 2 14 3 15 4 13 6 3 7 4 8 86 9 5 10 12 11 2 12 1 13
REMARK SMILES IDX 87 14 88 15 6 16 7 17 8 18 9 19 10 20 11 21 18 23 19 24
REMARK SMILES IDX 20 25 21 26 22 28 23 29 24 30 85 31 25 32 84 33 26 34 27 35
REMARK SMILES IDX 28 36 78 37 29 38 83 39 77 40 79 41 30 42 82 43 76 44 75 45
REMARK SMILES IDX 31 47 63 48 43 49 62 50 44 51 47 52 61 53 80 54 45 55 46 56
REMARK SMILES IDX 60 58 81 59 48 60 32 61 33 62 41 63 34 64 35 65 39 66 42 67
REMARK SMILES IDX 36 68 37 69 40 70 38 71 64 72 65 73 73 74 66 75 67 76 71 77
REMARK SMILES IDX 74 78 68 79 69 80 72 81 70 82 49 83 50 84 58 85 51 86 52 87
REMARK SMILES IDX 56 88 59 89 53 90 54 91 57 92 55 93
REMARK H PARENT 16 5 11 22 20 27 79 46 47 57
REMARK Flexibility Score: inf
ROOT
ATOM      1  C   UNL A   1      37.247  21.620  24.924  1.00  0.00     0.118 C 
ENDROOT
BRANCH   1   2
ATOM      2  N   UNL A   1      36.447  21.929  26.085  1.00  0.00    -0.352 N 
ATOM      3  C   UNL A   1      35.120  21.651  26.315  1.00  0.00     0.255 C 
ATOM      4  O   UNL A   1      34.686  21.823  27.455  1.00  0.00    -0.269 OA
ATOM      5  H   UNL A   1      36.914  22.403  26.811  1.00  0.00     0.163 HD
BRANCH   3   6
ATOM      6  C   UNL A   1      34.167  21.306  25.223  1.00  0.00     0.086 A 
ATOM      7  C   UNL A   1      32.565  21.729  23.460  1.00  0.00     0.162 A 
ATOM      8  C   UNL A   1      32.371  20.344  23.325  1.00  0.00     0.070 A 
ATOM      9  C   UNL A   1      33.521  22.227  24.367  1.00  0.00     0.173 A 
ATOM     10  C   UNL A   1      33.100  19.438  24.101  1.00  0.00     0.072 A 
ATOM     11  C   UNL A   1      33.947  19.919  25.088  1.00  0.00     0.038 A 
BRANCH   7  12
ATOM     12  O   UNL A   1      31.643  22.489  22.791  1.00  0.00    -0.493 OA
ATOM     13  C   UNL A   1      30.940  23.454  23.562  1.00  0.00     0.278 C 
ENDBRANCH   7  12
BRANCH   9  14
ATOM     14  O   UNL A   1      33.971  23.521  24.407  1.00  0.00    -0.492 OA
ATOM     15  C   UNL A   1      34.796  23.991  23.346  1.00  0.00     0.278 C 
ENDBRANCH   9  14
BRANCH  10  16
ATOM     16  S   UNL A   1      32.879  17.703  23.782  1.00  0.00     0.180 S 
ATOM     17  O   UNL A   1      31.965  17.238  24.803  1.00  0.00    -0.224 OA
ATOM     18  O   UNL A   1      32.515  17.596  22.375  1.00  0.00    -0.224 OA
BRANCH  16  19
ATOM     19  C   UNL A   1      34.403  16.822  24.010  1.00  0.00     0.170 C 
BRANCH  19  20
ATOM     20  C   UNL A   1      34.532  16.168  25.370  1.00  0.00     0.172 C 
BRANCH  20  21
ATOM     21  O   UNL A   1      33.863  14.919  25.377  1.00  0.00    -0.395 OA
ATOM     22  H   UNL A   1      33.743  14.621  26.292  1.00  0.00     0.210 HD
ENDBRANCH  20  21
ENDBRANCH  19  20
ENDBRANCH  16  19
ENDBRANCH  10  16
ENDBRANCH   3   6
ENDBRANCH   1   2
BRANCH   1  23
ATOM     23  C   UNL A   1      38.094  20.365  25.013  1.00  0.00     0.042 C 
BRANCH  23  24
ATOM     24  C   UNL A   1      39.138  20.392  26.119  1.00  0.00     0.118 C 
BRANCH  24  25
ATOM     25  N   UNL A   1      40.169  19.366  25.991  1.00  0.00    -0.352 N 
ATOM     26  C   UNL A   1      41.542  19.403  26.072  1.00  0.00     0.251 C 
ATOM     27  H   UNL A   1      39.810  18.467  25.810  1.00  0.00     0.163 HD
ATOM     28  O   UNL A   1      42.182  18.389  25.800  1.00  0.00    -0.269 OA
BRANCH  26  29
ATOM     29  C   UNL A   1      42.273  20.644  26.414  1.00  0.00     0.039 A 
ATOM     30  C   UNL A   1      42.712  21.475  25.375  1.00  0.00     0.014 A 
ATOM     31  C   UNL A   1      42.547  21.003  27.730  1.00  0.00     0.014 A 
ATOM     32  C   UNL A   1      43.299  22.712  25.664  1.00  0.00     0.010 A 
ATOM     33  C   UNL A   1      43.021  22.278  28.021  1.00  0.00     0.010 A 
ATOM     34  C   UNL A   1      43.386  23.157  26.991  1.00  0.00    -0.014 A 
BRANCH  34  35
ATOM     35  C   UNL A   1      43.814  24.538  27.339  1.00  0.00     0.031 A 
ATOM     36  C   UNL A   1      42.803  25.553  27.799  1.00  0.00     0.074 A 
ATOM     37  C   UNL A   1      45.091  24.913  27.119  1.00  0.00     0.049 A 
ATOM     38  N   UNL A   1      42.943  26.844  27.969  1.00  0.00    -0.248 NA
ATOM     39  C   UNL A   1      41.444  25.058  28.067  1.00  0.00     0.031 C 
ATOM     40  C   UNL A   1      46.158  24.039  26.627  1.00  0.00     0.029 A 
ATOM     41  N   UNL A   1      45.704  26.135  27.256  1.00  0.00    -0.354 N 
ATOM     42  C   UNL A   1      41.687  27.315  28.330  1.00  0.00     0.074 A 
ATOM     43  C   UNL A   1      40.787  26.182  28.307  1.00  0.00     0.031 C 
ATOM     44  C   UNL A   1      47.294  24.744  26.520  1.00  0.00     0.029 A 
ATOM     45  C   UNL A   1      47.026  26.133  26.882  1.00  0.00     0.049 A 
ATOM     46  H   UNL A   1      45.240  26.935  27.591  1.00  0.00     0.167 HD
ATOM     47  C   UNL A   1      41.323  28.575  28.671  1.00  0.00     0.037 A 
ATOM     48  C   UNL A   1      47.918  27.139  26.813  1.00  0.00     0.037 A 
ATOM     49  C   UNL A   1      42.230  29.690  28.734  1.00  0.00     0.049 A 
ATOM     50  C   UNL A   1      47.485  28.530  27.183  1.00  0.00     0.074 A 
ATOM     51  C   UNL A   1      41.979  30.983  29.156  1.00  0.00     0.029 A 
ATOM     52  N   UNL A   1      43.567  29.641  28.363  1.00  0.00    -0.354 N 
ATOM     53  N   UNL A   1      46.312  28.950  27.589  1.00  0.00    -0.248 NA
ATOM     54  C   UNL A   1      48.499  29.590  27.080  1.00  0.00     0.031 C 
ATOM     55  C   UNL A   1      43.150  31.731  28.996  1.00  0.00     0.029 A 
ATOM     56  C   UNL A   1      44.144  30.892  28.516  1.00  0.00     0.049 A 
ATOM     57  H   UNL A   1      44.035  28.838  28.039  1.00  0.00     0.167 HD
ATOM     58  C   UNL A   1      46.448  30.313  27.804  1.00  0.00     0.074 A 
ATOM     59  C   UNL A   1      47.824  30.649  27.503  1.00  0.00     0.031 C 
ATOM     60  C   UNL A   1      45.515  31.209  28.210  1.00  0.00     0.037 A 
BRANCH  47  61
ATOM     61  C   UNL A   1      39.881  28.815  29.013  1.00  0.00     0.064 A 
ATOM     62  C   UNL A   1      39.403  28.682  30.325  1.00  0.00     0.173 A 
ATOM     63  C   UNL A   1      38.973  29.223  28.023  1.00  0.00     0.173 A 
ATOM     64  F   UNL A   1      40.226  28.285  31.307  1.00  0.00    -0.203 F 
ATOM     65  C   UNL A   1      38.064  28.918  30.628  1.00  0.00     0.198 A 
ATOM     66  C   UNL A   1      37.643  29.488  28.335  1.00  0.00     0.198 A 
ATOM     67  F   UNL A   1      39.379  29.372  26.753  1.00  0.00    -0.203 F 
ATOM     68  F   UNL A   1      37.621  28.736  31.880  1.00  0.00    -0.200 F 
ATOM     69  C   UNL A   1      37.188  29.328  29.635  1.00  0.00     0.200 A 
ATOM     70  F   UNL A   1      36.799  29.895  27.377  1.00  0.00    -0.200 F 
ATOM     71  F   UNL A   1      35.902  29.561  29.931  1.00  0.00    -0.200 F 
ENDBRANCH  47  61
BRANCH  48  72
ATOM     72  C   UNL A   1      49.313  26.866  26.374  1.00  0.00     0.064 A 
ATOM     73  C   UNL A   1      50.297  26.503  27.303  1.00  0.00     0.173 A 
ATOM     74  C   UNL A   1      49.690  26.960  25.027  1.00  0.00     0.173 A 
ATOM     75  F   UNL A   1      49.989  26.422  28.606  1.00  0.00    -0.203 F 
ATOM     76  C   UNL A   1      51.610  26.261  26.905  1.00  0.00     0.198 A 
ATOM     77  C   UNL A   1      50.997  26.689  24.625  1.00  0.00     0.198 A 
ATOM     78  F   UNL A   1      48.785  27.299  24.097  1.00  0.00    -0.203 F 
ATOM     79  F   UNL A   1      52.539  25.956  27.819  1.00  0.00    -0.200 F 
ATOM     80  C   UNL A   1      51.957  26.347  25.565  1.00  0.00     0.200 A 
ATOM     81  F   UNL A   1      51.324  26.759  23.328  1.00  0.00    -0.200 F 
ATOM     82  F   UNL A   1      53.218  26.107  25.181  1.00  0.00    -0.200 F 
ENDBRANCH  48  72
BRANCH  60  83
ATOM     83  C   UNL A   1      45.952  32.635  28.365  1.00  0.00     0.064 A 
ATOM     84  C   UNL A   1      45.819  33.556  27.315  1.00  0.00     0.173 A 
ATOM     85  C   UNL A   1      46.456  33.097  29.588  1.00  0.00     0.173 A 
ATOM     86  F   UNL A   1      45.359  33.157  26.120  1.00  0.00    -0.203 F 
ATOM     87  C   UNL A   1      46.190  34.888  27.483  1.00  0.00     0.198 A 
ATOM     88  C   UNL A   1      46.799  34.436  29.762  1.00  0.00     0.198 A 
ATOM     89  F   UNL A   1      46.597  32.256  30.623  1.00  0.00    -0.203 F 
ATOM     90  F   UNL A   1      46.090  35.743  26.457  1.00  0.00    -0.200 F 
ATOM     91  C   UNL A   1      46.671  35.328  28.709  1.00  0.00     0.200 A 
ATOM     92  F   UNL A   1      47.251  34.861  30.949  1.00  0.00    -0.200 F 
ATOM     93  F   UNL A   1      47.015  36.612  28.871  1.00  0.00    -0.200 F 
ENDBRANCH  60  83
ENDBRANCH  34  35
ENDBRANCH  26  29
ENDBRANCH  24  25
ENDBRANCH  23  24
ENDBRANCH   1  23
TORSDOF 16
ENDMDL
MODEL 3
REMARK VINA RESULT:     -11.8      1.876      2.954
REMARK SMILES COc1cc(S(=O)(=O)CCO)cc(C(=O)NCCCNC(=O)c2ccc(-c3c4nc(c(-c5c(F)c(F)c(F)c(F)c5F)c5ccc([nH]5)c(-c5c(F)c(F)c(F)c(F)c5F)c5nc(c(-c6c(F)c(F)c(F)c(F)c6F)c6ccc3[nH]6)C=C5)C=C4)cc2)c1OC
REMARK SMILES IDX 17 1 16 2 14 3 15 4 13 6 3 7 4 8 86 9 5 10 12 11 2 12 1 13
REMARK SMILES IDX 87 14 88 15 6 16 7 17 8 18 9 19 10 20 11 21 18 23 19 24
REMARK SMILES IDX 20 25 21 26 22 28 23 29 24 30 85 31 25 32 84 33 26 34 27 35
REMARK SMILES IDX 28 36 78 37 29 38 83 39 77 40 79 41 30 42 82 43 76 44 75 45
REMARK SMILES IDX 31 47 63 48 43 49 62 50 44 51 47 52 61 53 80 54 45 55 46 56
REMARK SMILES IDX 60 58 81 59 48 60 32 61 33 62 41 63 34 64 35 65 39 66 42 67
REMARK SMILES IDX 36 68 37 69 40 70 38 71 64 72 65 73 73 74 66 75 67 76 71 77
REMARK SMILES IDX 74 78 68 79 69 80 72 81 70 82 49 83 50 84 58 85 51 86 52 87
REMARK SMILES IDX 56 88 59 89 53 90 54 91 57 92 55 93
REMARK H PARENT 16 5 11 22 20 27 79 46 47 57
REMARK Flexibility Score: inf
ROOT
ATOM      1  C   UNL A   1      32.261  27.367  27.079  1.00  0.00     0.118 C 
ENDROOT
BRANCH   1   2
ATOM      2  N   UNL A   1      31.202  26.388  27.020  1.00  0.00    -0.352 N 
ATOM      3  C   UNL A   1      30.656  25.777  25.916  1.00  0.00     0.255 C 
ATOM      4  O   UNL A   1      29.900  24.822  26.103  1.00  0.00    -0.269 OA
ATOM      5  H   UNL A   1      30.819  26.121  27.887  1.00  0.00     0.163 HD
BRANCH   3   6
ATOM      6  C   UNL A   1      30.816  26.313  24.536  1.00  0.00     0.086 A 
ATOM      7  C   UNL A   1      31.792  26.510  22.331  1.00  0.00     0.162 A 
ATOM      8  C   UNL A   1      30.941  27.596  22.067  1.00  0.00     0.070 A 
ATOM      9  C   UNL A   1      31.692  25.808  23.548  1.00  0.00     0.173 A 
ATOM     10  C   UNL A   1      29.999  28.015  23.011  1.00  0.00     0.072 A 
ATOM     11  C   UNL A   1      29.981  27.417  24.262  1.00  0.00     0.038 A 
BRANCH   7  12
ATOM     12  O   UNL A   1      32.791  26.349  21.408  1.00  0.00    -0.493 OA
ATOM     13  C   UNL A   1      32.533  25.436  20.349  1.00  0.00     0.278 C 
ENDBRANCH   7  12
BRANCH   9  14
ATOM     14  O   UNL A   1      32.284  24.600  23.813  1.00  0.00    -0.492 OA
ATOM     15  C   UNL A   1      31.607  23.409  23.426  1.00  0.00     0.278 C 
ENDBRANCH   9  14
BRANCH  10  16
ATOM     16  S   UNL A   1      28.881  29.319  22.549  1.00  0.00     0.180 S 
ATOM     17  O   UNL A   1      29.303  29.736  21.230  1.00  0.00    -0.224 OA
ATOM     18  O   UNL A   1      27.539  28.789  22.752  1.00  0.00    -0.224 OA
BRANCH  16  19
ATOM     19  C   UNL A   1      29.072  30.721  23.622  1.00  0.00     0.170 C 
BRANCH  19  20
ATOM     20  C   UNL A   1      28.509  32.006  23.053  1.00  0.00     0.172 C 
BRANCH  20  21
ATOM     21  O   UNL A   1      29.419  32.570  22.126  1.00  0.00    -0.395 OA
ATOM     22  H   UNL A   1      29.000  32.629  21.254  1.00  0.00     0.210 HD
ENDBRANCH  20  21
ENDBRANCH  19  20
ENDBRANCH  16  19
ENDBRANCH  10  16
ENDBRANCH   3   6
ENDBRANCH   1   2
BRANCH   1  23
ATOM     23  C   UNL A   1      31.825  28.813  27.218  1.00  0.00     0.042 C 
BRANCH  23  24
ATOM     24  C   UNL A   1      32.547  29.776  26.288  1.00  0.00     0.118 C 
BRANCH  24  25
ATOM     25  N   UNL A   1      32.451  31.177  26.686  1.00  0.00    -0.352 N 
ATOM     26  C   UNL A   1      33.287  32.010  27.392  1.00  0.00     0.251 C 
ATOM     27  H   UNL A   1      31.619  31.614  26.391  1.00  0.00     0.163 HD
ATOM     28  O   UNL A   1      32.893  33.136  27.690  1.00  0.00    -0.269 OA
BRANCH  26  29
ATOM     29  C   UNL A   1      34.622  31.568  27.857  1.00  0.00     0.039 A 
ATOM     30  C   UNL A   1      35.650  32.516  27.952  1.00  0.00     0.014 A 
ATOM     31  C   UNL A   1      34.889  30.244  28.189  1.00  0.00     0.014 A 
ATOM     32  C   UNL A   1      36.887  32.159  28.500  1.00  0.00     0.010 A 
ATOM     33  C   UNL A   1      36.072  29.914  28.841  1.00  0.00     0.010 A 
ATOM     34  C   UNL A   1      37.080  30.871  29.021  1.00  0.00    -0.014 A 
BRANCH  34  35
ATOM     35  C   UNL A   1      38.298  30.501  29.791  1.00  0.00     0.031 A 
ATOM     36  C   UNL A   1      39.279  29.508  29.229  1.00  0.00     0.074 A 
ATOM     37  C   UNL A   1      38.454  30.962  31.049  1.00  0.00     0.049 A 
ATOM     38  N   UNL A   1      40.292  28.920  29.816  1.00  0.00    -0.248 NA
ATOM     39  C   UNL A   1      39.071  29.091  27.833  1.00  0.00     0.031 C 
ATOM     40  C   UNL A   1      37.549  31.889  31.730  1.00  0.00     0.029 A 
ATOM     41  N   UNL A   1      39.418  30.693  31.990  1.00  0.00    -0.354 N 
ATOM     42  C   UNL A   1      40.818  28.046  28.874  1.00  0.00     0.074 A 
ATOM     43  C   UNL A   1      39.984  28.142  27.695  1.00  0.00     0.031 C 
ATOM     44  C   UNL A   1      38.006  32.126  32.968  1.00  0.00     0.029 A 
ATOM     45  C   UNL A   1      39.206  31.326  33.192  1.00  0.00     0.049 A 
ATOM     46  H   UNL A   1      40.187  30.104  31.820  1.00  0.00     0.167 HD
ATOM     47  C   UNL A   1      41.910  27.251  28.976  1.00  0.00     0.037 A 
ATOM     48  C   UNL A   1      39.885  31.252  34.352  1.00  0.00     0.037 A 
ATOM     49  C   UNL A   1      42.760  27.190  30.135  1.00  0.00     0.049 A 
ATOM     50  C   UNL A   1      41.085  30.351  34.444  1.00  0.00     0.074 A 
ATOM     51  C   UNL A   1      43.939  26.487  30.303  1.00  0.00     0.029 A 
ATOM     52  N   UNL A   1      42.520  27.860  31.326  1.00  0.00    -0.354 N 
ATOM     53  N   UNL A   1      41.612  29.581  33.524  1.00  0.00    -0.248 NA
ATOM     54  C   UNL A   1      41.782  30.304  35.737  1.00  0.00     0.031 C 
ATOM     55  C   UNL A   1      44.389  26.693  31.611  1.00  0.00     0.029 A 
ATOM     56  C   UNL A   1      43.513  27.561  32.244  1.00  0.00     0.049 A 
ATOM     57  H   UNL A   1      41.757  28.460  31.493  1.00  0.00     0.167 HD
ATOM     58  C   UNL A   1      42.708  28.971  34.118  1.00  0.00     0.074 A 
ATOM     59  C   UNL A   1      42.782  29.476  35.473  1.00  0.00     0.031 C 
ATOM     60  C   UNL A   1      43.571  28.070  33.590  1.00  0.00     0.037 A 
BRANCH  47  61
ATOM     61  C   UNL A   1      42.255  26.386  27.798  1.00  0.00     0.064 A 
ATOM     62  C   UNL A   1      43.196  26.790  26.838  1.00  0.00     0.173 A 
ATOM     63  C   UNL A   1      41.667  25.120  27.648  1.00  0.00     0.173 A 
ATOM     64  F   UNL A   1      43.778  27.995  26.929  1.00  0.00    -0.203 F 
ATOM     65  C   UNL A   1      43.512  25.972  25.756  1.00  0.00     0.198 A 
ATOM     66  C   UNL A   1      42.010  24.292  26.582  1.00  0.00     0.198 A 
ATOM     67  F   UNL A   1      40.767  24.682  28.540  1.00  0.00    -0.203 F 
ATOM     68  F   UNL A   1      44.376  26.401  24.827  1.00  0.00    -0.200 F 
ATOM     69  C   UNL A   1      42.926  24.723  25.633  1.00  0.00     0.200 A 
ATOM     70  F   UNL A   1      41.451  23.079  26.470  1.00  0.00    -0.200 F 
ATOM     71  F   UNL A   1      43.238  23.934  24.595  1.00  0.00    -0.200 F 
ENDBRANCH  47  61
BRANCH  48  72
ATOM     72  C   UNL A   1      39.445  32.056  35.523  1.00  0.00     0.064 A 
ATOM     73  C   UNL A   1      39.898  33.370  35.699  1.00  0.00     0.173 A 
ATOM     74  C   UNL A   1      38.566  31.534  36.483  1.00  0.00     0.173 A 
ATOM     75  F   UNL A   1      40.757  33.905  34.819  1.00  0.00    -0.203 F 
ATOM     76  C   UNL A   1      39.504  34.127  36.801  1.00  0.00     0.198 A 
ATOM     77  C   UNL A   1      38.149  32.301  37.570  1.00  0.00     0.198 A 
ATOM     78  F   UNL A   1      38.099  30.283  36.358  1.00  0.00    -0.203 F 
ATOM     79  F   UNL A   1      39.986  35.365  36.967  1.00  0.00    -0.200 F 
ATOM     80  C   UNL A   1      38.625  33.594  37.732  1.00  0.00     0.200 A 
ATOM     81  F   UNL A   1      37.288  31.788  38.458  1.00  0.00    -0.200 F 
ATOM     82  F   UNL A   1      38.240  34.325  38.787  1.00  0.00    -0.200 F 
ENDBRANCH  48  72
BRANCH  60  83
ATOM     83  C   UNL A   1      44.679  27.580  34.474  1.00  0.00     0.064 A 
ATOM     84  C   UNL A   1      44.511  26.458  35.300  1.00  0.00     0.173 A 
ATOM     85  C   UNL A   1      45.935  28.202  34.453  1.00  0.00     0.173 A 
ATOM     86  F   UNL A   1      43.322  25.841  35.367  1.00  0.00    -0.203 F 
ATOM     87  C   UNL A   1      45.560  25.987  36.086  1.00  0.00     0.198 A 
ATOM     88  C   UNL A   1      46.990  27.711  35.219  1.00  0.00     0.198 A 
ATOM     89  F   UNL A   1      46.146  29.274  33.676  1.00  0.00    -0.203 F 
ATOM     90  F   UNL A   1      45.368  24.938  36.896  1.00  0.00    -0.200 F 
ATOM     91  C   UNL A   1      46.800  26.609  36.037  1.00  0.00     0.200 A 
ATOM     92  F   UNL A   1      48.190  28.304  35.161  1.00  0.00    -0.200 F 
ATOM     93  F   UNL A   1      47.811  26.145  36.785  1.00  0.00    -0.200 F 
ENDBRANCH  60  83
ENDBRANCH  34  35
ENDBRANCH  26  29
ENDBRANCH  24  25
ENDBRANCH  23  24
ENDBRANCH   1  23
TORSDOF 16
ENDMDL
