MODEL 1
REMARK VINA RESULT:     -13.3      0.000      0.000
REMARK SMILES Cn1c(SCC(=O)Nc2cccc(C(=O)NCCCNC(=O)c3ccc(-c4c5nc(c(-c6c(F)c(F)c(F)c(F)c6F)c6ccc([nH]6)c(-c6c(F)c(F)c(F)c(F)c6F)c6nc(c(-c7c(F)c(F)c(F)c(F)c7F)c7ccc4[nH]7)C=C6)C=C5)cc3)c2)nnc1[C@@H]1CCCN1C(=O)c1ccccc1Cl
REMARK SMILES IDX 9 1 10 2 11 3 12 4 13 5 86 6 8 7 6 8 7 9 5 11 4 12 3 13 1 14
REMARK SMILES IDX 2 15 89 16 87 17 88 18 90 19 91 20 94 21 92 22 93 23 95 24
REMARK SMILES IDX 96 25 97 26 98 27 102 28 99 29 101 30 103 31 100 32 14 33
REMARK SMILES IDX 15 34 16 35 17 37 18 38 19 39 20 40 21 41 22 43 23 44 24 45
REMARK SMILES IDX 85 46 25 47 84 48 26 49 27 50 28 51 78 52 29 53 83 54 77 55
REMARK SMILES IDX 79 56 30 57 82 58 76 59 75 60 31 62 63 63 43 64 62 65 44 66
REMARK SMILES IDX 47 67 61 68 80 69 45 70 46 71 60 73 81 74 48 75 32 76 33 77
REMARK SMILES IDX 41 78 34 79 35 80 39 81 42 82 36 83 37 84 40 85 38 86 64 87
REMARK SMILES IDX 65 88 73 89 66 90 67 91 71 92 74 93 68 94 69 95 72 96 70 97
REMARK SMILES IDX 49 98 50 99 58 100 51 101 52 102 56 103 59 104 53 105 54 106
REMARK SMILES IDX 57 107 55 108
REMARK H PARENT 8 10 16 36 20 42 79 61 47 72
REMARK Flexibility Score: inf
ROOT
ATOM      1  C   UNL A   1      34.521  30.287  27.656  1.00  0.00     0.041 A 
ATOM      2  C   UNL A   1      35.651  29.480  27.518  1.00  0.00     0.026 A 
ATOM      3  C   UNL A   1      36.917  30.032  27.655  1.00  0.00     0.003 A 
ATOM      4  C   UNL A   1      37.043  31.379  27.987  1.00  0.00     0.014 A 
ATOM      5  C   UNL A   1      35.917  32.205  28.192  1.00  0.00     0.041 A 
ATOM      6  C   UNL A   1      34.644  31.641  28.015  1.00  0.00     0.040 A 
ENDROOT
BRANCH   1   7
ATOM      7  N   UNL A   1      33.282  29.642  27.627  1.00  0.00    -0.325 N 
ATOM      8  C   UNL A   1      32.495  29.300  26.569  1.00  0.00     0.234 C 
ATOM      9  O   UNL A   1      31.399  28.789  26.816  1.00  0.00    -0.274 OA
ATOM     10  H   UNL A   1      32.920  29.395  28.509  1.00  0.00     0.169 HD
BRANCH   8  11
ATOM     11  C   UNL A   1      33.018  29.331  25.155  1.00  0.00     0.178 C 
BRANCH  11  12
ATOM     12  S   UNL A   1      32.124  28.441  23.909  1.00  0.00    -0.076 SA
BRANCH  12  13
ATOM     13  C   UNL A   1      32.715  26.834  23.733  1.00  0.00     0.191 A 
ATOM     14  C   UNL A   1      32.192  25.663  25.922  1.00  0.00     0.154 C 
ATOM     15  N   UNL A   1      32.852  25.830  24.657  1.00  0.00    -0.307 N 
ATOM     16  C   UNL A   1      33.784  24.963  24.112  1.00  0.00     0.156 A 
ATOM     17  N   UNL A   1      33.394  26.516  22.657  1.00  0.00    -0.123 NA
ATOM     18  N   UNL A   1      34.021  25.329  22.869  1.00  0.00    -0.132 NA
BRANCH  16  19
ATOM     19  C   UNL A   1      34.484  23.824  24.758  1.00  0.00     0.154 C 
ATOM     20  C   UNL A   1      36.005  23.986  24.820  1.00  0.00     0.035 C 
ATOM     21  N   UNL A   1      34.277  22.502  24.156  1.00  0.00    -0.328 N 
ATOM     22  C   UNL A   1      36.491  22.560  25.031  1.00  0.00     0.024 C 
ATOM     23  C   UNL A   1      35.500  21.716  24.240  1.00  0.00     0.120 C 
BRANCH  21  24
ATOM     24  C   UNL A   1      33.094  21.836  23.853  1.00  0.00     0.255 C 
ATOM     25  O   UNL A   1      32.107  22.412  23.400  1.00  0.00    -0.269 OA
BRANCH  24  26
ATOM     26  C   UNL A   1      32.941  20.404  24.149  1.00  0.00     0.058 A 
ATOM     27  C   UNL A   1      32.572  19.526  23.128  1.00  0.00     0.015 A 
ATOM     28  C   UNL A   1      33.014  19.942  25.470  1.00  0.00     0.053 A 
ATOM     29  C   UNL A   1      32.365  18.175  23.417  1.00  0.00     0.001 A 
ATOM     30  C   UNL A   1      32.832  18.584  25.747  1.00  0.00     0.021 A 
ATOM     31  Cl  UNL A   1      33.291  20.997  26.810  1.00  0.00    -0.083 Cl
ATOM     32  C   UNL A   1      32.522  17.698  24.717  1.00  0.00     0.002 A 
ENDBRANCH  24  26
ENDBRANCH  21  24
ENDBRANCH  16  19
ENDBRANCH  12  13
ENDBRANCH  11  12
ENDBRANCH   8  11
ENDBRANCH   1   7
BRANCH   5  33
ATOM     33  C   UNL A   1      36.236  33.579  28.693  1.00  0.00     0.251 C 
ATOM     34  O   UNL A   1      37.384  33.807  29.087  1.00  0.00    -0.269 OA
ATOM     35  N   UNL A   1      35.380  34.639  28.754  1.00  0.00    -0.352 N 
ATOM     36  H   UNL A   1      35.807  35.450  29.115  1.00  0.00     0.163 HD
BRANCH  35  37
ATOM     37  C   UNL A   1      33.989  34.849  28.413  1.00  0.00     0.118 C 
BRANCH  37  38
ATOM     38  C   UNL A   1      33.609  36.315  28.601  1.00  0.00     0.042 C 
BRANCH  38  39
ATOM     39  C   UNL A   1      33.651  36.835  30.038  1.00  0.00     0.118 C 
BRANCH  39  40
ATOM     40  N   UNL A   1      32.500  36.539  30.877  1.00  0.00    -0.352 N 
ATOM     41  C   UNL A   1      32.395  35.817  32.036  1.00  0.00     0.251 C 
ATOM     42  H   UNL A   1      31.652  36.923  30.556  1.00  0.00     0.163 HD
ATOM     43  O   UNL A   1      31.321  35.804  32.646  1.00  0.00    -0.269 OA
BRANCH  41  44
ATOM     44  C   UNL A   1      33.526  35.049  32.591  1.00  0.00     0.039 A 
ATOM     45  C   UNL A   1      34.804  35.627  32.552  1.00  0.00     0.014 A 
ATOM     46  C   UNL A   1      33.374  33.746  33.059  1.00  0.00     0.014 A 
ATOM     47  C   UNL A   1      35.917  34.922  33.011  1.00  0.00     0.010 A 
ATOM     48  C   UNL A   1      34.469  33.064  33.577  1.00  0.00     0.010 A 
ATOM     49  C   UNL A   1      35.752  33.635  33.530  1.00  0.00    -0.014 A 
BRANCH  49  50
ATOM     50  C   UNL A   1      36.907  32.786  33.902  1.00  0.00     0.031 A 
ATOM     51  C   UNL A   1      37.579  33.045  35.220  1.00  0.00     0.074 A 
ATOM     52  C   UNL A   1      37.396  31.870  33.048  1.00  0.00     0.049 A 
ATOM     53  N   UNL A   1      38.748  32.649  35.653  1.00  0.00    -0.248 NA
ATOM     54  C   UNL A   1      36.849  33.910  36.161  1.00  0.00     0.031 C 
ATOM     55  C   UNL A   1      36.817  31.525  31.750  1.00  0.00     0.029 A 
ATOM     56  N   UNL A   1      38.514  31.082  33.140  1.00  0.00    -0.354 N 
ATOM     57  C   UNL A   1      38.919  33.270  36.883  1.00  0.00     0.074 A 
ATOM     58  C   UNL A   1      37.744  34.079  37.121  1.00  0.00     0.031 C 
ATOM     59  C   UNL A   1      37.590  30.595  31.162  1.00  0.00     0.029 A 
ATOM     60  C   UNL A   1      38.738  30.317  32.022  1.00  0.00     0.049 A 
ATOM     61  H   UNL A   1      39.100  31.066  33.931  1.00  0.00     0.167 HD
ATOM     62  C   UNL A   1      39.965  33.169  37.736  1.00  0.00     0.037 A 
ATOM     63  C   UNL A   1      39.772  29.508  31.724  1.00  0.00     0.037 A 
ATOM     64  C   UNL A   1      41.094  32.307  37.513  1.00  0.00     0.049 A 
ATOM     65  C   UNL A   1      40.898  29.368  32.714  1.00  0.00     0.074 A 
ATOM     66  C   UNL A   1      42.198  32.097  38.320  1.00  0.00     0.029 A 
ATOM     67  N   UNL A   1      41.246  31.488  36.402  1.00  0.00    -0.354 N 
ATOM     68  N   UNL A   1      41.069  29.974  33.864  1.00  0.00    -0.248 NA
ATOM     69  C   UNL A   1      41.974  28.430  32.365  1.00  0.00     0.031 C 
ATOM     70  C   UNL A   1      43.024  31.158  37.691  1.00  0.00     0.029 A 
ATOM     71  C   UNL A   1      42.417  30.761  36.509  1.00  0.00     0.049 A 
ATOM     72  H   UNL A   1      40.613  31.434  35.651  1.00  0.00     0.167 HD
ATOM     73  C   UNL A   1      42.252  29.473  34.389  1.00  0.00     0.074 A 
ATOM     74  C   UNL A   1      42.754  28.506  33.435  1.00  0.00     0.031 C 
ATOM     75  C   UNL A   1      42.872  29.785  35.554  1.00  0.00     0.037 A 
BRANCH  62  76
ATOM     76  C   UNL A   1      39.933  34.016  38.972  1.00  0.00     0.064 A 
ATOM     77  C   UNL A   1      39.404  33.540  40.182  1.00  0.00     0.173 A 
ATOM     78  C   UNL A   1      40.441  35.324  38.949  1.00  0.00     0.173 A 
ATOM     79  F   UNL A   1      38.888  32.304  40.252  1.00  0.00    -0.203 F 
ATOM     80  C   UNL A   1      39.352  34.354  41.310  1.00  0.00     0.198 A 
ATOM     81  C   UNL A   1      40.416  36.124  40.088  1.00  0.00     0.198 A 
ATOM     82  F   UNL A   1      40.960  35.828  37.819  1.00  0.00    -0.203 F 
ATOM     83  F   UNL A   1      38.790  33.897  42.439  1.00  0.00    -0.200 F 
ATOM     84  C   UNL A   1      39.864  35.642  41.265  1.00  0.00     0.200 A 
ATOM     85  F   UNL A   1      40.919  37.366  40.044  1.00  0.00    -0.200 F 
ATOM     86  F   UNL A   1      39.814  36.423  42.353  1.00  0.00    -0.200 F 
ENDBRANCH  62  76
BRANCH  63  87
ATOM     87  C   UNL A   1      39.782  28.755  30.444  1.00  0.00     0.064 A 
ATOM     88  C   UNL A   1      40.322  29.326  29.283  1.00  0.00     0.173 A 
ATOM     89  C   UNL A   1      39.260  27.457  30.351  1.00  0.00     0.173 A 
ATOM     90  F   UNL A   1      40.815  30.572  29.318  1.00  0.00    -0.203 F 
ATOM     91  C   UNL A   1      40.324  28.634  28.074  1.00  0.00     0.198 A 
ATOM     92  C   UNL A   1      39.284  26.756  29.146  1.00  0.00     0.198 A 
ATOM     93  F   UNL A   1      38.737  26.864  31.434  1.00  0.00    -0.203 F 
ATOM     94  F   UNL A   1      40.811  29.219  26.971  1.00  0.00    -0.200 F 
ATOM     95  C   UNL A   1      39.810  27.347  28.008  1.00  0.00     0.200 A 
ATOM     96  F   UNL A   1      38.800  25.508  29.089  1.00  0.00    -0.200 F 
ATOM     97  F   UNL A   1      39.818  26.679  26.846  1.00  0.00    -0.200 F 
ENDBRANCH  63  87
BRANCH  75  98
ATOM     98  C   UNL A   1      44.123  29.031  35.884  1.00  0.00     0.064 A 
ATOM     99  C   UNL A   1      44.087  27.812  36.574  1.00  0.00     0.173 A 
ATOM    100  C   UNL A   1      45.370  29.515  35.459  1.00  0.00     0.173 A 
ATOM    101  F   UNL A   1      42.918  27.319  37.011  1.00  0.00    -0.203 F 
ATOM    102  C   UNL A   1      45.258  27.112  36.845  1.00  0.00     0.198 A 
ATOM    103  C   UNL A   1      46.536  28.800  35.712  1.00  0.00     0.198 A 
ATOM    104  F   UNL A   1      45.453  30.674  34.790  1.00  0.00    -0.203 F 
ATOM    105  F   UNL A   1      45.206  25.966  37.538  1.00  0.00    -0.200 F 
ATOM    106  C   UNL A   1      46.480  27.603  36.408  1.00  0.00     0.200 A 
ATOM    107  F   UNL A   1      47.715  29.271  35.281  1.00  0.00    -0.200 F 
ATOM    108  F   UNL A   1      47.607  26.923  36.665  1.00  0.00    -0.200 F 
ENDBRANCH  75  98
ENDBRANCH  49  50
ENDBRANCH  41  44
ENDBRANCH  39  40
ENDBRANCH  38  39
ENDBRANCH  37  38
ENDBRANCH  35  37
ENDBRANCH   5  33
TORSDOF 17
ENDMDL
MODEL 2
REMARK VINA RESULT:     -13.1      1.390      2.337
REMARK SMILES Cn1c(SCC(=O)Nc2cccc(C(=O)NCCCNC(=O)c3ccc(-c4c5nc(c(-c6c(F)c(F)c(F)c(F)c6F)c6ccc([nH]6)c(-c6c(F)c(F)c(F)c(F)c6F)c6nc(c(-c7c(F)c(F)c(F)c(F)c7F)c7ccc4[nH]7)C=C6)C=C5)cc3)c2)nnc1[C@@H]1CCCN1C(=O)c1ccccc1Cl
REMARK SMILES IDX 9 1 10 2 11 3 12 4 13 5 86 6 8 7 6 8 7 9 5 11 4 12 3 13 1 14
REMARK SMILES IDX 2 15 89 16 87 17 88 18 90 19 91 20 94 21 92 22 93 23 95 24
REMARK SMILES IDX 96 25 97 26 98 27 102 28 99 29 101 30 103 31 100 32 14 33
REMARK SMILES IDX 15 34 16 35 17 37 18 38 19 39 20 40 21 41 22 43 23 44 24 45
REMARK SMILES IDX 85 46 25 47 84 48 26 49 27 50 28 51 78 52 29 53 83 54 77 55
REMARK SMILES IDX 79 56 30 57 82 58 76 59 75 60 31 62 63 63 43 64 62 65 44 66
REMARK SMILES IDX 47 67 61 68 80 69 45 70 46 71 60 73 81 74 48 75 32 76 33 77
REMARK SMILES IDX 41 78 34 79 35 80 39 81 42 82 36 83 37 84 40 85 38 86 64 87
REMARK SMILES IDX 65 88 73 89 66 90 67 91 71 92 74 93 68 94 69 95 72 96 70 97
REMARK SMILES IDX 49 98 50 99 58 100 51 101 52 102 56 103 59 104 53 105 54 106
REMARK SMILES IDX 57 107 55 108
REMARK H PARENT 8 10 16 36 20 42 79 61 47 72
REMARK Flexibility Score: inf
ROOT
ATOM      1  C   UNL A   1      32.021  29.273  25.377  1.00  0.00     0.041 A 
ATOM      2  C   UNL A   1      31.600  28.305  26.290  1.00  0.00     0.026 A 
ATOM      3  C   UNL A   1      32.243  28.180  27.512  1.00  0.00     0.003 A 
ATOM      4  C   UNL A   1      33.271  29.062  27.838  1.00  0.00     0.014 A 
ATOM      5  C   UNL A   1      33.679  30.088  26.959  1.00  0.00     0.041 A 
ATOM      6  C   UNL A   1      33.042  30.181  25.712  1.00  0.00     0.040 A 
ENDROOT
BRANCH   1   7
ATOM      7  N   UNL A   1      31.251  29.424  24.221  1.00  0.00    -0.325 N 
ATOM      8  C   UNL A   1      31.413  28.881  22.982  1.00  0.00     0.234 C 
ATOM      9  O   UNL A   1      30.621  29.229  22.100  1.00  0.00    -0.274 OA
ATOM     10  H   UNL A   1      30.468  30.014  24.317  1.00  0.00     0.169 HD
BRANCH   8  11
ATOM     11  C   UNL A   1      32.368  27.741  22.739  1.00  0.00     0.178 C 
BRANCH  11  12
ATOM     12  S   UNL A   1      31.723  26.235  22.061  1.00  0.00    -0.076 SA
BRANCH  12  13
ATOM     13  C   UNL A   1      32.689  24.879  22.497  1.00  0.00     0.191 A 
ATOM     14  C   UNL A   1      32.560  24.726  25.026  1.00  0.00     0.154 C 
ATOM     15  N   UNL A   1      33.109  24.445  23.728  1.00  0.00    -0.307 N 
ATOM     16  C   UNL A   1      34.207  23.641  23.472  1.00  0.00     0.156 A 
ATOM     17  N   UNL A   1      33.386  24.264  21.571  1.00  0.00    -0.123 NA
ATOM     18  N   UNL A   1      34.297  23.455  22.171  1.00  0.00    -0.132 NA
BRANCH  16  19
ATOM     19  C   UNL A   1      35.193  23.081  24.430  1.00  0.00     0.154 C 
ATOM     20  C   UNL A   1      36.652  23.301  24.017  1.00  0.00     0.035 C 
ATOM     21  N   UNL A   1      35.099  21.643  24.703  1.00  0.00    -0.328 N 
ATOM     22  C   UNL A   1      37.397  22.253  24.830  1.00  0.00     0.024 C 
ATOM     23  C   UNL A   1      36.429  21.079  24.889  1.00  0.00     0.120 C 
BRANCH  21  24
ATOM     24  C   UNL A   1      34.007  20.883  25.107  1.00  0.00     0.255 C 
ATOM     25  O   UNL A   1      33.352  21.146  26.114  1.00  0.00    -0.269 OA
BRANCH  24  26
ATOM     26  C   UNL A   1      33.635  19.658  24.383  1.00  0.00     0.058 A 
ATOM     27  C   UNL A   1      34.360  18.484  24.598  1.00  0.00     0.015 A 
ATOM     28  C   UNL A   1      32.663  19.699  23.375  1.00  0.00     0.053 A 
ATOM     29  C   UNL A   1      34.050  17.334  23.868  1.00  0.00     0.001 A 
ATOM     30  C   UNL A   1      32.340  18.537  22.667  1.00  0.00     0.021 A 
ATOM     31  Cl  UNL A   1      31.847  21.155  22.928  1.00  0.00    -0.083 Cl
ATOM     32  C   UNL A   1      33.023  17.352  22.925  1.00  0.00     0.002 A 
ENDBRANCH  24  26
ENDBRANCH  21  24
ENDBRANCH  16  19
ENDBRANCH  12  13
ENDBRANCH  11  12
ENDBRANCH   8  11
ENDBRANCH   1   7
BRANCH   5  33
ATOM     33  C   UNL A   1      34.685  31.036  27.533  1.00  0.00     0.251 C 
ATOM     34  O   UNL A   1      35.883  30.761  27.417  1.00  0.00    -0.269 OA
ATOM     35  N   UNL A   1      34.419  32.207  28.179  1.00  0.00    -0.352 N 
ATOM     36  H   UNL A   1      35.237  32.674  28.469  1.00  0.00     0.163 HD
BRANCH  35  37
ATOM     37  C   UNL A   1      33.214  32.925  28.539  1.00  0.00     0.118 C 
BRANCH  37  38
ATOM     38  C   UNL A   1      33.197  34.302  27.883  1.00  0.00     0.042 C 
BRANCH  38  39
ATOM     39  C   UNL A   1      33.660  35.464  28.763  1.00  0.00     0.118 C 
BRANCH  39  40
ATOM     40  N   UNL A   1      32.782  35.849  29.856  1.00  0.00    -0.352 N 
ATOM     41  C   UNL A   1      32.901  35.671  31.208  1.00  0.00     0.251 C 
ATOM     42  H   UNL A   1      31.963  36.318  29.576  1.00  0.00     0.163 HD
ATOM     43  O   UNL A   1      32.078  36.198  31.963  1.00  0.00    -0.269 OA
BRANCH  41  44
ATOM     44  C   UNL A   1      33.984  34.866  31.805  1.00  0.00     0.039 A 
ATOM     45  C   UNL A   1      35.237  35.472  31.986  1.00  0.00     0.014 A 
ATOM     46  C   UNL A   1      33.823  33.514  32.101  1.00  0.00     0.014 A 
ATOM     47  C   UNL A   1      36.312  34.741  32.493  1.00  0.00     0.010 A 
ATOM     48  C   UNL A   1      34.873  32.799  32.666  1.00  0.00     0.010 A 
ATOM     49  C   UNL A   1      36.132  33.399  32.840  1.00  0.00    -0.014 A 
BRANCH  49  50
ATOM     50  C   UNL A   1      37.264  32.536  33.249  1.00  0.00     0.031 A 
ATOM     51  C   UNL A   1      37.896  32.788  34.589  1.00  0.00     0.074 A 
ATOM     52  C   UNL A   1      37.770  31.614  32.412  1.00  0.00     0.049 A 
ATOM     53  N   UNL A   1      39.045  32.378  35.059  1.00  0.00    -0.248 NA
ATOM     54  C   UNL A   1      37.145  33.663  35.505  1.00  0.00     0.031 C 
ATOM     55  C   UNL A   1      37.230  31.275  31.095  1.00  0.00     0.029 A 
ATOM     56  N   UNL A   1      38.875  30.813  32.541  1.00  0.00    -0.354 N 
ATOM     57  C   UNL A   1      39.182  32.998  36.295  1.00  0.00     0.074 A 
ATOM     58  C   UNL A   1      38.011  33.821  36.494  1.00  0.00     0.031 C 
ATOM     59  C   UNL A   1      38.011  30.335  30.534  1.00  0.00     0.029 A 
ATOM     60  C   UNL A   1      39.126  30.045  31.431  1.00  0.00     0.049 A 
ATOM     61  H   UNL A   1      39.434  30.791  33.351  1.00  0.00     0.167 HD
ATOM     62  C   UNL A   1      40.199  32.885  37.182  1.00  0.00     0.037 A 
ATOM     63  C   UNL A   1      40.160  29.223  31.167  1.00  0.00     0.037 A 
ATOM     64  C   UNL A   1      41.325  32.010  36.996  1.00  0.00     0.049 A 
ATOM     65  C   UNL A   1      41.251  29.070  32.194  1.00  0.00     0.074 A 
ATOM     66  C   UNL A   1      42.399  31.787  37.838  1.00  0.00     0.029 A 
ATOM     67  N   UNL A   1      41.503  31.189  35.891  1.00  0.00    -0.354 N 
ATOM     68  N   UNL A   1      41.392  29.675  33.348  1.00  0.00    -0.248 NA
ATOM     69  C   UNL A   1      42.327  28.119  31.880  1.00  0.00     0.031 C 
ATOM     70  C   UNL A   1      43.233  30.838  37.237  1.00  0.00     0.029 A 
ATOM     71  C   UNL A   1      42.662  30.448  36.036  1.00  0.00     0.049 A 
ATOM     72  H   UNL A   1      40.894  31.141  35.119  1.00  0.00     0.167 HD
ATOM     73  C   UNL A   1      42.551  29.160  33.912  1.00  0.00     0.074 A 
ATOM     74  C   UNL A   1      43.072  28.186  32.975  1.00  0.00     0.031 C 
ATOM     75  C   UNL A   1      43.135  29.466  35.096  1.00  0.00     0.037 A 
BRANCH  62  76
ATOM     76  C   UNL A   1      40.137  33.733  38.416  1.00  0.00     0.064 A 
ATOM     77  C   UNL A   1      39.382  33.355  39.537  1.00  0.00     0.173 A 
ATOM     78  C   UNL A   1      40.844  34.944  38.481  1.00  0.00     0.173 A 
ATOM     79  F   UNL A   1      38.672  32.216  39.518  1.00  0.00    -0.203 F 
ATOM     80  C   UNL A   1      39.309  34.172  40.661  1.00  0.00     0.198 A 
ATOM     81  C   UNL A   1      40.794  35.744  39.620  1.00  0.00     0.198 A 
ATOM     82  F   UNL A   1      41.583  35.353  37.438  1.00  0.00    -0.203 F 
ATOM     83  F   UNL A   1      38.536  33.817  41.697  1.00  0.00    -0.200 F 
ATOM     84  C   UNL A   1      40.020  35.362  40.704  1.00  0.00     0.200 A 
ATOM     85  F   UNL A   1      41.488  36.890  39.662  1.00  0.00    -0.200 F 
ATOM     86  F   UNL A   1      39.950  36.147  41.789  1.00  0.00    -0.200 F 
ENDBRANCH  62  76
BRANCH  63  87
ATOM     87  C   UNL A   1      40.202  28.469  29.888  1.00  0.00     0.064 A 
ATOM     88  C   UNL A   1      39.524  27.250  29.753  1.00  0.00     0.173 A 
ATOM     89  C   UNL A   1      40.913  28.947  28.778  1.00  0.00     0.173 A 
ATOM     90  F   UNL A   1      38.847  26.744  30.794  1.00  0.00    -0.203 F 
ATOM     91  C   UNL A   1      39.569  26.528  28.563  1.00  0.00     0.198 A 
ATOM     92  C   UNL A   1      40.937  28.236  27.579  1.00  0.00     0.198 A 
ATOM     93  F   UNL A   1      41.575  30.111  28.853  1.00  0.00    -0.203 F 
ATOM     94  F   UNL A   1      38.943  25.347  28.475  1.00  0.00    -0.200 F 
ATOM     95  C   UNL A   1      40.271  27.025  27.474  1.00  0.00     0.200 A 
ATOM     96  F   UNL A   1      41.605  28.725  26.525  1.00  0.00    -0.200 F 
ATOM     97  F   UNL A   1      40.308  26.333  26.327  1.00  0.00    -0.200 F 
ENDBRANCH  63  87
BRANCH  75  98
ATOM     98  C   UNL A   1      44.366  28.697  35.468  1.00  0.00     0.064 A 
ATOM     99  C   UNL A   1      45.646  29.147  35.120  1.00  0.00     0.173 A 
ATOM    100  C   UNL A   1      44.261  27.521  36.226  1.00  0.00     0.173 A 
ATOM    101  F   UNL A   1      45.794  30.260  34.384  1.00  0.00    -0.203 F 
ATOM    102  C   UNL A   1      46.779  28.436  35.501  1.00  0.00     0.198 A 
ATOM    103  C   UNL A   1      45.397  26.825  36.625  1.00  0.00     0.198 A 
ATOM    104  F   UNL A   1      43.056  27.056  36.588  1.00  0.00    -0.203 F 
ATOM    105  F   UNL A   1      47.994  28.863  35.127  1.00  0.00    -0.200 F 
ATOM    106  C   UNL A   1      46.654  27.280  36.258  1.00  0.00     0.200 A 
ATOM    107  F   UNL A   1      45.275  25.713  37.364  1.00  0.00    -0.200 F 
ATOM    108  F   UNL A   1      47.749  26.599  36.629  1.00  0.00    -0.200 F 
ENDBRANCH  75  98
ENDBRANCH  49  50
ENDBRANCH  41  44
ENDBRANCH  39  40
ENDBRANCH  38  39
ENDBRANCH  37  38
ENDBRANCH  35  37
ENDBRANCH   5  33
TORSDOF 17
ENDMDL
MODEL 3
REMARK VINA RESULT:     -12.6      1.437      2.220
REMARK SMILES Cn1c(SCC(=O)Nc2cccc(C(=O)NCCCNC(=O)c3ccc(-c4c5nc(c(-c6c(F)c(F)c(F)c(F)c6F)c6ccc([nH]6)c(-c6c(F)c(F)c(F)c(F)c6F)c6nc(c(-c7c(F)c(F)c(F)c(F)c7F)c7ccc4[nH]7)C=C6)C=C5)cc3)c2)nnc1[C@@H]1CCCN1C(=O)c1ccccc1Cl
REMARK SMILES IDX 9 1 10 2 11 3 12 4 13 5 86 6 8 7 6 8 7 9 5 11 4 12 3 13 1 14
REMARK SMILES IDX 2 15 89 16 87 17 88 18 90 19 91 20 94 21 92 22 93 23 95 24
REMARK SMILES IDX 96 25 97 26 98 27 102 28 99 29 101 30 103 31 100 32 14 33
REMARK SMILES IDX 15 34 16 35 17 37 18 38 19 39 20 40 21 41 22 43 23 44 24 45
REMARK SMILES IDX 85 46 25 47 84 48 26 49 27 50 28 51 78 52 29 53 83 54 77 55
REMARK SMILES IDX 79 56 30 57 82 58 76 59 75 60 31 62 63 63 43 64 62 65 44 66
REMARK SMILES IDX 47 67 61 68 80 69 45 70 46 71 60 73 81 74 48 75 32 76 33 77
REMARK SMILES IDX 41 78 34 79 35 80 39 81 42 82 36 83 37 84 40 85 38 86 64 87
REMARK SMILES IDX 65 88 73 89 66 90 67 91 71 92 74 93 68 94 69 95 72 96 70 97
REMARK SMILES IDX 49 98 50 99 58 100 51 101 52 102 56 103 59 104 53 105 54 106
REMARK SMILES IDX 57 107 55 108
REMARK H PARENT 8 10 16 36 20 42 79 61 47 72
REMARK Flexibility Score: inf
ROOT
ATOM      1  C   UNL A   1      32.089  29.288  25.431  1.00  0.00     0.041 A 
ATOM      2  C   UNL A   1      31.678  28.321  26.349  1.00  0.00     0.026 A 
ATOM      3  C   UNL A   1      32.322  28.209  27.572  1.00  0.00     0.003 A 
ATOM      4  C   UNL A   1      33.341  29.104  27.893  1.00  0.00     0.014 A 
ATOM      5  C   UNL A   1      33.737  30.130  27.009  1.00  0.00     0.041 A 
ATOM      6  C   UNL A   1      33.099  30.209  25.761  1.00  0.00     0.040 A 
ENDROOT
BRANCH   1   7
ATOM      7  N   UNL A   1      31.318  29.424  24.274  1.00  0.00    -0.325 N 
ATOM      8  C   UNL A   1      31.534  28.951  23.015  1.00  0.00     0.234 C 
ATOM      9  O   UNL A   1      30.722  29.270  22.140  1.00  0.00    -0.274 OA
ATOM     10  H   UNL A   1      30.487  29.941  24.386  1.00  0.00     0.169 HD
BRANCH   8  11
ATOM     11  C   UNL A   1      32.583  27.907  22.733  1.00  0.00     0.178 C 
BRANCH  11  12
ATOM     12  S   UNL A   1      32.127  26.499  21.757  1.00  0.00    -0.076 SA
BRANCH  12  13
ATOM     13  C   UNL A   1      32.865  25.058  22.340  1.00  0.00     0.191 A 
ATOM     14  C   UNL A   1      33.116  25.377  24.845  1.00  0.00     0.154 C 
ATOM     15  N   UNL A   1      33.383  24.761  23.575  1.00  0.00    -0.307 N 
ATOM     16  C   UNL A   1      34.245  23.699  23.358  1.00  0.00     0.156 A 
ATOM     17  N   UNL A   1      33.269  24.152  21.482  1.00  0.00    -0.123 NA
ATOM     18  N   UNL A   1      34.087  23.276  22.121  1.00  0.00    -0.132 NA
BRANCH  16  19
ATOM     19  C   UNL A   1      35.243  23.107  24.284  1.00  0.00     0.154 C 
ATOM     20  C   UNL A   1      36.690  23.234  23.799  1.00  0.00     0.035 C 
ATOM     21  N   UNL A   1      35.082  21.683  24.598  1.00  0.00    -0.328 N 
ATOM     22  C   UNL A   1      37.414  22.165  24.606  1.00  0.00     0.024 C 
ATOM     23  C   UNL A   1      36.386  21.050  24.738  1.00  0.00     0.120 C 
BRANCH  21  24
ATOM     24  C   UNL A   1      33.969  20.996  25.072  1.00  0.00     0.255 C 
ATOM     25  O   UNL A   1      33.829  19.782  24.931  1.00  0.00    -0.269 OA
BRANCH  24  26
ATOM     26  C   UNL A   1      32.850  21.718  25.696  1.00  0.00     0.058 A 
ATOM     27  C   UNL A   1      31.667  21.906  24.978  1.00  0.00     0.015 A 
ATOM     28  C   UNL A   1      33.017  22.345  26.938  1.00  0.00     0.053 A 
ATOM     29  C   UNL A   1      30.624  22.643  25.543  1.00  0.00     0.001 A 
ATOM     30  C   UNL A   1      31.958  23.059  27.508  1.00  0.00     0.021 A 
ATOM     31  Cl  UNL A   1      34.510  22.307  27.806  1.00  0.00    -0.083 Cl
ATOM     32  C   UNL A   1      30.757  23.195  26.817  1.00  0.00     0.002 A 
ENDBRANCH  24  26
ENDBRANCH  21  24
ENDBRANCH  16  19
ENDBRANCH  12  13
ENDBRANCH  11  12
ENDBRANCH   8  11
ENDBRANCH   1   7
BRANCH   5  33
ATOM     33  C   UNL A   1      34.733  31.092  27.578  1.00  0.00     0.251 C 
ATOM     34  O   UNL A   1      35.934  30.830  27.461  1.00  0.00    -0.269 OA
ATOM     35  N   UNL A   1      34.454  32.263  28.219  1.00  0.00    -0.352 N 
ATOM     36  H   UNL A   1      35.266  32.740  28.506  1.00  0.00     0.163 HD
BRANCH  35  37
ATOM     37  C   UNL A   1      33.241  32.967  28.577  1.00  0.00     0.118 C 
BRANCH  37  38
ATOM     38  C   UNL A   1      33.215  34.348  27.928  1.00  0.00     0.042 C 
BRANCH  38  39
ATOM     39  C   UNL A   1      33.658  35.510  28.818  1.00  0.00     0.118 C 
BRANCH  39  40
ATOM     40  N   UNL A   1      32.768  35.877  29.909  1.00  0.00    -0.352 N 
ATOM     41  C   UNL A   1      32.880  35.689  31.260  1.00  0.00     0.251 C 
ATOM     42  H   UNL A   1      31.946  36.340  29.627  1.00  0.00     0.163 HD
ATOM     43  O   UNL A   1      32.046  36.201  32.014  1.00  0.00    -0.269 OA
BRANCH  41  44
ATOM     44  C   UNL A   1      33.968  34.892  31.858  1.00  0.00     0.039 A 
ATOM     45  C   UNL A   1      35.237  35.482  31.974  1.00  0.00     0.014 A 
ATOM     46  C   UNL A   1      33.794  33.557  32.217  1.00  0.00     0.014 A 
ATOM     47  C   UNL A   1      36.314  34.754  32.479  1.00  0.00     0.010 A 
ATOM     48  C   UNL A   1      34.849  32.848  32.781  1.00  0.00     0.010 A 
ATOM     49  C   UNL A   1      36.123  33.431  32.889  1.00  0.00    -0.014 A 
BRANCH  49  50
ATOM     50  C   UNL A   1      37.253  32.567  33.301  1.00  0.00     0.031 A 
ATOM     51  C   UNL A   1      37.891  32.826  34.636  1.00  0.00     0.074 A 
ATOM     52  C   UNL A   1      37.751  31.637  32.469  1.00  0.00     0.049 A 
ATOM     53  N   UNL A   1      39.040  32.415  35.105  1.00  0.00    -0.248 NA
ATOM     54  C   UNL A   1      37.147  33.711  35.548  1.00  0.00     0.031 C 
ATOM     55  C   UNL A   1      37.205  31.290  31.157  1.00  0.00     0.029 A 
ATOM     56  N   UNL A   1      38.853  30.831  32.599  1.00  0.00    -0.354 N 
ATOM     57  C   UNL A   1      39.184  33.044  36.336  1.00  0.00     0.074 A 
ATOM     58  C   UNL A   1      38.017  33.873  36.533  1.00  0.00     0.031 C 
ATOM     59  C   UNL A   1      37.980  30.343  30.600  1.00  0.00     0.029 A 
ATOM     60  C   UNL A   1      39.097  30.054  31.495  1.00  0.00     0.049 A 
ATOM     61  H   UNL A   1      39.416  30.813  33.407  1.00  0.00     0.167 HD
ATOM     62  C   UNL A   1      40.204  32.933  37.219  1.00  0.00     0.037 A 
ATOM     63  C   UNL A   1      40.126  29.226  31.233  1.00  0.00     0.037 A 
ATOM     64  C   UNL A   1      41.325  32.052  37.036  1.00  0.00     0.049 A 
ATOM     65  C   UNL A   1      41.221  29.076  32.257  1.00  0.00     0.074 A 
ATOM     66  C   UNL A   1      42.401  31.830  37.876  1.00  0.00     0.029 A 
ATOM     67  N   UNL A   1      41.495  31.221  35.937  1.00  0.00    -0.354 N 
ATOM     68  N   UNL A   1      41.368  29.689  33.406  1.00  0.00    -0.248 NA
ATOM     69  C   UNL A   1      42.291  28.118  31.946  1.00  0.00     0.031 C 
ATOM     70  C   UNL A   1      43.230  30.873  37.280  1.00  0.00     0.029 A 
ATOM     71  C   UNL A   1      42.651  30.476  36.083  1.00  0.00     0.049 A 
ATOM     72  H   UNL A   1      40.884  31.171  35.168  1.00  0.00     0.167 HD
ATOM     73  C   UNL A   1      42.527  29.173  33.969  1.00  0.00     0.074 A 
ATOM     74  C   UNL A   1      43.040  28.190  33.038  1.00  0.00     0.031 C 
ATOM     75  C   UNL A   1      43.117  29.485  35.149  1.00  0.00     0.037 A 
BRANCH  62  76
ATOM     76  C   UNL A   1      40.150  33.790  38.448  1.00  0.00     0.064 A 
ATOM     77  C   UNL A   1      40.829  35.016  38.525  1.00  0.00     0.173 A 
ATOM     78  C   UNL A   1      39.408  33.381  39.566  1.00  0.00     0.173 A 
ATOM     79  F   UNL A   1      41.568  35.443  37.490  1.00  0.00    -0.203 F 
ATOM     80  C   UNL A   1      40.794  35.782  39.687  1.00  0.00     0.198 A 
ATOM     81  C   UNL A   1      39.350  34.165  40.716  1.00  0.00     0.198 A 
ATOM     82  F   UNL A   1      38.738  32.218  39.546  1.00  0.00    -0.203 F 
ATOM     83  F   UNL A   1      41.497  36.922  39.757  1.00  0.00    -0.200 F 
ATOM     84  C   UNL A   1      40.050  35.360  40.778  1.00  0.00     0.200 A 
ATOM     85  F   UNL A   1      38.623  33.759  41.767  1.00  0.00    -0.200 F 
ATOM     86  F   UNL A   1      40.018  36.100  41.896  1.00  0.00    -0.200 F 
ENDBRANCH  62  76
BRANCH  63  87
ATOM     87  C   UNL A   1      40.161  28.463  29.959  1.00  0.00     0.064 A 
ATOM     88  C   UNL A   1      40.867  28.952  28.852  1.00  0.00     0.173 A 
ATOM     89  C   UNL A   1      39.498  27.235  29.821  1.00  0.00     0.173 A 
ATOM     90  F   UNL A   1      41.500  30.131  28.930  1.00  0.00    -0.203 F 
ATOM     91  C   UNL A   1      40.895  28.251  27.648  1.00  0.00     0.198 A 
ATOM     92  C   UNL A   1      39.547  26.522  28.624  1.00  0.00     0.198 A 
ATOM     93  F   UNL A   1      38.813  26.720  30.853  1.00  0.00    -0.203 F 
ATOM     94  F   UNL A   1      41.546  28.760  26.594  1.00  0.00    -0.200 F 
ATOM     95  C   UNL A   1      40.240  27.033  27.537  1.00  0.00     0.200 A 
ATOM     96  F   UNL A   1      38.925  25.339  28.524  1.00  0.00    -0.200 F 
ATOM     97  F   UNL A   1      40.272  26.356  26.381  1.00  0.00    -0.200 F 
ENDBRANCH  63  87
BRANCH  75  98
ATOM     98  C   UNL A   1      44.346  28.714  35.522  1.00  0.00     0.064 A 
ATOM     99  C   UNL A   1      44.272  27.519  36.248  1.00  0.00     0.173 A 
ATOM    100  C   UNL A   1      45.610  29.156  35.101  1.00  0.00     0.173 A 
ATOM    101  F   UNL A   1      43.086  27.065  36.683  1.00  0.00    -0.203 F 
ATOM    102  C   UNL A   1      45.423  26.801  36.558  1.00  0.00     0.198 A 
ATOM    103  C   UNL A   1      46.756  28.424  35.394  1.00  0.00     0.198 A 
ATOM    104  F   UNL A   1      45.729  30.292  34.398  1.00  0.00    -0.203 F 
ATOM    105  F   UNL A   1      45.334  25.678  37.286  1.00  0.00    -0.200 F 
ATOM    106  C   UNL A   1      46.662  27.250  36.126  1.00  0.00     0.200 A 
ATOM    107  F   UNL A   1      47.952  28.855  34.967  1.00  0.00    -0.200 F 
ATOM    108  F   UNL A   1      47.769  26.553  36.421  1.00  0.00    -0.200 F 
ENDBRANCH  75  98
ENDBRANCH  49  50
ENDBRANCH  41  44
ENDBRANCH  39  40
ENDBRANCH  38  39
ENDBRANCH  37  38
ENDBRANCH  35  37
ENDBRANCH   5  33
TORSDOF 17
ENDMDL
