MODEL 1
REMARK VINA RESULT:     -13.1      0.000      0.000
REMARK SMILES CCc1ccc2oc(-c3ccccc3)c(OCC(=O)NCCCNC(=O)c3ccc(-c4c5nc(c(-c6c(F)c(F)c(F)c(F)c6F)c6ccc([nH]6)c(-c6c(F)c(F)c(F)c(F)c6F)c6nc(c(-c7c(F)c(F)c(F)c(F)c7F)c7ccc4[nH]7)C=C6)C=C5)cc3)c(=O)c2c1
REMARK SMILES IDX 21 1 20 2 18 3 19 4 17 6 16 7 15 8 3 9 4 10 93 11 5 12 92 13
REMARK SMILES IDX 6 14 90 15 7 16 91 17 8 18 2 19 1 20 9 21 10 22 14 23 11 24
REMARK SMILES IDX 13 25 12 26 22 27 23 28 24 29 25 30 26 32 27 33 28 34 89 35
REMARK SMILES IDX 29 36 88 37 30 38 31 39 32 40 82 41 33 42 87 43 81 44 83 45
REMARK SMILES IDX 34 46 86 47 80 48 79 49 35 51 67 52 47 53 66 54 48 55 51 56
REMARK SMILES IDX 65 57 84 58 49 59 50 60 64 62 85 63 52 64 36 65 37 66 45 67
REMARK SMILES IDX 38 68 39 69 43 70 46 71 40 72 41 73 44 74 42 75 68 76 69 77
REMARK SMILES IDX 77 78 70 79 71 80 75 81 78 82 72 83 73 84 76 85 74 86 53 87
REMARK SMILES IDX 54 88 62 89 55 90 56 91 60 92 63 93 57 94 58 95 61 96 59 97
REMARK H PARENT 20 5 24 31 83 50 51 61
REMARK Flexibility Score: inf
ROOT
ATOM      1  C   UNL A   1      32.726  26.779  26.280  1.00  0.00     0.117 C 
ENDROOT
BRANCH   1   2
ATOM      2  N   UNL A   1      31.679  25.819  26.564  1.00  0.00    -0.353 N 
ATOM      3  C   UNL A   1      31.787  24.484  26.835  1.00  0.00     0.257 C 
ATOM      4  O   UNL A   1      30.763  23.892  27.177  1.00  0.00    -0.271 OA
ATOM      5  H   UNL A   1      30.762  26.178  26.559  1.00  0.00     0.163 HD
BRANCH   3   6
ATOM      6  C   UNL A   1      33.167  23.811  26.789  1.00  0.00     0.329 C 
BRANCH   6   7
ATOM      7  O   UNL A   1      33.774  23.618  25.520  1.00  0.00    -0.476 OA
BRANCH   7   8
ATOM      8  C   UNL A   1      33.448  22.511  24.749  1.00  0.00     0.211 A 
ATOM      9  C   UNL A   1      33.280  17.669  23.704  1.00  0.00    -0.047 A 
ATOM     10  C   UNL A   1      32.456  17.984  22.613  1.00  0.00     0.007 A 
ATOM     11  C   UNL A   1      33.760  18.713  24.505  1.00  0.00     0.020 A 
ATOM     12  C   UNL A   1      32.111  19.313  22.338  1.00  0.00     0.048 A 
ATOM     13  C   UNL A   1      33.412  20.038  24.224  1.00  0.00     0.069 A 
ATOM     14  C   UNL A   1      32.591  20.341  23.149  1.00  0.00     0.138 A 
ATOM     15  C   UNL A   1      33.944  21.133  25.041  1.00  0.00     0.235 A 
ATOM     16  O   UNL A   1      32.246  21.624  22.825  1.00  0.00    -0.452 OA
ATOM     17  O   UNL A   1      34.798  20.890  25.885  1.00  0.00    -0.285 OA
ATOM     18  C   UNL A   1      32.687  22.655  23.640  1.00  0.00     0.180 A 
BRANCH   9  19
ATOM     19  C   UNL A   1      33.691  16.244  23.981  1.00  0.00     0.032 C 
ATOM     20  C   UNL A   1      34.821  16.129  24.996  1.00  0.00     0.009 C 
ENDBRANCH   9  19
BRANCH  18  21
ATOM     21  C   UNL A   1      32.262  23.983  23.148  1.00  0.00     0.021 A 
ATOM     22  C   UNL A   1      30.968  24.460  23.394  1.00  0.00     0.012 A 
ATOM     23  C   UNL A   1      33.132  24.764  22.370  1.00  0.00     0.012 A 
ATOM     24  C   UNL A   1      30.563  25.702  22.895  1.00  0.00     0.001 A 
ATOM     25  C   UNL A   1      32.727  26.003  21.870  1.00  0.00     0.001 A 
ATOM     26  C   UNL A   1      31.443  26.473  22.135  1.00  0.00     0.000 A 
ENDBRANCH  18  21
ENDBRANCH   7   8
ENDBRANCH   6   7
ENDBRANCH   3   6
ENDBRANCH   1   2
BRANCH   1  27
ATOM     27  C   UNL A   1      32.215  27.976  25.492  1.00  0.00     0.042 C 
BRANCH  27  28
ATOM     28  C   UNL A   1      33.200  29.137  25.395  1.00  0.00     0.118 C 
BRANCH  28  29
ATOM     29  N   UNL A   1      32.674  30.389  25.924  1.00  0.00    -0.352 N 
ATOM     30  C   UNL A   1      33.138  31.184  26.941  1.00  0.00     0.251 C 
ATOM     31  H   UNL A   1      31.857  30.715  25.482  1.00  0.00     0.163 HD
ATOM     32  O   UNL A   1      32.464  32.134  27.334  1.00  0.00    -0.269 OA
BRANCH  30  33
ATOM     33  C   UNL A   1      34.434  30.891  27.590  1.00  0.00     0.039 A 
ATOM     34  C   UNL A   1      35.374  31.918  27.718  1.00  0.00     0.014 A 
ATOM     35  C   UNL A   1      34.730  29.609  28.057  1.00  0.00     0.014 A 
ATOM     36  C   UNL A   1      36.579  31.678  28.385  1.00  0.00     0.010 A 
ATOM     37  C   UNL A   1      35.893  29.393  28.791  1.00  0.00     0.010 A 
ATOM     38  C   UNL A   1      36.830  30.424  28.962  1.00  0.00    -0.014 A 
BRANCH  38  39
ATOM     39  C   UNL A   1      38.065  30.154  29.741  1.00  0.00     0.031 A 
ATOM     40  C   UNL A   1      39.101  29.210  29.198  1.00  0.00     0.074 A 
ATOM     41  C   UNL A   1      38.212  30.680  30.972  1.00  0.00     0.049 A 
ATOM     42  N   UNL A   1      40.175  28.733  29.776  1.00  0.00    -0.248 NA
ATOM     43  C   UNL A   1      38.881  28.711  27.832  1.00  0.00     0.031 C 
ATOM     44  C   UNL A   1      37.264  31.583  31.625  1.00  0.00     0.029 A 
ATOM     45  N   UNL A   1      39.207  30.513  31.904  1.00  0.00    -0.354 N 
ATOM     46  C   UNL A   1      40.741  27.860  28.855  1.00  0.00     0.074 A 
ATOM     47  C   UNL A   1      39.866  27.835  27.703  1.00  0.00     0.031 C 
ATOM     48  C   UNL A   1      37.726  31.898  32.845  1.00  0.00     0.029 A 
ATOM     49  C   UNL A   1      38.978  31.183  33.081  1.00  0.00     0.049 A 
ATOM     50  H   UNL A   1      40.008  29.964  31.744  1.00  0.00     0.167 HD
ATOM     51  C   UNL A   1      41.895  27.158  28.955  1.00  0.00     0.037 A 
ATOM     52  C   UNL A   1      39.685  31.204  34.226  1.00  0.00     0.037 A 
ATOM     53  C   UNL A   1      42.772  27.206  30.095  1.00  0.00     0.049 A 
ATOM     54  C   UNL A   1      40.957  30.405  34.321  1.00  0.00     0.074 A 
ATOM     55  C   UNL A   1      43.994  26.580  30.271  1.00  0.00     0.029 A 
ATOM     56  N   UNL A   1      42.518  27.920  31.258  1.00  0.00    -0.354 N 
ATOM     57  N   UNL A   1      41.514  29.628  33.424  1.00  0.00    -0.248 NA
ATOM     58  C   UNL A   1      41.702  30.489  35.585  1.00  0.00     0.031 C 
ATOM     59  C   UNL A   1      44.452  26.870  31.559  1.00  0.00     0.029 A 
ATOM     60  C   UNL A   1      43.549  27.729  32.164  1.00  0.00     0.049 A 
ATOM     61  H   UNL A   1      41.724  28.479  31.416  1.00  0.00     0.167 HD
ATOM     62  C   UNL A   1      42.690  29.161  33.999  1.00  0.00     0.074 A 
ATOM     63  C   UNL A   1      42.767  29.745  35.322  1.00  0.00     0.031 C 
ATOM     64  C   UNL A   1      43.622  28.330  33.473  1.00  0.00     0.037 A 
BRANCH  51  65
ATOM     65  C   UNL A   1      42.267  26.268  27.803  1.00  0.00     0.064 A 
ATOM     66  C   UNL A   1      43.177  26.679  26.816  1.00  0.00     0.173 A 
ATOM     67  C   UNL A   1      41.722  24.981  27.695  1.00  0.00     0.173 A 
ATOM     68  F   UNL A   1      43.721  27.904  26.866  1.00  0.00    -0.203 F 
ATOM     69  C   UNL A   1      43.494  25.849  25.743  1.00  0.00     0.198 A 
ATOM     70  C   UNL A   1      42.069  24.139  26.641  1.00  0.00     0.198 A 
ATOM     71  F   UNL A   1      40.853  24.534  28.615  1.00  0.00    -0.203 F 
ATOM     72  F   UNL A   1      44.316  26.288  24.780  1.00  0.00    -0.200 F 
ATOM     73  C   UNL A   1      42.945  24.578  25.659  1.00  0.00     0.200 A 
ATOM     74  F   UNL A   1      41.549  22.907  26.570  1.00  0.00    -0.200 F 
ATOM     75  F   UNL A   1      43.252  23.780  24.628  1.00  0.00    -0.200 F 
ENDBRANCH  51  65
BRANCH  52  76
ATOM     76  C   UNL A   1      39.212  32.027  35.370  1.00  0.00     0.064 A 
ATOM     77  C   UNL A   1      39.523  33.392  35.451  1.00  0.00     0.173 A 
ATOM     78  C   UNL A   1      38.433  31.474  36.397  1.00  0.00     0.173 A 
ATOM     79  F   UNL A   1      40.281  33.962  34.504  1.00  0.00    -0.203 F 
ATOM     80  C   UNL A   1      39.084  34.168  36.521  1.00  0.00     0.198 A 
ATOM     81  C   UNL A   1      37.971  32.257  37.452  1.00  0.00     0.198 A 
ATOM     82  F   UNL A   1      38.102  30.174  36.363  1.00  0.00    -0.203 F 
ATOM     83  F   UNL A   1      39.428  35.462  36.594  1.00  0.00    -0.200 F 
ATOM     84  C   UNL A   1      38.302  33.602  37.517  1.00  0.00     0.200 A 
ATOM     85  F   UNL A   1      37.201  31.710  38.403  1.00  0.00    -0.200 F 
ATOM     86  F   UNL A   1      37.873  34.351  38.542  1.00  0.00    -0.200 F 
ENDBRANCH  52  76
BRANCH  64  87
ATOM     87  C   UNL A   1      44.839  28.036  34.302  1.00  0.00     0.064 A 
ATOM     88  C   UNL A   1      44.919  26.907  35.129  1.00  0.00     0.173 A 
ATOM     89  C   UNL A   1      45.967  28.867  34.215  1.00  0.00     0.173 A 
ATOM     90  F   UNL A   1      43.863  26.088  35.259  1.00  0.00    -0.203 F 
ATOM     91  C   UNL A   1      46.078  26.628  35.849  1.00  0.00     0.198 A 
ATOM     92  C   UNL A   1      47.134  28.569  34.912  1.00  0.00     0.198 A 
ATOM     93  F   UNL A   1      45.945  29.957  33.432  1.00  0.00    -0.203 F 
ATOM     94  F   UNL A   1      46.118  25.564  36.663  1.00  0.00    -0.200 F 
ATOM     95  C   UNL A   1      47.187  27.453  35.732  1.00  0.00     0.200 A 
ATOM     96  F   UNL A   1      48.210  29.358  34.784  1.00  0.00    -0.200 F 
ATOM     97  F   UNL A   1      48.307  27.174  36.414  1.00  0.00    -0.200 F 
ENDBRANCH  64  87
ENDBRANCH  38  39
ENDBRANCH  30  33
ENDBRANCH  28  29
ENDBRANCH  27  28
ENDBRANCH   1  27
TORSDOF 14
ENDMDL
MODEL 2
REMARK VINA RESULT:     -13.0      1.103      2.513
REMARK SMILES CCc1ccc2oc(-c3ccccc3)c(OCC(=O)NCCCNC(=O)c3ccc(-c4c5nc(c(-c6c(F)c(F)c(F)c(F)c6F)c6ccc([nH]6)c(-c6c(F)c(F)c(F)c(F)c6F)c6nc(c(-c7c(F)c(F)c(F)c(F)c7F)c7ccc4[nH]7)C=C6)C=C5)cc3)c(=O)c2c1
REMARK SMILES IDX 21 1 20 2 18 3 19 4 17 6 16 7 15 8 3 9 4 10 93 11 5 12 92 13
REMARK SMILES IDX 6 14 90 15 7 16 91 17 8 18 2 19 1 20 9 21 10 22 14 23 11 24
REMARK SMILES IDX 13 25 12 26 22 27 23 28 24 29 25 30 26 32 27 33 28 34 89 35
REMARK SMILES IDX 29 36 88 37 30 38 31 39 32 40 82 41 33 42 87 43 81 44 83 45
REMARK SMILES IDX 34 46 86 47 80 48 79 49 35 51 67 52 47 53 66 54 48 55 51 56
REMARK SMILES IDX 65 57 84 58 49 59 50 60 64 62 85 63 52 64 36 65 37 66 45 67
REMARK SMILES IDX 38 68 39 69 43 70 46 71 40 72 41 73 44 74 42 75 68 76 69 77
REMARK SMILES IDX 77 78 70 79 71 80 75 81 78 82 72 83 73 84 76 85 74 86 53 87
REMARK SMILES IDX 54 88 62 89 55 90 56 91 60 92 63 93 57 94 58 95 61 96 59 97
REMARK H PARENT 20 5 24 31 83 50 51 61
REMARK Flexibility Score: inf
ROOT
ATOM      1  C   UNL A   1      32.554  27.482  23.023  1.00  0.00     0.117 C 
ENDROOT
BRANCH   1   2
ATOM      2  N   UNL A   1      32.716  27.074  21.643  1.00  0.00    -0.353 N 
ATOM      3  C   UNL A   1      32.952  25.827  21.137  1.00  0.00     0.257 C 
ATOM      4  O   UNL A   1      32.923  25.698  19.913  1.00  0.00    -0.271 OA
ATOM      5  H   UNL A   1      32.647  27.795  20.977  1.00  0.00     0.163 HD
BRANCH   3   6
ATOM      6  C   UNL A   1      33.154  24.645  22.098  1.00  0.00     0.329 C 
BRANCH   6   7
ATOM      7  O   UNL A   1      32.006  23.925  22.522  1.00  0.00    -0.476 OA
BRANCH   7   8
ATOM      8  C   UNL A   1      32.138  22.828  23.361  1.00  0.00     0.211 A 
ATOM      9  C   UNL A   1      32.887  18.038  24.391  1.00  0.00    -0.047 A 
ATOM     10  C   UNL A   1      32.925  18.387  25.750  1.00  0.00     0.007 A 
ATOM     11  C   UNL A   1      32.658  19.045  23.446  1.00  0.00     0.020 A 
ATOM     12  C   UNL A   1      32.751  19.718  26.150  1.00  0.00     0.048 A 
ATOM     13  C   UNL A   1      32.485  20.372  23.853  1.00  0.00     0.069 A 
ATOM     14  C   UNL A   1      32.531  20.711  25.196  1.00  0.00     0.138 A 
ATOM     15  C   UNL A   1      32.209  21.421  22.866  1.00  0.00     0.235 A 
ATOM     16  O   UNL A   1      32.342  21.991  25.639  1.00  0.00    -0.452 OA
ATOM     17  O   UNL A   1      32.001  21.106  21.700  1.00  0.00    -0.285 OA
ATOM     18  C   UNL A   1      32.156  22.996  24.703  1.00  0.00     0.180 A 
BRANCH   9  19
ATOM     19  C   UNL A   1      33.032  16.601  23.954  1.00  0.00     0.032 C 
ATOM     20  C   UNL A   1      32.865  15.605  25.094  1.00  0.00     0.009 C 
ENDBRANCH   9  19
BRANCH  18  21
ATOM     21  C   UNL A   1      31.935  24.317  25.330  1.00  0.00     0.021 A 
ATOM     22  C   UNL A   1      33.004  25.045  25.868  1.00  0.00     0.012 A 
ATOM     23  C   UNL A   1      30.636  24.837  25.453  1.00  0.00     0.012 A 
ATOM     24  C   UNL A   1      32.782  26.277  26.491  1.00  0.00     0.001 A 
ATOM     25  C   UNL A   1      30.413  26.065  26.077  1.00  0.00     0.001 A 
ATOM     26  C   UNL A   1      31.487  26.786  26.593  1.00  0.00     0.000 A 
ENDBRANCH  18  21
ENDBRANCH   7   8
ENDBRANCH   6   7
ENDBRANCH   3   6
ENDBRANCH   1   2
BRANCH   1  27
ATOM     27  C   UNL A   1      33.058  28.897  23.271  1.00  0.00     0.042 C 
BRANCH  27  28
ATOM     28  C   UNL A   1      33.602  29.137  24.676  1.00  0.00     0.118 C 
BRANCH  28  29
ATOM     29  N   UNL A   1      32.857  30.143  25.421  1.00  0.00    -0.352 N 
ATOM     30  C   UNL A   1      33.145  30.755  26.616  1.00  0.00     0.251 C 
ATOM     31  H   UNL A   1      32.013  30.429  25.002  1.00  0.00     0.163 HD
ATOM     32  O   UNL A   1      32.309  31.478  27.152  1.00  0.00    -0.269 OA
BRANCH  30  33
ATOM     33  C   UNL A   1      34.448  30.528  27.277  1.00  0.00     0.039 A 
ATOM     34  C   UNL A   1      35.263  31.628  27.562  1.00  0.00     0.014 A 
ATOM     35  C   UNL A   1      34.873  29.239  27.605  1.00  0.00     0.014 A 
ATOM     36  C   UNL A   1      36.468  31.442  28.245  1.00  0.00     0.010 A 
ATOM     37  C   UNL A   1      36.032  29.064  28.355  1.00  0.00     0.010 A 
ATOM     38  C   UNL A   1      36.843  30.163  28.682  1.00  0.00    -0.014 A 
BRANCH  38  39
ATOM     39  C   UNL A   1      38.079  29.937  29.474  1.00  0.00     0.031 A 
ATOM     40  C   UNL A   1      39.132  28.993  28.964  1.00  0.00     0.074 A 
ATOM     41  C   UNL A   1      38.212  30.504  30.688  1.00  0.00     0.049 A 
ATOM     42  N   UNL A   1      40.210  28.551  29.561  1.00  0.00    -0.248 NA
ATOM     43  C   UNL A   1      38.925  28.447  27.614  1.00  0.00     0.031 C 
ATOM     44  C   UNL A   1      37.247  31.413  31.308  1.00  0.00     0.029 A 
ATOM     45  N   UNL A   1      39.206  30.382  31.628  1.00  0.00    -0.354 N 
ATOM     46  C   UNL A   1      40.793  27.659  28.671  1.00  0.00     0.074 A 
ATOM     47  C   UNL A   1      39.924  27.584  27.517  1.00  0.00     0.031 C 
ATOM     48  C   UNL A   1      37.699  31.773  32.520  1.00  0.00     0.029 A 
ATOM     49  C   UNL A   1      38.961  31.085  32.782  1.00  0.00     0.049 A 
ATOM     50  H   UNL A   1      40.016  29.841  31.489  1.00  0.00     0.167 HD
ATOM     51  C   UNL A   1      41.958  26.978  28.798  1.00  0.00     0.037 A 
ATOM     52  C   UNL A   1      39.663  31.154  33.929  1.00  0.00     0.037 A 
ATOM     53  C   UNL A   1      42.830  27.076  29.938  1.00  0.00     0.049 A 
ATOM     54  C   UNL A   1      40.947  30.379  34.054  1.00  0.00     0.074 A 
ATOM     55  C   UNL A   1      44.060  26.475  30.138  1.00  0.00     0.029 A 
ATOM     56  N   UNL A   1      42.560  27.823  31.077  1.00  0.00    -0.354 N 
ATOM     57  N   UNL A   1      41.520  29.582  33.184  1.00  0.00    -0.248 NA
ATOM     58  C   UNL A   1      41.685  30.514  35.317  1.00  0.00     0.031 C 
ATOM     59  C   UNL A   1      44.509  26.812  31.419  1.00  0.00     0.029 A 
ATOM     60  C   UNL A   1      43.589  27.676  31.993  1.00  0.00     0.049 A 
ATOM     61  H   UNL A   1      41.756  28.374  31.214  1.00  0.00     0.167 HD
ATOM     62  C   UNL A   1      42.701  29.152  33.778  1.00  0.00     0.074 A 
ATOM     63  C   UNL A   1      42.763  29.779  35.082  1.00  0.00     0.031 C 
ATOM     64  C   UNL A   1      43.647  28.319  33.282  1.00  0.00     0.037 A 
BRANCH  51  65
ATOM     65  C   UNL A   1      42.349  26.058  27.675  1.00  0.00     0.064 A 
ATOM     66  C   UNL A   1      41.790  24.778  27.541  1.00  0.00     0.173 A 
ATOM     67  C   UNL A   1      43.280  26.471  26.711  1.00  0.00     0.173 A 
ATOM     68  F   UNL A   1      40.902  24.330  28.440  1.00  0.00    -0.203 F 
ATOM     69  C   UNL A   1      42.181  23.930  26.506  1.00  0.00     0.198 A 
ATOM     70  C   UNL A   1      43.642  25.635  25.657  1.00  0.00     0.198 A 
ATOM     71  F   UNL A   1      43.840  27.688  26.787  1.00  0.00    -0.203 F 
ATOM     72  F   UNL A   1      41.681  22.689  26.435  1.00  0.00    -0.200 F 
ATOM     73  C   UNL A   1      43.101  24.361  25.562  1.00  0.00     0.200 A 
ATOM     74  F   UNL A   1      44.519  26.059  24.738  1.00  0.00    -0.200 F 
ATOM     75  F   UNL A   1      43.474  23.546  24.566  1.00  0.00    -0.200 F 
ENDBRANCH  51  65
BRANCH  52  76
ATOM     76  C   UNL A   1      39.173  32.005  35.045  1.00  0.00     0.064 A 
ATOM     77  C   UNL A   1      39.426  33.384  35.062  1.00  0.00     0.173 A 
ATOM     78  C   UNL A   1      38.434  31.465  36.107  1.00  0.00     0.173 A 
ATOM     79  F   UNL A   1      40.144  33.944  34.078  1.00  0.00    -0.203 F 
ATOM     80  C   UNL A   1      38.970  34.186  36.105  1.00  0.00     0.198 A 
ATOM     81  C   UNL A   1      37.954  32.273  37.136  1.00  0.00     0.198 A 
ATOM     82  F   UNL A   1      38.158  30.152  36.135  1.00  0.00    -0.203 F 
ATOM     83  F   UNL A   1      39.260  35.495  36.117  1.00  0.00    -0.200 F 
ATOM     84  C   UNL A   1      38.229  33.632  37.138  1.00  0.00     0.200 A 
ATOM     85  F   UNL A   1      37.223  31.736  38.122  1.00  0.00    -0.200 F 
ATOM     86  F   UNL A   1      37.783  34.406  38.137  1.00  0.00    -0.200 F 
ENDBRANCH  52  76
BRANCH  64  87
ATOM     87  C   UNL A   1      44.865  28.071  34.125  1.00  0.00     0.064 A 
ATOM     88  C   UNL A   1      45.987  28.910  34.074  1.00  0.00     0.173 A 
ATOM     89  C   UNL A   1      44.879  27.012  35.046  1.00  0.00     0.173 A 
ATOM     90  F   UNL A   1      46.029  29.929  33.200  1.00  0.00    -0.203 F 
ATOM     91  C   UNL A   1      47.084  28.689  34.902  1.00  0.00     0.198 A 
ATOM     92  C   UNL A   1      45.964  26.812  35.894  1.00  0.00     0.198 A 
ATOM     93  F   UNL A   1      43.828  26.183  35.140  1.00  0.00    -0.203 F 
ATOM     94  F   UNL A   1      48.162  29.481  34.809  1.00  0.00    -0.200 F 
ATOM     95  C   UNL A   1      47.068  27.647  35.818  1.00  0.00     0.200 A 
ATOM     96  F   UNL A   1      45.939  25.814  36.790  1.00  0.00    -0.200 F 
ATOM     97  F   UNL A   1      48.118  27.446  36.626  1.00  0.00    -0.200 F 
ENDBRANCH  64  87
ENDBRANCH  38  39
ENDBRANCH  30  33
ENDBRANCH  28  29
ENDBRANCH  27  28
ENDBRANCH   1  27
TORSDOF 14
ENDMDL
MODEL 3
REMARK VINA RESULT:     -12.8      2.030      3.188
REMARK SMILES CCc1ccc2oc(-c3ccccc3)c(OCC(=O)NCCCNC(=O)c3ccc(-c4c5nc(c(-c6c(F)c(F)c(F)c(F)c6F)c6ccc([nH]6)c(-c6c(F)c(F)c(F)c(F)c6F)c6nc(c(-c7c(F)c(F)c(F)c(F)c7F)c7ccc4[nH]7)C=C6)C=C5)cc3)c(=O)c2c1
REMARK SMILES IDX 21 1 20 2 18 3 19 4 17 6 16 7 15 8 3 9 4 10 93 11 5 12 92 13
REMARK SMILES IDX 6 14 90 15 7 16 91 17 8 18 2 19 1 20 9 21 10 22 14 23 11 24
REMARK SMILES IDX 13 25 12 26 22 27 23 28 24 29 25 30 26 32 27 33 28 34 89 35
REMARK SMILES IDX 29 36 88 37 30 38 31 39 32 40 82 41 33 42 87 43 81 44 83 45
REMARK SMILES IDX 34 46 86 47 80 48 79 49 35 51 67 52 47 53 66 54 48 55 51 56
REMARK SMILES IDX 65 57 84 58 49 59 50 60 64 62 85 63 52 64 36 65 37 66 45 67
REMARK SMILES IDX 38 68 39 69 43 70 46 71 40 72 41 73 44 74 42 75 68 76 69 77
REMARK SMILES IDX 77 78 70 79 71 80 75 81 78 82 72 83 73 84 76 85 74 86 53 87
REMARK SMILES IDX 54 88 62 89 55 90 56 91 60 92 63 93 57 94 58 95 61 96 59 97
REMARK H PARENT 20 5 24 31 83 50 51 61
REMARK Flexibility Score: inf
ROOT
ATOM      1  C   UNL A   1      31.403  30.624  26.408  1.00  0.00     0.117 C 
ENDROOT
BRANCH   1   2
ATOM      2  N   UNL A   1      32.512  30.097  25.639  1.00  0.00    -0.353 N 
ATOM      3  C   UNL A   1      33.026  28.831  25.628  1.00  0.00     0.257 C 
ATOM      4  O   UNL A   1      33.893  28.580  24.791  1.00  0.00    -0.271 OA
ATOM      5  H   UNL A   1      32.958  30.741  25.043  1.00  0.00     0.163 HD
BRANCH   3   6
ATOM      6  C   UNL A   1      32.452  27.772  26.580  1.00  0.00     0.329 C 
BRANCH   6   7
ATOM      7  O   UNL A   1      31.343  27.004  26.136  1.00  0.00    -0.476 OA
BRANCH   7   8
ATOM      8  C   UNL A   1      31.540  25.896  25.323  1.00  0.00     0.211 A 
ATOM      9  C   UNL A   1      33.129  21.315  24.299  1.00  0.00    -0.047 A 
ATOM     10  C   UNL A   1      32.471  21.416  23.064  1.00  0.00     0.007 A 
ATOM     11  C   UNL A   1      33.089  22.409  25.172  1.00  0.00     0.020 A 
ATOM     12  C   UNL A   1      31.778  22.583  22.717  1.00  0.00     0.048 A 
ATOM     13  C   UNL A   1      32.396  23.571  24.819  1.00  0.00     0.069 A 
ATOM     14  C   UNL A   1      31.742  23.661  23.600  1.00  0.00     0.138 A 
ATOM     15  C   UNL A   1      32.385  24.730  25.717  1.00  0.00     0.235 A 
ATOM     16  O   UNL A   1      31.074  24.788  23.205  1.00  0.00    -0.452 OA
ATOM     17  O   UNL A   1      33.096  24.720  26.716  1.00  0.00    -0.285 OA
ATOM     18  C   UNL A   1      30.999  25.857  24.084  1.00  0.00     0.180 A 
BRANCH   9  19
ATOM     19  C   UNL A   1      33.912  20.077  24.662  1.00  0.00     0.032 C 
ATOM     20  C   UNL A   1      35.369  20.364  25.001  1.00  0.00     0.009 C 
ENDBRANCH   9  19
BRANCH  18  21
ATOM     21  C   UNL A   1      30.274  27.010  23.509  1.00  0.00     0.021 A 
ATOM     22  C   UNL A   1      30.968  28.057  22.886  1.00  0.00     0.012 A 
ATOM     23  C   UNL A   1      28.879  27.106  23.633  1.00  0.00     0.012 A 
ATOM     24  C   UNL A   1      30.277  29.161  22.376  1.00  0.00     0.001 A 
ATOM     25  C   UNL A   1      28.190  28.209  23.126  1.00  0.00     0.001 A 
ATOM     26  C   UNL A   1      28.889  29.235  22.495  1.00  0.00     0.000 A 
ENDBRANCH  18  21
ENDBRANCH   7   8
ENDBRANCH   6   7
ENDBRANCH   3   6
ENDBRANCH   1   2
BRANCH   1  27
ATOM     27  C   UNL A   1      31.406  32.145  26.459  1.00  0.00     0.042 C 
BRANCH  27  28
ATOM     28  C   UNL A   1      32.539  32.748  27.284  1.00  0.00     0.118 C 
BRANCH  28  29
ATOM     29  N   UNL A   1      32.324  34.148  27.626  1.00  0.00    -0.352 N 
ATOM     30  C   UNL A   1      32.957  34.941  28.551  1.00  0.00     0.251 C 
ATOM     31  H   UNL A   1      31.613  34.597  27.113  1.00  0.00     0.163 HD
ATOM     32  O   UNL A   1      32.528  36.067  28.790  1.00  0.00    -0.269 OA
BRANCH  30  33
ATOM     33  C   UNL A   1      34.139  34.438  29.284  1.00  0.00     0.039 A 
ATOM     34  C   UNL A   1      33.954  33.829  30.529  1.00  0.00     0.014 A 
ATOM     35  C   UNL A   1      35.425  34.578  28.758  1.00  0.00     0.014 A 
ATOM     36  C   UNL A   1      35.049  33.290  31.209  1.00  0.00     0.010 A 
ATOM     37  C   UNL A   1      36.501  33.970  29.396  1.00  0.00     0.010 A 
ATOM     38  C   UNL A   1      36.327  33.321  30.628  1.00  0.00    -0.014 A 
BRANCH  38  39
ATOM     39  C   UNL A   1      37.501  32.693  31.286  1.00  0.00     0.031 A 
ATOM     40  C   UNL A   1      38.208  31.547  30.619  1.00  0.00     0.074 A 
ATOM     41  C   UNL A   1      37.873  33.089  32.518  1.00  0.00     0.049 A 
ATOM     42  N   UNL A   1      39.158  30.773  31.082  1.00  0.00    -0.248 NA
ATOM     43  C   UNL A   1      37.763  31.204  29.259  1.00  0.00     0.031 C 
ATOM     44  C   UNL A   1      37.248  34.167  33.285  1.00  0.00     0.029 A 
ATOM     45  N   UNL A   1      38.855  32.614  33.353  1.00  0.00    -0.354 N 
ATOM     46  C   UNL A   1      39.403  29.840  30.084  1.00  0.00     0.074 A 
ATOM     47  C   UNL A   1      38.470  30.112  29.012  1.00  0.00     0.031 C 
ATOM     48  C   UNL A   1      37.865  34.277  34.472  1.00  0.00     0.029 A 
ATOM     49  C   UNL A   1      38.898  33.249  34.570  1.00  0.00     0.049 A 
ATOM     50  H   UNL A   1      39.468  31.886  33.103  1.00  0.00     0.167 HD
ATOM     51  C   UNL A   1      40.336  28.858  30.056  1.00  0.00     0.037 A 
ATOM     52  C   UNL A   1      39.669  33.018  35.649  1.00  0.00     0.037 A 
ATOM     53  C   UNL A   1      41.277  28.608  31.115  1.00  0.00     0.049 A 
ATOM     54  C   UNL A   1      40.689  31.912  35.602  1.00  0.00     0.074 A 
ATOM     55  C   UNL A   1      42.300  27.677  31.160  1.00  0.00     0.029 A 
ATOM     56  N   UNL A   1      41.307  29.294  32.323  1.00  0.00    -0.354 N 
ATOM     57  N   UNL A   1      40.953  31.072  34.631  1.00  0.00    -0.248 NA
ATOM     58  C   UNL A   1      41.521  31.724  36.798  1.00  0.00     0.031 C 
ATOM     59  C   UNL A   1      42.913  27.761  32.413  1.00  0.00     0.029 A 
ATOM     60  C   UNL A   1      42.315  28.787  33.127  1.00  0.00     0.049 A 
ATOM     61  H   UNL A   1      40.703  30.029  32.570  1.00  0.00     0.167 HD
ATOM     62  C   UNL A   1      42.003  30.282  35.083  1.00  0.00     0.074 A 
ATOM     63  C   UNL A   1      42.330  30.746  36.415  1.00  0.00     0.031 C 
ATOM     64  C   UNL A   1      42.641  29.269  34.446  1.00  0.00     0.037 A 
BRANCH  51  65
ATOM     65  C   UNL A   1      40.373  27.972  28.842  1.00  0.00     0.064 A 
ATOM     66  C   UNL A   1      41.137  28.301  27.711  1.00  0.00     0.173 A 
ATOM     67  C   UNL A   1      39.652  26.770  28.818  1.00  0.00     0.173 A 
ATOM     68  F   UNL A   1      41.838  29.444  27.677  1.00  0.00    -0.203 F 
ATOM     69  C   UNL A   1      41.143  27.478  26.586  1.00  0.00     0.198 A 
ATOM     70  C   UNL A   1      39.689  25.932  27.706  1.00  0.00     0.198 A 
ATOM     71  F   UNL A   1      38.912  26.403  29.875  1.00  0.00    -0.203 F 
ATOM     72  F   UNL A   1      41.828  27.845  25.495  1.00  0.00    -0.200 F 
ATOM     73  C   UNL A   1      40.424  26.292  26.587  1.00  0.00     0.200 A 
ATOM     74  F   UNL A   1      39.006  24.779  27.715  1.00  0.00    -0.200 F 
ATOM     75  F   UNL A   1      40.433  25.501  25.506  1.00  0.00    -0.200 F 
ENDBRANCH  51  65
BRANCH  52  76
ATOM     76  C   UNL A   1      39.517  33.866  36.861  1.00  0.00     0.064 A 
ATOM     77  C   UNL A   1      40.153  35.112  36.951  1.00  0.00     0.173 A 
ATOM     78  C   UNL A   1      38.726  33.457  37.944  1.00  0.00     0.173 A 
ATOM     79  F   UNL A   1      40.935  35.537  35.948  1.00  0.00    -0.203 F 
ATOM     80  C   UNL A   1      40.015  35.910  38.084  1.00  0.00     0.198 A 
ATOM     81  C   UNL A   1      38.566  34.269  39.065  1.00  0.00     0.198 A 
ATOM     82  F   UNL A   1      38.090  32.276  37.905  1.00  0.00    -0.203 F 
ATOM     83  F   UNL A   1      40.666  37.080  38.160  1.00  0.00    -0.200 F 
ATOM     84  C   UNL A   1      39.216  35.492  39.137  1.00  0.00     0.200 A 
ATOM     85  F   UNL A   1      37.779  33.868  40.073  1.00  0.00    -0.200 F 
ATOM     86  F   UNL A   1      39.076  36.264  40.223  1.00  0.00    -0.200 F 
ENDBRANCH  52  76
BRANCH  64  87
ATOM     87  C   UNL A   1      43.796  28.621  35.154  1.00  0.00     0.064 A 
ATOM     88  C   UNL A   1      43.629  27.488  35.963  1.00  0.00     0.173 A 
ATOM     89  C   UNL A   1      45.099  29.106  34.965  1.00  0.00     0.173 A 
ATOM     90  F   UNL A   1      42.401  26.993  36.188  1.00  0.00    -0.203 F 
ATOM     91  C   UNL A   1      44.722  26.874  36.568  1.00  0.00     0.198 A 
ATOM     92  C   UNL A   1      46.193  28.471  35.546  1.00  0.00     0.198 A 
ATOM     93  F   UNL A   1      45.315  30.184  34.194  1.00  0.00    -0.203 F 
ATOM     94  F   UNL A   1      44.535  25.815  37.368  1.00  0.00    -0.200 F 
ATOM     95  C   UNL A   1      46.003  27.360  36.351  1.00  0.00     0.200 A 
ATOM     96  F   UNL A   1      47.432  28.933  35.321  1.00  0.00    -0.200 F 
ATOM     97  F   UNL A   1      47.056  26.757  36.922  1.00  0.00    -0.200 F 
ENDBRANCH  64  87
ENDBRANCH  38  39
ENDBRANCH  30  33
ENDBRANCH  28  29
ENDBRANCH  27  28
ENDBRANCH   1  27
TORSDOF 14
ENDMDL
