MODEL 1
REMARK VINA RESULT:     -12.7      0.000      0.000
REMARK SMILES CCOc1cc(F)ccc1NC(=O)CC1(C(=O)NCCCNC(=O)c2ccc(-c3c4nc(c(-c5c(F)c(F)c(F)c(F)c5F)c5ccc([nH]5)c(-c5c(F)c(F)c(F)c(F)c5F)c5nc(c(-c6c(F)c(F)c(F)c(F)c6F)c6ccc3[nH]6)C=C5)C=C4)cc2)CCCCC1
REMARK SMILES IDX 16 1 17 2 18 3 15 5 88 6 92 7 89 8 91 9 90 10 14 11 12 12
REMARK SMILES IDX 11 13 13 15 10 16 4 17 5 18 6 19 9 20 7 21 8 22 3 23 2 24
REMARK SMILES IDX 1 25 19 26 20 27 21 28 22 29 23 30 24 32 25 33 26 34 87 35
REMARK SMILES IDX 27 36 86 37 28 38 29 39 30 40 80 41 31 42 85 43 79 44 81 45
REMARK SMILES IDX 32 46 84 47 78 48 77 49 33 51 65 52 45 53 64 54 46 55 49 56
REMARK SMILES IDX 63 57 82 58 47 59 48 60 62 62 83 63 50 64 34 65 35 66 43 67
REMARK SMILES IDX 36 68 37 69 41 70 44 71 38 72 39 73 42 74 40 75 66 76 67 77
REMARK SMILES IDX 75 78 68 79 69 80 73 81 76 82 70 83 71 84 74 85 72 86 51 87
REMARK SMILES IDX 52 88 60 89 53 90 54 91 58 92 61 93 55 94 56 95 59 96 57 97
REMARK H PARENT 18 4 11 14 22 31 81 50 49 61
REMARK Flexibility Score: inf
ROOT
ATOM      1  C   UNL A   1      30.799  29.319  24.173  1.00  0.00     0.226 C 
ATOM      2  O   UNL A   1      30.130  29.413  23.140  1.00  0.00    -0.274 OA
ATOM      3  N   UNL A   1      30.952  30.493  24.838  1.00  0.00    -0.356 N 
ATOM      4  H   UNL A   1      30.512  31.264  24.414  1.00  0.00     0.163 HD
ENDROOT
BRANCH   1   5
ATOM      5  C   UNL A   1      31.463  27.968  24.621  1.00  0.00     0.058 C 
ATOM      6  C   UNL A   1      31.294  27.721  26.143  1.00  0.00     0.017 C 
ATOM      7  C   UNL A   1      32.948  27.954  24.152  1.00  0.00     0.017 C 
ATOM      8  C   UNL A   1      32.479  27.837  27.116  1.00  0.00     0.001 C 
ATOM      9  C   UNL A   1      34.014  28.413  25.134  1.00  0.00     0.001 C 
ATOM     10  C   UNL A   1      33.875  27.797  26.515  1.00  0.00     0.000 C 
BRANCH   5  11
ATOM     11  C   UNL A   1      30.746  26.839  23.746  1.00  0.00     0.117 C 
BRANCH  11  12
ATOM     12  C   UNL A   1      31.592  25.819  22.987  1.00  0.00     0.225 C 
ATOM     13  N   UNL A   1      32.306  24.822  23.608  1.00  0.00    -0.323 N 
ATOM     14  H   UNL A   1      32.907  24.318  23.012  1.00  0.00     0.170 HD
ATOM     15  O   UNL A   1      31.624  25.843  21.752  1.00  0.00    -0.275 OA
BRANCH  13  16
ATOM     16  C   UNL A   1      32.325  24.396  24.954  1.00  0.00     0.084 A 
ATOM     17  C   UNL A   1      33.597  24.150  25.523  1.00  0.00     0.145 A 
ATOM     18  C   UNL A   1      33.688  23.390  26.690  1.00  0.00     0.087 A 
ATOM     19  C   UNL A   1      32.530  22.923  27.299  1.00  0.00     0.127 A 
ATOM     20  C   UNL A   1      31.174  24.027  25.655  1.00  0.00     0.033 A 
ATOM     21  F   UNL A   1      32.625  22.131  28.374  1.00  0.00    -0.207 F 
ATOM     22  C   UNL A   1      31.275  23.266  26.817  1.00  0.00     0.041 A 
BRANCH  17  23
ATOM     23  O   UNL A   1      34.685  24.697  24.894  1.00  0.00    -0.492 OA
BRANCH  23  24
ATOM     24  C   UNL A   1      35.681  23.802  24.383  1.00  0.00     0.226 C 
ATOM     25  C   UNL A   1      36.967  23.793  25.196  1.00  0.00     0.049 C 
ENDBRANCH  23  24
ENDBRANCH  17  23
ENDBRANCH  13  16
ENDBRANCH  11  12
ENDBRANCH   5  11
ENDBRANCH   1   5
BRANCH   3  26
ATOM     26  C   UNL A   1      31.649  30.801  26.055  1.00  0.00     0.117 C 
BRANCH  26  27
ATOM     27  C   UNL A   1      31.356  32.183  26.588  1.00  0.00     0.042 C 
BRANCH  27  28
ATOM     28  C   UNL A   1      32.543  32.767  27.311  1.00  0.00     0.118 C 
BRANCH  28  29
ATOM     29  N   UNL A   1      32.358  34.189  27.605  1.00  0.00    -0.352 N 
ATOM     30  C   UNL A   1      32.939  34.980  28.564  1.00  0.00     0.251 C 
ATOM     31  H   UNL A   1      31.714  34.651  27.022  1.00  0.00     0.163 HD
ATOM     32  O   UNL A   1      32.482  36.097  28.798  1.00  0.00    -0.269 OA
BRANCH  30  33
ATOM     33  C   UNL A   1      34.095  34.477  29.331  1.00  0.00     0.039 A 
ATOM     34  C   UNL A   1      33.896  33.903  30.587  1.00  0.00     0.014 A 
ATOM     35  C   UNL A   1      35.379  34.553  28.794  1.00  0.00     0.014 A 
ATOM     36  C   UNL A   1      34.978  33.334  31.260  1.00  0.00     0.010 A 
ATOM     37  C   UNL A   1      36.414  33.849  29.383  1.00  0.00     0.010 A 
ATOM     38  C   UNL A   1      36.236  33.259  30.639  1.00  0.00    -0.014 A 
BRANCH  38  39
ATOM     39  C   UNL A   1      37.400  32.616  31.293  1.00  0.00     0.031 A 
ATOM     40  C   UNL A   1      38.104  31.479  30.600  1.00  0.00     0.074 A 
ATOM     41  C   UNL A   1      37.773  33.002  32.528  1.00  0.00     0.049 A 
ATOM     42  N   UNL A   1      39.068  30.714  31.039  1.00  0.00    -0.248 NA
ATOM     43  C   UNL A   1      37.633  31.123  29.248  1.00  0.00     0.031 C 
ATOM     44  C   UNL A   1      37.125  34.049  33.321  1.00  0.00     0.029 A 
ATOM     45  N   UNL A   1      38.785  32.554  33.340  1.00  0.00    -0.354 N 
ATOM     46  C   UNL A   1      39.298  29.784  30.034  1.00  0.00     0.074 A 
ATOM     47  C   UNL A   1      38.328  30.026  28.992  1.00  0.00     0.031 C 
ATOM     48  C   UNL A   1      37.781  34.193  34.483  1.00  0.00     0.029 A 
ATOM     49  C   UNL A   1      38.862  33.215  34.542  1.00  0.00     0.049 A 
ATOM     50  H   UNL A   1      39.397  31.827  33.084  1.00  0.00     0.167 HD
ATOM     51  C   UNL A   1      40.262  28.839  29.968  1.00  0.00     0.037 A 
ATOM     52  C   UNL A   1      39.710  33.044  35.575  1.00  0.00     0.037 A 
ATOM     53  C   UNL A   1      41.260  28.646  30.982  1.00  0.00     0.049 A 
ATOM     54  C   UNL A   1      40.780  31.992  35.470  1.00  0.00     0.074 A 
ATOM     55  C   UNL A   1      42.327  27.765  30.979  1.00  0.00     0.029 A 
ATOM     56  N   UNL A   1      41.320  29.351  32.173  1.00  0.00    -0.354 N 
ATOM     57  N   UNL A   1      41.028  31.162  34.485  1.00  0.00    -0.248 NA
ATOM     58  C   UNL A   1      41.690  31.851  36.614  1.00  0.00     0.031 C 
ATOM     59  C   UNL A   1      43.003  27.902  32.193  1.00  0.00     0.029 A 
ATOM     60  C   UNL A   1      42.395  28.909  32.926  1.00  0.00     0.049 A 
ATOM     61  H   UNL A   1      40.694  30.061  32.444  1.00  0.00     0.167 HD
ATOM     62  C   UNL A   1      42.133  30.422  34.877  1.00  0.00     0.074 A 
ATOM     63  C   UNL A   1      42.520  30.910  36.184  1.00  0.00     0.031 C 
ATOM     64  C   UNL A   1      42.769  29.424  34.217  1.00  0.00     0.037 A 
BRANCH  51  65
ATOM     65  C   UNL A   1      40.315  27.963  28.751  1.00  0.00     0.064 A 
ATOM     66  C   UNL A   1      39.692  26.705  28.752  1.00  0.00     0.173 A 
ATOM     67  C   UNL A   1      41.060  28.325  27.619  1.00  0.00     0.173 A 
ATOM     68  F   UNL A   1      38.968  26.310  29.810  1.00  0.00    -0.203 F 
ATOM     69  C   UNL A   1      39.836  25.834  27.675  1.00  0.00     0.198 A 
ATOM     70  C   UNL A   1      41.175  27.464  26.530  1.00  0.00     0.198 A 
ATOM     71  F   UNL A   1      41.661  29.523  27.560  1.00  0.00    -0.203 F 
ATOM     72  F   UNL A   1      39.268  24.621  27.719  1.00  0.00    -0.200 F 
ATOM     73  C   UNL A   1      40.575  26.215  26.566  1.00  0.00     0.200 A 
ATOM     74  F   UNL A   1      41.869  27.843  25.449  1.00  0.00    -0.200 F 
ATOM     75  F   UNL A   1      40.712  25.374  25.531  1.00  0.00    -0.200 F 
ENDBRANCH  51  65
BRANCH  52  76
ATOM     76  C   UNL A   1      39.597  33.914  36.777  1.00  0.00     0.064 A 
ATOM     77  C   UNL A   1      38.822  33.537  37.885  1.00  0.00     0.173 A 
ATOM     78  C   UNL A   1      40.250  35.153  36.833  1.00  0.00     0.173 A 
ATOM     79  F   UNL A   1      38.169  32.365  37.880  1.00  0.00    -0.203 F 
ATOM     80  C   UNL A   1      38.693  34.371  38.993  1.00  0.00     0.198 A 
ATOM     81  C   UNL A   1      40.147  35.972  37.955  1.00  0.00     0.198 A 
ATOM     82  F   UNL A   1      41.017  35.553  35.808  1.00  0.00    -0.203 F 
ATOM     83  F   UNL A   1      37.918  34.002  40.021  1.00  0.00    -0.200 F 
ATOM     84  C   UNL A   1      39.363  35.586  39.031  1.00  0.00     0.200 A 
ATOM     85  F   UNL A   1      40.816  37.133  37.998  1.00  0.00    -0.200 F 
ATOM     86  F   UNL A   1      39.253  36.380  40.104  1.00  0.00    -0.200 F 
ENDBRANCH  52  76
BRANCH  64  87
ATOM     87  C   UNL A   1      43.966  28.802  34.874  1.00  0.00     0.064 A 
ATOM     88  C   UNL A   1      45.256  29.280  34.594  1.00  0.00     0.173 A 
ATOM     89  C   UNL A   1      43.846  27.672  35.695  1.00  0.00     0.173 A 
ATOM     90  F   UNL A   1      45.422  30.351  33.803  1.00  0.00    -0.203 F 
ATOM     91  C   UNL A   1      46.382  28.635  35.093  1.00  0.00     0.198 A 
ATOM     92  C   UNL A   1      44.974  27.049  36.221  1.00  0.00     0.198 A 
ATOM     93  F   UNL A   1      42.633  27.185  36.000  1.00  0.00    -0.203 F 
ATOM     94  F   UNL A   1      47.605  29.081  34.772  1.00  0.00    -0.200 F 
ATOM     95  C   UNL A   1      46.239  27.523  35.908  1.00  0.00     0.200 A 
ATOM     96  F   UNL A   1      44.836  25.989  37.027  1.00  0.00    -0.200 F 
ATOM     97  F   UNL A   1      47.326  26.904  36.393  1.00  0.00    -0.200 F 
ENDBRANCH  64  87
ENDBRANCH  38  39
ENDBRANCH  30  33
ENDBRANCH  28  29
ENDBRANCH  27  28
ENDBRANCH  26  27
ENDBRANCH   3  26
TORSDOF 15
ENDMDL
MODEL 2
REMARK VINA RESULT:     -12.6      1.339      2.436
REMARK SMILES CCOc1cc(F)ccc1NC(=O)CC1(C(=O)NCCCNC(=O)c2ccc(-c3c4nc(c(-c5c(F)c(F)c(F)c(F)c5F)c5ccc([nH]5)c(-c5c(F)c(F)c(F)c(F)c5F)c5nc(c(-c6c(F)c(F)c(F)c(F)c6F)c6ccc3[nH]6)C=C5)C=C4)cc2)CCCCC1
REMARK SMILES IDX 16 1 17 2 18 3 15 5 88 6 92 7 89 8 91 9 90 10 14 11 12 12
REMARK SMILES IDX 11 13 13 15 10 16 4 17 5 18 6 19 9 20 7 21 8 22 3 23 2 24
REMARK SMILES IDX 1 25 19 26 20 27 21 28 22 29 23 30 24 32 25 33 26 34 87 35
REMARK SMILES IDX 27 36 86 37 28 38 29 39 30 40 80 41 31 42 85 43 79 44 81 45
REMARK SMILES IDX 32 46 84 47 78 48 77 49 33 51 65 52 45 53 64 54 46 55 49 56
REMARK SMILES IDX 63 57 82 58 47 59 48 60 62 62 83 63 50 64 34 65 35 66 43 67
REMARK SMILES IDX 36 68 37 69 41 70 44 71 38 72 39 73 42 74 40 75 66 76 67 77
REMARK SMILES IDX 75 78 68 79 69 80 73 81 76 82 70 83 71 84 74 85 72 86 51 87
REMARK SMILES IDX 52 88 60 89 53 90 54 91 58 92 61 93 55 94 56 95 59 96 57 97
REMARK H PARENT 18 4 11 14 22 31 81 50 49 61
REMARK Flexibility Score: inf
ROOT
ATOM      1  C   UNL A   1      31.760  28.315  27.193  1.00  0.00     0.226 C 
ATOM      2  O   UNL A   1      31.474  27.800  28.278  1.00  0.00    -0.274 OA
ATOM      3  N   UNL A   1      31.608  29.665  27.168  1.00  0.00    -0.356 N 
ATOM      4  H   UNL A   1      31.293  30.057  28.013  1.00  0.00     0.163 HD
ENDROOT
BRANCH   1   5
ATOM      5  C   UNL A   1      32.188  27.461  25.947  1.00  0.00     0.058 C 
ATOM      6  C   UNL A   1      33.530  27.953  25.345  1.00  0.00     0.017 C 
ATOM      7  C   UNL A   1      31.018  27.442  24.919  1.00  0.00     0.017 C 
ATOM      8  C   UNL A   1      33.588  28.696  24.000  1.00  0.00     0.001 C 
ATOM      9  C   UNL A   1      31.034  28.468  23.798  1.00  0.00     0.001 C 
ATOM     10  C   UNL A   1      32.374  28.579  23.093  1.00  0.00     0.000 C 
BRANCH   5  11
ATOM     11  C   UNL A   1      32.286  25.958  26.484  1.00  0.00     0.117 C 
BRANCH  11  12
ATOM     12  C   UNL A   1      31.207  24.946  26.102  1.00  0.00     0.225 C 
ATOM     13  N   UNL A   1      31.358  24.033  25.086  1.00  0.00    -0.323 N 
ATOM     14  H   UNL A   1      30.541  23.531  24.864  1.00  0.00     0.170 HD
ATOM     15  O   UNL A   1      30.154  24.898  26.746  1.00  0.00    -0.275 OA
BRANCH  13  16
ATOM     16  C   UNL A   1      32.485  23.691  24.306  1.00  0.00     0.084 A 
ATOM     17  C   UNL A   1      33.239  22.574  24.737  1.00  0.00     0.145 A 
ATOM     18  C   UNL A   1      34.537  22.401  24.258  1.00  0.00     0.087 A 
ATOM     19  C   UNL A   1      35.056  23.300  23.335  1.00  0.00     0.127 A 
ATOM     20  C   UNL A   1      32.980  24.503  23.283  1.00  0.00     0.033 A 
ATOM     21  F   UNL A   1      36.328  23.174  22.937  1.00  0.00    -0.207 F 
ATOM     22  C   UNL A   1      34.279  24.324  22.813  1.00  0.00     0.041 A 
BRANCH  17  23
ATOM     23  O   UNL A   1      32.633  21.701  25.603  1.00  0.00    -0.492 OA
BRANCH  23  24
ATOM     24  C   UNL A   1      33.357  21.312  26.776  1.00  0.00     0.226 C 
ATOM     25  C   UNL A   1      33.563  22.447  27.769  1.00  0.00     0.049 C 
ENDBRANCH  23  24
ENDBRANCH  17  23
ENDBRANCH  13  16
ENDBRANCH  11  12
ENDBRANCH   5  11
ENDBRANCH   1   5
BRANCH   3  26
ATOM     26  C   UNL A   1      31.830  30.616  26.116  1.00  0.00     0.117 C 
BRANCH  26  27
ATOM     27  C   UNL A   1      31.545  32.043  26.520  1.00  0.00     0.042 C 
BRANCH  27  28
ATOM     28  C   UNL A   1      32.677  32.633  27.322  1.00  0.00     0.118 C 
BRANCH  28  29
ATOM     29  N   UNL A   1      32.468  34.055  27.597  1.00  0.00    -0.352 N 
ATOM     30  C   UNL A   1      33.010  34.862  28.566  1.00  0.00     0.251 C 
ATOM     31  H   UNL A   1      31.837  34.505  26.990  1.00  0.00     0.163 HD
ATOM     32  O   UNL A   1      32.534  35.976  28.774  1.00  0.00    -0.269 OA
BRANCH  30  33
ATOM     33  C   UNL A   1      34.147  34.379  29.373  1.00  0.00     0.039 A 
ATOM     34  C   UNL A   1      33.909  33.720  30.580  1.00  0.00     0.014 A 
ATOM     35  C   UNL A   1      35.454  34.557  28.921  1.00  0.00     0.014 A 
ATOM     36  C   UNL A   1      34.982  33.173  31.285  1.00  0.00     0.010 A 
ATOM     37  C   UNL A   1      36.493  33.877  29.533  1.00  0.00     0.010 A 
ATOM     38  C   UNL A   1      36.276  33.205  30.740  1.00  0.00    -0.014 A 
BRANCH  38  39
ATOM     39  C   UNL A   1      37.436  32.589  31.427  1.00  0.00     0.031 A 
ATOM     40  C   UNL A   1      38.177  31.460  30.760  1.00  0.00     0.074 A 
ATOM     41  C   UNL A   1      37.771  32.991  32.668  1.00  0.00     0.049 A 
ATOM     42  N   UNL A   1      39.146  30.717  31.229  1.00  0.00    -0.248 NA
ATOM     43  C   UNL A   1      37.747  31.085  29.400  1.00  0.00     0.031 C 
ATOM     44  C   UNL A   1      37.084  34.032  33.436  1.00  0.00     0.029 A 
ATOM     45  N   UNL A   1      38.771  32.568  33.507  1.00  0.00    -0.354 N 
ATOM     46  C   UNL A   1      39.417  29.784  30.237  1.00  0.00     0.074 A 
ATOM     47  C   UNL A   1      38.469  30.000  29.170  1.00  0.00     0.031 C 
ATOM     48  C   UNL A   1      37.709  34.197  34.613  1.00  0.00     0.029 A 
ATOM     49  C   UNL A   1      38.807  33.240  34.705  1.00  0.00     0.049 A 
ATOM     50  H   UNL A   1      39.403  31.852  33.272  1.00  0.00     0.167 HD
ATOM     51  C   UNL A   1      40.400  28.857  30.202  1.00  0.00     0.037 A 
ATOM     52  C   UNL A   1      39.632  33.094  35.760  1.00  0.00     0.037 A 
ATOM     53  C   UNL A   1      41.377  28.690  31.241  1.00  0.00     0.049 A 
ATOM     54  C   UNL A   1      40.723  32.061  35.690  1.00  0.00     0.074 A 
ATOM     55  C   UNL A   1      42.460  27.831  31.271  1.00  0.00     0.029 A 
ATOM     56  N   UNL A   1      41.394  29.406  32.428  1.00  0.00    -0.354 N 
ATOM     57  N   UNL A   1      41.011  31.229  34.717  1.00  0.00    -0.248 NA
ATOM     58  C   UNL A   1      41.609  31.946  36.857  1.00  0.00     0.031 C 
ATOM     59  C   UNL A   1      43.103  27.989  32.500  1.00  0.00     0.029 A 
ATOM     60  C   UNL A   1      42.459  28.990  33.210  1.00  0.00     0.049 A 
ATOM     61  H   UNL A   1      40.748  30.105  32.678  1.00  0.00     0.167 HD
ATOM     62  C   UNL A   1      42.120  30.513  35.142  1.00  0.00     0.074 A 
ATOM     63  C   UNL A   1      42.466  31.018  36.454  1.00  0.00     0.031 C 
ATOM     64  C   UNL A   1      42.791  29.522  34.506  1.00  0.00     0.037 A 
BRANCH  51  65
ATOM     65  C   UNL A   1      40.500  27.973  28.994  1.00  0.00     0.064 A 
ATOM     66  C   UNL A   1      41.259  28.370  27.883  1.00  0.00     0.173 A 
ATOM     67  C   UNL A   1      39.771  26.778  28.897  1.00  0.00     0.173 A 
ATOM     68  F   UNL A   1      41.974  29.504  27.923  1.00  0.00    -0.203 F 
ATOM     69  C   UNL A   1      41.262  27.617  26.712  1.00  0.00     0.198 A 
ATOM     70  C   UNL A   1      39.801  26.011  27.736  1.00  0.00     0.198 A 
ATOM     71  F   UNL A   1      39.043  26.345  29.938  1.00  0.00    -0.203 F 
ATOM     72  F   UNL A   1      41.959  28.040  25.648  1.00  0.00    -0.200 F 
ATOM     73  C   UNL A   1      40.535  26.439  26.640  1.00  0.00     0.200 A 
ATOM     74  F   UNL A   1      39.119  24.860  27.677  1.00  0.00    -0.200 F 
ATOM     75  F   UNL A   1      40.539  25.716  25.511  1.00  0.00    -0.200 F 
ENDBRANCH  51  65
BRANCH  52  76
ATOM     76  C   UNL A   1      39.473  33.970  36.952  1.00  0.00     0.064 A 
ATOM     77  C   UNL A   1      40.055  35.246  37.007  1.00  0.00     0.173 A 
ATOM     78  C   UNL A   1      38.749  33.537  38.072  1.00  0.00     0.173 A 
ATOM     79  F   UNL A   1      40.765  35.705  35.966  1.00  0.00    -0.203 F 
ATOM     80  C   UNL A   1      39.931  36.047  38.139  1.00  0.00     0.198 A 
ATOM     81  C   UNL A   1      38.599  34.352  39.192  1.00  0.00     0.198 A 
ATOM     82  F   UNL A   1      38.160  32.332  38.064  1.00  0.00    -0.203 F 
ATOM     83  F   UNL A   1      40.526  37.246  38.178  1.00  0.00    -0.200 F 
ATOM     84  C   UNL A   1      39.196  35.603  39.229  1.00  0.00     0.200 A 
ATOM     85  F   UNL A   1      37.866  33.930  40.232  1.00  0.00    -0.200 F 
ATOM     86  F   UNL A   1      39.062  36.381  40.311  1.00  0.00    -0.200 F 
ENDBRANCH  52  76
BRANCH  64  87
ATOM     87  C   UNL A   1      43.983  28.928  35.197  1.00  0.00     0.064 A 
ATOM     88  C   UNL A   1      45.274  29.397  34.909  1.00  0.00     0.173 A 
ATOM     89  C   UNL A   1      43.857  27.831  36.060  1.00  0.00     0.173 A 
ATOM     90  F   UNL A   1      45.446  30.437  34.079  1.00  0.00    -0.203 F 
ATOM     91  C   UNL A   1      46.397  28.774  35.442  1.00  0.00     0.198 A 
ATOM     92  C   UNL A   1      44.982  27.230  36.619  1.00  0.00     0.198 A 
ATOM     93  F   UNL A   1      42.643  27.353  36.373  1.00  0.00    -0.203 F 
ATOM     94  F   UNL A   1      47.622  29.209  35.115  1.00  0.00    -0.200 F 
ATOM     95  C   UNL A   1      46.249  27.694  36.299  1.00  0.00     0.200 A 
ATOM     96  F   UNL A   1      44.838  26.201  37.464  1.00  0.00    -0.200 F 
ATOM     97  F   UNL A   1      47.332  27.096  36.817  1.00  0.00    -0.200 F 
ENDBRANCH  64  87
ENDBRANCH  38  39
ENDBRANCH  30  33
ENDBRANCH  28  29
ENDBRANCH  27  28
ENDBRANCH  26  27
ENDBRANCH   3  26
TORSDOF 15
ENDMDL
MODEL 3
REMARK VINA RESULT:     -12.6      1.124      2.464
REMARK SMILES CCOc1cc(F)ccc1NC(=O)CC1(C(=O)NCCCNC(=O)c2ccc(-c3c4nc(c(-c5c(F)c(F)c(F)c(F)c5F)c5ccc([nH]5)c(-c5c(F)c(F)c(F)c(F)c5F)c5nc(c(-c6c(F)c(F)c(F)c(F)c6F)c6ccc3[nH]6)C=C5)C=C4)cc2)CCCCC1
REMARK SMILES IDX 16 1 17 2 18 3 15 5 88 6 92 7 89 8 91 9 90 10 14 11 12 12
REMARK SMILES IDX 11 13 13 15 10 16 4 17 5 18 6 19 9 20 7 21 8 22 3 23 2 24
REMARK SMILES IDX 1 25 19 26 20 27 21 28 22 29 23 30 24 32 25 33 26 34 87 35
REMARK SMILES IDX 27 36 86 37 28 38 29 39 30 40 80 41 31 42 85 43 79 44 81 45
REMARK SMILES IDX 32 46 84 47 78 48 77 49 33 51 65 52 45 53 64 54 46 55 49 56
REMARK SMILES IDX 63 57 82 58 47 59 48 60 62 62 83 63 50 64 34 65 35 66 43 67
REMARK SMILES IDX 36 68 37 69 41 70 44 71 38 72 39 73 42 74 40 75 66 76 67 77
REMARK SMILES IDX 75 78 68 79 69 80 73 81 76 82 70 83 71 84 74 85 72 86 51 87
REMARK SMILES IDX 52 88 60 89 53 90 54 91 58 92 61 93 55 94 56 95 59 96 57 97
REMARK H PARENT 18 4 11 14 22 31 81 50 49 61
REMARK Flexibility Score: inf
ROOT
ATOM      1  C   UNL A   1      30.751  29.252  23.856  1.00  0.00     0.226 C 
ATOM      2  O   UNL A   1      30.015  29.475  22.891  1.00  0.00    -0.274 OA
ATOM      3  N   UNL A   1      30.991  30.343  24.630  1.00  0.00    -0.356 N 
ATOM      4  H   UNL A   1      30.548  31.167  24.323  1.00  0.00     0.163 HD
ENDROOT
BRANCH   1   5
ATOM      5  C   UNL A   1      31.399  27.844  24.108  1.00  0.00     0.058 C 
ATOM      6  C   UNL A   1      32.912  27.955  24.432  1.00  0.00     0.017 C 
ATOM      7  C   UNL A   1      31.092  26.921  22.892  1.00  0.00     0.017 C 
ATOM      8  C   UNL A   1      33.987  27.513  23.426  1.00  0.00     0.001 C 
ATOM      9  C   UNL A   1      32.129  26.825  21.786  1.00  0.00     0.001 C 
ATOM     10  C   UNL A   1      33.543  26.602  22.294  1.00  0.00     0.000 C 
BRANCH   5  11
ATOM     11  C   UNL A   1      30.571  27.213  25.321  1.00  0.00     0.117 C 
BRANCH  11  12
ATOM     12  C   UNL A   1      31.314  26.629  26.522  1.00  0.00     0.225 C 
ATOM     13  N   UNL A   1      31.846  25.362  26.533  1.00  0.00    -0.323 N 
ATOM     14  H   UNL A   1      32.183  25.069  27.411  1.00  0.00     0.170 HD
ATOM     15  O   UNL A   1      31.493  27.320  27.530  1.00  0.00    -0.275 OA
BRANCH  13  16
ATOM     16  C   UNL A   1      31.994  24.409  25.502  1.00  0.00     0.084 A 
ATOM     17  C   UNL A   1      33.312  24.159  25.053  1.00  0.00     0.145 A 
ATOM     18  C   UNL A   1      33.507  23.532  23.822  1.00  0.00     0.087 A 
ATOM     19  C   UNL A   1      32.409  23.124  23.076  1.00  0.00     0.127 A 
ATOM     20  C   UNL A   1      30.913  23.874  24.796  1.00  0.00     0.033 A 
ATOM     21  F   UNL A   1      32.599  22.594  21.861  1.00  0.00    -0.207 F 
ATOM     22  C   UNL A   1      31.118  23.253  23.567  1.00  0.00     0.041 A 
BRANCH  17  23
ATOM     23  O   UNL A   1      34.340  24.538  25.876  1.00  0.00    -0.492 OA
BRANCH  23  24
ATOM     24  C   UNL A   1      35.203  23.513  26.383  1.00  0.00     0.226 C 
ATOM     25  C   UNL A   1      36.645  23.642  25.912  1.00  0.00     0.049 C 
ENDBRANCH  23  24
ENDBRANCH  17  23
ENDBRANCH  13  16
ENDBRANCH  11  12
ENDBRANCH   5  11
ENDBRANCH   1   5
BRANCH   3  26
ATOM     26  C   UNL A   1      31.781  30.498  25.818  1.00  0.00     0.117 C 
BRANCH  26  27
ATOM     27  C   UNL A   1      31.431  31.729  26.621  1.00  0.00     0.042 C 
BRANCH  27  28
ATOM     28  C   UNL A   1      32.653  32.357  27.242  1.00  0.00     0.118 C 
BRANCH  28  29
ATOM     29  N   UNL A   1      32.469  33.789  27.480  1.00  0.00    -0.352 N 
ATOM     30  C   UNL A   1      33.032  34.612  28.424  1.00  0.00     0.251 C 
ATOM     31  H   UNL A   1      31.840  34.233  26.867  1.00  0.00     0.163 HD
ATOM     32  O   UNL A   1      32.575  35.738  28.606  1.00  0.00    -0.269 OA
BRANCH  30  33
ATOM     33  C   UNL A   1      34.167  34.132  29.234  1.00  0.00     0.039 A 
ATOM     34  C   UNL A   1      33.933  33.302  30.331  1.00  0.00     0.014 A 
ATOM     35  C   UNL A   1      35.472  34.486  28.893  1.00  0.00     0.014 A 
ATOM     36  C   UNL A   1      35.016  32.766  31.029  1.00  0.00     0.010 A 
ATOM     37  C   UNL A   1      36.539  33.829  29.479  1.00  0.00     0.010 A 
ATOM     38  C   UNL A   1      36.328  32.986  30.576  1.00  0.00    -0.014 A 
BRANCH  38  39
ATOM     39  C   UNL A   1      37.505  32.394  31.253  1.00  0.00     0.031 A 
ATOM     40  C   UNL A   1      38.267  31.284  30.576  1.00  0.00     0.074 A 
ATOM     41  C   UNL A   1      37.839  32.798  32.494  1.00  0.00     0.049 A 
ATOM     42  N   UNL A   1      39.254  30.561  31.036  1.00  0.00    -0.248 NA
ATOM     43  C   UNL A   1      37.836  30.906  29.218  1.00  0.00     0.031 C 
ATOM     44  C   UNL A   1      37.134  33.819  33.271  1.00  0.00     0.029 A 
ATOM     45  N   UNL A   1      38.853  32.393  33.325  1.00  0.00    -0.354 N 
ATOM     46  C   UNL A   1      39.540  29.639  30.038  1.00  0.00     0.074 A 
ATOM     47  C   UNL A   1      38.581  29.838  28.978  1.00  0.00     0.031 C 
ATOM     48  C   UNL A   1      37.763  33.993  34.444  1.00  0.00     0.029 A 
ATOM     49  C   UNL A   1      38.882  33.061  34.525  1.00  0.00     0.049 A 
ATOM     50  H   UNL A   1      39.500  31.692  33.083  1.00  0.00     0.167 HD
ATOM     51  C   UNL A   1      40.543  28.734  29.992  1.00  0.00     0.037 A 
ATOM     52  C   UNL A   1      39.717  32.927  35.575  1.00  0.00     0.037 A 
ATOM     53  C   UNL A   1      41.530  28.584  31.025  1.00  0.00     0.049 A 
ATOM     54  C   UNL A   1      40.830  31.920  35.493  1.00  0.00     0.074 A 
ATOM     55  C   UNL A   1      42.632  27.748  31.044  1.00  0.00     0.029 A 
ATOM     56  N   UNL A   1      41.539  29.295  32.215  1.00  0.00    -0.354 N 
ATOM     57  N   UNL A   1      41.131  31.098  34.514  1.00  0.00    -0.248 NA
ATOM     58  C   UNL A   1      41.725  31.819  36.654  1.00  0.00     0.031 C 
ATOM     59  C   UNL A   1      43.279  27.916  32.270  1.00  0.00     0.029 A 
ATOM     60  C   UNL A   1      42.617  28.899  32.988  1.00  0.00     0.049 A 
ATOM     61  H   UNL A   1      40.879  29.978  32.472  1.00  0.00     0.167 HD
ATOM     62  C   UNL A   1      42.258  30.405  34.930  1.00  0.00     0.074 A 
ATOM     63  C   UNL A   1      42.600  30.912  36.241  1.00  0.00     0.031 C 
ATOM     64  C   UNL A   1      42.946  29.432  34.285  1.00  0.00     0.037 A 
BRANCH  51  65
ATOM     65  C   UNL A   1      40.655  27.857  28.780  1.00  0.00     0.064 A 
ATOM     66  C   UNL A   1      41.391  28.280  27.662  1.00  0.00     0.173 A 
ATOM     67  C   UNL A   1      39.958  26.643  28.685  1.00  0.00     0.173 A 
ATOM     68  F   UNL A   1      42.075  29.433  27.700  1.00  0.00    -0.203 F 
ATOM     69  C   UNL A   1      41.402  27.532  26.488  1.00  0.00     0.198 A 
ATOM     70  C   UNL A   1      39.998  25.882  27.521  1.00  0.00     0.198 A 
ATOM     71  F   UNL A   1      39.254  26.186  29.732  1.00  0.00    -0.203 F 
ATOM     72  F   UNL A   1      42.076  27.979  25.419  1.00  0.00    -0.200 F 
ATOM     73  C   UNL A   1      40.708  26.335  26.419  1.00  0.00     0.200 A 
ATOM     74  F   UNL A   1      39.347  24.713  27.464  1.00  0.00    -0.200 F 
ATOM     75  F   UNL A   1      40.720  25.616  25.287  1.00  0.00    -0.200 F 
ENDBRANCH  51  65
BRANCH  52  76
ATOM     76  C   UNL A   1      39.546  33.794  36.771  1.00  0.00     0.064 A 
ATOM     77  C   UNL A   1      40.135  35.066  36.846  1.00  0.00     0.173 A 
ATOM     78  C   UNL A   1      38.803  33.357  37.877  1.00  0.00     0.173 A 
ATOM     79  F   UNL A   1      40.864  35.530  35.819  1.00  0.00    -0.203 F 
ATOM     80  C   UNL A   1      40.000  35.858  37.983  1.00  0.00     0.198 A 
ATOM     81  C   UNL A   1      38.642  34.164  39.002  1.00  0.00     0.198 A 
ATOM     82  F   UNL A   1      38.207  32.156  37.850  1.00  0.00    -0.203 F 
ATOM     83  F   UNL A   1      40.602  37.053  38.041  1.00  0.00    -0.200 F 
ATOM     84  C   UNL A   1      39.246  35.410  39.058  1.00  0.00     0.200 A 
ATOM     85  F   UNL A   1      37.892  33.737  40.028  1.00  0.00    -0.200 F 
ATOM     86  F   UNL A   1      39.101  36.180  40.145  1.00  0.00    -0.200 F 
ENDBRANCH  52  76
BRANCH  64  87
ATOM     87  C   UNL A   1      44.155  28.862  34.965  1.00  0.00     0.064 A 
ATOM     88  C   UNL A   1      44.028  27.769  35.837  1.00  0.00     0.173 A 
ATOM     89  C   UNL A   1      45.417  29.459  34.837  1.00  0.00     0.173 A 
ATOM     90  F   UNL A   1      42.838  27.172  36.003  1.00  0.00    -0.203 F 
ATOM     91  C   UNL A   1      45.115  27.311  36.573  1.00  0.00     0.198 A 
ATOM     92  C   UNL A   1      46.510  28.977  35.549  1.00  0.00     0.198 A 
ATOM     93  F   UNL A   1      45.590  30.500  34.008  1.00  0.00    -0.203 F 
ATOM     94  F   UNL A   1      44.959  26.297  37.436  1.00  0.00    -0.200 F 
ATOM     95  C   UNL A   1      46.356  27.913  36.426  1.00  0.00     0.200 A 
ATOM     96  F   UNL A   1      47.713  29.544  35.390  1.00  0.00    -0.200 F 
ATOM     97  F   UNL A   1      47.405  27.467  37.132  1.00  0.00    -0.200 F 
ENDBRANCH  64  87
ENDBRANCH  38  39
ENDBRANCH  30  33
ENDBRANCH  28  29
ENDBRANCH  27  28
ENDBRANCH  26  27
ENDBRANCH   3  26
TORSDOF 15
ENDMDL
