MODEL 1
REMARK VINA RESULT:     -13.4      0.000      0.000
REMARK SMILES O=C(NCCCNC(=O)[C@H]1O[C@@H](Oc2c(-c3cc(O)c(O)c(O)c3)oc3cc(O)cc(O)c3c2=O)[C@H](O)[C@@H](O)[C@@H]1O)c1ccc(-c2c3nc(c(-c4c(F)c(F)c(F)c(F)c4F)c4ccc([nH]4)c(-c4c(F)c(F)c(F)c(F)c4F)c4nc(c(-c5c(F)c(F)c(F)c(F)c5F)c5ccc2[nH]5)C=C4)C=C3)cc1
REMARK SMILES IDX 6 1 5 2 4 3 3 4 1 5 2 6 42 8 43 9 104 10 44 11 103 12 45 13
REMARK SMILES IDX 46 14 47 15 97 16 48 17 102 18 96 19 98 20 49 21 101 22
REMARK SMILES IDX 95 23 94 24 50 26 82 27 62 28 81 29 63 30 66 31 80 32 99 33
REMARK SMILES IDX 64 34 65 35 79 37 100 38 67 39 51 40 52 41 60 42 53 43 54 44
REMARK SMILES IDX 58 45 61 46 55 47 56 48 59 49 57 50 83 51 84 52 92 53 85 54
REMARK SMILES IDX 86 55 90 56 93 57 87 58 88 59 91 60 89 61 68 62 69 63 77 64
REMARK SMILES IDX 70 65 71 66 75 67 78 68 72 69 73 70 76 71 74 72 7 73 8 74
REMARK SMILES IDX 9 76 10 77 11 78 40 79 12 80 38 81 36 82 41 83 13 85 14 86
REMARK SMILES IDX 15 87 34 88 25 89 33 90 35 91 26 92 31 93 27 94 30 95 28 96
REMARK SMILES IDX 16 97 17 98 24 99 18 100 22 101 20 102 19 103 23 105 21 107
REMARK SMILES IDX 32 109 29 111 39 113 37 115
REMARK H PARENT 3 7 98 25 66 36 7 75 41 84 19 104 23 106 21 108 32 110 29 112
REMARK H PARENT 39 114 37 116
REMARK Flexibility Score: inf
ROOT
ATOM      1  C   UNL A   1      32.265  29.317  23.906  1.00  0.00     0.117 C 
ENDROOT
BRANCH   1   2
ATOM      2  C   UNL A   1      33.260  29.254  25.053  1.00  0.00     0.042 C 
BRANCH   2   3
ATOM      3  C   UNL A   1      32.633  29.672  26.372  1.00  0.00     0.118 C 
BRANCH   3   4
ATOM      4  N   UNL A   1      32.536  31.122  26.490  1.00  0.00    -0.352 N 
ATOM      5  O   UNL A   1      32.898  33.129  27.456  1.00  0.00    -0.269 OA
ATOM      6  C   UNL A   1      33.255  31.971  27.291  1.00  0.00     0.251 C 
ATOM      7  H   UNL A   1      31.863  31.551  25.914  1.00  0.00     0.163 HD
BRANCH   6   8
ATOM      8  C   UNL A   1      34.475  31.464  27.946  1.00  0.00     0.039 A 
ATOM      9  C   UNL A   1      35.556  32.322  28.160  1.00  0.00     0.014 A 
ATOM     10  C   UNL A   1      34.525  30.134  28.368  1.00  0.00     0.014 A 
ATOM     11  C   UNL A   1      36.734  31.826  28.691  1.00  0.00     0.010 A 
ATOM     12  C   UNL A   1      35.676  29.662  29.000  1.00  0.00     0.010 A 
ATOM     13  C   UNL A   1      36.785  30.506  29.164  1.00  0.00    -0.014 A 
BRANCH  13  14
ATOM     14  C   UNL A   1      37.955  30.086  29.964  1.00  0.00     0.031 A 
ATOM     15  C   UNL A   1      38.162  30.577  31.364  1.00  0.00     0.074 A 
ATOM     16  C   UNL A   1      38.837  29.247  29.386  1.00  0.00     0.049 A 
ATOM     17  N   UNL A   1      39.157  30.334  32.177  1.00  0.00    -0.248 NA
ATOM     18  C   UNL A   1      37.128  31.461  31.925  1.00  0.00     0.031 C 
ATOM     19  C   UNL A   1      38.728  28.725  28.018  1.00  0.00     0.029 A 
ATOM     20  N   UNL A   1      39.991  28.684  29.860  1.00  0.00    -0.354 N 
ATOM     21  C   UNL A   1      38.885  31.048  33.334  1.00  0.00     0.074 A 
ATOM     22  C   UNL A   1      37.636  31.747  33.118  1.00  0.00     0.031 C 
ATOM     23  C   UNL A   1      39.755  27.901  27.776  1.00  0.00     0.029 A 
ATOM     24  C   UNL A   1      40.635  27.897  28.936  1.00  0.00     0.049 A 
ATOM     25  H   UNL A   1      40.327  28.828  30.775  1.00  0.00     0.167 HD
ATOM     26  C   UNL A   1      39.622  31.104  34.470  1.00  0.00     0.037 A 
ATOM     27  C   UNL A   1      41.827  27.278  28.997  1.00  0.00     0.037 A 
ATOM     28  C   UNL A   1      40.850  30.377  34.672  1.00  0.00     0.049 A 
ATOM     29  C   UNL A   1      42.632  27.398  30.260  1.00  0.00     0.074 A 
ATOM     30  C   UNL A   1      41.627  30.303  35.814  1.00  0.00     0.029 A 
ATOM     31  N   UNL A   1      41.487  29.610  33.705  1.00  0.00    -0.354 N 
ATOM     32  N   UNL A   1      42.330  28.017  31.375  1.00  0.00    -0.248 NA
ATOM     33  C   UNL A   1      43.945  26.742  30.270  1.00  0.00     0.031 C 
ATOM     34  C   UNL A   1      42.768  29.552  35.519  1.00  0.00     0.029 A 
ATOM     35  C   UNL A   1      42.674  29.105  34.212  1.00  0.00     0.049 A 
ATOM     36  H   UNL A   1      41.146  29.449  32.796  1.00  0.00     0.167 HD
ATOM     37  C   UNL A   1      43.409  27.818  32.222  1.00  0.00     0.074 A 
ATOM     38  C   UNL A   1      44.356  26.991  31.504  1.00  0.00     0.031 C 
ATOM     39  C   UNL A   1      43.605  28.287  33.478  1.00  0.00     0.037 A 
BRANCH  26  40
ATOM     40  C   UNL A   1      39.153  31.989  35.587  1.00  0.00     0.064 A 
ATOM     41  C   UNL A   1      38.361  31.503  36.636  1.00  0.00     0.173 A 
ATOM     42  C   UNL A   1      39.599  33.318  35.661  1.00  0.00     0.173 A 
ATOM     43  F   UNL A   1      37.896  30.245  36.604  1.00  0.00    -0.203 F 
ATOM     44  C   UNL A   1      38.033  32.314  37.719  1.00  0.00     0.198 A 
ATOM     45  C   UNL A   1      39.290  34.119  36.758  1.00  0.00     0.198 A 
ATOM     46  F   UNL A   1      40.359  33.832  34.683  1.00  0.00    -0.203 F 
ATOM     47  F   UNL A   1      37.255  31.837  38.700  1.00  0.00    -0.200 F 
ATOM     48  C   UNL A   1      38.508  33.616  37.786  1.00  0.00     0.200 A 
ATOM     49  F   UNL A   1      39.758  35.373  36.823  1.00  0.00    -0.200 F 
ATOM     50  F   UNL A   1      38.207  34.388  38.839  1.00  0.00    -0.200 F 
ENDBRANCH  26  40
BRANCH  27  51
ATOM     51  C   UNL A   1      42.351  26.546  27.816  1.00  0.00     0.064 A 
ATOM     52  C   UNL A   1      42.104  25.178  27.641  1.00  0.00     0.173 A 
ATOM     53  C   UNL A   1      43.132  27.196  26.848  1.00  0.00     0.173 A 
ATOM     54  F   UNL A   1      41.376  24.508  28.547  1.00  0.00    -0.203 F 
ATOM     55  C   UNL A   1      42.651  24.481  26.565  1.00  0.00     0.198 A 
ATOM     56  C   UNL A   1      43.644  26.507  25.751  1.00  0.00     0.198 A 
ATOM     57  F   UNL A   1      43.392  28.507  26.961  1.00  0.00    -0.203 F 
ATOM     58  F   UNL A   1      42.455  23.160  26.459  1.00  0.00    -0.200 F 
ATOM     59  C   UNL A   1      43.416  25.147  25.620  1.00  0.00     0.200 A 
ATOM     60  F   UNL A   1      44.365  27.160  24.830  1.00  0.00    -0.200 F 
ATOM     61  F   UNL A   1      43.943  24.475  24.588  1.00  0.00    -0.200 F 
ENDBRANCH  27  51
BRANCH  39  62
ATOM     62  C   UNL A   1      44.890  27.908  34.152  1.00  0.00     0.064 A 
ATOM     63  C   UNL A   1      46.024  28.732  34.079  1.00  0.00     0.173 A 
ATOM     64  C   UNL A   1      44.979  26.729  34.907  1.00  0.00     0.173 A 
ATOM     65  F   UNL A   1      45.993  29.859  33.352  1.00  0.00    -0.203 F 
ATOM     66  C   UNL A   1      47.208  28.375  34.717  1.00  0.00     0.198 A 
ATOM     67  C   UNL A   1      46.155  26.394  35.572  1.00  0.00     0.198 A 
ATOM     68  F   UNL A   1      43.922  25.911  35.012  1.00  0.00    -0.203 F 
ATOM     69  F   UNL A   1      48.293  29.150  34.590  1.00  0.00    -0.200 F 
ATOM     70  C   UNL A   1      47.270  27.212  35.470  1.00  0.00     0.200 A 
ATOM     71  F   UNL A   1      46.209  25.278  36.313  1.00  0.00    -0.200 F 
ATOM     72  F   UNL A   1      48.407  26.876  36.093  1.00  0.00    -0.200 F 
ENDBRANCH  39  62
ENDBRANCH  13  14
ENDBRANCH   6   8
ENDBRANCH   3   4
ENDBRANCH   2   3
ENDBRANCH   1   2
BRANCH   1  73
ATOM     73  N   UNL A   1      31.041  28.627  24.260  1.00  0.00    -0.354 N 
ATOM     74  C   UNL A   1      30.716  27.325  24.027  1.00  0.00     0.252 C 
ATOM     75  H   UNL A   1      30.359  29.166  24.723  1.00  0.00     0.163 HD
ATOM     76  O   UNL A   1      29.544  26.972  24.174  1.00  0.00    -0.272 OA
BRANCH  74  77
ATOM     77  C   UNL A   1      31.815  26.315  23.692  1.00  0.00     0.242 C 
ATOM     78  O   UNL A   1      31.797  25.126  24.491  1.00  0.00    -0.324 OA
ATOM     79  C   UNL A   1      31.690  25.917  22.213  1.00  0.00     0.184 C 
ATOM     80  C   UNL A   1      32.977  24.339  24.315  1.00  0.00     0.340 C 
ATOM     81  C   UNL A   1      32.964  25.171  21.830  1.00  0.00     0.181 C 
ATOM     82  C   UNL A   1      33.292  24.063  22.824  1.00  0.00     0.214 C 
BRANCH  79  83
ATOM     83  O   UNL A   1      31.486  27.006  21.312  1.00  0.00    -0.387 OA
ATOM     84  H   UNL A   1      31.264  27.805  21.815  1.00  0.00     0.211 HD
ENDBRANCH  79  83
BRANCH  80  85
ATOM     85  O   UNL A   1      32.979  23.070  25.024  1.00  0.00    -0.454 OA
BRANCH  85  86
ATOM     86  C   UNL A   1      34.172  22.440  25.341  1.00  0.00     0.214 A 
ATOM     87  C   UNL A   1      34.514  21.197  24.929  1.00  0.00     0.181 A 
ATOM     88  C   UNL A   1      35.259  23.271  25.960  1.00  0.00     0.239 A 
ATOM     89  O   UNL A   1      35.734  20.595  25.150  1.00  0.00    -0.452 OA
ATOM     90  C   UNL A   1      36.637  22.704  25.939  1.00  0.00     0.111 A 
ATOM     91  O   UNL A   1      35.003  24.366  26.447  1.00  0.00    -0.285 OA
ATOM     92  C   UNL A   1      36.784  21.378  25.539  1.00  0.00     0.146 A 
ATOM     93  C   UNL A   1      37.793  23.424  26.285  1.00  0.00     0.134 A 
ATOM     94  C   UNL A   1      38.039  20.764  25.504  1.00  0.00     0.094 A 
ATOM     95  C   UNL A   1      39.059  22.820  26.242  1.00  0.00     0.093 A 
ATOM     96  C   UNL A   1      39.167  21.490  25.854  1.00  0.00     0.123 A 
BRANCH  87  97
ATOM     97  C   UNL A   1      33.576  20.276  24.269  1.00  0.00     0.029 A 
ATOM     98  C   UNL A   1      32.819  20.767  23.187  1.00  0.00     0.062 A 
ATOM     99  C   UNL A   1      33.533  18.908  24.589  1.00  0.00     0.062 A 
ATOM    100  C   UNL A   1      32.148  19.877  22.360  1.00  0.00     0.162 A 
ATOM    101  C   UNL A   1      32.843  18.036  23.753  1.00  0.00     0.162 A 
ATOM    102  C   UNL A   1      32.195  18.513  22.619  1.00  0.00     0.200 A 
BRANCH 100 103
ATOM    103  O   UNL A   1      31.527  20.356  21.245  1.00  0.00    -0.504 OA
ATOM    104  H   UNL A   1      31.172  19.760  20.615  1.00  0.00     0.293 HD
ENDBRANCH 100 103
BRANCH 101 105
ATOM    105  O   UNL A   1      32.914  16.693  23.987  1.00  0.00    -0.504 OA
ATOM    106  H   UNL A   1      32.231  16.128  23.683  1.00  0.00     0.293 HD
ENDBRANCH 101 105
BRANCH 102 107
ATOM    107  O   UNL A   1      31.725  17.615  21.699  1.00  0.00    -0.502 OA
ATOM    108  H   UNL A   1      30.938  17.799  21.226  1.00  0.00     0.293 HD
ENDBRANCH 102 107
ENDBRANCH  87  97
BRANCH  93 109
ATOM    109  O   UNL A   1      37.713  24.734  26.663  1.00  0.00    -0.507 OA
ATOM    110  H   UNL A   1      38.325  25.358  26.323  1.00  0.00     0.293 HD
ENDBRANCH  93 109
BRANCH  96 111
ATOM    111  O   UNL A   1      40.369  20.850  25.798  1.00  0.00    -0.508 OA
ATOM    112  H   UNL A   1      40.663  20.340  26.527  1.00  0.00     0.293 HD
ENDBRANCH  96 111
ENDBRANCH  85  86
ENDBRANCH  80  85
BRANCH  81 113
ATOM    113  O   UNL A   1      32.838  24.579  20.515  1.00  0.00    -0.387 OA
ATOM    114  H   UNL A   1      32.633  23.634  20.605  1.00  0.00     0.211 HD
ENDBRANCH  81 113
BRANCH  82 115
ATOM    115  O   UNL A   1      34.659  23.677  22.638  1.00  0.00    -0.384 OA
ATOM    116  H   UNL A   1      35.183  23.962  23.404  1.00  0.00     0.211 HD
ENDBRANCH  82 115
ENDBRANCH  74  77
ENDBRANCH   1  73
TORSDOF 21
ENDMDL
MODEL 2
REMARK VINA RESULT:     -13.4      1.622      6.986
REMARK SMILES O=C(NCCCNC(=O)[C@H]1O[C@@H](Oc2c(-c3cc(O)c(O)c(O)c3)oc3cc(O)cc(O)c3c2=O)[C@H](O)[C@@H](O)[C@@H]1O)c1ccc(-c2c3nc(c(-c4c(F)c(F)c(F)c(F)c4F)c4ccc([nH]4)c(-c4c(F)c(F)c(F)c(F)c4F)c4nc(c(-c5c(F)c(F)c(F)c(F)c5F)c5ccc2[nH]5)C=C4)C=C3)cc1
REMARK SMILES IDX 6 1 5 2 4 3 3 4 1 5 2 6 42 8 43 9 104 10 44 11 103 12 45 13
REMARK SMILES IDX 46 14 47 15 97 16 48 17 102 18 96 19 98 20 49 21 101 22
REMARK SMILES IDX 95 23 94 24 50 26 82 27 62 28 81 29 63 30 66 31 80 32 99 33
REMARK SMILES IDX 64 34 65 35 79 37 100 38 67 39 51 40 52 41 60 42 53 43 54 44
REMARK SMILES IDX 58 45 61 46 55 47 56 48 59 49 57 50 83 51 84 52 92 53 85 54
REMARK SMILES IDX 86 55 90 56 93 57 87 58 88 59 91 60 89 61 68 62 69 63 77 64
REMARK SMILES IDX 70 65 71 66 75 67 78 68 72 69 73 70 76 71 74 72 7 73 8 74
REMARK SMILES IDX 9 76 10 77 11 78 40 79 12 80 38 81 36 82 41 83 13 85 14 86
REMARK SMILES IDX 15 87 34 88 25 89 33 90 35 91 26 92 31 93 27 94 30 95 28 96
REMARK SMILES IDX 16 97 17 98 24 99 18 100 22 101 20 102 19 103 23 105 21 107
REMARK SMILES IDX 32 109 29 111 39 113 37 115
REMARK H PARENT 3 7 98 25 66 36 7 75 41 84 19 104 23 106 21 108 32 110 29 112
REMARK H PARENT 39 114 37 116
REMARK Flexibility Score: inf
ROOT
ATOM      1  C   UNL A   1      33.108  29.015  24.865  1.00  0.00     0.117 C 
ENDROOT
BRANCH   1   2
ATOM      2  C   UNL A   1      33.871  28.173  25.874  1.00  0.00     0.042 C 
BRANCH   2   3
ATOM      3  C   UNL A   1      33.625  28.636  27.300  1.00  0.00     0.118 C 
BRANCH   3   4
ATOM      4  N   UNL A   1      33.562  30.089  27.394  1.00  0.00    -0.352 N 
ATOM      5  O   UNL A   1      34.095  32.114  28.235  1.00  0.00    -0.269 OA
ATOM      6  C   UNL A   1      34.411  30.948  28.043  1.00  0.00     0.251 C 
ATOM      7  H   UNL A   1      32.805  30.513  26.927  1.00  0.00     0.163 HD
BRANCH   6   8
ATOM      8  C   UNL A   1      35.717  30.441  28.500  1.00  0.00     0.039 A 
ATOM      9  C   UNL A   1      36.856  30.657  27.720  1.00  0.00     0.014 A 
ATOM     10  C   UNL A   1      35.805  29.772  29.722  1.00  0.00     0.014 A 
ATOM     11  C   UNL A   1      38.067  30.104  28.102  1.00  0.00     0.010 A 
ATOM     12  C   UNL A   1      37.046  29.306  30.157  1.00  0.00     0.010 A 
ATOM     13  C   UNL A   1      38.182  29.470  29.349  1.00  0.00    -0.014 A 
BRANCH  13  14
ATOM     14  C   UNL A   1      39.532  29.130  29.847  1.00  0.00     0.031 A 
ATOM     15  C   UNL A   1      40.317  27.995  29.264  1.00  0.00     0.074 A 
ATOM     16  C   UNL A   1      40.031  29.874  30.853  1.00  0.00     0.049 A 
ATOM     17  N   UNL A   1      41.493  27.547  29.621  1.00  0.00    -0.248 NA
ATOM     18  C   UNL A   1      39.707  27.260  28.145  1.00  0.00     0.031 C 
ATOM     19  C   UNL A   1      39.332  30.993  31.496  1.00  0.00     0.029 A 
ATOM     20  N   UNL A   1      41.229  29.814  31.512  1.00  0.00    -0.354 N 
ATOM     21  C   UNL A   1      41.757  26.468  28.790  1.00  0.00     0.074 A 
ATOM     22  C   UNL A   1      40.612  26.317  27.916  1.00  0.00     0.031 C 
ATOM     23  C   UNL A   1      40.123  31.528  32.436  1.00  0.00     0.029 A 
ATOM     24  C   UNL A   1      41.347  30.743  32.517  1.00  0.00     0.049 A 
ATOM     25  H   UNL A   1      41.938  29.168  31.288  1.00  0.00     0.167 HD
ATOM     26  C   UNL A   1      42.861  25.684  28.770  1.00  0.00     0.037 A 
ATOM     27  C   UNL A   1      42.314  30.917  33.434  1.00  0.00     0.037 A 
ATOM     28  C   UNL A   1      44.000  25.871  29.633  1.00  0.00     0.049 A 
ATOM     29  C   UNL A   1      43.503  30.001  33.403  1.00  0.00     0.074 A 
ATOM     30  C   UNL A   1      45.200  25.182  29.634  1.00  0.00     0.029 A 
ATOM     31  N   UNL A   1      44.075  26.806  30.656  1.00  0.00    -0.354 N 
ATOM     32  N   UNL A   1      43.776  29.030  32.566  1.00  0.00    -0.248 NA
ATOM     33  C   UNL A   1      44.516  30.198  34.447  1.00  0.00     0.031 C 
ATOM     34  C   UNL A   1      45.972  25.649  30.702  1.00  0.00     0.029 A 
ATOM     35  C   UNL A   1      45.280  26.673  31.328  1.00  0.00     0.049 A 
ATOM     36  H   UNL A   1      43.377  27.465  30.873  1.00  0.00     0.167 HD
ATOM     37  C   UNL A   1      44.991  28.506  32.975  1.00  0.00     0.074 A 
ATOM     38  C   UNL A   1      45.422  29.291  34.113  1.00  0.00     0.031 C 
ATOM     39  C   UNL A   1      45.686  27.462  32.463  1.00  0.00     0.037 A 
BRANCH  26  40
ATOM     40  C   UNL A   1      42.907  24.534  27.808  1.00  0.00     0.064 A 
ATOM     41  C   UNL A   1      43.350  24.688  26.487  1.00  0.00     0.173 A 
ATOM     42  C   UNL A   1      42.606  23.237  28.253  1.00  0.00     0.173 A 
ATOM     43  F   UNL A   1      43.636  25.908  26.009  1.00  0.00    -0.203 F 
ATOM     44  C   UNL A   1      43.492  23.586  25.648  1.00  0.00     0.198 A 
ATOM     45  C   UNL A   1      42.773  22.134  27.418  1.00  0.00     0.198 A 
ATOM     46  F   UNL A   1      42.176  23.035  29.507  1.00  0.00    -0.203 F 
ATOM     47  F   UNL A   1      43.895  23.759  24.381  1.00  0.00    -0.200 F 
ATOM     48  C   UNL A   1      43.216  22.310  26.117  1.00  0.00     0.200 A 
ATOM     49  F   UNL A   1      42.513  20.903  27.878  1.00  0.00    -0.200 F 
ATOM     50  F   UNL A   1      43.372  21.250  25.312  1.00  0.00    -0.200 F 
ENDBRANCH  26  40
BRANCH  27  51
ATOM     51  C   UNL A   1      42.168  31.956  34.486  1.00  0.00     0.064 A 
ATOM     52  C   UNL A   1      41.485  31.690  35.680  1.00  0.00     0.173 A 
ATOM     53  C   UNL A   1      42.689  33.247  34.308  1.00  0.00     0.173 A 
ATOM     54  F   UNL A   1      40.954  30.476  35.892  1.00  0.00    -0.203 F 
ATOM     55  C   UNL A   1      41.295  32.686  36.636  1.00  0.00     0.198 A 
ATOM     56  C   UNL A   1      42.535  34.229  35.281  1.00  0.00     0.198 A 
ATOM     57  F   UNL A   1      43.360  33.553  33.187  1.00  0.00    -0.203 F 
ATOM     58  F   UNL A   1      40.579  32.423  37.738  1.00  0.00    -0.200 F 
ATOM     59  C   UNL A   1      41.824  33.952  36.438  1.00  0.00     0.200 A 
ATOM     60  F   UNL A   1      43.066  35.445  35.094  1.00  0.00    -0.200 F 
ATOM     61  F   UNL A   1      41.638  34.909  37.357  1.00  0.00    -0.200 F 
ENDBRANCH  27  51
BRANCH  39  62
ATOM     62  C   UNL A   1      46.985  27.117  33.129  1.00  0.00     0.064 A 
ATOM     63  C   UNL A   1      47.048  26.165  34.158  1.00  0.00     0.173 A 
ATOM     64  C   UNL A   1      48.183  27.718  32.713  1.00  0.00     0.173 A 
ATOM     65  F   UNL A   1      45.927  25.577  34.603  1.00  0.00    -0.203 F 
ATOM     66  C   UNL A   1      48.260  25.845  34.762  1.00  0.00     0.198 A 
ATOM     67  C   UNL A   1      49.397  27.370  33.296  1.00  0.00     0.198 A 
ATOM     68  F   UNL A   1      48.176  28.630  31.730  1.00  0.00    -0.203 F 
ATOM     69  F   UNL A   1      48.289  24.971  35.778  1.00  0.00    -0.200 F 
ATOM     70  C   UNL A   1      49.434  26.441  34.325  1.00  0.00     0.200 A 
ATOM     71  F   UNL A   1      50.533  27.934  32.862  1.00  0.00    -0.200 F 
ATOM     72  F   UNL A   1      50.601  26.124  34.900  1.00  0.00    -0.200 F 
ENDBRANCH  39  62
ENDBRANCH  13  14
ENDBRANCH   6   8
ENDBRANCH   3   4
ENDBRANCH   2   3
ENDBRANCH   1   2
BRANCH   1  73
ATOM     73  N   UNL A   1      31.732  28.572  24.772  1.00  0.00    -0.354 N 
ATOM     74  C   UNL A   1      31.243  27.490  24.106  1.00  0.00     0.252 C 
ATOM     75  H   UNL A   1      31.068  29.122  25.248  1.00  0.00     0.163 HD
ATOM     76  O   UNL A   1      30.027  27.402  23.931  1.00  0.00    -0.272 OA
BRANCH  74  77
ATOM     77  C   UNL A   1      32.191  26.365  23.681  1.00  0.00     0.242 C 
ATOM     78  O   UNL A   1      32.126  25.190  24.497  1.00  0.00    -0.324 OA
ATOM     79  C   UNL A   1      31.879  25.975  22.228  1.00  0.00     0.184 C 
ATOM     80  C   UNL A   1      33.193  24.281  24.220  1.00  0.00     0.340 C 
ATOM     81  C   UNL A   1      33.023  25.095  21.735  1.00  0.00     0.181 C 
ATOM     82  C   UNL A   1      33.328  23.964  22.710  1.00  0.00     0.214 C 
BRANCH  79  83
ATOM     83  O   UNL A   1      31.703  27.074  21.334  1.00  0.00    -0.387 OA
ATOM     84  H   UNL A   1      32.449  27.687  21.425  1.00  0.00     0.211 HD
ENDBRANCH  79  83
BRANCH  80  85
ATOM     85  O   UNL A   1      33.130  23.023  24.946  1.00  0.00    -0.454 OA
BRANCH  85  86
ATOM     86  C   UNL A   1      34.290  22.337  25.271  1.00  0.00     0.214 A 
ATOM     87  C   UNL A   1      34.571  21.076  24.867  1.00  0.00     0.181 A 
ATOM     88  C   UNL A   1      35.415  23.117  25.889  1.00  0.00     0.239 A 
ATOM     89  O   UNL A   1      35.760  20.416  25.095  1.00  0.00    -0.452 OA
ATOM     90  C   UNL A   1      36.764  22.482  25.875  1.00  0.00     0.111 A 
ATOM     91  O   UNL A   1      35.213  24.225  26.369  1.00  0.00    -0.285 OA
ATOM     92  C   UNL A   1      36.846  21.148  25.483  1.00  0.00     0.146 A 
ATOM     93  C   UNL A   1      37.952  23.146  26.221  1.00  0.00     0.134 A 
ATOM     94  C   UNL A   1      38.069  20.472  25.456  1.00  0.00     0.094 A 
ATOM     95  C   UNL A   1      39.188  22.480  26.186  1.00  0.00     0.093 A 
ATOM     96  C   UNL A   1      39.231  21.144  25.806  1.00  0.00     0.123 A 
BRANCH  87  97
ATOM     97  C   UNL A   1      33.592  20.199  24.209  1.00  0.00     0.029 A 
ATOM     98  C   UNL A   1      32.828  20.735  23.154  1.00  0.00     0.062 A 
ATOM     99  C   UNL A   1      33.512  18.826  24.502  1.00  0.00     0.062 A 
ATOM    100  C   UNL A   1      32.112  19.884  22.323  1.00  0.00     0.162 A 
ATOM    101  C   UNL A   1      32.777  17.993  23.664  1.00  0.00     0.162 A 
ATOM    102  C   UNL A   1      32.121  18.514  22.554  1.00  0.00     0.200 A 
BRANCH 100 103
ATOM    103  O   UNL A   1      31.484  20.405  21.232  1.00  0.00    -0.504 OA
ATOM    104  H   UNL A   1      31.980  20.626  20.468  1.00  0.00     0.293 HD
ENDBRANCH 100 103
BRANCH 101 105
ATOM    105  O   UNL A   1      32.810  16.645  23.870  1.00  0.00    -0.504 OA
ATOM    106  H   UNL A   1      32.396  16.068  23.258  1.00  0.00     0.293 HD
ENDBRANCH 101 105
BRANCH 102 107
ATOM    107  O   UNL A   1      31.604  17.651  21.627  1.00  0.00    -0.502 OA
ATOM    108  H   UNL A   1      31.960  17.625  20.761  1.00  0.00     0.293 HD
ENDBRANCH 102 107
ENDBRANCH  87  97
BRANCH  93 109
ATOM    109  O   UNL A   1      37.936  24.460  26.591  1.00  0.00    -0.507 OA
ATOM    110  H   UNL A   1      37.823  24.691  27.493  1.00  0.00     0.293 HD
ENDBRANCH  93 109
BRANCH  96 111
ATOM    111  O   UNL A   1      40.400  20.445  25.757  1.00  0.00    -0.508 OA
ATOM    112  H   UNL A   1      40.582  19.791  26.402  1.00  0.00     0.293 HD
ENDBRANCH  96 111
ENDBRANCH  85  86
ENDBRANCH  80  85
BRANCH  81 113
ATOM    113  O   UNL A   1      32.705  24.512  20.448  1.00  0.00    -0.387 OA
ATOM    114  H   UNL A   1      33.406  23.891  20.194  1.00  0.00     0.211 HD
ENDBRANCH  81 113
BRANCH  82 115
ATOM    115  O   UNL A   1      34.622  23.433  22.398  1.00  0.00    -0.384 OA
ATOM    116  H   UNL A   1      34.533  22.741  21.724  1.00  0.00     0.211 HD
ENDBRANCH  82 115
ENDBRANCH  74  77
ENDBRANCH   1  73
TORSDOF 21
ENDMDL
MODEL 3
REMARK VINA RESULT:     -13.3      0.581      6.795
REMARK SMILES O=C(NCCCNC(=O)[C@H]1O[C@@H](Oc2c(-c3cc(O)c(O)c(O)c3)oc3cc(O)cc(O)c3c2=O)[C@H](O)[C@@H](O)[C@@H]1O)c1ccc(-c2c3nc(c(-c4c(F)c(F)c(F)c(F)c4F)c4ccc([nH]4)c(-c4c(F)c(F)c(F)c(F)c4F)c4nc(c(-c5c(F)c(F)c(F)c(F)c5F)c5ccc2[nH]5)C=C4)C=C3)cc1
REMARK SMILES IDX 6 1 5 2 4 3 3 4 1 5 2 6 42 8 43 9 104 10 44 11 103 12 45 13
REMARK SMILES IDX 46 14 47 15 97 16 48 17 102 18 96 19 98 20 49 21 101 22
REMARK SMILES IDX 95 23 94 24 50 26 82 27 62 28 81 29 63 30 66 31 80 32 99 33
REMARK SMILES IDX 64 34 65 35 79 37 100 38 67 39 51 40 52 41 60 42 53 43 54 44
REMARK SMILES IDX 58 45 61 46 55 47 56 48 59 49 57 50 83 51 84 52 92 53 85 54
REMARK SMILES IDX 86 55 90 56 93 57 87 58 88 59 91 60 89 61 68 62 69 63 77 64
REMARK SMILES IDX 70 65 71 66 75 67 78 68 72 69 73 70 76 71 74 72 7 73 8 74
REMARK SMILES IDX 9 76 10 77 11 78 40 79 12 80 38 81 36 82 41 83 13 85 14 86
REMARK SMILES IDX 15 87 34 88 25 89 33 90 35 91 26 92 31 93 27 94 30 95 28 96
REMARK SMILES IDX 16 97 17 98 24 99 18 100 22 101 20 102 19 103 23 105 21 107
REMARK SMILES IDX 32 109 29 111 39 113 37 115
REMARK H PARENT 3 7 98 25 66 36 7 75 41 84 19 104 23 106 21 108 32 110 29 112
REMARK H PARENT 39 114 37 116
REMARK Flexibility Score: inf
ROOT
ATOM      1  C   UNL A   1      32.235  28.597  25.697  1.00  0.00     0.117 C 
ENDROOT
BRANCH   1   2
ATOM      2  C   UNL A   1      32.461  30.100  25.661  1.00  0.00     0.042 C 
BRANCH   2   3
ATOM      3  C   UNL A   1      32.457  30.707  27.054  1.00  0.00     0.118 C 
BRANCH   3   4
ATOM      4  N   UNL A   1      32.541  32.162  27.010  1.00  0.00    -0.352 N 
ATOM      5  O   UNL A   1      33.240  34.196  27.691  1.00  0.00    -0.269 OA
ATOM      6  C   UNL A   1      33.442  32.991  27.627  1.00  0.00     0.251 C 
ATOM      7  H   UNL A   1      31.857  32.611  26.462  1.00  0.00     0.163 HD
BRANCH   6   8
ATOM      8  C   UNL A   1      34.664  32.405  28.204  1.00  0.00     0.039 A 
ATOM      9  C   UNL A   1      35.821  33.180  28.315  1.00  0.00     0.014 A 
ATOM     10  C   UNL A   1      34.644  31.085  28.659  1.00  0.00     0.014 A 
ATOM     11  C   UNL A   1      36.994  32.606  28.772  1.00  0.00     0.010 A 
ATOM     12  C   UNL A   1      35.800  30.538  29.217  1.00  0.00     0.010 A 
ATOM     13  C   UNL A   1      36.980  31.296  29.276  1.00  0.00    -0.014 A 
BRANCH  13  14
ATOM     14  C   UNL A   1      38.171  30.803  30.001  1.00  0.00     0.031 A 
ATOM     15  C   UNL A   1      39.155  29.882  29.350  1.00  0.00     0.074 A 
ATOM     16  C   UNL A   1      38.337  31.209  31.275  1.00  0.00     0.049 A 
ATOM     17  N   UNL A   1      40.224  29.330  29.866  1.00  0.00    -0.248 NA
ATOM     18  C   UNL A   1      38.911  29.521  27.944  1.00  0.00     0.031 C 
ATOM     19  C   UNL A   1      37.421  32.096  32.001  1.00  0.00     0.029 A 
ATOM     20  N   UNL A   1      39.321  30.938  32.187  1.00  0.00    -0.354 N 
ATOM     21  C   UNL A   1      40.768  28.543  28.862  1.00  0.00     0.074 A 
ATOM     22  C   UNL A   1      39.906  28.675  27.706  1.00  0.00     0.031 C 
ATOM     23  C   UNL A   1      37.900  32.316  33.232  1.00  0.00     0.029 A 
ATOM     24  C   UNL A   1      39.109  31.525  33.410  1.00  0.00     0.049 A 
ATOM     25  H   UNL A   1      40.106  30.377  31.986  1.00  0.00     0.167 HD
ATOM     26  C   UNL A   1      41.888  27.784  28.915  1.00  0.00     0.037 A 
ATOM     27  C   UNL A   1      39.787  31.404  34.565  1.00  0.00     0.037 A 
ATOM     28  C   UNL A   1      42.746  27.690  30.070  1.00  0.00     0.049 A 
ATOM     29  C   UNL A   1      41.002  30.521  34.592  1.00  0.00     0.074 A 
ATOM     30  C   UNL A   1      43.946  27.014  30.196  1.00  0.00     0.029 A 
ATOM     31  N   UNL A   1      42.487  28.278  31.300  1.00  0.00    -0.354 N 
ATOM     32  N   UNL A   1      41.548  29.838  33.616  1.00  0.00    -0.248 NA
ATOM     33  C   UNL A   1      41.689  30.384  35.882  1.00  0.00     0.031 C 
ATOM     34  C   UNL A   1      44.377  27.132  31.520  1.00  0.00     0.029 A 
ATOM     35  C   UNL A   1      43.479  27.933  32.205  1.00  0.00     0.049 A 
ATOM     36  H   UNL A   1      41.714  28.853  31.501  1.00  0.00     0.167 HD
ATOM     37  C   UNL A   1      42.646  29.199  34.169  1.00  0.00     0.074 A 
ATOM     38  C   UNL A   1      42.709  29.605  35.558  1.00  0.00     0.031 C 
ATOM     39  C   UNL A   1      43.519  28.344  33.584  1.00  0.00     0.037 A 
BRANCH  26  40
ATOM     40  C   UNL A   1      42.262  26.971  27.711  1.00  0.00     0.064 A 
ATOM     41  C   UNL A   1      42.985  27.517  26.642  1.00  0.00     0.173 A 
ATOM     42  C   UNL A   1      41.985  25.595  27.682  1.00  0.00     0.173 A 
ATOM     43  F   UNL A   1      43.262  28.829  26.613  1.00  0.00    -0.203 F 
ATOM     44  C   UNL A   1      43.418  26.715  25.588  1.00  0.00     0.198 A 
ATOM     45  C   UNL A   1      42.442  24.792  26.640  1.00  0.00     0.198 A 
ATOM     46  F   UNL A   1      41.296  25.023  28.680  1.00  0.00    -0.203 F 
ATOM     47  F   UNL A   1      44.088  27.262  24.564  1.00  0.00    -0.200 F 
ATOM     48  C   UNL A   1      43.158  25.352  25.595  1.00  0.00     0.200 A 
ATOM     49  F   UNL A   1      42.196  23.475  26.654  1.00  0.00    -0.200 F 
ATOM     50  F   UNL A   1      43.594  24.580  24.590  1.00  0.00    -0.200 F 
ENDBRANCH  26  40
BRANCH  27  51
ATOM     51  C   UNL A   1      39.301  32.086  35.792  1.00  0.00     0.064 A 
ATOM     52  C   UNL A   1      38.367  31.477  36.639  1.00  0.00     0.173 A 
ATOM     53  C   UNL A   1      39.744  33.374  36.129  1.00  0.00     0.173 A 
ATOM     54  F   UNL A   1      37.900  30.253  36.352  1.00  0.00    -0.203 F 
ATOM     55  C   UNL A   1      37.866  32.146  37.755  1.00  0.00     0.198 A 
ATOM     56  C   UNL A   1      39.273  34.026  37.266  1.00  0.00     0.198 A 
ATOM     57  F   UNL A   1      40.645  34.001  35.357  1.00  0.00    -0.203 F 
ATOM     58  F   UNL A   1      36.922  31.567  38.510  1.00  0.00    -0.200 F 
ATOM     59  C   UNL A   1      38.322  33.417  38.069  1.00  0.00     0.200 A 
ATOM     60  F   UNL A   1      39.734  35.245  37.576  1.00  0.00    -0.200 F 
ATOM     61  F   UNL A   1      37.837  34.059  39.140  1.00  0.00    -0.200 F 
ENDBRANCH  27  51
BRANCH  39  62
ATOM     62  C   UNL A   1      44.617  27.798  34.448  1.00  0.00     0.064 A 
ATOM     63  C   UNL A   1      45.827  28.488  34.615  1.00  0.00     0.173 A 
ATOM     64  C   UNL A   1      44.446  26.591  35.143  1.00  0.00     0.173 A 
ATOM     65  F   UNL A   1      46.045  29.637  33.956  1.00  0.00    -0.203 F 
ATOM     66  C   UNL A   1      46.835  27.978  35.428  1.00  0.00     0.198 A 
ATOM     67  C   UNL A   1      45.442  26.102  35.981  1.00  0.00     0.198 A 
ATOM     68  F   UNL A   1      43.305  25.896  35.021  1.00  0.00    -0.203 F 
ATOM     69  F   UNL A   1      48.002  28.628  35.531  1.00  0.00    -0.200 F 
ATOM     70  C   UNL A   1      46.638  26.790  36.117  1.00  0.00     0.200 A 
ATOM     71  F   UNL A   1      45.245  24.962  36.659  1.00  0.00    -0.200 F 
ATOM     72  F   UNL A   1      47.605  26.305  36.907  1.00  0.00    -0.200 F 
ENDBRANCH  39  62
ENDBRANCH  13  14
ENDBRANCH   6   8
ENDBRANCH   3   4
ENDBRANCH   2   3
ENDBRANCH   1   2
BRANCH   1  73
ATOM     73  N   UNL A   1      30.996  28.255  25.030  1.00  0.00    -0.354 N 
ATOM     74  C   UNL A   1      30.813  27.392  23.992  1.00  0.00     0.252 C 
ATOM     75  H   UNL A   1      30.186  28.702  25.367  1.00  0.00     0.163 HD
ATOM     76  O   UNL A   1      29.737  27.407  23.392  1.00  0.00    -0.272 OA
BRANCH  74  77
ATOM     77  C   UNL A   1      31.896  26.363  23.659  1.00  0.00     0.242 C 
ATOM     78  O   UNL A   1      31.865  25.181  24.468  1.00  0.00    -0.324 OA
ATOM     79  C   UNL A   1      31.755  25.955  22.184  1.00  0.00     0.184 C 
ATOM     80  C   UNL A   1      33.033  24.377  24.292  1.00  0.00     0.340 C 
ATOM     81  C   UNL A   1      33.016  25.188  21.800  1.00  0.00     0.181 C 
ATOM     82  C   UNL A   1      33.335  24.084  22.802  1.00  0.00     0.214 C 
BRANCH  79  83
ATOM     83  O   UNL A   1      31.562  27.039  21.276  1.00  0.00    -0.387 OA
ATOM     84  H   UNL A   1      30.619  27.122  21.067  1.00  0.00     0.211 HD
ENDBRANCH  79  83
BRANCH  80  85
ATOM     85  O   UNL A   1      33.021  23.113  25.012  1.00  0.00    -0.454 OA
BRANCH  85  86
ATOM     86  C   UNL A   1      34.207  22.476  25.338  1.00  0.00     0.214 A 
ATOM     87  C   UNL A   1      34.538  21.225  24.940  1.00  0.00     0.181 A 
ATOM     88  C   UNL A   1      35.301  23.303  25.951  1.00  0.00     0.239 A 
ATOM     89  O   UNL A   1      35.752  20.614  25.171  1.00  0.00    -0.452 OA
ATOM     90  C   UNL A   1      36.674  22.722  25.939  1.00  0.00     0.111 A 
ATOM     91  O   UNL A   1      35.055  24.405  26.426  1.00  0.00    -0.285 OA
ATOM     92  C   UNL A   1      36.809  21.390  25.553  1.00  0.00     0.146 A 
ATOM     93  C   UNL A   1      37.835  23.435  26.280  1.00  0.00     0.134 A 
ATOM     94  C   UNL A   1      38.057  20.764  25.528  1.00  0.00     0.094 A 
ATOM     95  C   UNL A   1      39.096  22.818  26.246  1.00  0.00     0.093 A 
ATOM     96  C   UNL A   1      39.192  21.483  25.873  1.00  0.00     0.123 A 
BRANCH  87  97
ATOM     97  C   UNL A   1      33.593  20.306  24.288  1.00  0.00     0.029 A 
ATOM     98  C   UNL A   1      32.815  20.804  23.224  1.00  0.00     0.062 A 
ATOM     99  C   UNL A   1      33.561  18.935  24.596  1.00  0.00     0.062 A 
ATOM    100  C   UNL A   1      32.134  19.919  22.400  1.00  0.00     0.162 A 
ATOM    101  C   UNL A   1      32.861  18.068  23.763  1.00  0.00     0.162 A 
ATOM    102  C   UNL A   1      32.191  18.552  22.645  1.00  0.00     0.200 A 
BRANCH 100 103
ATOM    103  O   UNL A   1      31.492  20.405  21.300  1.00  0.00    -0.504 OA
ATOM    104  H   UNL A   1      30.978  19.831  20.766  1.00  0.00     0.293 HD
ENDBRANCH 100 103
BRANCH 101 105
ATOM    105  O   UNL A   1      32.941  16.724  23.984  1.00  0.00    -0.504 OA
ATOM    106  H   UNL A   1      32.176  16.244  24.237  1.00  0.00     0.293 HD
ENDBRANCH 101 105
BRANCH 102 107
ATOM    107  O   UNL A   1      31.709  17.661  21.726  1.00  0.00    -0.502 OA
ATOM    108  H   UNL A   1      31.270  16.884  22.011  1.00  0.00     0.293 HD
ENDBRANCH 102 107
ENDBRANCH  87  97
BRANCH  93 109
ATOM    109  O   UNL A   1      37.767  24.749  26.644  1.00  0.00    -0.507 OA
ATOM    110  H   UNL A   1      36.986  25.086  27.038  1.00  0.00     0.293 HD
ENDBRANCH  93 109
BRANCH  96 111
ATOM    111  O   UNL A   1      40.388  20.831  25.826  1.00  0.00    -0.508 OA
ATOM    112  H   UNL A   1      40.479  20.057  25.306  1.00  0.00     0.293 HD
ENDBRANCH  96 111
ENDBRANCH  85  86
ENDBRANCH  80  85
BRANCH  81 113
ATOM    113  O   UNL A   1      32.873  24.586  20.490  1.00  0.00    -0.387 OA
ATOM    114  H   UNL A   1      32.019  24.845  20.108  1.00  0.00     0.211 HD
ENDBRANCH  81 113
BRANCH  82 115
ATOM    115  O   UNL A   1      34.695  23.676  22.611  1.00  0.00    -0.384 OA
ATOM    116  H   UNL A   1      35.168  23.722  23.457  1.00  0.00     0.211 HD
ENDBRANCH  82 115
ENDBRANCH  74  77
ENDBRANCH   1  73
TORSDOF 21
ENDMDL
