MODEL 1
REMARK VINA RESULT:     -12.3      0.000      0.000
REMARK SMILES CCOc1ccc(Nc2nc(-c3cccs3)c(CC(=O)NCCCNC(=O)c3ccc(-c4c5nc(c(-c6c(F)c(F)c(F)c(F)c6F)c6ccc([nH]6)c(-c6c(F)c(F)c(F)c(F)c6F)c6nc(c(-c7c(F)c(F)c(F)c(F)c7F)c7ccc4[nH]7)C=C6)C=C5)cc3)s2)cc1
REMARK SMILES IDX 19 1 20 2 21 3 18 5 17 6 9 7 10 8 91 9 11 10 8 11 7 13 4 14
REMARK SMILES IDX 5 15 93 16 6 17 92 18 3 19 2 20 1 21 12 22 13 23 16 24 14 25
REMARK SMILES IDX 15 26 22 27 23 28 24 29 25 30 26 31 27 33 28 34 29 35 90 36
REMARK SMILES IDX 30 37 89 38 31 39 32 40 33 41 83 42 34 43 88 44 82 45 84 46
REMARK SMILES IDX 35 47 87 48 81 49 80 50 36 52 68 53 48 54 67 55 49 56 52 57
REMARK SMILES IDX 66 58 85 59 50 60 51 61 65 63 86 64 53 65 37 66 38 67 46 68
REMARK SMILES IDX 39 69 40 70 44 71 47 72 41 73 42 74 45 75 43 76 69 77 70 78
REMARK SMILES IDX 78 79 71 80 72 81 76 82 79 83 73 84 74 85 77 86 75 87 54 88
REMARK SMILES IDX 55 89 63 90 56 91 57 92 61 93 64 94 58 95 59 96 62 97 60 98
REMARK H PARENT 21 4 8 12 25 32 84 51 52 62
REMARK Flexibility Score: inf
ROOT
ATOM      1  C   UNL A   1      32.090  28.252  26.801  1.00  0.00     0.225 C 
ATOM      2  O   UNL A   1      31.618  27.395  27.551  1.00  0.00    -0.275 OA
ATOM      3  N   UNL A   1      31.403  29.425  26.659  1.00  0.00    -0.356 N 
ATOM      4  H   UNL A   1      30.589  29.503  27.207  1.00  0.00     0.163 HD
ENDROOT
BRANCH   1   5
ATOM      5  C   UNL A   1      33.425  28.046  26.105  1.00  0.00     0.149 C 
BRANCH   5   6
ATOM      6  C   UNL A   1      33.387  26.913  25.126  1.00  0.00     0.045 A 
ATOM      7  C   UNL A   1      33.773  24.804  23.955  1.00  0.00     0.188 A 
ATOM      8  N   UNL A   1      32.749  25.436  23.431  1.00  0.00    -0.219 NA
ATOM      9  S   UNL A   1      34.453  25.574  25.334  1.00  0.00    -0.101 S 
ATOM     10  C   UNL A   1      32.570  26.669  24.033  1.00  0.00     0.097 A 
BRANCH   7  11
ATOM     11  N   UNL A   1      34.308  23.647  23.505  1.00  0.00    -0.332 N 
ATOM     12  H   UNL A   1      35.139  23.705  22.981  1.00  0.00     0.169 HD
BRANCH  11  13
ATOM     13  C   UNL A   1      33.766  22.363  23.728  1.00  0.00     0.040 A 
ATOM     14  C   UNL A   1      32.861  19.731  24.125  1.00  0.00     0.119 A 
ATOM     15  C   UNL A   1      32.183  20.571  23.250  1.00  0.00     0.048 A 
ATOM     16  C   UNL A   1      33.971  20.197  24.822  1.00  0.00     0.048 A 
ATOM     17  C   UNL A   1      32.621  21.887  23.072  1.00  0.00     0.030 A 
ATOM     18  C   UNL A   1      34.405  21.512  24.640  1.00  0.00     0.030 A 
BRANCH  14  19
ATOM     19  O   UNL A   1      32.500  18.415  24.171  1.00  0.00    -0.494 OA
BRANCH  19  20
ATOM     20  C   UNL A   1      32.933  17.674  23.026  1.00  0.00     0.226 C 
ATOM     21  C   UNL A   1      33.968  16.630  23.410  1.00  0.00     0.049 C 
ENDBRANCH  19  20
ENDBRANCH  14  19
ENDBRANCH  11  13
ENDBRANCH   7  11
BRANCH  10  22
ATOM     22  C   UNL A   1      31.482  27.570  23.523  1.00  0.00     0.054 A 
ATOM     23  C   UNL A   1      31.746  28.713  22.795  1.00  0.00     0.022 A 
ATOM     24  S   UNL A   1      29.807  27.348  23.757  1.00  0.00    -0.142 S 
ATOM     25  C   UNL A   1      30.555  29.353  22.344  1.00  0.00     0.012 A 
ATOM     26  C   UNL A   1      29.425  28.727  22.824  1.00  0.00     0.065 A 
ENDBRANCH  10  22
ENDBRANCH   5   6
ENDBRANCH   1   5
BRANCH   3  27
ATOM     27  C   UNL A   1      31.697  30.571  25.820  1.00  0.00     0.117 C 
BRANCH  27  28
ATOM     28  C   UNL A   1      31.429  31.891  26.539  1.00  0.00     0.042 C 
BRANCH  28  29
ATOM     29  C   UNL A   1      32.663  32.478  27.219  1.00  0.00     0.118 C 
BRANCH  29  30
ATOM     30  N   UNL A   1      32.482  33.877  27.583  1.00  0.00    -0.352 N 
ATOM     31  C   UNL A   1      33.094  34.624  28.554  1.00  0.00     0.251 C 
ATOM     32  H   UNL A   1      31.814  34.362  27.048  1.00  0.00     0.163 HD
ATOM     33  O   UNL A   1      32.650  35.743  28.824  1.00  0.00    -0.269 OA
BRANCH  31  34
ATOM     34  C   UNL A   1      34.266  34.109  29.291  1.00  0.00     0.039 A 
ATOM     35  C   UNL A   1      34.051  33.342  30.441  1.00  0.00     0.014 A 
ATOM     36  C   UNL A   1      35.570  34.408  28.888  1.00  0.00     0.014 A 
ATOM     37  C   UNL A   1      35.139  32.828  31.150  1.00  0.00     0.010 A 
ATOM     38  C   UNL A   1      36.653  33.836  29.553  1.00  0.00     0.010 A 
ATOM     39  C   UNL A   1      36.449  33.042  30.692  1.00  0.00    -0.014 A 
BRANCH  39  40
ATOM     40  C   UNL A   1      37.615  32.436  31.384  1.00  0.00     0.031 A 
ATOM     41  C   UNL A   1      38.357  31.286  30.762  1.00  0.00     0.074 A 
ATOM     42  C   UNL A   1      37.963  32.880  32.608  1.00  0.00     0.049 A 
ATOM     43  N   UNL A   1      39.346  30.579  31.247  1.00  0.00    -0.248 NA
ATOM     44  C   UNL A   1      37.913  30.861  29.426  1.00  0.00     0.031 C 
ATOM     45  C   UNL A   1      37.294  33.961  33.335  1.00  0.00     0.029 A 
ATOM     46  N   UNL A   1      38.957  32.470  33.462  1.00  0.00    -0.354 N 
ATOM     47  C   UNL A   1      39.630  29.617  30.287  1.00  0.00     0.074 A 
ATOM     48  C   UNL A   1      38.678  29.800  29.211  1.00  0.00     0.031 C 
ATOM     49  C   UNL A   1      37.908  34.140  34.516  1.00  0.00     0.029 A 
ATOM     50  C   UNL A   1      38.983  33.161  34.647  1.00  0.00     0.049 A 
ATOM     51  H   UNL A   1      39.591  31.749  33.244  1.00  0.00     0.167 HD
ATOM     52  C   UNL A   1      40.610  28.682  30.291  1.00  0.00     0.037 A 
ATOM     53  C   UNL A   1      39.775  33.015  35.726  1.00  0.00     0.037 A 
ATOM     54  C   UNL A   1      41.567  28.517  31.355  1.00  0.00     0.049 A 
ATOM     55  C   UNL A   1      40.846  31.957  35.712  1.00  0.00     0.074 A 
ATOM     56  C   UNL A   1      42.635  27.638  31.425  1.00  0.00     0.029 A 
ATOM     57  N   UNL A   1      41.569  29.243  32.536  1.00  0.00    -0.354 N 
ATOM     58  N   UNL A   1      41.149  31.098  34.769  1.00  0.00    -0.248 NA
ATOM     59  C   UNL A   1      41.687  31.852  36.912  1.00  0.00     0.031 C 
ATOM     60  C   UNL A   1      43.251  27.797  32.672  1.00  0.00     0.029 A 
ATOM     61  C   UNL A   1      42.603  28.813  33.354  1.00  0.00     0.049 A 
ATOM     62  H   UNL A   1      40.931  29.959  32.761  1.00  0.00     0.167 HD
ATOM     63  C   UNL A   1      42.228  30.370  35.249  1.00  0.00     0.074 A 
ATOM     64  C   UNL A   1      42.540  30.900  36.561  1.00  0.00     0.031 C 
ATOM     65  C   UNL A   1      42.902  29.353  34.657  1.00  0.00     0.037 A 
BRANCH  52  66
ATOM     66  C   UNL A   1      40.696  27.758  29.109  1.00  0.00     0.064 A 
ATOM     67  C   UNL A   1      39.849  26.646  28.980  1.00  0.00     0.173 A 
ATOM     68  C   UNL A   1      41.607  28.010  28.072  1.00  0.00     0.173 A 
ATOM     69  F   UNL A   1      38.966  26.353  29.947  1.00  0.00    -0.203 F 
ATOM     70  C   UNL A   1      39.934  25.804  27.873  1.00  0.00     0.198 A 
ATOM     71  C   UNL A   1      41.667  27.185  26.952  1.00  0.00     0.198 A 
ATOM     72  F   UNL A   1      42.435  29.065  28.140  1.00  0.00    -0.203 F 
ATOM     73  F   UNL A   1      39.151  24.720  27.798  1.00  0.00    -0.200 F 
ATOM     74  C   UNL A   1      40.837  26.078  26.858  1.00  0.00     0.200 A 
ATOM     75  F   UNL A   1      42.530  27.460  25.964  1.00  0.00    -0.200 F 
ATOM     76  F   UNL A   1      40.911  25.272  25.790  1.00  0.00    -0.200 F 
ENDBRANCH  52  66
BRANCH  53  77
ATOM     77  C   UNL A   1      39.597  33.903  36.904  1.00  0.00     0.064 A 
ATOM     78  C   UNL A   1      38.831  33.493  38.004  1.00  0.00     0.173 A 
ATOM     79  C   UNL A   1      40.182  35.177  36.954  1.00  0.00     0.173 A 
ATOM     80  F   UNL A   1      38.234  32.292  37.995  1.00  0.00    -0.203 F 
ATOM     81  C   UNL A   1      38.639  34.331  39.101  1.00  0.00     0.198 A 
ATOM     82  C   UNL A   1      40.014  36.003  38.064  1.00  0.00     0.198 A 
ATOM     83  F   UNL A   1      40.926  35.616  35.929  1.00  0.00    -0.203 F 
ATOM     84  F   UNL A   1      37.863  33.933  40.118  1.00  0.00    -0.200 F 
ATOM     85  C   UNL A   1      39.236  35.583  39.133  1.00  0.00     0.200 A 
ATOM     86  F   UNL A   1      40.603  37.205  38.096  1.00  0.00    -0.200 F 
ATOM     87  F   UNL A   1      39.054  36.388  40.188  1.00  0.00    -0.200 F 
ENDBRANCH  53  77
BRANCH  65  88
ATOM     88  C   UNL A   1      44.061  28.766  35.409  1.00  0.00     0.064 A 
ATOM     89  C   UNL A   1      43.891  27.720  36.328  1.00  0.00     0.173 A 
ATOM     90  C   UNL A   1      45.365  29.233  35.181  1.00  0.00     0.173 A 
ATOM     91  F   UNL A   1      42.664  27.248  36.593  1.00  0.00    -0.203 F 
ATOM     92  C   UNL A   1      44.980  27.182  37.010  1.00  0.00     0.198 A 
ATOM     93  C   UNL A   1      46.455  28.671  35.841  1.00  0.00     0.198 A 
ATOM     94  F   UNL A   1      45.584  30.229  34.308  1.00  0.00    -0.203 F 
ATOM     95  F   UNL A   1      44.786  26.218  37.920  1.00  0.00    -0.200 F 
ATOM     96  C   UNL A   1      46.260  27.652  36.760  1.00  0.00     0.200 A 
ATOM     97  F   UNL A   1      47.693  29.117  35.587  1.00  0.00    -0.200 F 
ATOM     98  F   UNL A   1      47.307  27.128  37.412  1.00  0.00    -0.200 F 
ENDBRANCH  65  88
ENDBRANCH  39  40
ENDBRANCH  31  34
ENDBRANCH  29  30
ENDBRANCH  28  29
ENDBRANCH  27  28
ENDBRANCH   3  27
TORSDOF 16
ENDMDL
MODEL 2
REMARK VINA RESULT:     -12.1      5.437     11.253
REMARK SMILES CCOc1ccc(Nc2nc(-c3cccs3)c(CC(=O)NCCCNC(=O)c3ccc(-c4c5nc(c(-c6c(F)c(F)c(F)c(F)c6F)c6ccc([nH]6)c(-c6c(F)c(F)c(F)c(F)c6F)c6nc(c(-c7c(F)c(F)c(F)c(F)c7F)c7ccc4[nH]7)C=C6)C=C5)cc3)s2)cc1
REMARK SMILES IDX 19 1 20 2 21 3 18 5 17 6 9 7 10 8 91 9 11 10 8 11 7 13 4 14
REMARK SMILES IDX 5 15 93 16 6 17 92 18 3 19 2 20 1 21 12 22 13 23 16 24 14 25
REMARK SMILES IDX 15 26 22 27 23 28 24 29 25 30 26 31 27 33 28 34 29 35 90 36
REMARK SMILES IDX 30 37 89 38 31 39 32 40 33 41 83 42 34 43 88 44 82 45 84 46
REMARK SMILES IDX 35 47 87 48 81 49 80 50 36 52 68 53 48 54 67 55 49 56 52 57
REMARK SMILES IDX 66 58 85 59 50 60 51 61 65 63 86 64 53 65 37 66 38 67 46 68
REMARK SMILES IDX 39 69 40 70 44 71 47 72 41 73 42 74 45 75 43 76 69 77 70 78
REMARK SMILES IDX 78 79 71 80 72 81 76 82 79 83 73 84 74 85 77 86 75 87 54 88
REMARK SMILES IDX 55 89 63 90 56 91 57 92 61 93 64 94 58 95 59 96 62 97 60 98
REMARK H PARENT 21 4 8 12 25 32 84 51 52 62
REMARK Flexibility Score: inf
ROOT
ATOM      1  C   UNL A   1      35.686  22.391  25.991  1.00  0.00     0.225 C 
ATOM      2  O   UNL A   1      35.898  23.603  26.064  1.00  0.00    -0.275 OA
ATOM      3  N   UNL A   1      36.574  21.629  25.286  1.00  0.00    -0.356 N 
ATOM      4  H   UNL A   1      37.346  22.117  24.916  1.00  0.00     0.163 HD
ENDROOT
BRANCH   1   5
ATOM      5  C   UNL A   1      34.514  21.748  26.713  1.00  0.00     0.149 C 
BRANCH   5   6
ATOM      6  C   UNL A   1      33.194  22.222  26.190  1.00  0.00     0.045 A 
ATOM      7  C   UNL A   1      31.213  23.554  25.667  1.00  0.00     0.188 A 
ATOM      8  N   UNL A   1      31.229  22.458  24.946  1.00  0.00    -0.219 NA
ATOM      9  S   UNL A   1      32.600  23.772  26.659  1.00  0.00    -0.101 S 
ATOM     10  C   UNL A   1      32.303  21.656  25.290  1.00  0.00     0.097 A 
BRANCH   7  11
ATOM     11  N   UNL A   1      30.227  24.478  25.688  1.00  0.00    -0.332 N 
ATOM     12  H   UNL A   1      29.403  24.252  26.177  1.00  0.00     0.169 HD
BRANCH  11  13
ATOM     13  C   UNL A   1      30.287  25.741  25.061  1.00  0.00     0.040 A 
ATOM     14  C   UNL A   1      30.385  28.339  23.991  1.00  0.00     0.119 A 
ATOM     15  C   UNL A   1      29.465  27.421  23.497  1.00  0.00     0.048 A 
ATOM     16  C   UNL A   1      31.271  27.969  24.996  1.00  0.00     0.048 A 
ATOM     17  C   UNL A   1      29.435  26.122  24.014  1.00  0.00     0.030 A 
ATOM     18  C   UNL A   1      31.236  26.670  25.512  1.00  0.00     0.030 A 
BRANCH  14  19
ATOM     19  O   UNL A   1      30.297  29.635  23.570  1.00  0.00    -0.494 OA
BRANCH  19  20
ATOM     20  C   UNL A   1      28.985  29.992  23.124  1.00  0.00     0.226 C 
ATOM     21  C   UNL A   1      28.694  31.458  23.402  1.00  0.00     0.049 C 
ENDBRANCH  19  20
ENDBRANCH  14  19
ENDBRANCH  11  13
ENDBRANCH   7  11
BRANCH  10  22
ATOM     22  C   UNL A   1      32.455  20.323  24.615  1.00  0.00     0.054 A 
ATOM     23  C   UNL A   1      32.229  20.147  23.265  1.00  0.00     0.022 A 
ATOM     24  S   UNL A   1      32.905  18.863  25.373  1.00  0.00    -0.142 S 
ATOM     25  C   UNL A   1      32.525  18.819  22.838  1.00  0.00     0.012 A 
ATOM     26  C   UNL A   1      32.876  18.007  23.895  1.00  0.00     0.065 A 
ENDBRANCH  10  22
ENDBRANCH   5   6
ENDBRANCH   1   5
BRANCH   3  27
ATOM     27  C   UNL A   1      36.548  20.207  25.001  1.00  0.00     0.117 C 
BRANCH  27  28
ATOM     28  C   UNL A   1      37.946  19.647  24.745  1.00  0.00     0.042 C 
BRANCH  28  29
ATOM     29  C   UNL A   1      38.967  20.046  25.805  1.00  0.00     0.118 C 
BRANCH  29  30
ATOM     30  N   UNL A   1      40.052  19.081  25.921  1.00  0.00    -0.352 N 
ATOM     31  C   UNL A   1      41.397  19.277  26.084  1.00  0.00     0.251 C 
ATOM     32  H   UNL A   1      39.775  18.137  25.872  1.00  0.00     0.163 HD
ATOM     33  O   UNL A   1      42.167  18.321  25.961  1.00  0.00    -0.269 OA
BRANCH  31  34
ATOM     34  C   UNL A   1      41.943  20.615  26.393  1.00  0.00     0.039 A 
ATOM     35  C   UNL A   1      42.193  21.498  25.337  1.00  0.00     0.014 A 
ATOM     36  C   UNL A   1      42.250  20.992  27.703  1.00  0.00     0.014 A 
ATOM     37  C   UNL A   1      42.693  22.775  25.600  1.00  0.00     0.010 A 
ATOM     38  C   UNL A   1      42.682  22.290  27.971  1.00  0.00     0.010 A 
ATOM     39  C   UNL A   1      42.910  23.194  26.922  1.00  0.00    -0.014 A 
BRANCH  39  40
ATOM     40  C   UNL A   1      43.364  24.575  27.226  1.00  0.00     0.031 A 
ATOM     41  C   UNL A   1      42.402  25.587  27.785  1.00  0.00     0.074 A 
ATOM     42  C   UNL A   1      44.629  24.935  26.936  1.00  0.00     0.049 A 
ATOM     43  N   UNL A   1      42.592  26.857  28.040  1.00  0.00    -0.248 NA
ATOM     44  C   UNL A   1      41.040  25.114  28.071  1.00  0.00     0.031 C 
ATOM     45  C   UNL A   1      45.645  24.056  26.353  1.00  0.00     0.029 A 
ATOM     46  N   UNL A   1      45.275  26.139  27.080  1.00  0.00    -0.354 N 
ATOM     47  C   UNL A   1      41.373  27.336  28.500  1.00  0.00     0.074 A 
ATOM     48  C   UNL A   1      40.437  26.234  28.443  1.00  0.00     0.031 C 
ATOM     49  C   UNL A   1      46.788  24.744  26.206  1.00  0.00     0.029 A 
ATOM     50  C   UNL A   1      46.576  26.120  26.644  1.00  0.00     0.049 A 
ATOM     51  H   UNL A   1      44.845  26.938  27.460  1.00  0.00     0.167 HD
ATOM     52  C   UNL A   1      41.068  28.577  28.951  1.00  0.00     0.037 A 
ATOM     53  C   UNL A   1      47.492  27.105  26.589  1.00  0.00     0.037 A 
ATOM     54  C   UNL A   1      42.009  29.666  29.025  1.00  0.00     0.049 A 
ATOM     55  C   UNL A   1      47.123  28.479  27.080  1.00  0.00     0.074 A 
ATOM     56  C   UNL A   1      41.813  30.943  29.522  1.00  0.00     0.029 A 
ATOM     57  N   UNL A   1      43.323  29.606  28.583  1.00  0.00    -0.354 N 
ATOM     58  N   UNL A   1      45.986  28.903  27.577  1.00  0.00    -0.248 NA
ATOM     59  C   UNL A   1      48.168  29.510  27.007  1.00  0.00     0.031 C 
ATOM     60  C   UNL A   1      42.992  31.672  29.333  1.00  0.00     0.029 A 
ATOM     61  C   UNL A   1      43.940  30.833  28.771  1.00  0.00     0.049 A 
ATOM     62  H   UNL A   1      43.752  28.811  28.193  1.00  0.00     0.167 HD
ATOM     63  C   UNL A   1      46.185  30.238  27.899  1.00  0.00     0.074 A 
ATOM     64  C   UNL A   1      47.558  30.551  27.557  1.00  0.00     0.031 C 
ATOM     65  C   UNL A   1      45.309  31.128  28.429  1.00  0.00     0.037 A 
BRANCH  52  66
ATOM     66  C   UNL A   1      39.656  28.828  29.398  1.00  0.00     0.064 A 
ATOM     67  C   UNL A   1      39.270  28.682  30.739  1.00  0.00     0.173 A 
ATOM     68  C   UNL A   1      38.685  29.260  28.481  1.00  0.00     0.173 A 
ATOM     69  F   UNL A   1      40.156  28.262  31.655  1.00  0.00    -0.203 F 
ATOM     70  C   UNL A   1      37.959  28.927  31.140  1.00  0.00     0.198 A 
ATOM     71  C   UNL A   1      37.383  29.536  28.891  1.00  0.00     0.198 A 
ATOM     72  F   UNL A   1      39.001  29.425  27.187  1.00  0.00    -0.203 F 
ATOM     73  F   UNL A   1      37.603  28.731  32.416  1.00  0.00    -0.200 F 
ATOM     74  C   UNL A   1      37.019  29.361  30.217  1.00  0.00     0.200 A 
ATOM     75  F   UNL A   1      36.479  29.969  28.001  1.00  0.00    -0.200 F 
ATOM     76  F   UNL A   1      35.759  29.605  30.606  1.00  0.00    -0.200 F 
ENDBRANCH  52  66
BRANCH  53  77
ATOM     77  C   UNL A   1      48.854  26.825  26.063  1.00  0.00     0.064 A 
ATOM     78  C   UNL A   1      49.147  26.992  24.703  1.00  0.00     0.173 A 
ATOM     79  C   UNL A   1      49.884  26.381  26.903  1.00  0.00     0.173 A 
ATOM     80  F   UNL A   1      48.189  27.394  23.855  1.00  0.00    -0.203 F 
ATOM     81  C   UNL A   1      50.414  26.705  24.199  1.00  0.00     0.198 A 
ATOM     82  C   UNL A   1      51.160  26.123  26.405  1.00  0.00     0.198 A 
ATOM     83  F   UNL A   1      49.657  26.207  28.213  1.00  0.00    -0.203 F 
ATOM     84  F   UNL A   1      50.655  26.828  22.886  1.00  0.00    -0.200 F 
ATOM     85  C   UNL A   1      51.421  26.278  25.051  1.00  0.00     0.200 A 
ATOM     86  F   UNL A   1      52.133  25.723  27.233  1.00  0.00    -0.200 F 
ATOM     87  F   UNL A   1      52.641  26.005  24.567  1.00  0.00    -0.200 F 
ENDBRANCH  53  77
BRANCH  65  88
ATOM     88  C   UNL A   1      45.817  32.514  28.700  1.00  0.00     0.064 A 
ATOM     89  C   UNL A   1      45.694  33.543  27.755  1.00  0.00     0.173 A 
ATOM     90  C   UNL A   1      46.402  32.826  29.938  1.00  0.00     0.173 A 
ATOM     91  F   UNL A   1      45.156  33.294  26.552  1.00  0.00    -0.203 F 
ATOM     92  C   UNL A   1      46.163  34.826  28.028  1.00  0.00     0.198 A 
ATOM     93  C   UNL A   1      46.840  34.117  30.219  1.00  0.00     0.198 A 
ATOM     94  F   UNL A   1      46.539  31.880  30.879  1.00  0.00    -0.203 F 
ATOM     95  F   UNL A   1      46.080  35.780  27.091  1.00  0.00    -0.200 F 
ATOM     96  C   UNL A   1      46.728  35.113  29.262  1.00  0.00     0.200 A 
ATOM     97  F   UNL A   1      47.373  34.397  31.417  1.00  0.00    -0.200 F 
ATOM     98  F   UNL A   1      47.171  36.350  29.526  1.00  0.00    -0.200 F 
ENDBRANCH  65  88
ENDBRANCH  39  40
ENDBRANCH  31  34
ENDBRANCH  29  30
ENDBRANCH  28  29
ENDBRANCH  27  28
ENDBRANCH   3  27
TORSDOF 16
ENDMDL
MODEL 3
REMARK VINA RESULT:     -12.1      1.339      2.570
REMARK SMILES CCOc1ccc(Nc2nc(-c3cccs3)c(CC(=O)NCCCNC(=O)c3ccc(-c4c5nc(c(-c6c(F)c(F)c(F)c(F)c6F)c6ccc([nH]6)c(-c6c(F)c(F)c(F)c(F)c6F)c6nc(c(-c7c(F)c(F)c(F)c(F)c7F)c7ccc4[nH]7)C=C6)C=C5)cc3)s2)cc1
REMARK SMILES IDX 19 1 20 2 21 3 18 5 17 6 9 7 10 8 91 9 11 10 8 11 7 13 4 14
REMARK SMILES IDX 5 15 93 16 6 17 92 18 3 19 2 20 1 21 12 22 13 23 16 24 14 25
REMARK SMILES IDX 15 26 22 27 23 28 24 29 25 30 26 31 27 33 28 34 29 35 90 36
REMARK SMILES IDX 30 37 89 38 31 39 32 40 33 41 83 42 34 43 88 44 82 45 84 46
REMARK SMILES IDX 35 47 87 48 81 49 80 50 36 52 68 53 48 54 67 55 49 56 52 57
REMARK SMILES IDX 66 58 85 59 50 60 51 61 65 63 86 64 53 65 37 66 38 67 46 68
REMARK SMILES IDX 39 69 40 70 44 71 47 72 41 73 42 74 45 75 43 76 69 77 70 78
REMARK SMILES IDX 78 79 71 80 72 81 76 82 79 83 73 84 74 85 77 86 75 87 54 88
REMARK SMILES IDX 55 89 63 90 56 91 57 92 61 93 64 94 58 95 59 96 62 97 60 98
REMARK H PARENT 21 4 8 12 25 32 84 51 52 62
REMARK Flexibility Score: inf
ROOT
ATOM      1  C   UNL A   1      32.050  28.609  26.926  1.00  0.00     0.225 C 
ATOM      2  O   UNL A   1      31.763  27.791  27.803  1.00  0.00    -0.275 OA
ATOM      3  N   UNL A   1      31.440  29.831  26.968  1.00  0.00    -0.356 N 
ATOM      4  H   UNL A   1      30.836  29.972  27.733  1.00  0.00     0.163 HD
ENDROOT
BRANCH   1   5
ATOM      5  C   UNL A   1      33.094  28.299  25.867  1.00  0.00     0.149 C 
BRANCH   5   6
ATOM      6  C   UNL A   1      32.844  26.990  25.186  1.00  0.00     0.045 A 
ATOM      7  C   UNL A   1      32.889  24.639  24.520  1.00  0.00     0.188 A 
ATOM      8  N   UNL A   1      31.896  25.262  23.930  1.00  0.00    -0.219 NA
ATOM      9  S   UNL A   1      33.772  25.607  25.633  1.00  0.00    -0.101 S 
ATOM     10  C   UNL A   1      31.908  26.612  24.235  1.00  0.00     0.097 A 
BRANCH   7  11
ATOM     11  N   UNL A   1      33.251  23.353  24.321  1.00  0.00    -0.332 N 
ATOM     12  H   UNL A   1      32.571  22.739  23.960  1.00  0.00     0.169 HD
BRANCH  11  13
ATOM     13  C   UNL A   1      34.531  22.821  24.592  1.00  0.00     0.040 A 
ATOM     14  C   UNL A   1      37.073  21.676  24.955  1.00  0.00     0.119 A 
ATOM     15  C   UNL A   1      36.072  21.450  25.892  1.00  0.00     0.048 A 
ATOM     16  C   UNL A   1      36.827  22.485  23.851  1.00  0.00     0.048 A 
ATOM     17  C   UNL A   1      34.816  22.040  25.722  1.00  0.00     0.030 A 
ATOM     18  C   UNL A   1      35.569  23.071  23.684  1.00  0.00     0.030 A 
BRANCH  14  19
ATOM     19  O   UNL A   1      38.239  20.975  25.070  1.00  0.00    -0.494 OA
BRANCH  19  20
ATOM     20  C   UNL A   1      39.163  21.570  25.987  1.00  0.00     0.226 C 
ATOM     21  C   UNL A   1      40.305  20.620  26.306  1.00  0.00     0.049 C 
ENDBRANCH  19  20
ENDBRANCH  14  19
ENDBRANCH  11  13
ENDBRANCH   7  11
BRANCH  10  22
ATOM     22  C   UNL A   1      30.882  27.505  23.599  1.00  0.00     0.054 A 
ATOM     23  C   UNL A   1      29.529  27.239  23.658  1.00  0.00     0.022 A 
ATOM     24  S   UNL A   1      31.204  28.935  22.726  1.00  0.00    -0.142 S 
ATOM     25  C   UNL A   1      28.750  28.274  23.063  1.00  0.00     0.012 A 
ATOM     26  C   UNL A   1      29.541  29.246  22.490  1.00  0.00     0.065 A 
ENDBRANCH  10  22
ENDBRANCH   5   6
ENDBRANCH   1   5
BRANCH   3  27
ATOM     27  C   UNL A   1      31.551  30.950  26.052  1.00  0.00     0.117 C 
BRANCH  27  28
ATOM     28  C   UNL A   1      31.347  32.290  26.757  1.00  0.00     0.042 C 
BRANCH  28  29
ATOM     29  C   UNL A   1      32.651  32.969  27.167  1.00  0.00     0.118 C 
BRANCH  29  30
ATOM     30  N   UNL A   1      32.439  34.323  27.661  1.00  0.00    -0.352 N 
ATOM     31  C   UNL A   1      33.026  34.986  28.705  1.00  0.00     0.251 C 
ATOM     32  H   UNL A   1      31.765  34.844  27.167  1.00  0.00     0.163 HD
ATOM     33  O   UNL A   1      32.558  36.065  29.076  1.00  0.00    -0.269 OA
BRANCH  31  34
ATOM     34  C   UNL A   1      34.202  34.425  29.402  1.00  0.00     0.039 A 
ATOM     35  C   UNL A   1      34.011  33.781  30.629  1.00  0.00     0.014 A 
ATOM     36  C   UNL A   1      35.492  34.565  28.883  1.00  0.00     0.014 A 
ATOM     37  C   UNL A   1      35.102  33.228  31.303  1.00  0.00     0.010 A 
ATOM     38  C   UNL A   1      36.569  33.951  29.519  1.00  0.00     0.010 A 
ATOM     39  C   UNL A   1      36.385  33.278  30.737  1.00  0.00    -0.014 A 
BRANCH  39  40
ATOM     40  C   UNL A   1      37.544  32.624  31.398  1.00  0.00     0.031 A 
ATOM     41  C   UNL A   1      38.219  31.444  30.759  1.00  0.00     0.074 A 
ATOM     42  C   UNL A   1      37.945  33.056  32.610  1.00  0.00     0.049 A 
ATOM     43  N   UNL A   1      39.190  30.696  31.218  1.00  0.00    -0.248 NA
ATOM     44  C   UNL A   1      37.719  31.034  29.438  1.00  0.00     0.031 C 
ATOM     45  C   UNL A   1      37.344  34.166  33.353  1.00  0.00     0.029 A 
ATOM     46  N   UNL A   1      38.945  32.606  33.437  1.00  0.00    -0.354 N 
ATOM     47  C   UNL A   1      39.406  29.721  30.253  1.00  0.00     0.074 A 
ATOM     48  C   UNL A   1      38.433  29.942  29.205  1.00  0.00     0.031 C 
ATOM     49  C   UNL A   1      37.997  34.321  34.515  1.00  0.00     0.029 A 
ATOM     50  C   UNL A   1      39.034  33.298  34.619  1.00  0.00     0.049 A 
ATOM     51  H   UNL A   1      39.541  31.859  33.203  1.00  0.00     0.167 HD
ATOM     52  C   UNL A   1      40.346  28.745  30.233  1.00  0.00     0.037 A 
ATOM     53  C   UNL A   1      39.849  33.121  35.675  1.00  0.00     0.037 A 
ATOM     54  C   UNL A   1      41.325  28.542  31.269  1.00  0.00     0.049 A 
ATOM     55  C   UNL A   1      40.873  32.019  35.634  1.00  0.00     0.074 A 
ATOM     56  C   UNL A   1      42.356  27.619  31.313  1.00  0.00     0.029 A 
ATOM     57  N   UNL A   1      41.391  29.270  32.448  1.00  0.00    -0.354 N 
ATOM     58  N   UNL A   1      41.113  31.145  34.686  1.00  0.00    -0.248 NA
ATOM     59  C   UNL A   1      41.743  31.880  36.810  1.00  0.00     0.031 C 
ATOM     60  C   UNL A   1      43.013  27.754  32.540  1.00  0.00     0.029 A 
ATOM     61  C   UNL A   1      42.428  28.798  33.238  1.00  0.00     0.049 A 
ATOM     62  H   UNL A   1      40.790  30.012  32.688  1.00  0.00     0.167 HD
ATOM     63  C   UNL A   1      42.174  30.373  35.137  1.00  0.00     0.074 A 
ATOM     64  C   UNL A   1      42.545  30.892  36.438  1.00  0.00     0.031 C 
ATOM     65  C   UNL A   1      42.787  29.327  34.530  1.00  0.00     0.037 A 
BRANCH  52  66
ATOM     66  C   UNL A   1      40.359  27.816  29.052  1.00  0.00     0.064 A 
ATOM     67  C   UNL A   1      41.134  28.083  27.913  1.00  0.00     0.173 A 
ATOM     68  C   UNL A   1      39.620  26.624  29.075  1.00  0.00     0.173 A 
ATOM     69  F   UNL A   1      41.853  29.214  27.835  1.00  0.00    -0.203 F 
ATOM     70  C   UNL A   1      41.144  27.207  26.830  1.00  0.00     0.198 A 
ATOM     71  C   UNL A   1      39.656  25.734  28.004  1.00  0.00     0.198 A 
ATOM     72  F   UNL A   1      38.867  26.314  30.142  1.00  0.00    -0.203 F 
ATOM     73  F   UNL A   1      41.851  27.510  25.733  1.00  0.00    -0.200 F 
ATOM     74  C   UNL A   1      40.411  26.032  26.879  1.00  0.00     0.200 A 
ATOM     75  F   UNL A   1      38.959  24.591  28.058  1.00  0.00    -0.200 F 
ATOM     76  F   UNL A   1      40.428  25.186  25.839  1.00  0.00    -0.200 F 
ENDBRANCH  52  66
BRANCH  53  77
ATOM     77  C   UNL A   1      39.742  34.018  36.855  1.00  0.00     0.064 A 
ATOM     78  C   UNL A   1      40.466  35.217  36.915  1.00  0.00     0.173 A 
ATOM     79  C   UNL A   1      38.922  33.696  37.946  1.00  0.00     0.173 A 
ATOM     80  F   UNL A   1      41.281  35.558  35.906  1.00  0.00    -0.203 F 
ATOM     81  C   UNL A   1      40.389  36.049  38.030  1.00  0.00     0.198 A 
ATOM     82  C   UNL A   1      38.822  34.543  39.047  1.00  0.00     0.198 A 
ATOM     83  F   UNL A   1      38.207  32.561  37.937  1.00  0.00    -0.203 F 
ATOM     84  F   UNL A   1      41.128  37.166  38.082  1.00  0.00    -0.200 F 
ATOM     85  C   UNL A   1      39.563  35.715  39.092  1.00  0.00     0.200 A 
ATOM     86  F   UNL A   1      38.013  34.223  40.065  1.00  0.00    -0.200 F 
ATOM     87  F   UNL A   1      39.487  36.517  40.163  1.00  0.00    -0.200 F 
ENDBRANCH  53  77
BRANCH  65  88
ATOM     88  C   UNL A   1      43.941  28.693  35.251  1.00  0.00     0.064 A 
ATOM     89  C   UNL A   1      45.262  29.120  35.048  1.00  0.00     0.173 A 
ATOM     90  C   UNL A   1      43.718  27.669  36.185  1.00  0.00     0.173 A 
ATOM     91  F   UNL A   1      45.530  30.084  34.156  1.00  0.00    -0.203 F 
ATOM     92  C   UNL A   1      46.319  28.525  35.733  1.00  0.00     0.198 A 
ATOM     93  C   UNL A   1      44.774  27.100  36.891  1.00  0.00     0.198 A 
ATOM     94  F   UNL A   1      42.473  27.228  36.421  1.00  0.00    -0.203 F 
ATOM     95  F   UNL A   1      47.577  28.915  35.486  1.00  0.00    -0.200 F 
ATOM     96  C   UNL A   1      46.073  27.523  36.659  1.00  0.00     0.200 A 
ATOM     97  F   UNL A   1      44.533  26.141  37.796  1.00  0.00    -0.200 F 
ATOM     98  F   UNL A   1      47.091  26.957  37.323  1.00  0.00    -0.200 F 
ENDBRANCH  65  88
ENDBRANCH  39  40
ENDBRANCH  31  34
ENDBRANCH  29  30
ENDBRANCH  28  29
ENDBRANCH  27  28
ENDBRANCH   3  27
TORSDOF 16
ENDMDL
