MODEL 1
REMARK VINA RESULT:     -12.6      0.000      0.000
REMARK SMILES COc1ccc(-c2nc(NCC(=O)NCCCNC(=O)c3ccc(-c4c5nc(c(-c6c(F)c(F)c(F)c(F)c6F)c6ccc([nH]6)c(-c6c(F)c(F)c(F)c(F)c6F)c6nc(c(-c7c(F)c(F)c(F)c(F)c7F)c7ccc4[nH]7)C=C6)C=C5)cc3)sc2-c2ccc(OC)cc2)cc1
REMARK SMILES IDX 15 1 14 2 12 3 13 4 11 6 10 7 9 9 7 10 8 11 85 12 84 13 6 14
REMARK SMILES IDX 3 15 4 16 95 17 5 18 94 19 2 20 1 21 86 22 87 23 93 24 88 25
REMARK SMILES IDX 92 26 89 27 90 28 91 29 16 30 17 31 18 32 19 33 20 35 21 36
REMARK SMILES IDX 22 37 83 38 23 39 82 40 24 41 25 42 26 43 76 44 27 45 81 46
REMARK SMILES IDX 75 47 77 48 28 49 80 50 74 51 73 52 29 54 61 55 41 56 60 57
REMARK SMILES IDX 42 58 45 59 59 60 78 61 43 62 44 63 58 65 79 66 46 67 30 68
REMARK SMILES IDX 31 69 39 70 32 71 33 72 37 73 40 74 34 75 35 76 38 77 36 78
REMARK SMILES IDX 62 79 63 80 71 81 64 82 65 83 69 84 72 85 66 86 67 87 70 88
REMARK SMILES IDX 68 89 47 90 48 91 56 92 49 93 50 94 54 95 57 96 51 97 52 98
REMARK SMILES IDX 55 99 53 100
REMARK H PARENT 14 5 10 8 18 34 77 53 45 64
REMARK Flexibility Score: inf
ROOT
ATOM      1  C   UNL A   1      31.526  30.663  26.116  1.00  0.00     0.117 C 
ENDROOT
BRANCH   1   2
ATOM      2  N   UNL A   1      31.060  30.432  24.763  1.00  0.00    -0.355 N 
ATOM      3  C   UNL A   1      30.902  29.242  24.106  1.00  0.00     0.239 C 
ATOM      4  O   UNL A   1      30.546  29.269  22.926  1.00  0.00    -0.273 OA
ATOM      5  H   UNL A   1      30.826  31.237  24.248  1.00  0.00     0.163 HD
BRANCH   3   6
ATOM      6  C   UNL A   1      31.143  27.919  24.845  1.00  0.00     0.215 C 
BRANCH   6   7
ATOM      7  N   UNL A   1      30.795  26.783  24.010  1.00  0.00    -0.352 N 
ATOM      8  H   UNL A   1      29.982  26.864  23.460  1.00  0.00     0.163 HD
BRANCH   7   9
ATOM      9  C   UNL A   1      31.483  25.627  23.921  1.00  0.00     0.184 A 
ATOM     10  C   UNL A   1      33.220  24.273  24.173  1.00  0.00     0.091 A 
ATOM     11  N   UNL A   1      32.752  25.573  24.254  1.00  0.00    -0.220 NA
ATOM     12  C   UNL A   1      32.270  23.316  23.846  1.00  0.00     0.064 A 
ATOM     13  S   UNL A   1      30.815  24.116  23.428  1.00  0.00    -0.096 S 
BRANCH  10  14
ATOM     14  C   UNL A   1      34.602  23.946  24.491  1.00  0.00     0.002 A 
ATOM     15  C   UNL A   1      37.177  23.094  25.174  1.00  0.00     0.118 A 
ATOM     16  C   UNL A   1      36.704  22.905  23.878  1.00  0.00     0.047 A 
ATOM     17  C   UNL A   1      36.395  23.768  26.114  1.00  0.00     0.047 A 
ATOM     18  C   UNL A   1      35.417  23.321  23.538  1.00  0.00     0.014 A 
ATOM     19  C   UNL A   1      35.109  24.198  25.771  1.00  0.00     0.014 A 
BRANCH  15  20
ATOM     20  O   UNL A   1      38.441  22.638  25.432  1.00  0.00    -0.497 OA
ATOM     21  C   UNL A   1      38.515  21.217  25.534  1.00  0.00     0.278 C 
ENDBRANCH  15  20
ENDBRANCH  10  14
BRANCH  12  22
ATOM     22  C   UNL A   1      32.339  21.852  23.862  1.00  0.00    -0.006 A 
ATOM     23  C   UNL A   1      32.544  21.132  25.044  1.00  0.00     0.013 A 
ATOM     24  C   UNL A   1      32.180  21.139  22.664  1.00  0.00     0.013 A 
ATOM     25  C   UNL A   1      32.567  19.733  25.023  1.00  0.00     0.047 A 
ATOM     26  C   UNL A   1      32.193  19.742  22.646  1.00  0.00     0.047 A 
ATOM     27  C   UNL A   1      32.376  19.032  23.830  1.00  0.00     0.118 A 
BRANCH  27  28
ATOM     28  O   UNL A   1      32.395  17.670  23.950  1.00  0.00    -0.497 OA
ATOM     29  C   UNL A   1      32.579  17.150  25.262  1.00  0.00     0.278 C 
ENDBRANCH  27  28
ENDBRANCH  12  22
ENDBRANCH   7   9
ENDBRANCH   6   7
ENDBRANCH   3   6
ENDBRANCH   1   2
BRANCH   1  30
ATOM     30  C   UNL A   1      31.401  32.129  26.528  1.00  0.00     0.042 C 
BRANCH  30  31
ATOM     31  C   UNL A   1      32.672  32.703  27.147  1.00  0.00     0.118 C 
BRANCH  31  32
ATOM     32  N   UNL A   1      32.492  34.068  27.624  1.00  0.00    -0.352 N 
ATOM     33  C   UNL A   1      33.109  34.743  28.643  1.00  0.00     0.251 C 
ATOM     34  H   UNL A   1      31.817  34.590  27.133  1.00  0.00     0.163 HD
ATOM     35  O   UNL A   1      32.674  35.843  28.989  1.00  0.00    -0.269 OA
BRANCH  33  36
ATOM     36  C   UNL A   1      34.278  34.173  29.347  1.00  0.00     0.039 A 
ATOM     37  C   UNL A   1      34.054  33.339  30.447  1.00  0.00     0.014 A 
ATOM     38  C   UNL A   1      35.587  34.495  28.975  1.00  0.00     0.014 A 
ATOM     39  C   UNL A   1      35.134  32.786  31.139  1.00  0.00     0.010 A 
ATOM     40  C   UNL A   1      36.664  33.894  29.626  1.00  0.00     0.010 A 
ATOM     41  C   UNL A   1      36.448  33.038  30.716  1.00  0.00    -0.014 A 
BRANCH  41  42
ATOM     42  C   UNL A   1      37.606  32.414  31.407  1.00  0.00     0.031 A 
ATOM     43  C   UNL A   1      38.340  31.265  30.773  1.00  0.00     0.074 A 
ATOM     44  C   UNL A   1      37.958  32.846  32.633  1.00  0.00     0.049 A 
ATOM     45  N   UNL A   1      39.328  30.551  31.249  1.00  0.00    -0.248 NA
ATOM     46  C   UNL A   1      37.889  30.850  29.437  1.00  0.00     0.031 C 
ATOM     47  C   UNL A   1      37.297  33.922  33.371  1.00  0.00     0.029 A 
ATOM     48  N   UNL A   1      38.952  32.423  33.479  1.00  0.00    -0.354 N 
ATOM     49  C   UNL A   1      39.603  29.593  30.283  1.00  0.00     0.074 A 
ATOM     50  C   UNL A   1      38.651  29.789  29.210  1.00  0.00     0.031 C 
ATOM     51  C   UNL A   1      37.914  34.088  34.552  1.00  0.00     0.029 A 
ATOM     52  C   UNL A   1      38.989  33.107  34.669  1.00  0.00     0.049 A 
ATOM     53  H   UNL A   1      39.579  31.697  33.255  1.00  0.00     0.167 HD
ATOM     54  C   UNL A   1      40.574  28.648  30.280  1.00  0.00     0.037 A 
ATOM     55  C   UNL A   1      39.796  32.957  35.736  1.00  0.00     0.037 A 
ATOM     56  C   UNL A   1      41.539  28.472  31.335  1.00  0.00     0.049 A 
ATOM     57  C   UNL A   1      40.872  31.906  35.704  1.00  0.00     0.074 A 
ATOM     58  C   UNL A   1      42.597  27.582  31.397  1.00  0.00     0.029 A 
ATOM     59  N   UNL A   1      41.562  29.203  32.513  1.00  0.00    -0.354 N 
ATOM     60  N   UNL A   1      41.162  31.049  34.756  1.00  0.00    -0.248 NA
ATOM     61  C   UNL A   1      41.738  31.810  36.887  1.00  0.00     0.031 C 
ATOM     62  C   UNL A   1      43.237  27.749  32.631  1.00  0.00     0.029 A 
ATOM     63  C   UNL A   1      42.606  28.774  33.317  1.00  0.00     0.049 A 
ATOM     64  H   UNL A   1      40.930  29.922  32.744  1.00  0.00     0.167 HD
ATOM     65  C   UNL A   1      42.259  30.331  35.215  1.00  0.00     0.074 A 
ATOM     66  C   UNL A   1      42.590  30.863  36.521  1.00  0.00     0.031 C 
ATOM     67  C   UNL A   1      42.929  29.321  34.609  1.00  0.00     0.037 A 
BRANCH  54  68
ATOM     68  C   UNL A   1      40.646  27.730  29.095  1.00  0.00     0.064 A 
ATOM     69  C   UNL A   1      39.805  26.613  28.978  1.00  0.00     0.173 A 
ATOM     70  C   UNL A   1      41.542  27.989  28.046  1.00  0.00     0.173 A 
ATOM     71  F   UNL A   1      38.938  26.316  29.957  1.00  0.00    -0.203 F 
ATOM     72  C   UNL A   1      39.876  25.776  27.868  1.00  0.00     0.198 A 
ATOM     73  C   UNL A   1      41.592  27.164  26.925  1.00  0.00     0.198 A 
ATOM     74  F   UNL A   1      42.365  29.047  28.105  1.00  0.00    -0.203 F 
ATOM     75  F   UNL A   1      39.095  24.689  27.799  1.00  0.00    -0.200 F 
ATOM     76  C   UNL A   1      40.765  26.055  26.840  1.00  0.00     0.200 A 
ATOM     77  F   UNL A   1      42.442  27.443  25.927  1.00  0.00    -0.200 F 
ATOM     78  F   UNL A   1      40.827  25.250  25.770  1.00  0.00    -0.200 F 
ENDBRANCH  54  68
BRANCH  55  79
ATOM     79  C   UNL A   1      39.636  33.846  36.916  1.00  0.00     0.064 A 
ATOM     80  C   UNL A   1      38.862  33.448  38.014  1.00  0.00     0.173 A 
ATOM     81  C   UNL A   1      40.254  35.102  36.973  1.00  0.00     0.173 A 
ATOM     82  F   UNL A   1      38.238  32.260  37.998  1.00  0.00    -0.203 F 
ATOM     83  C   UNL A   1      38.696  34.281  39.118  1.00  0.00     0.198 A 
ATOM     84  C   UNL A   1      40.111  35.924  38.089  1.00  0.00     0.198 A 
ATOM     85  F   UNL A   1      41.013  35.525  35.952  1.00  0.00    -0.203 F 
ATOM     86  F   UNL A   1      37.920  33.891  40.138  1.00  0.00    -0.200 F 
ATOM     87  C   UNL A   1      39.326  35.515  39.157  1.00  0.00     0.200 A 
ATOM     88  F   UNL A   1      40.736  37.109  38.132  1.00  0.00    -0.200 F 
ATOM     89  F   UNL A   1      39.175  36.312  40.224  1.00  0.00    -0.200 F 
ENDBRANCH  55  79
BRANCH  67  90
ATOM     90  C   UNL A   1      44.112  28.752  35.334  1.00  0.00     0.064 A 
ATOM     91  C   UNL A   1      45.404  29.268  35.155  1.00  0.00     0.173 A 
ATOM     92  C   UNL A   1      43.946  27.697  36.245  1.00  0.00     0.173 A 
ATOM     93  F   UNL A   1      45.617  30.265  34.283  1.00  0.00    -0.203 F 
ATOM     94  C   UNL A   1      46.490  28.732  35.841  1.00  0.00     0.198 A 
ATOM     95  C   UNL A   1      45.029  27.182  36.950  1.00  0.00     0.198 A 
ATOM     96  F   UNL A   1      42.730  27.173  36.457  1.00  0.00    -0.203 F 
ATOM     97  F   UNL A   1      47.723  29.208  35.619  1.00  0.00    -0.200 F 
ATOM     98  C   UNL A   1      46.301  27.694  36.742  1.00  0.00     0.200 A 
ATOM     99  F   UNL A   1      44.844  26.187  37.829  1.00  0.00    -0.200 F 
ATOM    100  F   UNL A   1      47.348  27.182  37.405  1.00  0.00    -0.200 F 
ENDBRANCH  67  90
ENDBRANCH  41  42
ENDBRANCH  33  36
ENDBRANCH  31  32
ENDBRANCH  30  31
ENDBRANCH   1  30
TORSDOF 16
ENDMDL
MODEL 2
REMARK VINA RESULT:     -12.3      5.150     10.422
REMARK SMILES COc1ccc(-c2nc(NCC(=O)NCCCNC(=O)c3ccc(-c4c5nc(c(-c6c(F)c(F)c(F)c(F)c6F)c6ccc([nH]6)c(-c6c(F)c(F)c(F)c(F)c6F)c6nc(c(-c7c(F)c(F)c(F)c(F)c7F)c7ccc4[nH]7)C=C6)C=C5)cc3)sc2-c2ccc(OC)cc2)cc1
REMARK SMILES IDX 15 1 14 2 12 3 13 4 11 6 10 7 9 9 7 10 8 11 85 12 84 13 6 14
REMARK SMILES IDX 3 15 4 16 95 17 5 18 94 19 2 20 1 21 86 22 87 23 93 24 88 25
REMARK SMILES IDX 92 26 89 27 90 28 91 29 16 30 17 31 18 32 19 33 20 35 21 36
REMARK SMILES IDX 22 37 83 38 23 39 82 40 24 41 25 42 26 43 76 44 27 45 81 46
REMARK SMILES IDX 75 47 77 48 28 49 80 50 74 51 73 52 29 54 61 55 41 56 60 57
REMARK SMILES IDX 42 58 45 59 59 60 78 61 43 62 44 63 58 65 79 66 46 67 30 68
REMARK SMILES IDX 31 69 39 70 32 71 33 72 37 73 40 74 34 75 35 76 38 77 36 78
REMARK SMILES IDX 62 79 63 80 71 81 64 82 65 83 69 84 72 85 66 86 67 87 70 88
REMARK SMILES IDX 68 89 47 90 48 91 56 92 49 93 50 94 54 95 57 96 51 97 52 98
REMARK SMILES IDX 55 99 53 100
REMARK H PARENT 14 5 10 8 18 34 77 53 45 64
REMARK Flexibility Score: inf
ROOT
ATOM      1  C   UNL A   1      42.034  19.618  27.322  1.00  0.00     0.117 C 
ENDROOT
BRANCH   1   2
ATOM      2  N   UNL A   1      42.883  18.717  26.566  1.00  0.00    -0.355 N 
ATOM      3  C   UNL A   1      43.738  19.009  25.538  1.00  0.00     0.239 C 
ATOM      4  O   UNL A   1      44.328  18.078  24.988  1.00  0.00    -0.273 OA
ATOM      5  H   UNL A   1      42.838  17.769  26.827  1.00  0.00     0.163 HD
BRANCH   3   6
ATOM      6  C   UNL A   1      43.959  20.467  25.115  1.00  0.00     0.215 C 
BRANCH   6   7
ATOM      7  N   UNL A   1      45.095  21.046  25.809  1.00  0.00    -0.352 N 
ATOM      8  H   UNL A   1      45.758  20.422  26.182  1.00  0.00     0.163 HD
BRANCH   7   9
ATOM      9  C   UNL A   1      45.322  22.363  25.991  1.00  0.00     0.184 A 
ATOM     10  C   UNL A   1      46.473  24.256  25.908  1.00  0.00     0.091 A 
ATOM     11  N   UNL A   1      46.502  22.882  25.742  1.00  0.00    -0.220 NA
ATOM     12  C   UNL A   1      45.231  24.794  26.215  1.00  0.00     0.064 A 
ATOM     13  S   UNL A   1      44.139  23.507  26.505  1.00  0.00    -0.096 S 
BRANCH  10  14
ATOM     14  C   UNL A   1      47.660  25.068  25.692  1.00  0.00     0.002 A 
ATOM     15  C   UNL A   1      50.057  26.425  25.200  1.00  0.00     0.118 A 
ATOM     16  C   UNL A   1      49.095  26.329  24.197  1.00  0.00     0.047 A 
ATOM     17  C   UNL A   1      49.800  25.904  26.469  1.00  0.00     0.047 A 
ATOM     18  C   UNL A   1      47.903  25.646  24.438  1.00  0.00     0.014 A 
ATOM     19  C   UNL A   1      48.600  25.230  26.716  1.00  0.00     0.014 A 
BRANCH  15  20
ATOM     20  O   UNL A   1      51.206  27.092  24.876  1.00  0.00    -0.497 OA
ATOM     21  C   UNL A   1      51.013  28.091  23.876  1.00  0.00     0.278 C 
ENDBRANCH  15  20
ENDBRANCH  10  14
BRANCH  12  22
ATOM     22  C   UNL A   1      44.775  26.186  26.265  1.00  0.00    -0.006 A 
ATOM     23  C   UNL A   1      43.609  26.608  25.620  1.00  0.00     0.013 A 
ATOM     24  C   UNL A   1      45.517  27.129  26.993  1.00  0.00     0.013 A 
ATOM     25  C   UNL A   1      43.188  27.939  25.723  1.00  0.00     0.047 A 
ATOM     26  C   UNL A   1      45.090  28.456  27.103  1.00  0.00     0.047 A 
ATOM     27  C   UNL A   1      43.915  28.863  26.477  1.00  0.00     0.118 A 
BRANCH  27  28
ATOM     28  O   UNL A   1      43.384  30.123  26.518  1.00  0.00    -0.497 OA
ATOM     29  C   UNL A   1      43.448  30.799  27.769  1.00  0.00     0.278 C 
ENDBRANCH  27  28
ENDBRANCH  12  22
ENDBRANCH   7   9
ENDBRANCH   6   7
ENDBRANCH   3   6
ENDBRANCH   1   2
BRANCH   1  30
ATOM     30  C   UNL A   1      40.783  20.021  26.545  1.00  0.00     0.042 C 
BRANCH  30  31
ATOM     31  C   UNL A   1      40.550  21.528  26.496  1.00  0.00     0.118 C 
BRANCH  31  32
ATOM     32  N   UNL A   1      39.288  21.876  25.854  1.00  0.00    -0.352 N 
ATOM     33  C   UNL A   1      38.507  22.994  25.977  1.00  0.00     0.251 C 
ATOM     34  H   UNL A   1      38.942  21.197  25.231  1.00  0.00     0.163 HD
ATOM     35  O   UNL A   1      37.383  23.003  25.471  1.00  0.00    -0.269 OA
BRANCH  33  36
ATOM     36  C   UNL A   1      38.978  24.186  26.715  1.00  0.00     0.039 A 
ATOM     37  C   UNL A   1      38.559  24.360  28.038  1.00  0.00     0.014 A 
ATOM     38  C   UNL A   1      39.776  25.158  26.105  1.00  0.00     0.014 A 
ATOM     39  C   UNL A   1      38.980  25.477  28.765  1.00  0.00     0.010 A 
ATOM     40  C   UNL A   1      40.247  26.240  26.849  1.00  0.00     0.010 A 
ATOM     41  C   UNL A   1      39.851  26.411  28.184  1.00  0.00    -0.014 A 
BRANCH  41  42
ATOM     42  C   UNL A   1      40.353  27.575  28.960  1.00  0.00     0.031 A 
ATOM     43  C   UNL A   1      41.746  27.568  29.524  1.00  0.00     0.074 A 
ATOM     44  C   UNL A   1      39.529  28.611  29.207  1.00  0.00     0.049 A 
ATOM     45  N   UNL A   1      42.337  28.458  30.281  1.00  0.00    -0.248 NA
ATOM     46  C   UNL A   1      42.578  26.395  29.215  1.00  0.00     0.031 C 
ATOM     47  C   UNL A   1      38.142  28.716  28.752  1.00  0.00     0.029 A 
ATOM     48  N   UNL A   1      39.737  29.771  29.912  1.00  0.00    -0.354 N 
ATOM     49  C   UNL A   1      43.598  27.946  30.553  1.00  0.00     0.074 A 
ATOM     50  C   UNL A   1      43.674  26.648  29.916  1.00  0.00     0.031 C 
ATOM     51  C   UNL A   1      37.629  29.882  29.174  1.00  0.00     0.029 A 
ATOM     52  C   UNL A   1      38.637  30.591  29.957  1.00  0.00     0.049 A 
ATOM     53  H   UNL A   1      40.593  29.992  30.344  1.00  0.00     0.167 HD
ATOM     54  C   UNL A   1      44.609  28.514  31.253  1.00  0.00     0.037 A 
ATOM     55  C   UNL A   1      38.459  31.778  30.567  1.00  0.00     0.037 A 
ATOM     56  C   UNL A   1      44.542  29.818  31.862  1.00  0.00     0.049 A 
ATOM     57  C   UNL A   1      39.600  32.391  31.330  1.00  0.00     0.074 A 
ATOM     58  C   UNL A   1      45.532  30.504  32.543  1.00  0.00     0.029 A 
ATOM     59  N   UNL A   1      43.419  30.631  31.864  1.00  0.00    -0.354 N 
ATOM     60  N   UNL A   1      40.810  31.925  31.527  1.00  0.00    -0.248 NA
ATOM     61  C   UNL A   1      39.353  33.701  31.950  1.00  0.00     0.031 C 
ATOM     62  C   UNL A   1      44.997  31.719  32.988  1.00  0.00     0.029 A 
ATOM     63  C   UNL A   1      43.687  31.807  32.546  1.00  0.00     0.049 A 
ATOM     64  H   UNL A   1      42.559  30.407  31.441  1.00  0.00     0.167 HD
ATOM     65  C   UNL A   1      41.475  32.894  32.267  1.00  0.00     0.074 A 
ATOM     66  C   UNL A   1      40.539  33.980  32.472  1.00  0.00     0.031 C 
ATOM     67  C   UNL A   1      42.748  32.883  32.733  1.00  0.00     0.037 A 
BRANCH  54  68
ATOM     68  C   UNL A   1      45.881  27.730  31.397  1.00  0.00     0.064 A 
ATOM     69  C   UNL A   1      46.980  27.953  30.554  1.00  0.00     0.173 A 
ATOM     70  C   UNL A   1      46.016  26.771  32.411  1.00  0.00     0.173 A 
ATOM     71  F   UNL A   1      46.898  28.852  29.562  1.00  0.00    -0.203 F 
ATOM     72  C   UNL A   1      48.157  27.225  30.704  1.00  0.00     0.198 A 
ATOM     73  C   UNL A   1      47.205  26.063  32.576  1.00  0.00     0.198 A 
ATOM     74  F   UNL A   1      44.998  26.523  33.248  1.00  0.00    -0.203 F 
ATOM     75  F   UNL A   1      49.178  27.422  29.858  1.00  0.00    -0.200 F 
ATOM     76  C   UNL A   1      48.271  26.286  31.718  1.00  0.00     0.200 A 
ATOM     77  F   UNL A   1      47.317  25.166  33.564  1.00  0.00    -0.200 F 
ATOM     78  F   UNL A   1      49.407  25.591  31.865  1.00  0.00    -0.200 F 
ENDBRANCH  54  68
BRANCH  55  79
ATOM     79  C   UNL A   1      37.155  32.480  30.453  1.00  0.00     0.064 A 
ATOM     80  C   UNL A   1      36.181  32.350  31.453  1.00  0.00     0.173 A 
ATOM     81  C   UNL A   1      36.858  33.296  29.353  1.00  0.00     0.173 A 
ATOM     82  F   UNL A   1      36.414  31.567  32.516  1.00  0.00    -0.203 F 
ATOM     83  C   UNL A   1      34.951  32.995  31.347  1.00  0.00     0.198 A 
ATOM     84  C   UNL A   1      35.638  33.963  29.262  1.00  0.00     0.198 A 
ATOM     85  F   UNL A   1      37.760  33.461  28.375  1.00  0.00    -0.203 F 
ATOM     86  F   UNL A   1      34.023  32.823  32.299  1.00  0.00    -0.200 F 
ATOM     87  C   UNL A   1      34.683  33.805  30.255  1.00  0.00     0.200 A 
ATOM     88  F   UNL A   1      35.388  34.760  28.214  1.00  0.00    -0.200 F 
ATOM     89  F   UNL A   1      33.503  34.434  30.159  1.00  0.00    -0.200 F 
ENDBRANCH  55  79
BRANCH  67  90
ATOM     90  C   UNL A   1      43.214  34.098  33.480  1.00  0.00     0.064 A 
ATOM     91  C   UNL A   1      43.721  35.222  32.813  1.00  0.00     0.173 A 
ATOM     92  C   UNL A   1      43.122  34.150  34.879  1.00  0.00     0.173 A 
ATOM     93  F   UNL A   1      43.845  35.214  31.477  1.00  0.00    -0.203 F 
ATOM     94  C   UNL A   1      44.144  36.343  33.520  1.00  0.00     0.198 A 
ATOM     95  C   UNL A   1      43.519  35.283  35.582  1.00  0.00     0.198 A 
ATOM     96  F   UNL A   1      42.637  33.102  35.563  1.00  0.00    -0.203 F 
ATOM     97  F   UNL A   1      44.670  37.388  32.866  1.00  0.00    -0.200 F 
ATOM     98  C   UNL A   1      44.037  36.376  34.903  1.00  0.00     0.200 A 
ATOM     99  F   UNL A   1      43.404  35.317  36.916  1.00  0.00    -0.200 F 
ATOM    100  F   UNL A   1      44.440  37.458  35.583  1.00  0.00    -0.200 F 
ENDBRANCH  67  90
ENDBRANCH  41  42
ENDBRANCH  33  36
ENDBRANCH  31  32
ENDBRANCH  30  31
ENDBRANCH   1  30
TORSDOF 16
ENDMDL
MODEL 3
REMARK VINA RESULT:     -12.2      5.041     11.140
REMARK SMILES COc1ccc(-c2nc(NCC(=O)NCCCNC(=O)c3ccc(-c4c5nc(c(-c6c(F)c(F)c(F)c(F)c6F)c6ccc([nH]6)c(-c6c(F)c(F)c(F)c(F)c6F)c6nc(c(-c7c(F)c(F)c(F)c(F)c7F)c7ccc4[nH]7)C=C6)C=C5)cc3)sc2-c2ccc(OC)cc2)cc1
REMARK SMILES IDX 15 1 14 2 12 3 13 4 11 6 10 7 9 9 7 10 8 11 85 12 84 13 6 14
REMARK SMILES IDX 3 15 4 16 95 17 5 18 94 19 2 20 1 21 86 22 87 23 93 24 88 25
REMARK SMILES IDX 92 26 89 27 90 28 91 29 16 30 17 31 18 32 19 33 20 35 21 36
REMARK SMILES IDX 22 37 83 38 23 39 82 40 24 41 25 42 26 43 76 44 27 45 81 46
REMARK SMILES IDX 75 47 77 48 28 49 80 50 74 51 73 52 29 54 61 55 41 56 60 57
REMARK SMILES IDX 42 58 45 59 59 60 78 61 43 62 44 63 58 65 79 66 46 67 30 68
REMARK SMILES IDX 31 69 39 70 32 71 33 72 37 73 40 74 34 75 35 76 38 77 36 78
REMARK SMILES IDX 62 79 63 80 71 81 64 82 65 83 69 84 72 85 66 86 67 87 70 88
REMARK SMILES IDX 68 89 47 90 48 91 56 92 49 93 50 94 54 95 57 96 51 97 52 98
REMARK SMILES IDX 55 99 53 100
REMARK H PARENT 14 5 10 8 18 34 77 53 45 64
REMARK Flexibility Score: inf
ROOT
ATOM      1  C   UNL A   1      36.327  20.616  25.040  1.00  0.00     0.117 C 
ENDROOT
BRANCH   1   2
ATOM      2  N   UNL A   1      35.116  19.878  25.343  1.00  0.00    -0.355 N 
ATOM      3  C   UNL A   1      33.822  20.199  25.035  1.00  0.00     0.239 C 
ATOM      4  O   UNL A   1      32.925  19.457  25.440  1.00  0.00    -0.273 OA
ATOM      5  H   UNL A   1      35.241  19.035  25.836  1.00  0.00     0.163 HD
BRANCH   3   6
ATOM      6  C   UNL A   1      33.520  21.439  24.184  1.00  0.00     0.215 C 
BRANCH   6   7
ATOM      7  N   UNL A   1      32.430  22.211  24.755  1.00  0.00    -0.352 N 
ATOM      8  H   UNL A   1      31.685  21.706  25.155  1.00  0.00     0.163 HD
BRANCH   7   9
ATOM      9  C   UNL A   1      32.345  23.556  24.785  1.00  0.00     0.184 A 
ATOM     10  C   UNL A   1      31.440  25.544  24.405  1.00  0.00     0.091 A 
ATOM     11  N   UNL A   1      31.379  24.184  24.154  1.00  0.00    -0.220 NA
ATOM     12  C   UNL A   1      32.422  25.943  25.301  1.00  0.00     0.064 A 
ATOM     13  S   UNL A   1      33.412  24.592  25.657  1.00  0.00    -0.096 S 
BRANCH  10  14
ATOM     14  C   UNL A   1      30.477  26.463  23.819  1.00  0.00     0.002 A 
ATOM     15  C   UNL A   1      28.662  28.378  22.888  1.00  0.00     0.118 A 
ATOM     16  C   UNL A   1      30.004  28.460  22.526  1.00  0.00     0.047 A 
ATOM     17  C   UNL A   1      28.208  27.305  23.658  1.00  0.00     0.047 A 
ATOM     18  C   UNL A   1      30.912  27.511  22.996  1.00  0.00     0.014 A 
ATOM     19  C   UNL A   1      29.116  26.346  24.120  1.00  0.00     0.014 A 
BRANCH  15  20
ATOM     20  O   UNL A   1      27.842  29.359  22.403  1.00  0.00    -0.497 OA
ATOM     21  C   UNL A   1      28.529  30.324  21.610  1.00  0.00     0.278 C 
ENDBRANCH  15  20
ENDBRANCH  10  14
BRANCH  12  22
ATOM     22  C   UNL A   1      32.658  27.234  25.951  1.00  0.00    -0.006 A 
ATOM     23  C   UNL A   1      33.854  27.940  25.786  1.00  0.00     0.013 A 
ATOM     24  C   UNL A   1      31.654  27.798  26.754  1.00  0.00     0.013 A 
ATOM     25  C   UNL A   1      34.026  29.189  26.395  1.00  0.00     0.047 A 
ATOM     26  C   UNL A   1      31.823  29.049  27.354  1.00  0.00     0.047 A 
ATOM     27  C   UNL A   1      33.009  29.755  27.166  1.00  0.00     0.118 A 
BRANCH  27  28
ATOM     28  O   UNL A   1      33.293  30.989  27.683  1.00  0.00    -0.497 OA
ATOM     29  C   UNL A   1      32.487  32.071  27.227  1.00  0.00     0.278 C 
ENDBRANCH  27  28
ENDBRANCH  12  22
ENDBRANCH   7   9
ENDBRANCH   6   7
ENDBRANCH   3   6
ENDBRANCH   1   2
BRANCH   1  30
ATOM     30  C   UNL A   1      37.545  19.703  24.921  1.00  0.00     0.042 C 
BRANCH  30  31
ATOM     31  C   UNL A   1      38.833  20.325  25.454  1.00  0.00     0.118 C 
BRANCH  31  32
ATOM     32  N   UNL A   1      39.859  19.328  25.735  1.00  0.00    -0.352 N 
ATOM     33  C   UNL A   1      41.170  19.480  26.100  1.00  0.00     0.251 C 
ATOM     34  H   UNL A   1      39.561  18.394  25.647  1.00  0.00     0.163 HD
ATOM     35  O   UNL A   1      41.910  18.495  26.114  1.00  0.00    -0.269 OA
BRANCH  33  36
ATOM     36  C   UNL A   1      41.719  20.804  26.464  1.00  0.00     0.039 A 
ATOM     37  C   UNL A   1      41.868  21.764  25.458  1.00  0.00     0.014 A 
ATOM     38  C   UNL A   1      42.142  21.090  27.765  1.00  0.00     0.014 A 
ATOM     39  C   UNL A   1      42.389  23.024  25.764  1.00  0.00     0.010 A 
ATOM     40  C   UNL A   1      42.603  22.367  28.083  1.00  0.00     0.010 A 
ATOM     41  C   UNL A   1      42.734  23.345  27.086  1.00  0.00    -0.014 A 
BRANCH  41  42
ATOM     42  C   UNL A   1      43.236  24.698  27.438  1.00  0.00     0.031 A 
ATOM     43  C   UNL A   1      42.306  25.727  28.015  1.00  0.00     0.074 A 
ATOM     44  C   UNL A   1      44.520  25.015  27.181  1.00  0.00     0.049 A 
ATOM     45  N   UNL A   1      42.543  26.978  28.323  1.00  0.00    -0.248 NA
ATOM     46  C   UNL A   1      40.919  25.303  28.258  1.00  0.00     0.031 C 
ATOM     47  C   UNL A   1      45.509  24.118  26.584  1.00  0.00     0.029 A 
ATOM     48  N   UNL A   1      45.209  26.186  27.381  1.00  0.00    -0.354 N 
ATOM     49  C   UNL A   1      41.336  27.492  28.776  1.00  0.00     0.074 A 
ATOM     50  C   UNL A   1      40.357  26.432  28.664  1.00  0.00     0.031 C 
ATOM     51  C   UNL A   1      46.682  24.764  26.481  1.00  0.00     0.029 A 
ATOM     52  C   UNL A   1      46.518  26.129  26.972  1.00  0.00     0.049 A 
ATOM     53  H   UNL A   1      44.802  26.990  27.778  1.00  0.00     0.167 HD
ATOM     54  C   UNL A   1      41.072  28.729  29.259  1.00  0.00     0.037 A 
ATOM     55  C   UNL A   1      47.477  27.074  26.985  1.00  0.00     0.037 A 
ATOM     56  C   UNL A   1      42.053  29.774  29.396  1.00  0.00     0.049 A 
ATOM     57  C   UNL A   1      47.160  28.437  27.536  1.00  0.00     0.074 A 
ATOM     58  C   UNL A   1      41.896  31.042  29.929  1.00  0.00     0.029 A 
ATOM     59  N   UNL A   1      43.377  29.671  28.996  1.00  0.00    -0.354 N 
ATOM     60  N   UNL A   1      46.030  28.891  28.020  1.00  0.00    -0.248 NA
ATOM     61  C   UNL A   1      48.256  29.416  27.549  1.00  0.00     0.031 C 
ATOM     62  C   UNL A   1      43.117  31.719  29.817  1.00  0.00     0.029 A 
ATOM     63  C   UNL A   1      44.045  30.857  29.256  1.00  0.00     0.049 A 
ATOM     64  H   UNL A   1      43.783  28.872  28.588  1.00  0.00     0.167 HD
ATOM     65  C   UNL A   1      46.284  30.196  28.421  1.00  0.00     0.074 A 
ATOM     66  C   UNL A   1      47.680  30.456  28.136  1.00  0.00     0.031 C 
ATOM     67  C   UNL A   1      45.437  31.097  28.975  1.00  0.00     0.037 A 
BRANCH  54  68
ATOM     68  C   UNL A   1      39.662  29.023  29.682  1.00  0.00     0.064 A 
ATOM     69  C   UNL A   1      38.707  29.504  28.774  1.00  0.00     0.173 A 
ATOM     70  C   UNL A   1      39.250  28.787  31.003  1.00  0.00     0.173 A 
ATOM     71  F   UNL A   1      39.052  29.756  27.502  1.00  0.00    -0.203 F 
ATOM     72  C   UNL A   1      37.400  29.763  29.178  1.00  0.00     0.198 A 
ATOM     73  C   UNL A   1      37.935  29.022  31.397  1.00  0.00     0.198 A 
ATOM     74  F   UNL A   1      40.122  28.322  31.910  1.00  0.00    -0.203 F 
ATOM     75  F   UNL A   1      36.517  30.267  28.304  1.00  0.00    -0.200 F 
ATOM     76  C   UNL A   1      37.014  29.517  30.487  1.00  0.00     0.200 A 
ATOM     77  F   UNL A   1      37.560  28.771  32.659  1.00  0.00    -0.200 F 
ATOM     78  F   UNL A   1      35.754  29.761  30.872  1.00  0.00    -0.200 F 
ENDBRANCH  54  68
BRANCH  55  79
ATOM     79  C   UNL A   1      48.839  26.753  26.487  1.00  0.00     0.064 A 
ATOM     80  C   UNL A   1      49.815  26.235  27.351  1.00  0.00     0.173 A 
ATOM     81  C   UNL A   1      49.193  26.950  25.146  1.00  0.00     0.173 A 
ATOM     82  F   UNL A   1      49.527  26.044  28.647  1.00  0.00    -0.203 F 
ATOM     83  C   UNL A   1      51.098  25.943  26.895  1.00  0.00     0.198 A 
ATOM     84  C   UNL A   1      50.469  26.632  24.684  1.00  0.00     0.198 A 
ATOM     85  F   UNL A   1      48.293  27.435  24.278  1.00  0.00    -0.203 F 
ATOM     86  F   UNL A   1      52.022  25.484  27.750  1.00  0.00    -0.200 F 
ATOM     87  C   UNL A   1      51.422  26.137  25.561  1.00  0.00     0.200 A 
ATOM     88  F   UNL A   1      50.774  26.803  23.391  1.00  0.00    -0.200 F 
ATOM     89  F   UNL A   1      52.654  25.846  25.121  1.00  0.00    -0.200 F 
ENDBRANCH  55  79
BRANCH  67  90
ATOM     90  C   UNL A   1      46.005  32.435  29.345  1.00  0.00     0.064 A 
ATOM     91  C   UNL A   1      46.670  32.642  30.561  1.00  0.00     0.173 A 
ATOM     92  C   UNL A   1      45.910  33.516  28.455  1.00  0.00     0.173 A 
ATOM     93  F   UNL A   1      46.772  31.644  31.453  1.00  0.00    -0.203 F 
ATOM     94  C   UNL A   1      47.197  33.889  30.886  1.00  0.00     0.198 A 
ATOM     95  C   UNL A   1      46.462  34.754  28.770  1.00  0.00     0.198 A 
ATOM     96  F   UNL A   1      45.289  33.368  27.276  1.00  0.00    -0.203 F 
ATOM     97  F   UNL A   1      47.787  34.077  32.075  1.00  0.00    -0.200 F 
ATOM     98  C   UNL A   1      47.099  34.942  29.988  1.00  0.00     0.200 A 
ATOM     99  F   UNL A   1      46.376  35.767  27.897  1.00  0.00    -0.200 F 
ATOM    100  F   UNL A   1      47.610  36.140  30.300  1.00  0.00    -0.200 F 
ENDBRANCH  67  90
ENDBRANCH  41  42
ENDBRANCH  33  36
ENDBRANCH  31  32
ENDBRANCH  30  31
ENDBRANCH   1  30
TORSDOF 16
ENDMDL
