MODEL 1
REMARK VINA RESULT:     -13.2      0.000      0.000
REMARK SMILES Cc1ncccc1OC1(C(=O)NCCCNC(=O)c2ccc(-c3c4nc(c(-c5c(F)c(F)c(F)c(F)c5F)c5ccc([nH]5)c(-c5c(F)c(F)c(F)c(F)c5F)c5nc(c(-c6c(F)c(F)c(F)c(F)c6F)c6ccc3[nH]6)C=C5)C=C4)cc2)CCN(C(=O)c2ccc(O)nn2)CC1
REMARK SMILES IDX 14 1 13 2 12 3 10 4 11 5 9 7 82 8 95 9 83 10 94 11 84 12
REMARK SMILES IDX 85 13 86 14 8 15 7 16 1 17 2 18 3 19 4 20 6 21 5 22 87 23
REMARK SMILES IDX 88 24 93 25 89 26 92 27 90 28 91 29 15 31 16 32 17 33 18 35
REMARK SMILES IDX 19 36 20 37 81 38 21 39 80 40 22 41 23 42 24 43 74 44 25 45
REMARK SMILES IDX 79 46 73 47 75 48 26 49 78 50 72 51 71 52 27 54 59 55 39 56
REMARK SMILES IDX 58 57 40 58 43 59 57 60 76 61 41 62 42 63 56 65 77 66 44 67
REMARK SMILES IDX 28 68 29 69 37 70 30 71 31 72 35 73 38 74 32 75 33 76 36 77
REMARK SMILES IDX 34 78 60 79 61 80 69 81 62 82 63 83 67 84 70 85 64 86 65 87
REMARK SMILES IDX 68 88 66 89 45 90 46 91 54 92 47 93 48 94 52 95 55 96 49 97
REMARK SMILES IDX 50 98 53 99 51 100
REMARK H PARENT 12 6 91 30 16 34 75 53 43 64
REMARK Flexibility Score: inf
ROOT
ATOM      1  C   UNL A   1      31.488  32.130  26.839  1.00  0.00     0.042 C 
ENDROOT
BRANCH   1   2
ATOM      2  C   UNL A   1      31.634  30.628  27.040  1.00  0.00     0.118 C 
BRANCH   2   3
ATOM      3  N   UNL A   1      33.005  30.151  26.959  1.00  0.00    -0.353 N 
ATOM      4  C   UNL A   1      33.569  29.121  26.242  1.00  0.00     0.264 C 
ATOM      5  O   UNL A   1      34.801  29.048  26.301  1.00  0.00    -0.270 OA
ATOM      6  H   UNL A   1      33.642  30.653  27.516  1.00  0.00     0.163 HD
BRANCH   4   7
ATOM      7  C   UNL A   1      32.691  28.088  25.418  1.00  0.00     0.190 C 
ATOM      8  C   UNL A   1      33.385  27.973  24.067  1.00  0.00     0.080 C 
ATOM      9  C   UNL A   1      32.510  26.875  26.321  1.00  0.00     0.080 C 
ATOM     10  C   UNL A   1      33.845  26.602  23.622  1.00  0.00     0.124 C 
ATOM     11  C   UNL A   1      32.947  25.528  25.782  1.00  0.00     0.124 C 
ATOM     12  N   UNL A   1      33.625  25.452  24.485  1.00  0.00    -0.337 N 
ATOM     13  C   UNL A   1      33.951  24.209  23.903  1.00  0.00     0.274 C 
ATOM     14  O   UNL A   1      34.546  24.101  22.833  1.00  0.00    -0.267 OA
BRANCH   7  15
ATOM     15  O   UNL A   1      31.421  28.773  25.270  1.00  0.00    -0.475 OA
BRANCH  15  16
ATOM     16  C   UNL A   1      30.466  28.768  24.299  1.00  0.00     0.142 A 
ATOM     17  C   UNL A   1      29.752  26.318  23.868  1.00  0.00     0.071 C 
ATOM     18  C   UNL A   1      29.718  27.781  23.648  1.00  0.00     0.079 A 
ATOM     19  N   UNL A   1      28.799  28.062  22.671  1.00  0.00    -0.258 NA
ATOM     20  C   UNL A   1      28.593  29.337  22.316  1.00  0.00     0.111 A 
ATOM     21  C   UNL A   1      30.201  30.085  23.887  1.00  0.00     0.050 A 
ATOM     22  C   UNL A   1      29.267  30.382  22.895  1.00  0.00     0.024 A 
ENDBRANCH  15  16
ENDBRANCH   7  15
BRANCH  13  23
ATOM     23  C   UNL A   1      33.610  22.978  24.645  1.00  0.00     0.151 A 
ATOM     24  C   UNL A   1      32.463  22.285  24.308  1.00  0.00     0.042 A 
ATOM     25  N   UNL A   1      34.513  22.533  25.556  1.00  0.00    -0.142 NA
ATOM     26  C   UNL A   1      32.255  21.060  24.922  1.00  0.00     0.072 A 
ATOM     27  N   UNL A   1      34.303  21.334  26.157  1.00  0.00    -0.112 NA
ATOM     28  C   UNL A   1      33.200  20.632  25.829  1.00  0.00     0.230 A 
BRANCH  28  29
ATOM     29  O   UNL A   1      33.068  19.429  26.443  1.00  0.00    -0.492 OA
ATOM     30  H   UNL A   1      32.249  19.186  26.826  1.00  0.00     0.295 HD
ENDBRANCH  28  29
ENDBRANCH  13  23
ENDBRANCH   4   7
ENDBRANCH   2   3
ENDBRANCH   1   2
BRANCH   1  31
ATOM     31  C   UNL A   1      32.767  32.912  27.102  1.00  0.00     0.118 C 
BRANCH  31  32
ATOM     32  N   UNL A   1      32.508  34.262  27.591  1.00  0.00    -0.352 N 
ATOM     33  C   UNL A   1      33.044  34.952  28.650  1.00  0.00     0.251 C 
ATOM     34  H   UNL A   1      31.835  34.763  27.075  1.00  0.00     0.163 HD
ATOM     35  O   UNL A   1      32.531  36.017  28.995  1.00  0.00    -0.269 OA
BRANCH  33  36
ATOM     36  C   UNL A   1      34.211  34.430  29.393  1.00  0.00     0.039 A 
ATOM     37  C   UNL A   1      33.999  33.752  30.599  1.00  0.00     0.014 A 
ATOM     38  C   UNL A   1      35.514  34.626  28.932  1.00  0.00     0.014 A 
ATOM     39  C   UNL A   1      35.082  33.210  31.295  1.00  0.00     0.010 A 
ATOM     40  C   UNL A   1      36.581  34.003  29.573  1.00  0.00     0.010 A 
ATOM     41  C   UNL A   1      36.379  33.293  30.765  1.00  0.00    -0.014 A 
BRANCH  41  42
ATOM     42  C   UNL A   1      37.537  32.650  31.439  1.00  0.00     0.031 A 
ATOM     43  C   UNL A   1      38.246  31.493  30.788  1.00  0.00     0.074 A 
ATOM     44  C   UNL A   1      37.902  33.058  32.669  1.00  0.00     0.049 A 
ATOM     45  N   UNL A   1      39.221  30.750  31.251  1.00  0.00    -0.248 NA
ATOM     46  C   UNL A   1      37.778  31.098  29.449  1.00  0.00     0.031 C 
ATOM     47  C   UNL A   1      37.262  34.132  33.430  1.00  0.00     0.029 A 
ATOM     48  N   UNL A   1      38.895  32.608  33.506  1.00  0.00    -0.354 N 
ATOM     49  C   UNL A   1      39.465  29.794  30.274  1.00  0.00     0.074 A 
ATOM     50  C   UNL A   1      38.502  30.013  29.218  1.00  0.00     0.031 C 
ATOM     51  C   UNL A   1      37.893  34.278  34.605  1.00  0.00     0.029 A 
ATOM     52  C   UNL A   1      38.952  33.279  34.704  1.00  0.00     0.049 A 
ATOM     53  H   UNL A   1      39.508  31.875  33.269  1.00  0.00     0.167 HD
ATOM     54  C   UNL A   1      40.421  28.836  30.250  1.00  0.00     0.037 A 
ATOM     55  C   UNL A   1      39.761  33.102  35.765  1.00  0.00     0.037 A 
ATOM     56  C   UNL A   1      41.396  28.641  31.293  1.00  0.00     0.049 A 
ATOM     57  C   UNL A   1      40.812  32.026  35.715  1.00  0.00     0.074 A 
ATOM     58  C   UNL A   1      42.449  27.744  31.331  1.00  0.00     0.029 A 
ATOM     59  N   UNL A   1      41.433  29.352  32.484  1.00  0.00    -0.354 N 
ATOM     60  N   UNL A   1      41.083  31.177  34.754  1.00  0.00    -0.248 NA
ATOM     61  C   UNL A   1      41.677  31.891  36.895  1.00  0.00     0.031 C 
ATOM     62  C   UNL A   1      43.087  27.872  32.568  1.00  0.00     0.029 A 
ATOM     63  C   UNL A   1      42.473  28.893  33.275  1.00  0.00     0.049 A 
ATOM     64  H   UNL A   1      40.811  30.075  32.729  1.00  0.00     0.167 HD
ATOM     65  C   UNL A   1      42.163  30.428  35.199  1.00  0.00     0.074 A 
ATOM     66  C   UNL A   1      42.510  30.935  36.511  1.00  0.00     0.031 C 
ATOM     67  C   UNL A   1      42.810  29.412  34.577  1.00  0.00     0.037 A 
BRANCH  54  68
ATOM     68  C   UNL A   1      40.463  27.921  29.059  1.00  0.00     0.064 A 
ATOM     69  C   UNL A   1      39.686  26.753  28.996  1.00  0.00     0.173 A 
ATOM     70  C   UNL A   1      41.259  28.237  27.947  1.00  0.00     0.173 A 
ATOM     71  F   UNL A   1      38.915  26.398  30.035  1.00  0.00    -0.203 F 
ATOM     72  C   UNL A   1      39.729  25.921  27.880  1.00  0.00     0.198 A 
ATOM     73  C   UNL A   1      41.274  27.420  26.819  1.00  0.00     0.198 A 
ATOM     74  F   UNL A   1      42.018  29.343  27.951  1.00  0.00    -0.203 F 
ATOM     75  F   UNL A   1      39.020  24.784  27.866  1.00  0.00    -0.200 F 
ATOM     76  C   UNL A   1      40.516  26.260  26.790  1.00  0.00     0.200 A 
ATOM     77  F   UNL A   1      42.023  27.757  25.760  1.00  0.00    -0.200 F 
ATOM     78  F   UNL A   1      40.549  25.463  25.713  1.00  0.00    -0.200 F 
ENDBRANCH  54  68
BRANCH  55  79
ATOM     79  C   UNL A   1      39.623  33.980  36.957  1.00  0.00     0.064 A 
ATOM     80  C   UNL A   1      38.841  33.587  38.052  1.00  0.00     0.173 A 
ATOM     81  C   UNL A   1      40.265  35.224  37.028  1.00  0.00     0.173 A 
ATOM     82  F   UNL A   1      38.189  32.416  38.024  1.00  0.00    -0.203 F 
ATOM     83  C   UNL A   1      38.690  34.415  39.164  1.00  0.00     0.198 A 
ATOM     84  C   UNL A   1      40.139  36.038  38.154  1.00  0.00     0.198 A 
ATOM     85  F   UNL A   1      41.030  35.645  36.011  1.00  0.00    -0.203 F 
ATOM     86  F   UNL A   1      37.898  34.035  40.176  1.00  0.00    -0.200 F 
ATOM     87  C   UNL A   1      39.345  35.635  39.217  1.00  0.00     0.200 A 
ATOM     88  F   UNL A   1      40.787  37.209  38.206  1.00  0.00    -0.200 F 
ATOM     89  F   UNL A   1      39.205  36.429  40.288  1.00  0.00    -0.200 F 
ENDBRANCH  55  79
BRANCH  67  90
ATOM     90  C   UNL A   1      43.986  28.804  35.288  1.00  0.00     0.064 A 
ATOM     91  C   UNL A   1      45.292  29.277  35.094  1.00  0.00     0.173 A 
ATOM     92  C   UNL A   1      43.796  27.760  36.206  1.00  0.00     0.173 A 
ATOM     93  F   UNL A   1      45.530  30.264  34.217  1.00  0.00    -0.203 F 
ATOM     94  C   UNL A   1      46.368  28.710  35.774  1.00  0.00     0.198 A 
ATOM     95  C   UNL A   1      44.869  27.218  36.909  1.00  0.00     0.198 A 
ATOM     96  F   UNL A   1      42.566  27.275  36.435  1.00  0.00    -0.203 F 
ATOM     97  F   UNL A   1      47.613  29.144  35.534  1.00  0.00    -0.200 F 
ATOM     98  C   UNL A   1      46.154  27.687  36.685  1.00  0.00     0.200 A 
ATOM     99  F   UNL A   1      44.657  26.242  37.803  1.00  0.00    -0.200 F 
ATOM    100  F   UNL A   1      47.188  27.149  37.345  1.00  0.00    -0.200 F 
ENDBRANCH  67  90
ENDBRANCH  41  42
ENDBRANCH  33  36
ENDBRANCH  31  32
ENDBRANCH   1  31
TORSDOF 14
ENDMDL
MODEL 2
REMARK VINA RESULT:     -13.1      4.712     11.071
REMARK SMILES Cc1ncccc1OC1(C(=O)NCCCNC(=O)c2ccc(-c3c4nc(c(-c5c(F)c(F)c(F)c(F)c5F)c5ccc([nH]5)c(-c5c(F)c(F)c(F)c(F)c5F)c5nc(c(-c6c(F)c(F)c(F)c(F)c6F)c6ccc3[nH]6)C=C5)C=C4)cc2)CCN(C(=O)c2ccc(O)nn2)CC1
REMARK SMILES IDX 14 1 13 2 12 3 10 4 11 5 9 7 82 8 95 9 83 10 94 11 84 12
REMARK SMILES IDX 85 13 86 14 8 15 7 16 1 17 2 18 3 19 4 20 6 21 5 22 87 23
REMARK SMILES IDX 88 24 93 25 89 26 92 27 90 28 91 29 15 31 16 32 17 33 18 35
REMARK SMILES IDX 19 36 20 37 81 38 21 39 80 40 22 41 23 42 24 43 74 44 25 45
REMARK SMILES IDX 79 46 73 47 75 48 26 49 78 50 72 51 71 52 27 54 59 55 39 56
REMARK SMILES IDX 58 57 40 58 43 59 57 60 76 61 41 62 42 63 56 65 77 66 44 67
REMARK SMILES IDX 28 68 29 69 37 70 30 71 31 72 35 73 38 74 32 75 33 76 36 77
REMARK SMILES IDX 34 78 60 79 61 80 69 81 62 82 63 83 67 84 70 85 64 86 65 87
REMARK SMILES IDX 68 88 66 89 45 90 46 91 54 92 47 93 48 94 52 95 55 96 49 97
REMARK SMILES IDX 50 98 53 99 51 100
REMARK H PARENT 12 6 91 30 16 34 75 53 43 64
REMARK Flexibility Score: inf
ROOT
ATOM      1  C   UNL A   1      34.461  32.921  30.560  1.00  0.00     0.042 C 
ENDROOT
BRANCH   1   2
ATOM      2  C   UNL A   1      35.202  32.159  31.650  1.00  0.00     0.118 C 
BRANCH   2   3
ATOM      3  N   UNL A   1      35.002  32.695  32.986  1.00  0.00    -0.353 N 
ATOM      4  C   UNL A   1      35.888  33.226  33.895  1.00  0.00     0.264 C 
ATOM      5  O   UNL A   1      35.378  33.710  34.911  1.00  0.00    -0.270 OA
ATOM      6  H   UNL A   1      34.068  32.675  33.295  1.00  0.00     0.163 HD
BRANCH   4   7
ATOM      7  C   UNL A   1      37.456  33.194  33.660  1.00  0.00     0.190 C 
ATOM      8  C   UNL A   1      38.056  33.779  34.933  1.00  0.00     0.080 C 
ATOM      9  C   UNL A   1      37.785  31.777  33.208  1.00  0.00     0.080 C 
ATOM     10  C   UNL A   1      39.035  32.926  35.711  1.00  0.00     0.124 C 
ATOM     11  C   UNL A   1      38.816  31.007  34.009  1.00  0.00     0.124 C 
ATOM     12  N   UNL A   1      39.364  31.591  35.237  1.00  0.00    -0.337 N 
ATOM     13  C   UNL A   1      40.399  30.951  35.950  1.00  0.00     0.274 C 
ATOM     14  O   UNL A   1      40.865  31.391  36.999  1.00  0.00    -0.267 OA
BRANCH   7  15
ATOM     15  O   UNL A   1      37.647  34.110  32.552  1.00  0.00    -0.475 OA
BRANCH  15  16
ATOM     16  C   UNL A   1      38.641  34.273  31.636  1.00  0.00     0.142 A 
ATOM     17  C   UNL A   1      40.878  34.578  32.902  1.00  0.00     0.071 C 
ATOM     18  C   UNL A   1      40.024  34.481  31.698  1.00  0.00     0.079 A 
ATOM     19  N   UNL A   1      40.808  34.621  30.583  1.00  0.00    -0.258 NA
ATOM     20  C   UNL A   1      40.241  34.554  29.372  1.00  0.00     0.111 A 
ATOM     21  C   UNL A   1      38.105  34.206  30.338  1.00  0.00     0.050 A 
ATOM     22  C   UNL A   1      38.896  34.346  29.198  1.00  0.00     0.024 A 
ENDBRANCH  15  16
ENDBRANCH   7  15
BRANCH  13  23
ATOM     23  C   UNL A   1      40.908  29.662  35.441  1.00  0.00     0.151 A 
ATOM     24  C   UNL A   1      41.580  29.633  34.233  1.00  0.00     0.042 A 
ATOM     25  N   UNL A   1      40.780  28.581  36.251  1.00  0.00    -0.142 NA
ATOM     26  C   UNL A   1      42.170  28.436  33.861  1.00  0.00     0.072 A 
ATOM     27  N   UNL A   1      41.357  27.410  35.881  1.00  0.00    -0.112 NA
ATOM     28  C   UNL A   1      42.033  27.364  34.715  1.00  0.00     0.230 A 
BRANCH  28  29
ATOM     29  O   UNL A   1      42.612  26.172  34.422  1.00  0.00    -0.492 OA
ATOM     30  H   UNL A   1      43.424  25.934  34.823  1.00  0.00     0.295 HD
ENDBRANCH  28  29
ENDBRANCH  13  23
ENDBRANCH   4   7
ENDBRANCH   2   3
ENDBRANCH   1   2
BRANCH   1  31
ATOM     31  C   UNL A   1      34.931  32.588  29.150  1.00  0.00     0.118 C 
BRANCH  31  32
ATOM     32  N   UNL A   1      34.329  31.365  28.632  1.00  0.00    -0.352 N 
ATOM     33  C   UNL A   1      34.896  30.169  28.266  1.00  0.00     0.251 C 
ATOM     34  H   UNL A   1      33.350  31.403  28.527  1.00  0.00     0.163 HD
ATOM     35  O   UNL A   1      34.212  29.337  27.669  1.00  0.00    -0.269 OA
BRANCH  33  36
ATOM     36  C   UNL A   1      36.315  29.872  28.559  1.00  0.00     0.039 A 
ATOM     37  C   UNL A   1      36.655  29.360  29.816  1.00  0.00     0.014 A 
ATOM     38  C   UNL A   1      37.318  30.122  27.621  1.00  0.00     0.014 A 
ATOM     39  C   UNL A   1      37.982  29.029  30.100  1.00  0.00     0.010 A 
ATOM     40  C   UNL A   1      38.622  29.702  27.868  1.00  0.00     0.010 A 
ATOM     41  C   UNL A   1      38.971  29.157  29.111  1.00  0.00    -0.014 A 
BRANCH  41  42
ATOM     42  C   UNL A   1      40.374  28.730  29.356  1.00  0.00     0.031 A 
ATOM     43  C   UNL A   1      41.331  29.648  30.067  1.00  0.00     0.074 A 
ATOM     44  C   UNL A   1      40.805  27.549  28.874  1.00  0.00     0.049 A 
ATOM     45  N   UNL A   1      42.611  29.490  30.303  1.00  0.00    -0.248 NA
ATOM     46  C   UNL A   1      40.788  30.927  30.551  1.00  0.00     0.031 C 
ATOM     47  C   UNL A   1      39.989  26.593  28.122  1.00  0.00     0.029 A 
ATOM     48  N   UNL A   1      42.041  26.954  28.932  1.00  0.00    -0.354 N 
ATOM     49  C   UNL A   1      43.023  30.653  30.941  1.00  0.00     0.074 A 
ATOM     50  C   UNL A   1      41.876  31.531  31.005  1.00  0.00     0.031 C 
ATOM     51  C   UNL A   1      40.736  25.522  27.814  1.00  0.00     0.029 A 
ATOM     52  C   UNL A   1      42.095  25.733  28.303  1.00  0.00     0.049 A 
ATOM     53  H   UNL A   1      42.816  27.364  29.381  1.00  0.00     0.167 HD
ATOM     54  C   UNL A   1      44.244  30.951  31.447  1.00  0.00     0.037 A 
ATOM     55  C   UNL A   1      43.125  24.884  28.134  1.00  0.00     0.037 A 
ATOM     56  C   UNL A   1      45.375  30.062  31.405  1.00  0.00     0.049 A 
ATOM     57  C   UNL A   1      44.472  25.241  28.702  1.00  0.00     0.074 A 
ATOM     58  C   UNL A   1      46.634  30.242  31.951  1.00  0.00     0.029 A 
ATOM     59  N   UNL A   1      45.386  28.825  30.775  1.00  0.00    -0.354 N 
ATOM     60  N   UNL A   1      44.832  26.310  29.369  1.00  0.00    -0.248 NA
ATOM     61  C   UNL A   1      45.554  24.268  28.501  1.00  0.00     0.031 C 
ATOM     62  C   UNL A   1      47.423  29.142  31.603  1.00  0.00     0.029 A 
ATOM     63  C   UNL A   1      46.639  28.246  30.895  1.00  0.00     0.049 A 
ATOM     64  H   UNL A   1      44.617  28.421  30.312  1.00  0.00     0.167 HD
ATOM     65  C   UNL A   1      46.169  26.128  29.692  1.00  0.00     0.074 A 
ATOM     66  C   UNL A   1      46.553  24.835  29.161  1.00  0.00     0.031 C 
ATOM     67  C   UNL A   1      47.005  26.955  30.367  1.00  0.00     0.037 A 
BRANCH  54  68
ATOM     68  C   UNL A   1      44.422  32.297  32.092  1.00  0.00     0.064 A 
ATOM     69  C   UNL A   1      44.632  33.459  31.332  1.00  0.00     0.173 A 
ATOM     70  C   UNL A   1      44.340  32.433  33.487  1.00  0.00     0.173 A 
ATOM     71  F   UNL A   1      44.729  33.384  29.996  1.00  0.00    -0.203 F 
ATOM     72  C   UNL A   1      44.785  34.700  31.946  1.00  0.00     0.198 A 
ATOM     73  C   UNL A   1      44.460  33.681  34.095  1.00  0.00     0.198 A 
ATOM     74  F   UNL A   1      44.135  31.358  34.261  1.00  0.00    -0.203 F 
ATOM     75  F   UNL A   1      45.039  35.786  31.203  1.00  0.00    -0.200 F 
ATOM     76  C   UNL A   1      44.691  34.810  33.325  1.00  0.00     0.200 A 
ATOM     77  F   UNL A   1      44.352  33.789  35.426  1.00  0.00    -0.200 F 
ATOM     78  F   UNL A   1      44.829  36.007  33.913  1.00  0.00    -0.200 F 
ENDBRANCH  54  68
BRANCH  55  79
ATOM     79  C   UNL A   1      42.917  23.600  27.412  1.00  0.00     0.064 A 
ATOM     80  C   UNL A   1      43.296  23.461  26.069  1.00  0.00     0.173 A 
ATOM     81  C   UNL A   1      42.339  22.490  28.044  1.00  0.00     0.173 A 
ATOM     82  F   UNL A   1      43.833  24.501  25.414  1.00  0.00    -0.203 F 
ATOM     83  C   UNL A   1      43.084  22.268  25.380  1.00  0.00     0.198 A 
ATOM     84  C   UNL A   1      42.157  21.287  27.364  1.00  0.00     0.198 A 
ATOM     85  F   UNL A   1      41.965  22.567  29.329  1.00  0.00    -0.203 F 
ATOM     86  F   UNL A   1      43.412  22.178  24.084  1.00  0.00    -0.200 F 
ATOM     87  C   UNL A   1      42.522  21.180  26.030  1.00  0.00     0.200 A 
ATOM     88  F   UNL A   1      41.628  20.234  28.000  1.00  0.00    -0.200 F 
ATOM     89  F   UNL A   1      42.324  20.030  25.370  1.00  0.00    -0.200 F 
ENDBRANCH  55  79
BRANCH  67  90
ATOM     90  C   UNL A   1      48.407  26.475  30.608  1.00  0.00     0.064 A 
ATOM     91  C   UNL A   1      49.463  26.811  29.746  1.00  0.00     0.173 A 
ATOM     92  C   UNL A   1      48.706  25.701  31.740  1.00  0.00     0.173 A 
ATOM     93  F   UNL A   1      49.228  27.537  28.643  1.00  0.00    -0.203 F 
ATOM     94  C   UNL A   1      50.759  26.368  29.995  1.00  0.00     0.198 A 
ATOM     95  C   UNL A   1      50.010  25.288  32.004  1.00  0.00     0.198 A 
ATOM     96  F   UNL A   1      47.736  25.358  32.601  1.00  0.00    -0.203 F 
ATOM     97  F   UNL A   1      51.741  26.658  29.131  1.00  0.00    -0.200 F 
ATOM     98  C   UNL A   1      51.033  25.615  31.127  1.00  0.00     0.200 A 
ATOM     99  F   UNL A   1      50.274  24.576  33.108  1.00  0.00    -0.200 F 
ATOM    100  F   UNL A   1      52.282  25.197  31.370  1.00  0.00    -0.200 F 
ENDBRANCH  67  90
ENDBRANCH  41  42
ENDBRANCH  33  36
ENDBRANCH  31  32
ENDBRANCH   1  31
TORSDOF 14
ENDMDL
MODEL 3
REMARK VINA RESULT:     -13.0      5.437     11.142
REMARK SMILES Cc1ncccc1OC1(C(=O)NCCCNC(=O)c2ccc(-c3c4nc(c(-c5c(F)c(F)c(F)c(F)c5F)c5ccc([nH]5)c(-c5c(F)c(F)c(F)c(F)c5F)c5nc(c(-c6c(F)c(F)c(F)c(F)c6F)c6ccc3[nH]6)C=C5)C=C4)cc2)CCN(C(=O)c2ccc(O)nn2)CC1
REMARK SMILES IDX 14 1 13 2 12 3 10 4 11 5 9 7 82 8 95 9 83 10 94 11 84 12
REMARK SMILES IDX 85 13 86 14 8 15 7 16 1 17 2 18 3 19 4 20 6 21 5 22 87 23
REMARK SMILES IDX 88 24 93 25 89 26 92 27 90 28 91 29 15 31 16 32 17 33 18 35
REMARK SMILES IDX 19 36 20 37 81 38 21 39 80 40 22 41 23 42 24 43 74 44 25 45
REMARK SMILES IDX 79 46 73 47 75 48 26 49 78 50 72 51 71 52 27 54 59 55 39 56
REMARK SMILES IDX 58 57 40 58 43 59 57 60 76 61 41 62 42 63 56 65 77 66 44 67
REMARK SMILES IDX 28 68 29 69 37 70 30 71 31 72 35 73 38 74 32 75 33 76 36 77
REMARK SMILES IDX 34 78 60 79 61 80 69 81 62 82 63 83 67 84 70 85 64 86 65 87
REMARK SMILES IDX 68 88 66 89 45 90 46 91 54 92 47 93 48 94 52 95 55 96 49 97
REMARK SMILES IDX 50 98 53 99 51 100
REMARK H PARENT 12 6 91 30 16 34 75 53 43 64
REMARK Flexibility Score: inf
ROOT
ATOM      1  C   UNL A   1      38.226  19.793  25.001  1.00  0.00     0.042 C 
ENDROOT
BRANCH   1   2
ATOM      2  C   UNL A   1      37.689  21.064  24.357  1.00  0.00     0.118 C 
BRANCH   2   3
ATOM      3  N   UNL A   1      37.734  22.230  25.223  1.00  0.00    -0.353 N 
ATOM      4  C   UNL A   1      36.742  23.072  25.669  1.00  0.00     0.264 C 
ATOM      5  O   UNL A   1      37.095  23.912  26.503  1.00  0.00    -0.270 OA
ATOM      6  H   UNL A   1      38.635  22.458  25.548  1.00  0.00     0.163 HD
BRANCH   4   7
ATOM      7  C   UNL A   1      35.254  22.979  25.129  1.00  0.00     0.190 C 
ATOM      8  C   UNL A   1      34.381  22.999  26.378  1.00  0.00     0.080 C 
ATOM      9  C   UNL A   1      35.127  24.053  24.057  1.00  0.00     0.080 C 
ATOM     10  C   UNL A   1      33.342  24.093  26.498  1.00  0.00     0.124 C 
ATOM     11  C   UNL A   1      34.027  25.083  24.223  1.00  0.00     0.124 C 
ATOM     12  N   UNL A   1      33.213  25.085  25.442  1.00  0.00    -0.337 N 
ATOM     13  C   UNL A   1      32.115  25.958  25.585  1.00  0.00     0.274 C 
ATOM     14  O   UNL A   1      31.426  26.013  26.602  1.00  0.00    -0.267 OA
BRANCH   7  15
ATOM     15  O   UNL A   1      35.204  21.669  24.508  1.00  0.00    -0.475 OA
BRANCH  15  16
ATOM     16  C   UNL A   1      34.202  20.771  24.302  1.00  0.00     0.142 A 
ATOM     17  C   UNL A   1      32.188  22.016  23.257  1.00  0.00     0.071 C 
ATOM     18  C   UNL A   1      32.902  20.834  23.788  1.00  0.00     0.079 A 
ATOM     19  N   UNL A   1      32.080  19.742  23.700  1.00  0.00    -0.258 NA
ATOM     20  C   UNL A   1      32.528  18.550  24.116  1.00  0.00     0.111 A 
ATOM     21  C   UNL A   1      34.617  19.494  24.717  1.00  0.00     0.050 A 
ATOM     22  C   UNL A   1      33.789  18.376  24.629  1.00  0.00     0.024 A 
ENDBRANCH  15  16
ENDBRANCH   7  15
BRANCH  13  23
ATOM     23  C   UNL A   1      31.813  26.891  24.481  1.00  0.00     0.151 A 
ATOM     24  C   UNL A   1      30.713  26.651  23.679  1.00  0.00     0.042 A 
ATOM     25  N   UNL A   1      32.582  28.005  24.382  1.00  0.00    -0.142 NA
ATOM     26  C   UNL A   1      30.377  27.624  22.751  1.00  0.00     0.072 A 
ATOM     27  N   UNL A   1      32.250  28.953  23.470  1.00  0.00    -0.112 NA
ATOM     28  C   UNL A   1      31.170  28.749  22.690  1.00  0.00     0.230 A 
BRANCH  28  29
ATOM     29  O   UNL A   1      30.877  29.750  21.822  1.00  0.00    -0.492 OA
ATOM     30  H   UNL A   1      29.993  30.044  21.726  1.00  0.00     0.295 HD
ENDBRANCH  28  29
ENDBRANCH  13  23
ENDBRANCH   4   7
ENDBRANCH   2   3
ENDBRANCH   1   2
BRANCH   1  31
ATOM     31  C   UNL A   1      39.238  20.046  26.109  1.00  0.00     0.118 C 
BRANCH  31  32
ATOM     32  N   UNL A   1      40.342  19.093  26.089  1.00  0.00    -0.352 N 
ATOM     33  C   UNL A   1      41.701  19.290  26.126  1.00  0.00     0.251 C 
ATOM     34  H   UNL A   1      40.068  18.148  26.039  1.00  0.00     0.163 HD
ATOM     35  O   UNL A   1      42.452  18.341  25.900  1.00  0.00    -0.269 OA
BRANCH  33  36
ATOM     36  C   UNL A   1      42.274  20.623  26.413  1.00  0.00     0.039 A 
ATOM     37  C   UNL A   1      42.618  21.457  25.343  1.00  0.00     0.014 A 
ATOM     38  C   UNL A   1      42.504  21.049  27.722  1.00  0.00     0.014 A 
ATOM     39  C   UNL A   1      43.118  22.738  25.590  1.00  0.00     0.010 A 
ATOM     40  C   UNL A   1      42.908  22.358  27.968  1.00  0.00     0.010 A 
ATOM     41  C   UNL A   1      43.226  23.216  26.905  1.00  0.00    -0.014 A 
BRANCH  41  42
ATOM     42  C   UNL A   1      43.671  24.605  27.193  1.00  0.00     0.031 A 
ATOM     43  C   UNL A   1      42.685  25.630  27.682  1.00  0.00     0.074 A 
ATOM     44  C   UNL A   1      44.946  24.961  26.944  1.00  0.00     0.049 A 
ATOM     45  N   UNL A   1      42.861  26.908  27.911  1.00  0.00    -0.248 NA
ATOM     46  C   UNL A   1      41.307  25.166  27.916  1.00  0.00     0.031 C 
ATOM     47  C   UNL A   1      45.986  24.073  26.420  1.00  0.00     0.029 A 
ATOM     48  N   UNL A   1      45.584  26.169  27.087  1.00  0.00    -0.354 N 
ATOM     49  C   UNL A   1      41.619  27.399  28.294  1.00  0.00     0.074 A 
ATOM     50  C   UNL A   1      40.686  26.298  28.212  1.00  0.00     0.031 C 
ATOM     51  C   UNL A   1      47.136  24.757  26.311  1.00  0.00     0.029 A 
ATOM     52  C   UNL A   1      46.906  26.141  26.713  1.00  0.00     0.049 A 
ATOM     53  H   UNL A   1      45.136  26.978  27.424  1.00  0.00     0.167 HD
ATOM     54  C   UNL A   1      41.294  28.649  28.698  1.00  0.00     0.037 A 
ATOM     55  C   UNL A   1      47.826  27.123  26.688  1.00  0.00     0.037 A 
ATOM     56  C   UNL A   1      42.234  29.735  28.804  1.00  0.00     0.049 A 
ATOM     57  C   UNL A   1      47.437  28.505  27.138  1.00  0.00     0.074 A 
ATOM     58  C   UNL A   1      42.017  31.021  29.269  1.00  0.00     0.029 A 
ATOM     59  N   UNL A   1      43.569  29.664  28.432  1.00  0.00    -0.354 N 
ATOM     60  N   UNL A   1      46.278  28.940  27.569  1.00  0.00    -0.248 NA
ATOM     61  C   UNL A   1      48.487  29.532  27.106  1.00  0.00     0.031 C 
ATOM     62  C   UNL A   1      43.206  31.743  29.126  1.00  0.00     0.029 A 
ATOM     63  C   UNL A   1      44.180  30.891  28.632  1.00  0.00     0.049 A 
ATOM     64  H   UNL A   1      44.014  28.860  28.079  1.00  0.00     0.167 HD
ATOM     65  C   UNL A   1      46.465  30.278  27.886  1.00  0.00     0.074 A 
ATOM     66  C   UNL A   1      47.855  30.580  27.614  1.00  0.00     0.031 C 
ATOM     67  C   UNL A   1      45.567  31.176  28.361  1.00  0.00     0.037 A 
BRANCH  54  68
ATOM     68  C   UNL A   1      39.859  28.915  29.057  1.00  0.00     0.064 A 
ATOM     69  C   UNL A   1      39.392  28.792  30.376  1.00  0.00     0.173 A 
ATOM     70  C   UNL A   1      38.947  29.339  28.078  1.00  0.00     0.173 A 
ATOM     71  F   UNL A   1      40.218  28.380  31.350  1.00  0.00    -0.203 F 
ATOM     72  C   UNL A   1      38.061  29.052  30.693  1.00  0.00     0.198 A 
ATOM     73  C   UNL A   1      37.625  29.630  28.406  1.00  0.00     0.198 A 
ATOM     74  F   UNL A   1      39.340  29.479  26.804  1.00  0.00    -0.203 F 
ATOM     75  F   UNL A   1      37.627  28.875  31.949  1.00  0.00    -0.200 F 
ATOM     76  C   UNL A   1      37.182  29.478  29.710  1.00  0.00     0.200 A 
ATOM     77  F   UNL A   1      36.780  30.058  27.457  1.00  0.00    -0.200 F 
ATOM     78  F   UNL A   1      35.903  29.737  30.019  1.00  0.00    -0.200 F 
ENDBRANCH  54  68
BRANCH  55  79
ATOM     79  C   UNL A   1      49.214  26.828  26.242  1.00  0.00     0.064 A 
ATOM     80  C   UNL A   1      49.592  27.006  24.903  1.00  0.00     0.173 A 
ATOM     81  C   UNL A   1      50.188  26.364  27.137  1.00  0.00     0.173 A 
ATOM     82  F   UNL A   1      48.690  27.427  24.004  1.00  0.00    -0.203 F 
ATOM     83  C   UNL A   1      50.884  26.711  24.474  1.00  0.00     0.198 A 
ATOM     84  C   UNL A   1      51.490  26.099  26.713  1.00  0.00     0.198 A 
ATOM     85  F   UNL A   1      49.881  26.183  28.430  1.00  0.00    -0.203 F 
ATOM     86  F   UNL A   1      51.205  26.845  23.179  1.00  0.00    -0.200 F 
ATOM     87  C   UNL A   1      51.834  26.265  25.381  1.00  0.00     0.200 A 
ATOM     88  F   UNL A   1      52.407  25.684  27.596  1.00  0.00    -0.200 F 
ATOM     89  F   UNL A   1      53.079  25.987  24.969  1.00  0.00    -0.200 F 
ENDBRANCH  55  79
BRANCH  67  90
ATOM     90  C   UNL A   1      46.066  32.562  28.656  1.00  0.00     0.064 A 
ATOM     91  C   UNL A   1      46.009  33.587  27.699  1.00  0.00     0.173 A 
ATOM     92  C   UNL A   1      46.568  32.878  29.927  1.00  0.00     0.173 A 
ATOM     93  F   UNL A   1      45.551  33.333  26.464  1.00  0.00    -0.203 F 
ATOM     94  C   UNL A   1      46.463  34.870  27.997  1.00  0.00     0.198 A 
ATOM     95  C   UNL A   1      46.989  34.170  30.232  1.00  0.00     0.198 A 
ATOM     96  F   UNL A   1      46.636  31.937  30.882  1.00  0.00    -0.203 F 
ATOM     97  F   UNL A   1      46.448  35.819  27.051  1.00  0.00    -0.200 F 
ATOM     98  C   UNL A   1      46.944  35.162  29.264  1.00  0.00     0.200 A 
ATOM     99  F   UNL A   1      47.437  34.454  31.463  1.00  0.00    -0.200 F 
ATOM    100  F   UNL A   1      47.371  36.398  29.551  1.00  0.00    -0.200 F 
ENDBRANCH  67  90
ENDBRANCH  41  42
ENDBRANCH  33  36
ENDBRANCH  31  32
ENDBRANCH   1  31
TORSDOF 14
ENDMDL
