MODEL 1
REMARK VINA RESULT:     -14.0      0.000      0.000
REMARK SMILES O=C(NCCCNC(=O)c1ccc2c(c1)-c1nc3ccccc3n1C2=O)c1ccc(-c2c3nc(c(-c4c(F)c(F)c(F)c(F)c4F)c4ccc([nH]4)c(-c4c(F)c(F)c(F)c(F)c4F)c4nc(c(-c5c(F)c(F)c(F)c(F)c5F)c5ccc2[nH]5)C=C4)C=C3)cc1
REMARK SMILES IDX 4 1 3 2 1 3 2 4 27 6 28 7 89 8 29 9 88 10 30 11 31 12 32 13
REMARK SMILES IDX 82 14 33 15 87 16 81 17 83 18 34 19 86 20 80 21 79 22 35 24
REMARK SMILES IDX 67 25 47 26 66 27 48 28 51 29 65 30 84 31 49 32 50 33 64 35
REMARK SMILES IDX 85 36 52 37 36 38 37 39 45 40 38 41 39 42 43 43 46 44 40 45
REMARK SMILES IDX 41 46 44 47 42 48 68 49 69 50 77 51 70 52 71 53 75 54 78 55
REMARK SMILES IDX 72 56 73 57 76 58 74 59 53 60 54 61 62 62 55 63 56 64 60 65
REMARK SMILES IDX 63 66 57 67 58 68 61 69 59 70 5 71 6 72 7 73 8 74 9 76 10 77
REMARK SMILES IDX 11 78 15 79 12 80 14 81 13 82 16 83 25 84 17 85 24 86 26 87
REMARK SMILES IDX 18 88 23 89 19 90 22 91 20 92 21 93
REMARK H PARENT 3 5 83 23 51 34 7 75
REMARK Flexibility Score: inf
ROOT
ATOM      1  C   UNL A   1      38.159  21.966  25.587  1.00  0.00     0.118 C 
ENDROOT
BRANCH   1   2
ATOM      2  N   UNL A   1      39.109  21.482  26.575  1.00  0.00    -0.352 N 
ATOM      3  O   UNL A   1      40.968  21.319  27.768  1.00  0.00    -0.269 OA
ATOM      4  C   UNL A   1      40.159  22.070  27.221  1.00  0.00     0.251 C 
ATOM      5  H   UNL A   1      38.966  20.542  26.829  1.00  0.00     0.163 HD
BRANCH   4   6
ATOM      6  C   UNL A   1      40.359  23.534  27.336  1.00  0.00     0.039 A 
ATOM      7  C   UNL A   1      41.597  24.032  26.896  1.00  0.00     0.014 A 
ATOM      8  C   UNL A   1      39.479  24.392  28.003  1.00  0.00     0.014 A 
ATOM      9  C   UNL A   1      41.955  25.357  27.125  1.00  0.00     0.010 A 
ATOM     10  C   UNL A   1      39.833  25.732  28.218  1.00  0.00     0.010 A 
ATOM     11  C   UNL A   1      41.074  26.218  27.787  1.00  0.00    -0.014 A 
BRANCH  11  12
ATOM     12  C   UNL A   1      41.483  27.630  27.892  1.00  0.00     0.031 A 
ATOM     13  C   UNL A   1      40.364  28.615  27.741  1.00  0.00     0.074 A 
ATOM     14  C   UNL A   1      42.544  28.003  28.643  1.00  0.00     0.049 A 
ATOM     15  N   UNL A   1      39.538  28.918  28.701  1.00  0.00    -0.248 NA
ATOM     16  C   UNL A   1      39.945  29.112  26.430  1.00  0.00     0.031 C 
ATOM     17  C   UNL A   1      42.913  27.398  29.925  1.00  0.00     0.029 A 
ATOM     18  N   UNL A   1      43.385  29.088  28.524  1.00  0.00    -0.354 N 
ATOM     19  C   UNL A   1      38.480  29.608  28.135  1.00  0.00     0.074 A 
ATOM     20  C   UNL A   1      38.776  29.703  26.722  1.00  0.00     0.031 C 
ATOM     21  C   UNL A   1      43.786  28.213  30.552  1.00  0.00     0.029 A 
ATOM     22  C   UNL A   1      44.138  29.327  29.673  1.00  0.00     0.049 A 
ATOM     23  H   UNL A   1      43.448  29.638  27.710  1.00  0.00     0.167 HD
ATOM     24  C   UNL A   1      37.431  30.073  28.865  1.00  0.00     0.037 A 
ATOM     25  C   UNL A   1      44.483  30.574  30.106  1.00  0.00     0.037 A 
ATOM     26  C   UNL A   1      37.518  29.856  30.278  1.00  0.00     0.049 A 
ATOM     27  C   UNL A   1      43.154  31.062  30.639  1.00  0.00     0.074 A 
ATOM     28  C   UNL A   1      37.028  28.976  31.217  1.00  0.00     0.029 A 
ATOM     29  N   UNL A   1      38.319  30.713  30.997  1.00  0.00    -0.354 N 
ATOM     30  N   UNL A   1      42.608  30.716  31.776  1.00  0.00    -0.248 NA
ATOM     31  C   UNL A   1      42.228  31.663  29.678  1.00  0.00     0.031 C 
ATOM     32  C   UNL A   1      37.929  29.067  32.327  1.00  0.00     0.029 A 
ATOM     33  C   UNL A   1      38.929  29.970  31.972  1.00  0.00     0.049 A 
ATOM     34  H   UNL A   1      38.431  31.679  30.839  1.00  0.00     0.167 HD
ATOM     35  C   UNL A   1      41.229  30.797  31.564  1.00  0.00     0.074 A 
ATOM     36  C   UNL A   1      41.065  31.409  30.262  1.00  0.00     0.031 C 
ATOM     37  C   UNL A   1      40.301  30.194  32.365  1.00  0.00     0.037 A 
BRANCH  24  38
ATOM     38  C   UNL A   1      36.356  30.949  28.358  1.00  0.00     0.064 A 
ATOM     39  C   UNL A   1      36.536  32.335  28.487  1.00  0.00     0.173 A 
ATOM     40  C   UNL A   1      35.090  30.476  28.001  1.00  0.00     0.173 A 
ATOM     41  F   UNL A   1      37.739  32.825  28.831  1.00  0.00    -0.203 F 
ATOM     42  C   UNL A   1      35.475  33.217  28.327  1.00  0.00     0.198 A 
ATOM     43  C   UNL A   1      34.030  31.367  27.823  1.00  0.00     0.198 A 
ATOM     44  F   UNL A   1      34.867  29.160  27.878  1.00  0.00    -0.203 F 
ATOM     45  F   UNL A   1      35.666  34.528  28.525  1.00  0.00    -0.200 F 
ATOM     46  C   UNL A   1      34.218  32.732  28.006  1.00  0.00     0.200 A 
ATOM     47  F   UNL A   1      32.811  30.903  27.513  1.00  0.00    -0.200 F 
ATOM     48  F   UNL A   1      33.187  33.579  27.890  1.00  0.00    -0.200 F 
ENDBRANCH  24  38
BRANCH  25  49
ATOM     49  C   UNL A   1      45.359  31.354  29.171  1.00  0.00     0.064 A 
ATOM     50  C   UNL A   1      46.671  31.653  29.597  1.00  0.00     0.173 A 
ATOM     51  C   UNL A   1      45.018  31.800  27.886  1.00  0.00     0.173 A 
ATOM     52  F   UNL A   1      47.046  31.387  30.859  1.00  0.00    -0.203 F 
ATOM     53  C   UNL A   1      47.623  32.204  28.739  1.00  0.00     0.198 A 
ATOM     54  C   UNL A   1      45.978  32.325  27.015  1.00  0.00     0.198 A 
ATOM     55  F   UNL A   1      43.760  31.721  27.433  1.00  0.00    -0.203 F 
ATOM     56  F   UNL A   1      48.874  32.409  29.172  1.00  0.00    -0.200 F 
ATOM     57  C   UNL A   1      47.285  32.500  27.433  1.00  0.00     0.200 A 
ATOM     58  F   UNL A   1      45.637  32.629  25.755  1.00  0.00    -0.200 F 
ATOM     59  F   UNL A   1      48.214  32.952  26.580  1.00  0.00    -0.200 F 
ENDBRANCH  25  49
BRANCH  37  60
ATOM     60  C   UNL A   1      40.832  29.545  33.595  1.00  0.00     0.064 A 
ATOM     61  C   UNL A   1      41.159  28.183  33.591  1.00  0.00     0.173 A 
ATOM     62  C   UNL A   1      41.071  30.277  34.769  1.00  0.00     0.173 A 
ATOM     63  F   UNL A   1      40.964  27.441  32.490  1.00  0.00    -0.203 F 
ATOM     64  C   UNL A   1      41.722  27.582  34.712  1.00  0.00     0.198 A 
ATOM     65  C   UNL A   1      41.665  29.679  35.876  1.00  0.00     0.198 A 
ATOM     66  F   UNL A   1      40.754  31.579  34.845  1.00  0.00    -0.203 F 
ATOM     67  F   UNL A   1      42.030  26.277  34.687  1.00  0.00    -0.200 F 
ATOM     68  C   UNL A   1      41.990  28.332  35.847  1.00  0.00     0.200 A 
ATOM     69  F   UNL A   1      41.943  30.413  36.963  1.00  0.00    -0.200 F 
ATOM     70  F   UNL A   1      42.576  27.761  36.909  1.00  0.00    -0.200 F 
ENDBRANCH  37  60
ENDBRANCH  11  12
ENDBRANCH   4   6
ENDBRANCH   1   2
BRANCH   1  71
ATOM     71  C   UNL A   1      37.365  20.806  24.971  1.00  0.00     0.042 C 
BRANCH  71  72
ATOM     72  C   UNL A   1      35.881  21.088  24.710  1.00  0.00     0.118 C 
BRANCH  72  73
ATOM     73  N   UNL A   1      35.050  20.950  25.898  1.00  0.00    -0.352 N 
ATOM     74  C   UNL A   1      34.281  21.883  26.555  1.00  0.00     0.251 C 
ATOM     75  H   UNL A   1      35.037  20.048  26.291  1.00  0.00     0.163 HD
ATOM     76  O   UNL A   1      33.754  21.597  27.626  1.00  0.00    -0.269 OA
BRANCH  74  77
ATOM     77  C   UNL A   1      34.086  23.241  25.994  1.00  0.00     0.040 A 
ATOM     78  C   UNL A   1      35.196  24.110  25.839  1.00  0.00     0.015 A 
ATOM     79  C   UNL A   1      32.794  23.621  25.581  1.00  0.00     0.026 A 
ATOM     80  C   UNL A   1      35.028  25.417  25.376  1.00  0.00     0.015 A 
ATOM     81  C   UNL A   1      32.637  24.906  25.104  1.00  0.00     0.031 A 
ATOM     82  C   UNL A   1      33.746  25.785  25.038  1.00  0.00     0.051 A 
ATOM     83  C   UNL A   1      31.476  25.636  24.635  1.00  0.00     0.149 A 
ATOM     84  C   UNL A   1      33.219  27.083  24.559  1.00  0.00     0.264 C 
ATOM     85  N   UNL A   1      30.204  25.441  24.401  1.00  0.00    -0.228 NA
ATOM     86  N   UNL A   1      31.864  26.916  24.339  1.00  0.00    -0.258 N 
ATOM     87  O   UNL A   1      33.798  28.143  24.381  1.00  0.00    -0.268 OA
ATOM     88  C   UNL A   1      29.759  26.681  23.943  1.00  0.00     0.090 A 
ATOM     89  C   UNL A   1      30.790  27.631  23.921  1.00  0.00     0.077 A 
ATOM     90  C   UNL A   1      28.479  27.078  23.527  1.00  0.00     0.030 A 
ATOM     91  C   UNL A   1      30.614  28.962  23.534  1.00  0.00     0.029 A 
ATOM     92  C   UNL A   1      28.277  28.408  23.126  1.00  0.00     0.002 A 
ATOM     93  C   UNL A   1      29.326  29.332  23.137  1.00  0.00     0.002 A 
ENDBRANCH  74  77
ENDBRANCH  72  73
ENDBRANCH  71  72
ENDBRANCH   1  71
TORSDOF 10
ENDMDL
MODEL 2
REMARK VINA RESULT:     -13.7      1.219      1.677
REMARK SMILES O=C(NCCCNC(=O)c1ccc2c(c1)-c1nc3ccccc3n1C2=O)c1ccc(-c2c3nc(c(-c4c(F)c(F)c(F)c(F)c4F)c4ccc([nH]4)c(-c4c(F)c(F)c(F)c(F)c4F)c4nc(c(-c5c(F)c(F)c(F)c(F)c5F)c5ccc2[nH]5)C=C4)C=C3)cc1
REMARK SMILES IDX 4 1 3 2 1 3 2 4 27 6 28 7 89 8 29 9 88 10 30 11 31 12 32 13
REMARK SMILES IDX 82 14 33 15 87 16 81 17 83 18 34 19 86 20 80 21 79 22 35 24
REMARK SMILES IDX 67 25 47 26 66 27 48 28 51 29 65 30 84 31 49 32 50 33 64 35
REMARK SMILES IDX 85 36 52 37 36 38 37 39 45 40 38 41 39 42 43 43 46 44 40 45
REMARK SMILES IDX 41 46 44 47 42 48 68 49 69 50 77 51 70 52 71 53 75 54 78 55
REMARK SMILES IDX 72 56 73 57 76 58 74 59 53 60 54 61 62 62 55 63 56 64 60 65
REMARK SMILES IDX 63 66 57 67 58 68 61 69 59 70 5 71 6 72 7 73 8 74 9 76 10 77
REMARK SMILES IDX 11 78 15 79 12 80 14 81 13 82 16 83 25 84 17 85 24 86 26 87
REMARK SMILES IDX 18 88 23 89 19 90 22 91 20 92 21 93
REMARK H PARENT 3 5 83 23 51 34 7 75
REMARK Flexibility Score: inf
ROOT
ATOM      1  C   UNL A   1      38.262  21.991  25.377  1.00  0.00     0.118 C 
ENDROOT
BRANCH   1   2
ATOM      2  N   UNL A   1      39.064  21.499  26.485  1.00  0.00    -0.352 N 
ATOM      3  O   UNL A   1      40.751  21.307  27.908  1.00  0.00    -0.269 OA
ATOM      4  C   UNL A   1      40.040  22.070  27.252  1.00  0.00     0.251 C 
ATOM      5  H   UNL A   1      38.864  20.567  26.731  1.00  0.00     0.163 HD
BRANCH   4   6
ATOM      6  C   UNL A   1      40.264  23.530  27.372  1.00  0.00     0.039 A 
ATOM      7  C   UNL A   1      41.504  24.011  26.920  1.00  0.00     0.014 A 
ATOM      8  C   UNL A   1      39.406  24.398  28.055  1.00  0.00     0.014 A 
ATOM      9  C   UNL A   1      41.886  25.329  27.151  1.00  0.00     0.010 A 
ATOM     10  C   UNL A   1      39.784  25.731  28.273  1.00  0.00     0.010 A 
ATOM     11  C   UNL A   1      41.027  26.200  27.829  1.00  0.00    -0.014 A 
BRANCH  11  12
ATOM     12  C   UNL A   1      41.460  27.605  27.937  1.00  0.00     0.031 A 
ATOM     13  C   UNL A   1      40.356  28.608  27.795  1.00  0.00     0.074 A 
ATOM     14  C   UNL A   1      42.531  27.958  28.682  1.00  0.00     0.049 A 
ATOM     15  N   UNL A   1      39.541  28.921  28.761  1.00  0.00    -0.248 NA
ATOM     16  C   UNL A   1      39.937  29.117  26.489  1.00  0.00     0.031 C 
ATOM     17  C   UNL A   1      42.898  27.342  29.959  1.00  0.00     0.029 A 
ATOM     18  N   UNL A   1      43.389  29.029  28.562  1.00  0.00    -0.354 N 
ATOM     19  C   UNL A   1      38.491  29.630  28.205  1.00  0.00     0.074 A 
ATOM     20  C   UNL A   1      38.779  29.726  26.790  1.00  0.00     0.031 C 
ATOM     21  C   UNL A   1      43.788  28.140  30.584  1.00  0.00     0.029 A 
ATOM     22  C   UNL A   1      44.153  29.252  29.706  1.00  0.00     0.049 A 
ATOM     23  H   UNL A   1      43.456  29.581  27.749  1.00  0.00     0.167 HD
ATOM     24  C   UNL A   1      37.454  30.110  28.942  1.00  0.00     0.037 A 
ATOM     25  C   UNL A   1      44.520  30.492  30.142  1.00  0.00     0.037 A 
ATOM     26  C   UNL A   1      37.546  29.887  30.354  1.00  0.00     0.049 A 
ATOM     27  C   UNL A   1      43.204  30.999  30.684  1.00  0.00     0.074 A 
ATOM     28  C   UNL A   1      37.047  29.012  31.293  1.00  0.00     0.029 A 
ATOM     29  N   UNL A   1      38.365  30.728  31.071  1.00  0.00    -0.354 N 
ATOM     30  N   UNL A   1      42.659  30.658  31.824  1.00  0.00    -0.248 NA
ATOM     31  C   UNL A   1      42.281  31.619  29.731  1.00  0.00     0.031 C 
ATOM     32  C   UNL A   1      37.956  29.084  32.398  1.00  0.00     0.029 A 
ATOM     33  C   UNL A   1      38.969  29.972  32.040  1.00  0.00     0.049 A 
ATOM     34  H   UNL A   1      38.492  31.692  30.916  1.00  0.00     0.167 HD
ATOM     35  C   UNL A   1      41.279  30.763  31.620  1.00  0.00     0.074 A 
ATOM     36  C   UNL A   1      41.118  31.381  30.322  1.00  0.00     0.031 C 
ATOM     37  C   UNL A   1      40.347  30.172  32.425  1.00  0.00     0.037 A 
BRANCH  24  38
ATOM     38  C   UNL A   1      36.390  31.005  28.446  1.00  0.00     0.064 A 
ATOM     39  C   UNL A   1      36.579  32.387  28.607  1.00  0.00     0.173 A 
ATOM     40  C   UNL A   1      35.125  30.550  28.065  1.00  0.00     0.173 A 
ATOM     41  F   UNL A   1      37.782  32.859  28.975  1.00  0.00    -0.203 F 
ATOM     42  C   UNL A   1      35.526  33.280  28.458  1.00  0.00     0.198 A 
ATOM     43  C   UNL A   1      34.073  31.453  27.897  1.00  0.00     0.198 A 
ATOM     44  F   UNL A   1      34.893  29.239  27.910  1.00  0.00    -0.203 F 
ATOM     45  F   UNL A   1      35.724  34.585  28.688  1.00  0.00    -0.200 F 
ATOM     46  C   UNL A   1      34.269  32.811  28.114  1.00  0.00     0.200 A 
ATOM     47  F   UNL A   1      32.854  31.005  27.565  1.00  0.00    -0.200 F 
ATOM     48  F   UNL A   1      33.245  33.668  28.007  1.00  0.00    -0.200 F 
ENDBRANCH  24  38
BRANCH  25  49
ATOM     49  C   UNL A   1      45.403  31.261  29.204  1.00  0.00     0.064 A 
ATOM     50  C   UNL A   1      46.739  31.492  29.601  1.00  0.00     0.173 A 
ATOM     51  C   UNL A   1      45.047  31.757  27.943  1.00  0.00     0.173 A 
ATOM     52  F   UNL A   1      47.136  31.174  30.844  1.00  0.00    -0.203 F 
ATOM     53  C   UNL A   1      47.689  32.026  28.732  1.00  0.00     0.198 A 
ATOM     54  C   UNL A   1      46.005  32.266  27.060  1.00  0.00     0.198 A 
ATOM     55  F   UNL A   1      43.775  31.744  27.524  1.00  0.00    -0.203 F 
ATOM     56  F   UNL A   1      48.960  32.166  29.135  1.00  0.00    -0.200 F 
ATOM     57  C   UNL A   1      47.329  32.374  27.445  1.00  0.00     0.200 A 
ATOM     58  F   UNL A   1      45.643  32.620  25.818  1.00  0.00    -0.200 F 
ATOM     59  F   UNL A   1      48.253  32.811  26.579  1.00  0.00    -0.200 F 
ENDBRANCH  25  49
BRANCH  37  60
ATOM     60  C   UNL A   1      40.875  29.509  33.649  1.00  0.00     0.064 A 
ATOM     61  C   UNL A   1      41.162  28.138  33.644  1.00  0.00     0.173 A 
ATOM     62  C   UNL A   1      41.151  30.236  34.819  1.00  0.00     0.173 A 
ATOM     63  F   UNL A   1      40.930  27.400  32.548  1.00  0.00    -0.203 F 
ATOM     64  C   UNL A   1      41.721  27.523  34.760  1.00  0.00     0.198 A 
ATOM     65  C   UNL A   1      41.741  29.623  35.919  1.00  0.00     0.198 A 
ATOM     66  F   UNL A   1      40.873  31.547  34.896  1.00  0.00    -0.203 F 
ATOM     67  F   UNL A   1      41.990  26.210  34.733  1.00  0.00    -0.200 F 
ATOM     68  C   UNL A   1      42.026  28.268  35.889  1.00  0.00     0.200 A 
ATOM     69  F   UNL A   1      42.055  30.351  37.001  1.00  0.00    -0.200 F 
ATOM     70  F   UNL A   1      42.609  27.681  36.945  1.00  0.00    -0.200 F 
ENDBRANCH  37  60
ENDBRANCH  11  12
ENDBRANCH   4   6
ENDBRANCH   1   2
BRANCH   1  71
ATOM     71  C   UNL A   1      37.383  20.876  24.794  1.00  0.00     0.042 C 
BRANCH  71  72
ATOM     72  C   UNL A   1      36.050  20.643  25.513  1.00  0.00     0.118 C 
BRANCH  72  73
ATOM     73  N   UNL A   1      35.129  19.802  24.762  1.00  0.00    -0.352 N 
ATOM     74  C   UNL A   1      33.779  19.947  24.534  1.00  0.00     0.251 C 
ATOM     75  H   UNL A   1      35.536  19.005  24.352  1.00  0.00     0.163 HD
ATOM     76  O   UNL A   1      33.152  19.050  23.979  1.00  0.00    -0.269 OA
BRANCH  74  77
ATOM     77  C   UNL A   1      33.063  21.172  24.961  1.00  0.00     0.040 A 
ATOM     78  C   UNL A   1      31.892  21.069  25.754  1.00  0.00     0.015 A 
ATOM     79  C   UNL A   1      33.596  22.426  24.602  1.00  0.00     0.026 A 
ATOM     80  C   UNL A   1      31.162  22.204  26.112  1.00  0.00     0.015 A 
ATOM     81  C   UNL A   1      32.883  23.545  24.976  1.00  0.00     0.031 A 
ATOM     82  C   UNL A   1      31.670  23.414  25.696  1.00  0.00     0.051 A 
ATOM     83  C   UNL A   1      33.104  24.960  24.755  1.00  0.00     0.149 A 
ATOM     84  C   UNL A   1      31.137  24.784  25.867  1.00  0.00     0.264 C 
ATOM     85  N   UNL A   1      33.996  25.759  24.228  1.00  0.00    -0.228 NA
ATOM     86  N   UNL A   1      32.044  25.649  25.284  1.00  0.00    -0.258 N 
ATOM     87  O   UNL A   1      30.101  25.159  26.392  1.00  0.00    -0.268 OA
ATOM     88  C   UNL A   1      33.456  27.030  24.424  1.00  0.00     0.090 A 
ATOM     89  C   UNL A   1      32.212  26.978  25.067  1.00  0.00     0.077 A 
ATOM     90  C   UNL A   1      33.973  28.288  24.075  1.00  0.00     0.030 A 
ATOM     91  C   UNL A   1      31.439  28.103  25.360  1.00  0.00     0.029 A 
ATOM     92  C   UNL A   1      33.218  29.436  24.364  1.00  0.00     0.002 A 
ATOM     93  C   UNL A   1      31.971  29.341  24.989  1.00  0.00     0.002 A 
ENDBRANCH  74  77
ENDBRANCH  72  73
ENDBRANCH  71  72
ENDBRANCH   1  71
TORSDOF 10
ENDMDL
MODEL 3
REMARK VINA RESULT:     -13.1      5.040      9.695
REMARK SMILES O=C(NCCCNC(=O)c1ccc2c(c1)-c1nc3ccccc3n1C2=O)c1ccc(-c2c3nc(c(-c4c(F)c(F)c(F)c(F)c4F)c4ccc([nH]4)c(-c4c(F)c(F)c(F)c(F)c4F)c4nc(c(-c5c(F)c(F)c(F)c(F)c5F)c5ccc2[nH]5)C=C4)C=C3)cc1
REMARK SMILES IDX 4 1 3 2 1 3 2 4 27 6 28 7 89 8 29 9 88 10 30 11 31 12 32 13
REMARK SMILES IDX 82 14 33 15 87 16 81 17 83 18 34 19 86 20 80 21 79 22 35 24
REMARK SMILES IDX 67 25 47 26 66 27 48 28 51 29 65 30 84 31 49 32 50 33 64 35
REMARK SMILES IDX 85 36 52 37 36 38 37 39 45 40 38 41 39 42 43 43 46 44 40 45
REMARK SMILES IDX 41 46 44 47 42 48 68 49 69 50 77 51 70 52 71 53 75 54 78 55
REMARK SMILES IDX 72 56 73 57 76 58 74 59 53 60 54 61 62 62 55 63 56 64 60 65
REMARK SMILES IDX 63 66 57 67 58 68 61 69 59 70 5 71 6 72 7 73 8 74 9 76 10 77
REMARK SMILES IDX 11 78 15 79 12 80 14 81 13 82 16 83 25 84 17 85 24 86 26 87
REMARK SMILES IDX 18 88 23 89 19 90 22 91 20 92 21 93
REMARK H PARENT 3 5 83 23 51 34 7 75
REMARK Flexibility Score: inf
ROOT
ATOM      1  C   UNL A   1      45.514  34.649  25.865  1.00  0.00     0.118 C 
ENDROOT
BRANCH   1   2
ATOM      2  N   UNL A   1      45.045  35.981  26.205  1.00  0.00    -0.352 N 
ATOM      3  O   UNL A   1      43.689  37.605  26.862  1.00  0.00    -0.269 OA
ATOM      4  C   UNL A   1      44.047  36.436  27.018  1.00  0.00     0.251 C 
ATOM      5  H   UNL A   1      45.549  36.700  25.759  1.00  0.00     0.163 HD
BRANCH   4   6
ATOM      6  C   UNL A   1      43.405  35.634  28.087  1.00  0.00     0.039 A 
ATOM      7  C   UNL A   1      44.268  35.034  29.020  1.00  0.00     0.014 A 
ATOM      8  C   UNL A   1      42.046  35.307  28.109  1.00  0.00     0.014 A 
ATOM      9  C   UNL A   1      43.786  34.119  29.951  1.00  0.00     0.010 A 
ATOM     10  C   UNL A   1      41.558  34.397  29.058  1.00  0.00     0.010 A 
ATOM     11  C   UNL A   1      42.426  33.795  29.977  1.00  0.00    -0.014 A 
BRANCH  11  12
ATOM     12  C   UNL A   1      41.980  32.901  31.062  1.00  0.00     0.031 A 
ATOM     13  C   UNL A   1      40.531  33.032  31.419  1.00  0.00     0.074 A 
ATOM     14  C   UNL A   1      42.569  31.704  31.277  1.00  0.00     0.049 A 
ATOM     15  N   UNL A   1      39.570  32.474  30.741  1.00  0.00    -0.248 NA
ATOM     16  C   UNL A   1      40.062  34.015  32.397  1.00  0.00     0.031 C 
ATOM     17  C   UNL A   1      43.059  30.814  30.221  1.00  0.00     0.029 A 
ATOM     18  N   UNL A   1      42.687  30.960  32.430  1.00  0.00    -0.354 N 
ATOM     19  C   UNL A   1      38.381  33.041  31.163  1.00  0.00     0.074 A 
ATOM     20  C   UNL A   1      38.736  33.994  32.192  1.00  0.00     0.031 C 
ATOM     21  C   UNL A   1      43.264  29.590  30.748  1.00  0.00     0.029 A 
ATOM     22  C   UNL A   1      43.048  29.634  32.195  1.00  0.00     0.049 A 
ATOM     23  H   UNL A   1      42.531  31.328  33.330  1.00  0.00     0.167 HD
ATOM     24  C   UNL A   1      37.172  32.683  30.652  1.00  0.00     0.037 A 
ATOM     25  C   UNL A   1      42.601  28.583  32.941  1.00  0.00     0.037 A 
ATOM     26  C   UNL A   1      37.201  31.628  29.683  1.00  0.00     0.049 A 
ATOM     27  C   UNL A   1      41.172  28.484  32.459  1.00  0.00     0.074 A 
ATOM     28  C   UNL A   1      37.168  31.487  28.314  1.00  0.00     0.029 A 
ATOM     29  N   UNL A   1      37.313  30.342  30.158  1.00  0.00    -0.354 N 
ATOM     30  N   UNL A   1      40.777  27.966  31.323  1.00  0.00    -0.248 NA
ATOM     31  C   UNL A   1      40.185  29.351  33.106  1.00  0.00     0.031 C 
ATOM     32  C   UNL A   1      37.737  30.198  28.053  1.00  0.00     0.029 A 
ATOM     33  C   UNL A   1      38.113  29.659  29.282  1.00  0.00     0.049 A 
ATOM     34  H   UNL A   1      36.896  29.981  30.974  1.00  0.00     0.167 HD
ATOM     35  C   UNL A   1      39.614  28.663  30.984  1.00  0.00     0.074 A 
ATOM     36  C   UNL A   1      39.293  29.481  32.134  1.00  0.00     0.031 C 
ATOM     37  C   UNL A   1      39.083  28.683  29.725  1.00  0.00     0.037 A 
BRANCH  24  38
ATOM     38  C   UNL A   1      35.860  33.125  31.163  1.00  0.00     0.064 A 
ATOM     39  C   UNL A   1      35.182  34.116  30.435  1.00  0.00     0.173 A 
ATOM     40  C   UNL A   1      35.387  32.802  32.438  1.00  0.00     0.173 A 
ATOM     41  F   UNL A   1      35.610  34.454  29.206  1.00  0.00    -0.203 F 
ATOM     42  C   UNL A   1      34.110  34.807  30.983  1.00  0.00     0.198 A 
ATOM     43  C   UNL A   1      34.297  33.486  32.979  1.00  0.00     0.198 A 
ATOM     44  F   UNL A   1      36.008  31.871  33.176  1.00  0.00    -0.203 F 
ATOM     45  F   UNL A   1      33.530  35.794  30.288  1.00  0.00    -0.200 F 
ATOM     46  C   UNL A   1      33.674  34.499  32.261  1.00  0.00     0.200 A 
ATOM     47  F   UNL A   1      33.871  33.193  34.216  1.00  0.00    -0.200 F 
ATOM     48  F   UNL A   1      32.664  35.191  32.805  1.00  0.00    -0.200 F 
ENDBRANCH  24  38
BRANCH  25  49
ATOM     49  C   UNL A   1      43.008  28.609  34.385  1.00  0.00     0.064 A 
ATOM     50  C   UNL A   1      43.741  27.508  34.880  1.00  0.00     0.173 A 
ATOM     51  C   UNL A   1      42.759  29.639  35.302  1.00  0.00     0.173 A 
ATOM     52  F   UNL A   1      43.913  26.417  34.117  1.00  0.00    -0.203 F 
ATOM     53  C   UNL A   1      44.328  27.515  36.145  1.00  0.00     0.198 A 
ATOM     54  C   UNL A   1      43.371  29.661  36.560  1.00  0.00     0.198 A 
ATOM     55  F   UNL A   1      41.941  30.656  35.003  1.00  0.00    -0.203 F 
ATOM     56  F   UNL A   1      45.069  26.473  36.544  1.00  0.00    -0.200 F 
ATOM     57  C   UNL A   1      44.176  28.614  36.970  1.00  0.00     0.200 A 
ATOM     58  F   UNL A   1      43.201  30.722  37.363  1.00  0.00    -0.200 F 
ATOM     59  F   UNL A   1      44.803  28.663  38.152  1.00  0.00    -0.200 F 
ENDBRANCH  25  49
BRANCH  37  60
ATOM     60  C   UNL A   1      39.737  27.789  28.731  1.00  0.00     0.064 A 
ATOM     61  C   UNL A   1      39.445  26.419  28.711  1.00  0.00     0.173 A 
ATOM     62  C   UNL A   1      40.618  28.289  27.759  1.00  0.00     0.173 A 
ATOM     63  F   UNL A   1      38.599  25.892  29.611  1.00  0.00    -0.203 F 
ATOM     64  C   UNL A   1      39.997  25.586  27.743  1.00  0.00     0.198 A 
ATOM     65  C   UNL A   1      41.140  27.459  26.772  1.00  0.00     0.198 A 
ATOM     66  F   UNL A   1      40.959  29.587  27.742  1.00  0.00    -0.203 F 
ATOM     67  F   UNL A   1      39.702  24.279  27.740  1.00  0.00    -0.200 F 
ATOM     68  C   UNL A   1      40.829  26.109  26.764  1.00  0.00     0.200 A 
ATOM     69  F   UNL A   1      41.927  27.972  25.815  1.00  0.00    -0.200 F 
ATOM     70  F   UNL A   1      41.322  25.313  25.805  1.00  0.00    -0.200 F 
ENDBRANCH  37  60
ENDBRANCH  11  12
ENDBRANCH   4   6
ENDBRANCH   1   2
BRANCH   1  71
ATOM     71  C   UNL A   1      44.338  33.711  25.558  1.00  0.00     0.042 C 
BRANCH  71  72
ATOM     72  C   UNL A   1      44.371  32.356  26.273  1.00  0.00     0.118 C 
BRANCH  72  73
ATOM     73  N   UNL A   1      45.349  32.296  27.351  1.00  0.00    -0.352 N 
ATOM     74  C   UNL A   1      46.015  31.217  27.886  1.00  0.00     0.251 C 
ATOM     75  H   UNL A   1      45.567  33.164  27.760  1.00  0.00     0.163 HD
ATOM     76  O   UNL A   1      46.707  31.361  28.889  1.00  0.00    -0.269 OA
BRANCH  74  77
ATOM     77  C   UNL A   1      45.899  29.872  27.274  1.00  0.00     0.040 A 
ATOM     78  C   UNL A   1      46.493  29.613  26.012  1.00  0.00     0.015 A 
ATOM     79  C   UNL A   1      45.234  28.859  27.993  1.00  0.00     0.026 A 
ATOM     80  C   UNL A   1      46.341  28.375  25.385  1.00  0.00     0.015 A 
ATOM     81  C   UNL A   1      45.105  27.631  27.378  1.00  0.00     0.031 A 
ATOM     82  C   UNL A   1      45.633  27.421  26.080  1.00  0.00     0.051 A 
ATOM     83  C   UNL A   1      44.467  26.398  27.791  1.00  0.00     0.149 A 
ATOM     84  C   UNL A   1      45.259  26.041  25.698  1.00  0.00     0.264 C 
ATOM     85  N   UNL A   1      43.850  25.893  28.829  1.00  0.00    -0.228 NA
ATOM     86  N   UNL A   1      44.570  25.495  26.765  1.00  0.00    -0.258 N 
ATOM     87  O   UNL A   1      45.466  25.435  24.658  1.00  0.00    -0.268 OA
ATOM     88  C   UNL A   1      43.532  24.596  28.425  1.00  0.00     0.090 A 
ATOM     89  C   UNL A   1      43.957  24.337  27.115  1.00  0.00     0.077 A 
ATOM     90  C   UNL A   1      42.872  23.575  29.126  1.00  0.00     0.030 A 
ATOM     91  C   UNL A   1      43.741  23.127  26.452  1.00  0.00     0.029 A 
ATOM     92  C   UNL A   1      42.647  22.347  28.484  1.00  0.00     0.002 A 
ATOM     93  C   UNL A   1      43.070  22.132  27.169  1.00  0.00     0.002 A 
ENDBRANCH  74  77
ENDBRANCH  72  73
ENDBRANCH  71  72
ENDBRANCH   1  71
TORSDOF 10
ENDMDL
