MODEL 1
REMARK VINA RESULT:     -13.8      0.000      0.000
REMARK SMILES Cc1cccc(-c2cc(OCC(=O)NCCCNC(=O)c3ccc(-c4c5nc(c(-c6c(F)c(F)c(F)c(F)c6F)c6ccc([nH]6)c(-c6c(F)c(F)c(F)c(F)c6F)c6nc(c(-c7c(F)c(F)c(F)c(F)c7F)c7ccc4[nH]7)C=C6)C=C5)cc3)nc(Nc3ccccc3C)n2)c1
REMARK SMILES IDX 15 1 14 2 12 3 13 4 11 6 10 7 9 8 7 9 8 10 94 11 85 12 84 13
REMARK SMILES IDX 6 14 1 15 2 16 3 17 95 18 4 19 5 20 86 21 87 23 88 24 92 25
REMARK SMILES IDX 89 26 91 27 93 28 90 29 16 30 17 31 18 32 19 33 20 35 21 36
REMARK SMILES IDX 22 37 83 38 23 39 82 40 24 41 25 42 26 43 76 44 27 45 81 46
REMARK SMILES IDX 75 47 77 48 28 49 80 50 74 51 73 52 29 54 61 55 41 56 60 57
REMARK SMILES IDX 42 58 45 59 59 60 78 61 43 62 44 63 58 65 79 66 46 67 30 68
REMARK SMILES IDX 31 69 39 70 32 71 33 72 37 73 40 74 34 75 35 76 38 77 36 78
REMARK SMILES IDX 62 79 63 80 71 81 64 82 65 83 69 84 72 85 66 86 67 87 70 88
REMARK SMILES IDX 68 89 47 90 48 91 56 92 49 93 50 94 54 95 57 96 51 97 52 98
REMARK SMILES IDX 55 99 53 100
REMARK H PARENT 14 5 86 22 18 34 77 53 45 64
REMARK Flexibility Score: inf
ROOT
ATOM      1  C   UNL A   1      36.444  21.774  24.563  1.00  0.00     0.117 C 
ENDROOT
BRANCH   1   2
ATOM      2  N   UNL A   1      35.575  22.059  25.692  1.00  0.00    -0.353 N 
ATOM      3  C   UNL A   1      34.941  23.231  25.993  1.00  0.00     0.258 C 
ATOM      4  O   UNL A   1      34.222  23.275  26.994  1.00  0.00    -0.271 OA
ATOM      5  H   UNL A   1      35.424  21.315  26.319  1.00  0.00     0.163 HD
BRANCH   3   6
ATOM      6  C   UNL A   1      35.129  24.459  25.090  1.00  0.00     0.331 C 
BRANCH   6   7
ATOM      7  O   UNL A   1      34.062  24.747  24.202  1.00  0.00    -0.467 OA
BRANCH   7   8
ATOM      8  C   UNL A   1      33.422  25.951  24.337  1.00  0.00     0.219 A 
ATOM      9  C   UNL A   1      33.020  28.073  25.213  1.00  0.00     0.080 A 
ATOM     10  C   UNL A   1      33.733  26.901  25.276  1.00  0.00     0.097 A 
ATOM     11  N   UNL A   1      32.043  28.269  24.316  1.00  0.00    -0.212 NA
ATOM     12  C   UNL A   1      31.785  27.290  23.441  1.00  0.00     0.231 A 
ATOM     13  N   UNL A   1      32.447  26.125  23.425  1.00  0.00    -0.177 NA
BRANCH   9  14
ATOM     14  C   UNL A   1      33.308  29.201  26.099  1.00  0.00     0.001 A 
ATOM     15  C   UNL A   1      31.742  32.547  27.070  1.00  0.00     0.044 C 
ATOM     16  C   UNL A   1      32.694  31.390  27.001  1.00  0.00    -0.050 A 
ATOM     17  C   UNL A   1      33.866  31.393  27.765  1.00  0.00     0.003 A 
ATOM     18  C   UNL A   1      32.431  30.298  26.164  1.00  0.00     0.013 A 
ATOM     19  C   UNL A   1      34.743  30.310  27.716  1.00  0.00     0.001 A 
ATOM     20  C   UNL A   1      34.459  29.216  26.898  1.00  0.00     0.010 A 
ENDBRANCH   9  14
BRANCH  12  21
ATOM     21  N   UNL A   1      30.757  27.456  22.511  1.00  0.00    -0.324 N 
ATOM     22  H   UNL A   1      30.748  26.837  21.745  1.00  0.00     0.170 HD
BRANCH  21  23
ATOM     23  C   UNL A   1      29.734  28.416  22.559  1.00  0.00     0.044 A 
ATOM     24  C   UNL A   1      29.956  29.664  21.954  1.00  0.00     0.026 A 
ATOM     25  C   UNL A   1      28.456  28.133  23.087  1.00  0.00    -0.027 A 
ATOM     26  C   UNL A   1      28.926  30.599  21.834  1.00  0.00     0.002 A 
ATOM     27  C   UNL A   1      27.426  29.079  22.948  1.00  0.00     0.005 A 
ATOM     28  C   UNL A   1      28.169  26.851  23.819  1.00  0.00     0.046 C 
ATOM     29  C   UNL A   1      27.658  30.301  22.319  1.00  0.00     0.000 A 
ENDBRANCH  21  23
ENDBRANCH  12  21
ENDBRANCH   7   8
ENDBRANCH   6   7
ENDBRANCH   3   6
ENDBRANCH   1   2
BRANCH   1  30
ATOM     30  C   UNL A   1      37.852  21.389  24.992  1.00  0.00     0.042 C 
BRANCH  30  31
ATOM     31  C   UNL A   1      38.429  22.302  26.064  1.00  0.00     0.118 C 
BRANCH  31  32
ATOM     32  N   UNL A   1      39.884  22.280  26.142  1.00  0.00    -0.352 N 
ATOM     33  C   UNL A   1      40.790  23.299  26.376  1.00  0.00     0.251 C 
ATOM     34  H   UNL A   1      40.289  21.394  26.006  1.00  0.00     0.163 HD
ATOM     35  O   UNL A   1      41.985  23.059  26.310  1.00  0.00    -0.269 OA
BRANCH  33  36
ATOM     36  C   UNL A   1      40.333  24.637  26.842  1.00  0.00     0.039 A 
ATOM     37  C   UNL A   1      40.676  25.756  26.065  1.00  0.00     0.014 A 
ATOM     38  C   UNL A   1      39.734  24.825  28.082  1.00  0.00     0.014 A 
ATOM     39  C   UNL A   1      40.640  27.031  26.627  1.00  0.00     0.010 A 
ATOM     40  C   UNL A   1      39.796  26.064  28.680  1.00  0.00     0.010 A 
ATOM     41  C   UNL A   1      40.310  27.154  27.973  1.00  0.00    -0.014 A 
BRANCH  41  42
ATOM     42  C   UNL A   1      40.586  28.332  28.780  1.00  0.00     0.031 A 
ATOM     43  C   UNL A   1      39.540  29.339  29.035  1.00  0.00     0.074 A 
ATOM     44  C   UNL A   1      41.747  28.359  29.471  1.00  0.00     0.049 A 
ATOM     45  N   UNL A   1      39.776  30.534  29.461  1.00  0.00    -0.248 NA
ATOM     46  C   UNL A   1      38.122  29.077  28.815  1.00  0.00     0.031 C 
ATOM     47  C   UNL A   1      42.080  29.195  30.622  1.00  0.00     0.029 A 
ATOM     48  N   UNL A   1      42.955  27.715  29.149  1.00  0.00    -0.354 N 
ATOM     49  C   UNL A   1      38.574  31.083  29.844  1.00  0.00     0.074 A 
ATOM     50  C   UNL A   1      37.569  30.163  29.365  1.00  0.00     0.031 C 
ATOM     51  C   UNL A   1      43.416  29.255  30.742  1.00  0.00     0.029 A 
ATOM     52  C   UNL A   1      43.974  28.597  29.573  1.00  0.00     0.049 A 
ATOM     53  H   UNL A   1      43.066  26.836  28.720  1.00  0.00     0.167 HD
ATOM     54  C   UNL A   1      38.570  32.181  30.654  1.00  0.00     0.037 A 
ATOM     55  C   UNL A   1      44.807  29.197  28.673  1.00  0.00     0.037 A 
ATOM     56  C   UNL A   1      39.928  32.635  30.939  1.00  0.00     0.049 A 
ATOM     57  C   UNL A   1      44.754  30.705  28.710  1.00  0.00     0.074 A 
ATOM     58  C   UNL A   1      40.774  32.425  32.017  1.00  0.00     0.029 A 
ATOM     59  N   UNL A   1      40.722  33.130  29.909  1.00  0.00    -0.354 N 
ATOM     60  N   UNL A   1      43.736  31.386  29.158  1.00  0.00    -0.248 NA
ATOM     61  C   UNL A   1      45.834  31.560  28.228  1.00  0.00     0.031 C 
ATOM     62  C   UNL A   1      42.089  32.759  31.618  1.00  0.00     0.029 A 
ATOM     63  C   UNL A   1      42.044  33.186  30.302  1.00  0.00     0.049 A 
ATOM     64  H   UNL A   1      40.387  33.402  29.023  1.00  0.00     0.167 HD
ATOM     65  C   UNL A   1      43.994  32.728  29.030  1.00  0.00     0.074 A 
ATOM     66  C   UNL A   1      45.325  32.783  28.455  1.00  0.00     0.031 C 
ATOM     67  C   UNL A   1      43.083  33.672  29.408  1.00  0.00     0.037 A 
BRANCH  54  68
ATOM     68  C   UNL A   1      37.350  32.627  31.427  1.00  0.00     0.064 A 
ATOM     69  C   UNL A   1      36.286  33.303  30.790  1.00  0.00     0.173 A 
ATOM     70  C   UNL A   1      37.197  32.464  32.816  1.00  0.00     0.173 A 
ATOM     71  F   UNL A   1      36.235  33.436  29.459  1.00  0.00    -0.203 F 
ATOM     72  C   UNL A   1      35.230  33.880  31.500  1.00  0.00     0.198 A 
ATOM     73  C   UNL A   1      36.170  33.087  33.535  1.00  0.00     0.198 A 
ATOM     74  F   UNL A   1      38.016  31.663  33.510  1.00  0.00    -0.203 F 
ATOM     75  F   UNL A   1      34.258  34.524  30.839  1.00  0.00    -0.200 F 
ATOM     76  C   UNL A   1      35.194  33.809  32.877  1.00  0.00     0.200 A 
ATOM     77  F   UNL A   1      36.138  32.988  34.871  1.00  0.00    -0.200 F 
ATOM     78  F   UNL A   1      34.212  34.409  33.562  1.00  0.00    -0.200 F 
ENDBRANCH  54  68
BRANCH  55  79
ATOM     79  C   UNL A   1      45.026  28.385  27.447  1.00  0.00     0.064 A 
ATOM     80  C   UNL A   1      45.900  27.284  27.522  1.00  0.00     0.173 A 
ATOM     81  C   UNL A   1      44.127  28.426  26.374  1.00  0.00     0.173 A 
ATOM     82  F   UNL A   1      46.778  27.195  28.535  1.00  0.00    -0.203 F 
ATOM     83  C   UNL A   1      45.798  26.215  26.635  1.00  0.00     0.198 A 
ATOM     84  C   UNL A   1      44.038  27.357  25.477  1.00  0.00     0.198 A 
ATOM     85  F   UNL A   1      43.257  29.438  26.254  1.00  0.00    -0.203 F 
ATOM     86  F   UNL A   1      46.568  25.129  26.805  1.00  0.00    -0.200 F 
ATOM     87  C   UNL A   1      44.847  26.240  25.631  1.00  0.00     0.200 A 
ATOM     88  F   UNL A   1      43.098  27.367  24.522  1.00  0.00    -0.200 F 
ATOM     89  F   UNL A   1      44.680  25.173  24.836  1.00  0.00    -0.200 F 
ENDBRANCH  55  79
BRANCH  67  90
ATOM     90  C   UNL A   1      43.133  35.149  29.086  1.00  0.00     0.064 A 
ATOM     91  C   UNL A   1      42.630  35.715  27.903  1.00  0.00     0.173 A 
ATOM     92  C   UNL A   1      43.575  36.081  30.060  1.00  0.00     0.173 A 
ATOM     93  F   UNL A   1      42.061  34.960  26.954  1.00  0.00    -0.203 F 
ATOM     94  C   UNL A   1      42.635  37.095  27.681  1.00  0.00     0.198 A 
ATOM     95  C   UNL A   1      43.521  37.459  29.859  1.00  0.00     0.198 A 
ATOM     96  F   UNL A   1      44.046  35.685  31.251  1.00  0.00    -0.203 F 
ATOM     97  F   UNL A   1      42.186  37.578  26.514  1.00  0.00    -0.200 F 
ATOM     98  C   UNL A   1      43.069  37.967  28.661  1.00  0.00     0.200 A 
ATOM     99  F   UNL A   1      43.892  38.291  30.844  1.00  0.00    -0.200 F 
ATOM    100  F   UNL A   1      43.028  39.291  28.461  1.00  0.00    -0.200 F 
ENDBRANCH  67  90
ENDBRANCH  41  42
ENDBRANCH  33  36
ENDBRANCH  31  32
ENDBRANCH  30  31
ENDBRANCH   1  30
TORSDOF 15
ENDMDL
MODEL 2
REMARK VINA RESULT:     -13.6      3.765     10.235
REMARK SMILES Cc1cccc(-c2cc(OCC(=O)NCCCNC(=O)c3ccc(-c4c5nc(c(-c6c(F)c(F)c(F)c(F)c6F)c6ccc([nH]6)c(-c6c(F)c(F)c(F)c(F)c6F)c6nc(c(-c7c(F)c(F)c(F)c(F)c7F)c7ccc4[nH]7)C=C6)C=C5)cc3)nc(Nc3ccccc3C)n2)c1
REMARK SMILES IDX 15 1 14 2 12 3 13 4 11 6 10 7 9 8 7 9 8 10 94 11 85 12 84 13
REMARK SMILES IDX 6 14 1 15 2 16 3 17 95 18 4 19 5 20 86 21 87 23 88 24 92 25
REMARK SMILES IDX 89 26 91 27 93 28 90 29 16 30 17 31 18 32 19 33 20 35 21 36
REMARK SMILES IDX 22 37 83 38 23 39 82 40 24 41 25 42 26 43 76 44 27 45 81 46
REMARK SMILES IDX 75 47 77 48 28 49 80 50 74 51 73 52 29 54 61 55 41 56 60 57
REMARK SMILES IDX 42 58 45 59 59 60 78 61 43 62 44 63 58 65 79 66 46 67 30 68
REMARK SMILES IDX 31 69 39 70 32 71 33 72 37 73 40 74 34 75 35 76 38 77 36 78
REMARK SMILES IDX 62 79 63 80 71 81 64 82 65 83 69 84 72 85 66 86 67 87 70 88
REMARK SMILES IDX 68 89 47 90 48 91 56 92 49 93 50 94 54 95 57 96 51 97 52 98
REMARK SMILES IDX 55 99 53 100
REMARK H PARENT 14 5 86 22 18 34 77 53 45 64
REMARK Flexibility Score: inf
ROOT
ATOM      1  C   UNL A   1      31.820  29.110  26.284  1.00  0.00     0.117 C 
ENDROOT
BRANCH   1   2
ATOM      2  N   UNL A   1      31.363  28.745  24.954  1.00  0.00    -0.353 N 
ATOM      3  C   UNL A   1      31.331  27.502  24.385  1.00  0.00     0.258 C 
ATOM      4  O   UNL A   1      30.885  27.386  23.242  1.00  0.00    -0.271 OA
ATOM      5  H   UNL A   1      31.034  29.483  24.392  1.00  0.00     0.163 HD
BRANCH   3   6
ATOM      6  C   UNL A   1      31.843  26.286  25.172  1.00  0.00     0.331 C 
BRANCH   6   7
ATOM      7  O   UNL A   1      33.252  26.139  25.243  1.00  0.00    -0.467 OA
BRANCH   7   8
ATOM      8  C   UNL A   1      33.766  24.870  25.224  1.00  0.00     0.219 A 
ATOM      9  C   UNL A   1      35.410  23.225  25.385  1.00  0.00     0.080 A 
ATOM     10  C   UNL A   1      35.095  24.562  25.367  1.00  0.00     0.097 A 
ATOM     11  N   UNL A   1      34.483  22.270  25.230  1.00  0.00    -0.212 NA
ATOM     12  C   UNL A   1      33.208  22.646  25.080  1.00  0.00     0.231 A 
ATOM     13  N   UNL A   1      32.817  23.929  25.068  1.00  0.00    -0.177 NA
BRANCH   9  14
ATOM     14  C   UNL A   1      36.777  22.757  25.616  1.00  0.00     0.001 A 
ATOM     15  C   UNL A   1      38.814  19.556  25.180  1.00  0.00     0.044 C 
ATOM     16  C   UNL A   1      38.440  20.965  25.527  1.00  0.00    -0.050 A 
ATOM     17  C   UNL A   1      39.386  21.830  26.089  1.00  0.00     0.003 A 
ATOM     18  C   UNL A   1      37.138  21.434  25.307  1.00  0.00     0.013 A 
ATOM     19  C   UNL A   1      39.045  23.147  26.395  1.00  0.00     0.001 A 
ATOM     20  C   UNL A   1      37.753  23.611  26.149  1.00  0.00     0.010 A 
ENDBRANCH   9  14
BRANCH  12  21
ATOM     21  N   UNL A   1      32.223  21.674  24.891  1.00  0.00    -0.324 N 
ATOM     22  H   UNL A   1      31.292  21.948  25.057  1.00  0.00     0.170 HD
BRANCH  21  23
ATOM     23  C   UNL A   1      32.428  20.346  24.486  1.00  0.00     0.044 A 
ATOM     24  C   UNL A   1      32.730  19.386  25.465  1.00  0.00     0.026 A 
ATOM     25  C   UNL A   1      32.228  19.922  23.155  1.00  0.00    -0.027 A 
ATOM     26  C   UNL A   1      32.791  18.027  25.146  1.00  0.00     0.002 A 
ATOM     27  C   UNL A   1      32.281  18.551  22.851  1.00  0.00     0.005 A 
ATOM     28  C   UNL A   1      31.982  20.902  22.041  1.00  0.00     0.046 C 
ATOM     29  C   UNL A   1      32.553  17.609  23.842  1.00  0.00     0.000 A 
ENDBRANCH  21  23
ENDBRANCH  12  21
ENDBRANCH   7   8
ENDBRANCH   6   7
ENDBRANCH   3   6
ENDBRANCH   1   2
BRANCH   1  30
ATOM     30  C   UNL A   1      32.982  30.093  26.251  1.00  0.00     0.042 C 
BRANCH  30  31
ATOM     31  C   UNL A   1      34.054  29.799  27.289  1.00  0.00     0.118 C 
BRANCH  31  32
ATOM     32  N   UNL A   1      34.691  30.988  27.839  1.00  0.00    -0.352 N 
ATOM     33  C   UNL A   1      35.918  31.149  28.459  1.00  0.00     0.251 C 
ATOM     34  H   UNL A   1      34.162  31.813  27.756  1.00  0.00     0.163 HD
ATOM     35  O   UNL A   1      36.210  32.239  28.924  1.00  0.00    -0.269 OA
BRANCH  33  36
ATOM     36  C   UNL A   1      36.933  30.060  28.442  1.00  0.00     0.039 A 
ATOM     37  C   UNL A   1      37.019  29.224  29.567  1.00  0.00     0.014 A 
ATOM     38  C   UNL A   1      37.888  29.953  27.437  1.00  0.00     0.014 A 
ATOM     39  C   UNL A   1      38.172  28.473  29.789  1.00  0.00     0.010 A 
ATOM     40  C   UNL A   1      39.071  29.300  27.699  1.00  0.00     0.010 A 
ATOM     41  C   UNL A   1      39.237  28.614  28.904  1.00  0.00    -0.014 A 
BRANCH  41  42
ATOM     42  C   UNL A   1      40.603  28.205  29.195  1.00  0.00     0.031 A 
ATOM     43  C   UNL A   1      41.171  26.983  28.598  1.00  0.00     0.074 A 
ATOM     44  C   UNL A   1      41.399  29.090  29.834  1.00  0.00     0.049 A 
ATOM     45  N   UNL A   1      42.232  26.392  29.033  1.00  0.00    -0.248 NA
ATOM     46  C   UNL A   1      40.571  26.313  27.449  1.00  0.00     0.031 C 
ATOM     47  C   UNL A   1      42.858  29.099  29.888  1.00  0.00     0.029 A 
ATOM     48  N   UNL A   1      41.012  30.107  30.725  1.00  0.00    -0.354 N 
ATOM     49  C   UNL A   1      42.616  25.473  28.084  1.00  0.00     0.074 A 
ATOM     50  C   UNL A   1      41.516  25.417  27.148  1.00  0.00     0.031 C 
ATOM     51  C   UNL A   1      43.248  29.835  30.942  1.00  0.00     0.029 A 
ATOM     52  C   UNL A   1      42.048  30.177  31.685  1.00  0.00     0.049 A 
ATOM     53  H   UNL A   1      40.194  30.652  30.689  1.00  0.00     0.167 HD
ATOM     54  C   UNL A   1      43.884  24.971  28.116  1.00  0.00     0.037 A 
ATOM     55  C   UNL A   1      41.825  29.842  32.989  1.00  0.00     0.037 A 
ATOM     56  C   UNL A   1      44.633  25.491  29.255  1.00  0.00     0.049 A 
ATOM     57  C   UNL A   1      42.693  28.711  33.481  1.00  0.00     0.074 A 
ATOM     58  C   UNL A   1      45.544  26.528  29.377  1.00  0.00     0.029 A 
ATOM     59  N   UNL A   1      44.238  25.162  30.549  1.00  0.00    -0.354 N 
ATOM     60  N   UNL A   1      43.239  27.820  32.701  1.00  0.00    -0.248 NA
ATOM     61  C   UNL A   1      42.998  28.485  34.890  1.00  0.00     0.031 C 
ATOM     62  C   UNL A   1      45.668  26.849  30.749  1.00  0.00     0.029 A 
ATOM     63  C   UNL A   1      44.842  26.000  31.466  1.00  0.00     0.049 A 
ATOM     64  H   UNL A   1      43.615  24.434  30.778  1.00  0.00     0.167 HD
ATOM     65  C   UNL A   1      43.942  26.919  33.459  1.00  0.00     0.074 A 
ATOM     66  C   UNL A   1      43.770  27.387  34.821  1.00  0.00     0.031 C 
ATOM     67  C   UNL A   1      44.601  25.864  32.893  1.00  0.00     0.037 A 
BRANCH  54  68
ATOM     68  C   UNL A   1      44.518  24.269  26.936  1.00  0.00     0.064 A 
ATOM     69  C   UNL A   1      44.247  22.911  26.660  1.00  0.00     0.173 A 
ATOM     70  C   UNL A   1      45.450  24.872  26.072  1.00  0.00     0.173 A 
ATOM     71  F   UNL A   1      43.302  22.233  27.324  1.00  0.00    -0.203 F 
ATOM     72  C   UNL A   1      44.945  22.187  25.690  1.00  0.00     0.198 A 
ATOM     73  C   UNL A   1      46.189  24.136  25.138  1.00  0.00     0.198 A 
ATOM     74  F   UNL A   1      45.642  26.197  26.081  1.00  0.00    -0.203 F 
ATOM     75  F   UNL A   1      44.653  20.895  25.486  1.00  0.00    -0.200 F 
ATOM     76  C   UNL A   1      45.947  22.789  24.958  1.00  0.00     0.200 A 
ATOM     77  F   UNL A   1      47.144  24.743  24.418  1.00  0.00    -0.200 F 
ATOM     78  F   UNL A   1      46.654  22.083  24.066  1.00  0.00    -0.200 F 
ENDBRANCH  54  68
BRANCH  55  79
ATOM     79  C   UNL A   1      40.425  30.090  33.426  1.00  0.00     0.064 A 
ATOM     80  C   UNL A   1      40.024  31.419  33.661  1.00  0.00     0.173 A 
ATOM     81  C   UNL A   1      39.419  29.136  33.232  1.00  0.00     0.173 A 
ATOM     82  F   UNL A   1      40.950  32.375  33.848  1.00  0.00    -0.203 F 
ATOM     83  C   UNL A   1      38.685  31.797  33.584  1.00  0.00     0.198 A 
ATOM     84  C   UNL A   1      38.076  29.517  33.170  1.00  0.00     0.198 A 
ATOM     85  F   UNL A   1      39.735  27.856  32.987  1.00  0.00    -0.203 F 
ATOM     86  F   UNL A   1      38.348  33.091  33.698  1.00  0.00    -0.200 F 
ATOM     87  C   UNL A   1      37.715  30.849  33.310  1.00  0.00     0.200 A 
ATOM     88  F   UNL A   1      37.139  28.605  32.876  1.00  0.00    -0.200 F 
ATOM     89  F   UNL A   1      36.439  31.223  33.140  1.00  0.00    -0.200 F 
ENDBRANCH  55  79
BRANCH  67  90
ATOM     90  C   UNL A   1      45.184  24.674  33.621  1.00  0.00     0.064 A 
ATOM     91  C   UNL A   1      44.473  23.495  33.897  1.00  0.00     0.173 A 
ATOM     92  C   UNL A   1      46.565  24.635  33.941  1.00  0.00     0.173 A 
ATOM     93  F   UNL A   1      43.194  23.345  33.528  1.00  0.00    -0.203 F 
ATOM     94  C   UNL A   1      45.077  22.392  34.510  1.00  0.00     0.198 A 
ATOM     95  C   UNL A   1      47.176  23.512  34.495  1.00  0.00     0.198 A 
ATOM     96  F   UNL A   1      47.374  25.677  33.699  1.00  0.00    -0.203 F 
ATOM     97  F   UNL A   1      44.339  21.309  34.794  1.00  0.00    -0.200 F 
ATOM     98  C   UNL A   1      46.427  22.396  34.798  1.00  0.00     0.200 A 
ATOM     99  F   UNL A   1      48.499  23.513  34.715  1.00  0.00    -0.200 F 
ATOM    100  F   UNL A   1      47.010  21.319  35.343  1.00  0.00    -0.200 F 
ENDBRANCH  67  90
ENDBRANCH  41  42
ENDBRANCH  33  36
ENDBRANCH  31  32
ENDBRANCH  30  31
ENDBRANCH   1  30
TORSDOF 15
ENDMDL
MODEL 3
REMARK VINA RESULT:     -13.4      1.184      3.103
REMARK SMILES Cc1cccc(-c2cc(OCC(=O)NCCCNC(=O)c3ccc(-c4c5nc(c(-c6c(F)c(F)c(F)c(F)c6F)c6ccc([nH]6)c(-c6c(F)c(F)c(F)c(F)c6F)c6nc(c(-c7c(F)c(F)c(F)c(F)c7F)c7ccc4[nH]7)C=C6)C=C5)cc3)nc(Nc3ccccc3C)n2)c1
REMARK SMILES IDX 15 1 14 2 12 3 13 4 11 6 10 7 9 8 7 9 8 10 94 11 85 12 84 13
REMARK SMILES IDX 6 14 1 15 2 16 3 17 95 18 4 19 5 20 86 21 87 23 88 24 92 25
REMARK SMILES IDX 89 26 91 27 93 28 90 29 16 30 17 31 18 32 19 33 20 35 21 36
REMARK SMILES IDX 22 37 83 38 23 39 82 40 24 41 25 42 26 43 76 44 27 45 81 46
REMARK SMILES IDX 75 47 77 48 28 49 80 50 74 51 73 52 29 54 61 55 41 56 60 57
REMARK SMILES IDX 42 58 45 59 59 60 78 61 43 62 44 63 58 65 79 66 46 67 30 68
REMARK SMILES IDX 31 69 39 70 32 71 33 72 37 73 40 74 34 75 35 76 38 77 36 78
REMARK SMILES IDX 62 79 63 80 71 81 64 82 65 83 69 84 72 85 66 86 67 87 70 88
REMARK SMILES IDX 68 89 47 90 48 91 56 92 49 93 50 94 54 95 57 96 51 97 52 98
REMARK SMILES IDX 55 99 53 100
REMARK H PARENT 14 5 86 22 18 34 77 53 45 64
REMARK Flexibility Score: inf
ROOT
ATOM      1  C   UNL A   1      35.353  23.432  25.582  1.00  0.00     0.117 C 
ENDROOT
BRANCH   1   2
ATOM      2  N   UNL A   1      34.964  23.444  24.182  1.00  0.00    -0.353 N 
ATOM      3  C   UNL A   1      34.232  24.388  23.519  1.00  0.00     0.258 C 
ATOM      4  O   UNL A   1      34.018  24.232  22.315  1.00  0.00    -0.271 OA
ATOM      5  H   UNL A   1      35.265  22.676  23.644  1.00  0.00     0.163 HD
BRANCH   3   6
ATOM      6  C   UNL A   1      33.696  25.614  24.274  1.00  0.00     0.331 C 
BRANCH   6   7
ATOM      7  O   UNL A   1      32.312  25.882  24.121  1.00  0.00    -0.467 OA
BRANCH   7   8
ATOM      8  C   UNL A   1      31.877  27.160  24.351  1.00  0.00     0.219 A 
ATOM      9  C   UNL A   1      30.691  29.124  23.938  1.00  0.00     0.080 A 
ATOM     10  C   UNL A   1      31.074  27.878  23.503  1.00  0.00     0.097 A 
ATOM     11  N   UNL A   1      31.110  29.633  25.105  1.00  0.00    -0.212 NA
ATOM     12  C   UNL A   1      31.905  28.880  25.874  1.00  0.00     0.231 A 
ATOM     13  N   UNL A   1      32.309  27.650  25.529  1.00  0.00    -0.177 NA
BRANCH   9  14
ATOM     14  C   UNL A   1      29.768  29.960  23.171  1.00  0.00     0.001 A 
ATOM     15  C   UNL A   1      28.602  33.596  23.084  1.00  0.00     0.044 C 
ATOM     16  C   UNL A   1      28.737  32.139  22.756  1.00  0.00    -0.050 A 
ATOM     17  C   UNL A   1      27.970  31.570  21.733  1.00  0.00     0.003 A 
ATOM     18  C   UNL A   1      29.621  31.324  23.475  1.00  0.00     0.013 A 
ATOM     19  C   UNL A   1      28.108  30.219  21.415  1.00  0.00     0.001 A 
ATOM     20  C   UNL A   1      29.010  29.423  22.120  1.00  0.00     0.010 A 
ENDBRANCH   9  14
BRANCH  12  21
ATOM     21  N   UNL A   1      32.377  29.395  27.083  1.00  0.00    -0.324 N 
ATOM     22  H   UNL A   1      32.186  28.868  27.893  1.00  0.00     0.170 HD
BRANCH  21  23
ATOM     23  C   UNL A   1      33.096  30.587  27.260  1.00  0.00     0.044 A 
ATOM     24  C   UNL A   1      32.387  31.798  27.308  1.00  0.00     0.026 A 
ATOM     25  C   UNL A   1      34.485  30.602  27.506  1.00  0.00    -0.027 A 
ATOM     26  C   UNL A   1      33.027  32.995  27.635  1.00  0.00     0.002 A 
ATOM     27  C   UNL A   1      35.115  31.812  27.845  1.00  0.00     0.005 A 
ATOM     28  C   UNL A   1      35.323  29.357  27.391  1.00  0.00     0.046 C 
ATOM     29  C   UNL A   1      34.388  32.999  27.917  1.00  0.00     0.000 A 
ENDBRANCH  21  23
ENDBRANCH  12  21
ENDBRANCH   7   8
ENDBRANCH   6   7
ENDBRANCH   3   6
ENDBRANCH   1   2
BRANCH   1  30
ATOM     30  C   UNL A   1      36.616  22.619  25.830  1.00  0.00     0.042 C 
BRANCH  30  31
ATOM     31  C   UNL A   1      37.896  23.378  25.517  1.00  0.00     0.118 C 
BRANCH  31  32
ATOM     32  N   UNL A   1      39.053  22.934  26.283  1.00  0.00    -0.352 N 
ATOM     33  C   UNL A   1      39.923  23.642  27.095  1.00  0.00     0.251 C 
ATOM     34  H   UNL A   1      39.247  21.972  26.213  1.00  0.00     0.163 HD
ATOM     35  O   UNL A   1      40.887  23.067  27.574  1.00  0.00    -0.269 OA
BRANCH  33  36
ATOM     36  C   UNL A   1      39.624  25.042  27.500  1.00  0.00     0.039 A 
ATOM     37  C   UNL A   1      40.061  26.078  26.657  1.00  0.00     0.014 A 
ATOM     38  C   UNL A   1      39.082  25.355  28.741  1.00  0.00     0.014 A 
ATOM     39  C   UNL A   1      40.176  27.375  27.153  1.00  0.00     0.010 A 
ATOM     40  C   UNL A   1      39.291  26.608  29.271  1.00  0.00     0.010 A 
ATOM     41  C   UNL A   1      39.898  27.600  28.497  1.00  0.00    -0.014 A 
BRANCH  41  42
ATOM     42  C   UNL A   1      40.320  28.781  29.236  1.00  0.00     0.031 A 
ATOM     43  C   UNL A   1      39.353  29.829  29.607  1.00  0.00     0.074 A 
ATOM     44  C   UNL A   1      41.563  28.777  29.765  1.00  0.00     0.049 A 
ATOM     45  N   UNL A   1      39.683  31.021  29.972  1.00  0.00    -0.248 NA
ATOM     46  C   UNL A   1      37.910  29.615  29.584  1.00  0.00     0.031 C 
ATOM     47  C   UNL A   1      42.076  29.618  30.843  1.00  0.00     0.029 A 
ATOM     48  N   UNL A   1      42.695  28.083  29.298  1.00  0.00    -0.354 N 
ATOM     49  C   UNL A   1      38.563  31.620  30.501  1.00  0.00     0.074 A 
ATOM     50  C   UNL A   1      37.473  30.729  30.179  1.00  0.00     0.031 C 
ATOM     51  C   UNL A   1      43.417  29.632  30.782  1.00  0.00     0.029 A 
ATOM     52  C   UNL A   1      43.791  28.935  29.563  1.00  0.00     0.049 A 
ATOM     53  H   UNL A   1      42.717  27.195  28.876  1.00  0.00     0.167 HD
ATOM     54  C   UNL A   1      38.706  32.730  31.281  1.00  0.00     0.037 A 
ATOM     55  C   UNL A   1      44.515  29.490  28.548  1.00  0.00     0.037 A 
ATOM     56  C   UNL A   1      40.104  33.139  31.373  1.00  0.00     0.049 A 
ATOM     57  C   UNL A   1      44.519  30.999  28.560  1.00  0.00     0.074 A 
ATOM     58  C   UNL A   1      41.079  32.916  32.332  1.00  0.00     0.029 A 
ATOM     59  N   UNL A   1      40.768  33.588  30.235  1.00  0.00    -0.354 N 
ATOM     60  N   UNL A   1      43.594  31.724  29.125  1.00  0.00    -0.248 NA
ATOM     61  C   UNL A   1      45.553  31.805  27.920  1.00  0.00     0.031 C 
ATOM     62  C   UNL A   1      42.339  33.195  31.754  1.00  0.00     0.029 A 
ATOM     63  C   UNL A   1      42.133  33.602  30.447  1.00  0.00     0.049 A 
ATOM     64  H   UNL A   1      40.327  33.857  29.396  1.00  0.00     0.167 HD
ATOM     65  C   UNL A   1      43.877  33.052  28.936  1.00  0.00     0.074 A 
ATOM     66  C   UNL A   1      45.120  33.050  28.187  1.00  0.00     0.031 C 
ATOM     67  C   UNL A   1      43.058  34.036  29.412  1.00  0.00     0.037 A 
BRANCH  54  68
ATOM     68  C   UNL A   1      37.616  33.232  32.200  1.00  0.00     0.064 A 
ATOM     69  C   UNL A   1      36.542  34.007  31.708  1.00  0.00     0.173 A 
ATOM     70  C   UNL A   1      37.606  33.028  33.593  1.00  0.00     0.173 A 
ATOM     71  F   UNL A   1      36.353  34.193  30.396  1.00  0.00    -0.203 F 
ATOM     72  C   UNL A   1      35.617  34.630  32.551  1.00  0.00     0.198 A 
ATOM     73  C   UNL A   1      36.716  33.696  34.441  1.00  0.00     0.198 A 
ATOM     74  F   UNL A   1      38.435  32.145  34.165  1.00  0.00    -0.203 F 
ATOM     75  F   UNL A   1      34.629  35.366  32.024  1.00  0.00    -0.200 F 
ATOM     76  C   UNL A   1      35.730  34.510  33.920  1.00  0.00     0.200 A 
ATOM     77  F   UNL A   1      36.825  33.549  35.769  1.00  0.00    -0.200 F 
ATOM     78  F   UNL A   1      34.878  35.152  34.730  1.00  0.00    -0.200 F 
ENDBRANCH  54  68
BRANCH  55  79
ATOM     79  C   UNL A   1      44.540  28.650  27.321  1.00  0.00     0.064 A 
ATOM     80  C   UNL A   1      45.344  27.494  27.318  1.00  0.00     0.173 A 
ATOM     81  C   UNL A   1      43.530  28.738  26.355  1.00  0.00     0.173 A 
ATOM     82  F   UNL A   1      46.323  27.358  28.227  1.00  0.00    -0.203 F 
ATOM     83  C   UNL A   1      45.072  26.424  26.469  1.00  0.00     0.198 A 
ATOM     84  C   UNL A   1      43.270  27.668  25.495  1.00  0.00     0.198 A 
ATOM     85  F   UNL A   1      42.720  29.805  26.314  1.00  0.00    -0.203 F 
ATOM     86  F   UNL A   1      45.784  25.291  26.572  1.00  0.00    -0.200 F 
ATOM     87  C   UNL A   1      44.017  26.501  25.578  1.00  0.00     0.200 A 
ATOM     88  F   UNL A   1      42.230  27.729  24.651  1.00  0.00    -0.200 F 
ATOM     89  F   UNL A   1      43.692  25.438  24.827  1.00  0.00    -0.200 F 
ENDBRANCH  55  79
BRANCH  67  90
ATOM     90  C   UNL A   1      43.115  35.504  29.056  1.00  0.00     0.064 A 
ATOM     91  C   UNL A   1      42.524  36.059  27.909  1.00  0.00     0.173 A 
ATOM     92  C   UNL A   1      43.661  36.443  29.968  1.00  0.00     0.173 A 
ATOM     93  F   UNL A   1      41.857  35.301  27.029  1.00  0.00    -0.203 F 
ATOM     94  C   UNL A   1      42.542  37.435  27.658  1.00  0.00     0.198 A 
ATOM     95  C   UNL A   1      43.623  37.818  29.743  1.00  0.00     0.198 A 
ATOM     96  F   UNL A   1      44.225  36.059  31.122  1.00  0.00    -0.203 F 
ATOM     97  F   UNL A   1      42.004  37.906  26.524  1.00  0.00    -0.200 F 
ATOM     98  C   UNL A   1      43.080  38.314  28.578  1.00  0.00     0.200 A 
ATOM     99  F   UNL A   1      44.097  38.659  30.674  1.00  0.00    -0.200 F 
ATOM    100  F   UNL A   1      43.052  39.634  28.353  1.00  0.00    -0.200 F 
ENDBRANCH  67  90
ENDBRANCH  41  42
ENDBRANCH  33  36
ENDBRANCH  31  32
ENDBRANCH  30  31
ENDBRANCH   1  30
TORSDOF 15
ENDMDL
