MODEL 1
REMARK VINA RESULT:     -14.3      0.000      0.000
REMARK SMILES COc1cc(OC)c(-c2cc(C(=O)NCCCNC(=O)c3ccc(-c4c5nc(c(-c6c(F)c(F)c(F)c(F)c6F)c6ccc([nH]6)c(-c6c(F)c(F)c(F)c(F)c6F)c6nc(c(-c7c(F)c(F)c(F)c(F)c7F)c7ccc4[nH]7)C=C6)C=C5)cc3)c3c(-c4ccc(Cl)cc4)[nH]nc3n2)cc1OC
REMARK SMILES IDX 16 1 15 2 14 3 12 4 13 5 11 7 9 8 10 9 96 10 95 11 84 12
REMARK SMILES IDX 94 13 85 14 93 15 8 17 3 18 4 19 98 20 5 21 97 22 2 23 1 24
REMARK SMILES IDX 99 25 100 26 6 27 7 28 86 29 87 30 92 31 88 32 91 33 89 34
REMARK SMILES IDX 90 35 17 36 18 37 19 38 20 40 21 41 22 42 83 43 23 44 82 45
REMARK SMILES IDX 24 46 25 47 26 48 76 49 27 50 81 51 75 52 77 53 28 54 80 55
REMARK SMILES IDX 74 56 73 57 29 59 61 60 41 61 60 62 42 63 45 64 59 65 78 66
REMARK SMILES IDX 43 67 44 68 58 70 79 71 46 72 30 73 31 74 39 75 32 76 33 77
REMARK SMILES IDX 37 78 40 79 34 80 35 81 38 82 36 83 62 84 63 85 71 86 64 87
REMARK SMILES IDX 65 88 69 89 72 90 66 91 67 92 70 93 68 94 47 95 48 96 56 97
REMARK SMILES IDX 49 98 50 99 54 100 57 101 51 102 52 103 55 104 53 105
REMARK H PARENT 14 6 93 16 18 39 77 58 45 69
REMARK Flexibility Score: inf
ROOT
ATOM      1  C   UNL A   1      32.796  29.240  26.840  1.00  0.00     0.042 C 
ENDROOT
BRANCH   1   2
ATOM      2  C   UNL A   1      33.069  28.023  25.978  1.00  0.00     0.118 C 
BRANCH   2   3
ATOM      3  N   UNL A   1      32.251  26.922  26.425  1.00  0.00    -0.352 N 
ATOM      4  C   UNL A   1      32.321  25.579  26.245  1.00  0.00     0.252 C 
ATOM      5  O   UNL A   1      31.588  24.943  26.990  1.00  0.00    -0.269 OA
ATOM      6  H   UNL A   1      31.482  27.204  26.973  1.00  0.00     0.163 HD
BRANCH   4   7
ATOM      7  C   UNL A   1      33.255  24.956  25.291  1.00  0.00     0.055 A 
ATOM      8  C   UNL A   1      35.343  23.659  24.834  1.00  0.00     0.077 A 
ATOM      9  C   UNL A   1      34.519  24.464  25.645  1.00  0.00     0.043 A 
ATOM     10  N   UNL A   1      35.067  23.362  23.539  1.00  0.00    -0.226 NA
ATOM     11  C   UNL A   1      33.960  24.010  23.070  1.00  0.00     0.182 A 
ATOM     12  C   UNL A   1      33.082  24.783  23.915  1.00  0.00     0.059 A 
ATOM     13  N   UNL A   1      33.585  24.079  21.794  1.00  0.00    -0.154 NA
ATOM     14  C   UNL A   1      32.137  25.333  23.062  1.00  0.00     0.075 A 
ATOM     15  N   UNL A   1      32.511  24.883  21.817  1.00  0.00    -0.275 N 
ATOM     16  H   UNL A   1      32.024  25.134  20.999  1.00  0.00     0.190 HD
BRANCH   8  17
ATOM     17  C   UNL A   1      36.660  23.267  25.396  1.00  0.00     0.046 A 
ATOM     18  C   UNL A   1      39.302  22.727  26.461  1.00  0.00     0.164 A 
ATOM     19  C   UNL A   1      38.508  21.736  25.839  1.00  0.00     0.097 A 
ATOM     20  C   UNL A   1      38.789  24.027  26.486  1.00  0.00     0.161 A 
ATOM     21  C   UNL A   1      37.242  22.003  25.248  1.00  0.00     0.132 A 
ATOM     22  C   UNL A   1      37.483  24.262  25.982  1.00  0.00     0.064 A 
BRANCH  18  23
ATOM     23  O   UNL A   1      40.616  22.364  26.649  1.00  0.00    -0.493 OA
ATOM     24  C   UNL A   1      41.160  22.305  27.969  1.00  0.00     0.278 C 
ENDBRANCH  18  23
BRANCH  20  25
ATOM     25  O   UNL A   1      39.381  25.214  26.830  1.00  0.00    -0.493 OA
ATOM     26  C   UNL A   1      39.439  25.578  28.190  1.00  0.00     0.278 C 
ENDBRANCH  20  25
BRANCH  21  27
ATOM     27  O   UNL A   1      36.765  20.947  24.503  1.00  0.00    -0.496 OA
ATOM     28  C   UNL A   1      35.680  20.174  25.013  1.00  0.00     0.278 C 
ENDBRANCH  21  27
ENDBRANCH   8  17
BRANCH  14  29
ATOM     29  C   UNL A   1      30.978  26.215  23.215  1.00  0.00     0.000 A 
ATOM     30  C   UNL A   1      31.010  27.496  22.645  1.00  0.00     0.012 A 
ATOM     31  C   UNL A   1      29.800  25.784  23.846  1.00  0.00     0.012 A 
ATOM     32  C   UNL A   1      29.877  28.315  22.669  1.00  0.00     0.021 A 
ATOM     33  C   UNL A   1      28.649  26.585  23.825  1.00  0.00     0.021 A 
ATOM     34  C   UNL A   1      28.693  27.845  23.234  1.00  0.00     0.041 A 
ATOM     35  Cl  UNL A   1      27.273  28.815  23.173  1.00  0.00    -0.084 Cl
ENDBRANCH  14  29
ENDBRANCH   4   7
ENDBRANCH   2   3
ENDBRANCH   1   2
BRANCH   1  36
ATOM     36  C   UNL A   1      34.067  29.547  27.561  1.00  0.00     0.118 C 
BRANCH  36  37
ATOM     37  N   UNL A   1      34.581  30.881  27.215  1.00  0.00    -0.352 N 
ATOM     38  C   UNL A   1      35.618  31.591  27.818  1.00  0.00     0.251 C 
ATOM     39  H   UNL A   1      34.134  31.330  26.462  1.00  0.00     0.163 HD
ATOM     40  O   UNL A   1      35.762  32.751  27.661  1.00  0.00    -0.269 OA
BRANCH  38  41
ATOM     41  C   UNL A   1      36.632  30.721  28.468  1.00  0.00     0.039 A 
ATOM     42  C   UNL A   1      36.970  30.668  29.809  1.00  0.00     0.014 A 
ATOM     43  C   UNL A   1      37.563  30.171  27.617  1.00  0.00     0.014 A 
ATOM     44  C   UNL A   1      38.346  30.263  30.082  1.00  0.00     0.010 A 
ATOM     45  C   UNL A   1      38.385  29.251  28.115  1.00  0.00     0.010 A 
ATOM     46  C   UNL A   1      39.220  29.865  28.985  1.00  0.00    -0.014 A 
BRANCH  46  47
ATOM     47  C   UNL A   1      40.617  29.125  28.817  1.00  0.00     0.031 A 
ATOM     48  C   UNL A   1      40.780  28.802  30.480  1.00  0.00     0.074 A 
ATOM     49  C   UNL A   1      41.414  28.701  27.609  1.00  0.00     0.049 A 
ATOM     50  N   UNL A   1      41.286  29.680  31.310  1.00  0.00    -0.248 NA
ATOM     51  C   UNL A   1      39.913  27.886  31.394  1.00  0.00     0.031 C 
ATOM     52  C   UNL A   1      41.349  28.810  26.018  1.00  0.00     0.029 A 
ATOM     53  N   UNL A   1      42.721  28.067  27.521  1.00  0.00    -0.354 N 
ATOM     54  C   UNL A   1      41.406  29.023  32.545  1.00  0.00     0.074 A 
ATOM     55  C   UNL A   1      40.298  28.169  32.649  1.00  0.00     0.031 C 
ATOM     56  C   UNL A   1      42.257  27.995  25.336  1.00  0.00     0.029 A 
ATOM     57  C   UNL A   1      43.167  27.368  26.274  1.00  0.00     0.049 A 
ATOM     58  H   UNL A   1      43.325  28.098  28.297  1.00  0.00     0.167 HD
ATOM     59  C   UNL A   1      42.652  28.831  33.050  1.00  0.00     0.037 A 
ATOM     60  C   UNL A   1      44.368  26.645  26.005  1.00  0.00     0.037 A 
ATOM     61  C   UNL A   1      43.528  29.706  32.316  1.00  0.00     0.049 A 
ATOM     62  C   UNL A   1      45.212  26.907  27.201  1.00  0.00     0.074 A 
ATOM     63  C   UNL A   1      43.567  31.076  32.149  1.00  0.00     0.029 A 
ATOM     64  N   UNL A   1      43.934  29.143  31.137  1.00  0.00    -0.354 N 
ATOM     65  N   UNL A   1      45.688  28.101  27.421  1.00  0.00    -0.248 NA
ATOM     66  C   UNL A   1      44.813  26.103  28.354  1.00  0.00     0.031 C 
ATOM     67  C   UNL A   1      43.851  31.301  30.772  1.00  0.00     0.029 A 
ATOM     68  C   UNL A   1      44.209  30.089  30.201  1.00  0.00     0.049 A 
ATOM     69  H   UNL A   1      44.017  28.173  30.985  1.00  0.00     0.167 HD
ATOM     70  C   UNL A   1      45.151  28.425  28.654  1.00  0.00     0.074 A 
ATOM     71  C   UNL A   1      44.632  27.129  29.199  1.00  0.00     0.031 C 
ATOM     72  C   UNL A   1      44.771  29.716  28.942  1.00  0.00     0.037 A 
BRANCH  59  73
ATOM     73  C   UNL A   1      43.177  27.572  33.705  1.00  0.00     0.064 A 
ATOM     74  C   UNL A   1      43.520  27.689  35.063  1.00  0.00     0.173 A 
ATOM     75  C   UNL A   1      43.613  26.386  33.066  1.00  0.00     0.173 A 
ATOM     76  F   UNL A   1      43.145  28.772  35.760  1.00  0.00    -0.203 F 
ATOM     77  C   UNL A   1      44.298  26.736  35.719  1.00  0.00     0.198 A 
ATOM     78  C   UNL A   1      44.335  25.398  33.747  1.00  0.00     0.198 A 
ATOM     79  F   UNL A   1      43.438  26.165  31.756  1.00  0.00    -0.203 F 
ATOM     80  F   UNL A   1      44.694  26.963  36.978  1.00  0.00    -0.200 F 
ATOM     81  C   UNL A   1      44.696  25.587  35.066  1.00  0.00     0.200 A 
ATOM     82  F   UNL A   1      44.727  24.290  33.100  1.00  0.00    -0.200 F 
ATOM     83  F   UNL A   1      45.444  24.673  35.698  1.00  0.00    -0.200 F 
ENDBRANCH  59  73
BRANCH  60  84
ATOM     84  C   UNL A   1      44.670  25.330  25.194  1.00  0.00     0.064 A 
ATOM     85  C   UNL A   1      45.906  24.716  24.759  1.00  0.00     0.173 A 
ATOM     86  C   UNL A   1      43.584  24.452  25.136  1.00  0.00     0.173 A 
ATOM     87  F   UNL A   1      47.077  25.376  24.797  1.00  0.00    -0.203 F 
ATOM     88  C   UNL A   1      45.981  23.356  24.300  1.00  0.00     0.198 A 
ATOM     89  C   UNL A   1      43.666  23.111  24.728  1.00  0.00     0.198 A 
ATOM     90  F   UNL A   1      42.397  24.866  25.590  1.00  0.00    -0.203 F 
ATOM     91  F   UNL A   1      47.141  22.810  23.886  1.00  0.00    -0.200 F 
ATOM     92  C   UNL A   1      44.856  22.554  24.312  1.00  0.00     0.200 A 
ATOM     93  F   UNL A   1      42.565  22.351  24.801  1.00  0.00    -0.200 F 
ATOM     94  F   UNL A   1      44.910  21.256  23.967  1.00  0.00    -0.200 F 
ENDBRANCH  60  84
BRANCH  72  95
ATOM     95  C   UNL A   1      45.076  30.853  27.986  1.00  0.00     0.064 A 
ATOM     96  C   UNL A   1      44.214  31.491  27.066  1.00  0.00     0.173 A 
ATOM     97  C   UNL A   1      46.325  31.445  28.158  1.00  0.00     0.173 A 
ATOM     98  F   UNL A   1      42.909  31.207  27.020  1.00  0.00    -0.203 F 
ATOM     99  C   UNL A   1      44.655  32.531  26.236  1.00  0.00     0.198 A 
ATOM    100  C   UNL A   1      46.738  32.530  27.395  1.00  0.00     0.198 A 
ATOM    101  F   UNL A   1      47.127  31.011  29.140  1.00  0.00    -0.203 F 
ATOM    102  F   UNL A   1      43.840  33.054  25.304  1.00  0.00    -0.200 F 
ATOM    103  C   UNL A   1      45.928  33.042  26.398  1.00  0.00     0.200 A 
ATOM    104  F   UNL A   1      47.926  33.090  27.650  1.00  0.00    -0.200 F 
ATOM    105  F   UNL A   1      46.361  34.047  25.626  1.00  0.00    -0.200 F 
ENDBRANCH  72  95
ENDBRANCH  46  47
ENDBRANCH  38  41
ENDBRANCH  36  37
ENDBRANCH   1  36
TORSDOF 15
ENDMDL
MODEL 2
REMARK VINA RESULT:     -14.2      3.409      9.116
REMARK SMILES COc1cc(OC)c(-c2cc(C(=O)NCCCNC(=O)c3ccc(-c4c5nc(c(-c6c(F)c(F)c(F)c(F)c6F)c6ccc([nH]6)c(-c6c(F)c(F)c(F)c(F)c6F)c6nc(c(-c7c(F)c(F)c(F)c(F)c7F)c7ccc4[nH]7)C=C6)C=C5)cc3)c3c(-c4ccc(Cl)cc4)[nH]nc3n2)cc1OC
REMARK SMILES IDX 16 1 15 2 14 3 12 4 13 5 11 7 9 8 10 9 96 10 95 11 84 12
REMARK SMILES IDX 94 13 85 14 93 15 8 17 3 18 4 19 98 20 5 21 97 22 2 23 1 24
REMARK SMILES IDX 99 25 100 26 6 27 7 28 86 29 87 30 92 31 88 32 91 33 89 34
REMARK SMILES IDX 90 35 17 36 18 37 19 38 20 40 21 41 22 42 83 43 23 44 82 45
REMARK SMILES IDX 24 46 25 47 26 48 76 49 27 50 81 51 75 52 77 53 28 54 80 55
REMARK SMILES IDX 74 56 73 57 29 59 61 60 41 61 60 62 42 63 45 64 59 65 78 66
REMARK SMILES IDX 43 67 44 68 58 70 79 71 46 72 30 73 31 74 39 75 32 76 33 77
REMARK SMILES IDX 37 78 40 79 34 80 35 81 38 82 36 83 62 84 63 85 71 86 64 87
REMARK SMILES IDX 65 88 69 89 72 90 66 91 67 92 70 93 68 94 47 95 48 96 56 97
REMARK SMILES IDX 49 98 50 99 54 100 57 101 51 102 52 103 55 104 53 105
REMARK H PARENT 14 6 93 16 18 39 77 58 45 69
REMARK Flexibility Score: inf
ROOT
ATOM      1  C   UNL A   1      37.024  23.009  24.685  1.00  0.00     0.042 C 
ENDROOT
BRANCH   1   2
ATOM      2  C   UNL A   1      35.548  23.297  24.880  1.00  0.00     0.118 C 
BRANCH   2   3
ATOM      3  N   UNL A   1      35.005  23.870  23.672  1.00  0.00    -0.352 N 
ATOM      4  C   UNL A   1      34.132  24.881  23.435  1.00  0.00     0.252 C 
ATOM      5  O   UNL A   1      34.105  25.245  22.268  1.00  0.00    -0.269 OA
ATOM      6  H   UNL A   1      35.336  23.438  22.851  1.00  0.00     0.163 HD
BRANCH   4   7
ATOM      7  C   UNL A   1      33.352  25.521  24.508  1.00  0.00     0.055 A 
ATOM      8  C   UNL A   1      32.884  27.498  25.965  1.00  0.00     0.077 A 
ATOM      9  C   UNL A   1      33.706  26.735  25.113  1.00  0.00     0.043 A 
ATOM     10  N   UNL A   1      31.675  27.082  26.417  1.00  0.00    -0.226 NA
ATOM     11  C   UNL A   1      31.381  25.801  26.046  1.00  0.00     0.182 A 
ATOM     12  C   UNL A   1      32.191  25.043  25.123  1.00  0.00     0.059 A 
ATOM     13  N   UNL A   1      30.377  25.067  26.523  1.00  0.00    -0.154 NA
ATOM     14  C   UNL A   1      31.609  23.785  25.067  1.00  0.00     0.075 A 
ATOM     15  N   UNL A   1      30.547  23.871  25.937  1.00  0.00    -0.275 N 
ATOM     16  H   UNL A   1      29.952  23.107  26.119  1.00  0.00     0.190 HD
BRANCH   8  17
ATOM     17  C   UNL A   1      33.468  28.747  26.519  1.00  0.00     0.046 A 
ATOM     18  C   UNL A   1      34.716  31.048  27.763  1.00  0.00     0.164 A 
ATOM     19  C   UNL A   1      33.491  31.126  27.061  1.00  0.00     0.097 A 
ATOM     20  C   UNL A   1      35.288  29.781  27.904  1.00  0.00     0.161 A 
ATOM     21  C   UNL A   1      32.832  29.993  26.508  1.00  0.00     0.132 A 
ATOM     22  C   UNL A   1      34.672  28.673  27.264  1.00  0.00     0.064 A 
BRANCH  18  23
ATOM     23  O   UNL A   1      35.009  32.164  28.515  1.00  0.00    -0.493 OA
ATOM     24  C   UNL A   1      35.561  33.323  27.887  1.00  0.00     0.278 C 
ENDBRANCH  18  23
BRANCH  20  25
ATOM     25  O   UNL A   1      36.337  29.355  28.674  1.00  0.00    -0.493 OA
ATOM     26  C   UNL A   1      37.631  29.837  28.390  1.00  0.00     0.278 C 
ENDBRANCH  20  25
BRANCH  21  27
ATOM     27  O   UNL A   1      31.553  30.273  26.080  1.00  0.00    -0.496 OA
ATOM     28  C   UNL A   1      31.074  31.616  26.158  1.00  0.00     0.278 C 
ENDBRANCH  21  27
ENDBRANCH   8  17
BRANCH  14  29
ATOM     29  C   UNL A   1      31.895  22.532  24.366  1.00  0.00     0.000 A 
ATOM     30  C   UNL A   1      32.284  21.405  25.104  1.00  0.00     0.012 A 
ATOM     31  C   UNL A   1      31.708  22.402  22.980  1.00  0.00     0.012 A 
ATOM     32  C   UNL A   1      32.446  20.164  24.480  1.00  0.00     0.021 A 
ATOM     33  C   UNL A   1      31.821  21.148  22.363  1.00  0.00     0.021 A 
ATOM     34  C   UNL A   1      32.187  20.035  23.117  1.00  0.00     0.041 A 
ATOM     35  Cl  UNL A   1      32.288  18.488  22.371  1.00  0.00    -0.084 Cl
ENDBRANCH  14  29
ENDBRANCH   4   7
ENDBRANCH   2   3
ENDBRANCH   1   2
BRANCH   1  36
ATOM     36  C   UNL A   1      37.748  23.730  25.774  1.00  0.00     0.118 C 
BRANCH  36  37
ATOM     37  N   UNL A   1      38.508  22.806  26.628  1.00  0.00    -0.352 N 
ATOM     38  C   UNL A   1      39.786  22.972  27.159  1.00  0.00     0.251 C 
ATOM     39  H   UNL A   1      38.056  21.961  26.853  1.00  0.00     0.163 HD
ATOM     40  O   UNL A   1      40.414  22.069  27.585  1.00  0.00    -0.269 OA
BRANCH  38  41
ATOM     41  C   UNL A   1      40.168  24.395  27.347  1.00  0.00     0.039 A 
ATOM     42  C   UNL A   1      41.357  25.008  26.989  1.00  0.00     0.014 A 
ATOM     43  C   UNL A   1      39.421  25.085  28.273  1.00  0.00     0.014 A 
ATOM     44  C   UNL A   1      41.734  26.150  27.818  1.00  0.00     0.010 A 
ATOM     45  C   UNL A   1      39.604  26.401  28.356  1.00  0.00     0.010 A 
ATOM     46  C   UNL A   1      40.837  26.618  28.867  1.00  0.00    -0.014 A 
BRANCH  46  47
ATOM     47  C   UNL A   1      40.689  27.908  29.784  1.00  0.00     0.031 A 
ATOM     48  C   UNL A   1      41.837  28.808  28.909  1.00  0.00     0.074 A 
ATOM     49  C   UNL A   1      39.744  28.267  30.905  1.00  0.00     0.049 A 
ATOM     50  N   UNL A   1      43.121  28.718  29.154  1.00  0.00    -0.248 NA
ATOM     51  C   UNL A   1      41.777  29.315  27.438  1.00  0.00     0.031 C 
ATOM     52  C   UNL A   1      38.558  27.607  31.744  1.00  0.00     0.029 A 
ATOM     53  N   UNL A   1      39.691  29.453  31.745  1.00  0.00    -0.354 N 
ATOM     54  C   UNL A   1      43.737  29.699  28.362  1.00  0.00     0.074 A 
ATOM     55  C   UNL A   1      43.017  29.748  27.158  1.00  0.00     0.031 C 
ATOM     56  C   UNL A   1      37.829  28.501  32.534  1.00  0.00     0.029 A 
ATOM     57  C   UNL A   1      38.460  29.806  32.521  1.00  0.00     0.049 A 
ATOM     58  H   UNL A   1      40.482  30.035  31.806  1.00  0.00     0.167 HD
ATOM     59  C   UNL A   1      44.376  30.721  28.988  1.00  0.00     0.037 A 
ATOM     60  C   UNL A   1      38.187  30.938  33.346  1.00  0.00     0.037 A 
ATOM     61  C   UNL A   1      44.556  30.311  30.356  1.00  0.00     0.049 A 
ATOM     62  C   UNL A   1      39.501  31.626  33.447  1.00  0.00     0.074 A 
ATOM     63  C   UNL A   1      45.214  29.248  30.942  1.00  0.00     0.029 A 
ATOM     64  N   UNL A   1      43.442  30.563  31.110  1.00  0.00    -0.354 N 
ATOM     65  N   UNL A   1      40.484  31.074  34.103  1.00  0.00    -0.248 NA
ATOM     66  C   UNL A   1      39.822  32.396  32.247  1.00  0.00     0.031 C 
ATOM     67  C   UNL A   1      44.359  28.772  31.976  1.00  0.00     0.029 A 
ATOM     68  C   UNL A   1      43.334  29.690  32.146  1.00  0.00     0.049 A 
ATOM     69  H   UNL A   1      42.800  31.286  30.925  1.00  0.00     0.167 HD
ATOM     70  C   UNL A   1      41.466  30.947  33.137  1.00  0.00     0.074 A 
ATOM     71  C   UNL A   1      41.004  31.810  32.003  1.00  0.00     0.031 C 
ATOM     72  C   UNL A   1      42.312  29.860  33.128  1.00  0.00     0.037 A 
BRANCH  59  73
ATOM     73  C   UNL A   1      44.319  32.186  28.614  1.00  0.00     0.064 A 
ATOM     74  C   UNL A   1      45.532  32.754  28.184  1.00  0.00     0.173 A 
ATOM     75  C   UNL A   1      43.281  33.107  28.895  1.00  0.00     0.173 A 
ATOM     76  F   UNL A   1      46.573  31.964  27.884  1.00  0.00    -0.203 F 
ATOM     77  C   UNL A   1      45.723  34.132  28.108  1.00  0.00     0.198 A 
ATOM     78  C   UNL A   1      43.455  34.489  28.750  1.00  0.00     0.198 A 
ATOM     79  F   UNL A   1      42.096  32.731  29.392  1.00  0.00    -0.203 F 
ATOM     80  F   UNL A   1      46.937  34.613  27.811  1.00  0.00    -0.200 F 
ATOM     81  C   UNL A   1      44.683  34.999  28.380  1.00  0.00     0.200 A 
ATOM     82  F   UNL A   1      42.442  35.324  29.028  1.00  0.00    -0.200 F 
ATOM     83  F   UNL A   1      44.871  36.324  28.307  1.00  0.00    -0.200 F 
ENDBRANCH  59  73
BRANCH  60  84
ATOM     84  C   UNL A   1      36.902  31.819  33.568  1.00  0.00     0.064 A 
ATOM     85  C   UNL A   1      36.592  32.870  34.514  1.00  0.00     0.173 A 
ATOM     86  C   UNL A   1      36.018  31.793  32.486  1.00  0.00     0.173 A 
ATOM     87  F   UNL A   1      37.361  33.102  35.593  1.00  0.00    -0.203 F 
ATOM     88  C   UNL A   1      35.478  33.762  34.349  1.00  0.00     0.198 A 
ATOM     89  C   UNL A   1      34.954  32.691  32.304  1.00  0.00     0.198 A 
ATOM     90  F   UNL A   1      36.240  30.924  31.495  1.00  0.00    -0.203 F 
ATOM     91  F   UNL A   1      35.201  34.724  35.250  1.00  0.00    -0.200 F 
ATOM     92  C   UNL A   1      34.678  33.679  33.225  1.00  0.00     0.200 A 
ATOM     93  F   UNL A   1      34.233  32.612  31.178  1.00  0.00    -0.200 F 
ATOM     94  F   UNL A   1      33.680  34.550  33.002  1.00  0.00    -0.200 F 
ENDBRANCH  60  84
BRANCH  72  95
ATOM     95  C   UNL A   1      42.304  28.855  34.263  1.00  0.00     0.064 A 
ATOM     96  C   UNL A   1      41.710  27.573  34.306  1.00  0.00     0.173 A 
ATOM     97  C   UNL A   1      43.129  29.177  35.339  1.00  0.00     0.173 A 
ATOM     98  F   UNL A   1      41.141  27.031  33.226  1.00  0.00    -0.203 F 
ATOM     99  C   UNL A   1      41.784  26.760  35.446  1.00  0.00     0.198 A 
ATOM    100  C   UNL A   1      43.272  28.338  36.435  1.00  0.00     0.198 A 
ATOM    101  F   UNL A   1      43.870  30.292  35.285  1.00  0.00    -0.203 F 
ATOM    102  F   UNL A   1      41.128  25.588  35.493  1.00  0.00    -0.200 F 
ATOM    103  C   UNL A   1      42.561  27.154  36.517  1.00  0.00     0.200 A 
ATOM    104  F   UNL A   1      44.125  28.679  37.408  1.00  0.00    -0.200 F 
ATOM    105  F   UNL A   1      42.659  26.383  37.609  1.00  0.00    -0.200 F 
ENDBRANCH  72  95
ENDBRANCH  46  47
ENDBRANCH  38  41
ENDBRANCH  36  37
ENDBRANCH   1  36
TORSDOF 15
ENDMDL
MODEL 3
REMARK VINA RESULT:     -13.0      5.556     10.853
REMARK SMILES COc1cc(OC)c(-c2cc(C(=O)NCCCNC(=O)c3ccc(-c4c5nc(c(-c6c(F)c(F)c(F)c(F)c6F)c6ccc([nH]6)c(-c6c(F)c(F)c(F)c(F)c6F)c6nc(c(-c7c(F)c(F)c(F)c(F)c7F)c7ccc4[nH]7)C=C6)C=C5)cc3)c3c(-c4ccc(Cl)cc4)[nH]nc3n2)cc1OC
REMARK SMILES IDX 16 1 15 2 14 3 12 4 13 5 11 7 9 8 10 9 96 10 95 11 84 12
REMARK SMILES IDX 94 13 85 14 93 15 8 17 3 18 4 19 98 20 5 21 97 22 2 23 1 24
REMARK SMILES IDX 99 25 100 26 6 27 7 28 86 29 87 30 92 31 88 32 91 33 89 34
REMARK SMILES IDX 90 35 17 36 18 37 19 38 20 40 21 41 22 42 83 43 23 44 82 45
REMARK SMILES IDX 24 46 25 47 26 48 76 49 27 50 81 51 75 52 77 53 28 54 80 55
REMARK SMILES IDX 74 56 73 57 29 59 61 60 41 61 60 62 42 63 45 64 59 65 78 66
REMARK SMILES IDX 43 67 44 68 58 70 79 71 46 72 30 73 31 74 39 75 32 76 33 77
REMARK SMILES IDX 37 78 40 79 34 80 35 81 38 82 36 83 62 84 63 85 71 86 64 87
REMARK SMILES IDX 65 88 69 89 72 90 66 91 67 92 70 93 68 94 47 95 48 96 56 97
REMARK SMILES IDX 49 98 50 99 54 100 57 101 51 102 52 103 55 104 53 105
REMARK H PARENT 14 6 93 16 18 39 77 58 45 69
REMARK Flexibility Score: inf
ROOT
ATOM      1  C   UNL A   1      40.992  31.095  32.137  1.00  0.00     0.042 C 
ENDROOT
BRANCH   1   2
ATOM      2  C   UNL A   1      40.656  31.630  33.515  1.00  0.00     0.118 C 
BRANCH   2   3
ATOM      3  N   UNL A   1      40.897  33.052  33.552  1.00  0.00    -0.352 N 
ATOM      4  C   UNL A   1      40.154  34.110  33.964  1.00  0.00     0.252 C 
ATOM      5  O   UNL A   1      40.793  35.147  34.077  1.00  0.00    -0.269 OA
ATOM      6  H   UNL A   1      41.784  33.307  33.207  1.00  0.00     0.163 HD
BRANCH   4   7
ATOM      7  C   UNL A   1      38.728  33.987  34.312  1.00  0.00     0.055 A 
ATOM      8  C   UNL A   1      36.335  33.788  33.614  1.00  0.00     0.077 A 
ATOM      9  C   UNL A   1      37.684  34.123  33.385  1.00  0.00     0.043 A 
ATOM     10  N   UNL A   1      35.847  33.406  34.820  1.00  0.00    -0.226 NA
ATOM     11  C   UNL A   1      36.777  33.482  35.818  1.00  0.00     0.182 A 
ATOM     12  C   UNL A   1      38.172  33.764  35.574  1.00  0.00     0.059 A 
ATOM     13  N   UNL A   1      36.526  33.382  37.122  1.00  0.00    -0.154 NA
ATOM     14  C   UNL A   1      38.760  33.830  36.829  1.00  0.00     0.075 A 
ATOM     15  N   UNL A   1      37.717  33.608  37.698  1.00  0.00    -0.275 N 
ATOM     16  H   UNL A   1      37.835  33.616  38.675  1.00  0.00     0.190 HD
BRANCH   8  17
ATOM     17  C   UNL A   1      35.385  34.034  32.499  1.00  0.00     0.046 A 
ATOM     18  C   UNL A   1      33.663  34.367  30.191  1.00  0.00     0.164 A 
ATOM     19  C   UNL A   1      33.820  35.364  31.181  1.00  0.00     0.097 A 
ATOM     20  C   UNL A   1      34.438  33.211  30.325  1.00  0.00     0.161 A 
ATOM     21  C   UNL A   1      34.716  35.244  32.279  1.00  0.00     0.132 A 
ATOM     22  C   UNL A   1      35.255  33.061  31.477  1.00  0.00     0.064 A 
BRANCH  18  23
ATOM     23  O   UNL A   1      33.038  34.801  29.045  1.00  0.00    -0.493 OA
ATOM     24  C   UNL A   1      32.933  36.201  28.773  1.00  0.00     0.278 C 
ENDBRANCH  18  23
BRANCH  20  25
ATOM     25  O   UNL A   1      34.657  32.177  29.455  1.00  0.00    -0.493 OA
ATOM     26  C   UNL A   1      35.964  31.668  29.315  1.00  0.00     0.278 C 
ENDBRANCH  20  25
BRANCH  21  27
ATOM     27  O   UNL A   1      34.872  36.422  32.975  1.00  0.00    -0.496 OA
ATOM     28  C   UNL A   1      33.734  37.015  33.599  1.00  0.00     0.278 C 
ENDBRANCH  21  27
ENDBRANCH   8  17
BRANCH  14  29
ATOM     29  C   UNL A   1      40.109  34.085  37.338  1.00  0.00     0.000 A 
ATOM     30  C   UNL A   1      41.078  33.075  37.256  1.00  0.00     0.012 A 
ATOM     31  C   UNL A   1      40.485  35.345  37.833  1.00  0.00     0.012 A 
ATOM     32  C   UNL A   1      42.404  33.326  37.621  1.00  0.00     0.021 A 
ATOM     33  C   UNL A   1      41.824  35.611  38.151  1.00  0.00     0.021 A 
ATOM     34  C   UNL A   1      42.777  34.601  38.041  1.00  0.00     0.041 A 
ATOM     35  Cl  UNL A   1      44.428  34.935  38.394  1.00  0.00    -0.084 Cl
ENDBRANCH  14  29
ENDBRANCH   4   7
ENDBRANCH   2   3
ENDBRANCH   1   2
BRANCH   1  36
ATOM     36  C   UNL A   1      39.773  31.285  31.295  1.00  0.00     0.118 C 
BRANCH  36  37
ATOM     37  N   UNL A   1      38.905  30.098  31.316  1.00  0.00    -0.352 N 
ATOM     38  C   UNL A   1      38.618  29.219  30.274  1.00  0.00     0.251 C 
ATOM     39  H   UNL A   1      38.471  29.900  32.177  1.00  0.00     0.163 HD
ATOM     40  O   UNL A   1      37.700  28.478  30.308  1.00  0.00    -0.269 OA
BRANCH  38  41
ATOM     41  C   UNL A   1      39.691  29.144  29.249  1.00  0.00     0.039 A 
ATOM     42  C   UNL A   1      39.573  29.330  27.882  1.00  0.00     0.014 A 
ATOM     43  C   UNL A   1      40.833  28.487  29.644  1.00  0.00     0.014 A 
ATOM     44  C   UNL A   1      40.546  28.598  27.075  1.00  0.00     0.010 A 
ATOM     45  C   UNL A   1      41.887  28.540  28.833  1.00  0.00     0.010 A 
ATOM     46  C   UNL A   1      41.595  27.823  27.724  1.00  0.00    -0.014 A 
BRANCH  46  47
ATOM     47  C   UNL A   1      42.963  27.130  27.303  1.00  0.00     0.031 A 
ATOM     48  C   UNL A   1      42.273  25.580  27.166  1.00  0.00     0.074 A 
ATOM     49  C   UNL A   1      44.329  27.676  26.967  1.00  0.00     0.049 A 
ATOM     50  N   UNL A   1      42.132  24.791  28.203  1.00  0.00    -0.248 NA
ATOM     51  C   UNL A   1      41.200  25.066  26.161  1.00  0.00     0.031 C 
ATOM     52  C   UNL A   1      45.094  29.075  26.923  1.00  0.00     0.029 A 
ATOM     53  N   UNL A   1      45.563  26.981  26.635  1.00  0.00    -0.354 N 
ATOM     54  C   UNL A   1      41.680  23.562  27.696  1.00  0.00     0.074 A 
ATOM     55  C   UNL A   1      40.822  23.865  26.628  1.00  0.00     0.031 C 
ATOM     56  C   UNL A   1      46.333  29.048  26.277  1.00  0.00     0.029 A 
ATOM     57  C   UNL A   1      46.695  27.683  25.950  1.00  0.00     0.049 A 
ATOM     58  H   UNL A   1      45.656  26.028  26.866  1.00  0.00     0.167 HD
ATOM     59  C   UNL A   1      42.487  22.478  27.830  1.00  0.00     0.037 A 
ATOM     60  C   UNL A   1      47.948  27.176  25.493  1.00  0.00     0.037 A 
ATOM     61  C   UNL A   1      43.479  22.828  28.813  1.00  0.00     0.049 A 
ATOM     62  C   UNL A   1      47.989  25.793  26.037  1.00  0.00     0.074 A 
ATOM     63  C   UNL A   1      43.398  23.208  30.138  1.00  0.00     0.029 A 
ATOM     64  N   UNL A   1      44.522  23.518  28.256  1.00  0.00    -0.354 N 
ATOM     65  N   UNL A   1      48.097  25.594  27.322  1.00  0.00    -0.248 NA
ATOM     66  C   UNL A   1      47.166  24.863  25.265  1.00  0.00     0.031 C 
ATOM     67  C   UNL A   1      44.327  24.274  30.303  1.00  0.00     0.029 A 
ATOM     68  C   UNL A   1      45.105  24.351  29.157  1.00  0.00     0.049 A 
ATOM     69  H   UNL A   1      44.812  23.422  27.321  1.00  0.00     0.167 HD
ATOM     70  C   UNL A   1      46.952  24.878  27.620  1.00  0.00     0.074 A 
ATOM     71  C   UNL A   1      46.420  24.432  26.293  1.00  0.00     0.031 C 
ATOM     72  C   UNL A   1      46.292  25.067  28.815  1.00  0.00     0.037 A 
BRANCH  59  73
ATOM     73  C   UNL A   1      42.767  21.425  26.780  1.00  0.00     0.064 A 
ATOM     74  C   UNL A   1      42.371  20.116  27.107  1.00  0.00     0.173 A 
ATOM     75  C   UNL A   1      43.607  21.542  25.646  1.00  0.00     0.173 A 
ATOM     76  F   UNL A   1      41.567  19.902  28.159  1.00  0.00    -0.203 F 
ATOM     77  C   UNL A   1      42.830  19.003  26.406  1.00  0.00     0.198 A 
ATOM     78  C   UNL A   1      44.010  20.426  24.902  1.00  0.00     0.198 A 
ATOM     79  F   UNL A   1      44.137  22.709  25.256  1.00  0.00    -0.203 F 
ATOM     80  F   UNL A   1      42.515  17.776  26.841  1.00  0.00    -0.200 F 
ATOM     81  C   UNL A   1      43.639  19.157  25.298  1.00  0.00     0.200 A 
ATOM     82  F   UNL A   1      44.806  20.586  23.833  1.00  0.00    -0.200 F 
ATOM     83  F   UNL A   1      44.079  18.084  24.627  1.00  0.00    -0.200 F 
ENDBRANCH  59  73
BRANCH  60  84
ATOM     84  C   UNL A   1      48.821  27.465  24.215  1.00  0.00     0.064 A 
ATOM     85  C   UNL A   1      50.213  27.216  23.910  1.00  0.00     0.173 A 
ATOM     86  C   UNL A   1      48.061  27.737  23.075  1.00  0.00     0.173 A 
ATOM     87  F   UNL A   1      51.098  26.875  24.863  1.00  0.00    -0.203 F 
ATOM     88  C   UNL A   1      50.739  27.271  22.574  1.00  0.00     0.198 A 
ATOM     89  C   UNL A   1      48.567  27.750  21.765  1.00  0.00     0.198 A 
ATOM     90  F   UNL A   1      46.741  27.903  23.205  1.00  0.00    -0.203 F 
ATOM     91  F   UNL A   1      52.043  27.050  22.315  1.00  0.00    -0.200 F 
ATOM     92  C   UNL A   1      49.899  27.516  21.504  1.00  0.00     0.200 A 
ATOM     93  F   UNL A   1      47.713  27.940  20.750  1.00  0.00    -0.200 F 
ATOM     94  F   UNL A   1      50.345  27.493  20.236  1.00  0.00    -0.200 F 
ENDBRANCH  60  84
BRANCH  72  95
ATOM     95  C   UNL A   1      46.884  25.938  29.905  1.00  0.00     0.064 A 
ATOM     96  C   UNL A   1      48.169  25.873  30.490  1.00  0.00     0.173 A 
ATOM     97  C   UNL A   1      46.113  27.044  30.255  1.00  0.00     0.173 A 
ATOM     98  F   UNL A   1      49.104  25.038  30.028  1.00  0.00    -0.203 F 
ATOM     99  C   UNL A   1      48.566  26.754  31.506  1.00  0.00     0.198 A 
ATOM    100  C   UNL A   1      46.538  27.968  31.202  1.00  0.00     0.198 A 
ATOM    101  F   UNL A   1      44.964  27.274  29.606  1.00  0.00    -0.203 F 
ATOM    102  F   UNL A   1      49.757  26.607  32.111  1.00  0.00    -0.200 F 
ATOM    103  C   UNL A   1      47.738  27.798  31.867  1.00  0.00     0.200 A 
ATOM    104  F   UNL A   1      45.777  29.041  31.450  1.00  0.00    -0.200 F 
ATOM    105  F   UNL A   1      48.107  28.660  32.824  1.00  0.00    -0.200 F 
ENDBRANCH  72  95
ENDBRANCH  46  47
ENDBRANCH  38  41
ENDBRANCH  36  37
ENDBRANCH   1  36
TORSDOF 15
ENDMDL
