MODEL 1
REMARK VINA RESULT:     -13.4      0.000      0.000
REMARK SMILES Cc1ccnc(C(=O)c2[nH]c3ccc(OC(F)(F)F)cc3c2CC(=O)NCCCNC(=O)c2ccc(-c3c4nc(c(-c5c(F)c(F)c(F)c(F)c5F)c5ccc([nH]5)c(-c5c(F)c(F)c(F)c(F)c5F)c5nc(c(-c6c(F)c(F)c(F)c(F)c6F)c6ccc3[nH]6)C=C5)C=C4)cc2)c1
REMARK SMILES IDX 27 1 26 2 24 3 25 4 23 6 22 7 9 8 10 9 11 10 21 12 12 13
REMARK SMILES IDX 20 14 13 15 14 16 7 17 8 18 6 19 1 20 2 21 3 22 96 23 4 24
REMARK SMILES IDX 5 25 15 26 16 27 17 28 18 29 19 30 28 31 29 32 30 33 31 34
REMARK SMILES IDX 32 36 33 37 34 38 95 39 35 40 94 41 36 42 37 43 38 44 88 45
REMARK SMILES IDX 39 46 93 47 87 48 89 49 40 50 92 51 86 52 85 53 41 55 73 56
REMARK SMILES IDX 53 57 72 58 54 59 57 60 71 61 90 62 55 63 56 64 70 66 91 67
REMARK SMILES IDX 58 68 42 69 43 70 51 71 44 72 45 73 49 74 52 75 46 76 47 77
REMARK SMILES IDX 50 78 48 79 74 80 75 81 83 82 76 83 77 84 81 85 84 86 78 87
REMARK SMILES IDX 79 88 82 89 80 90 59 91 60 92 68 93 61 94 62 95 66 96 69 97
REMARK SMILES IDX 63 98 64 99 67 100 65 101
REMARK H PARENT 26 5 10 11 30 35 89 54 57 65
REMARK Flexibility Score: inf
ROOT
ATOM      1  C   UNL A   1      32.530  27.066  26.612  1.00  0.00     0.117 C 
ENDROOT
BRANCH   1   2
ATOM      2  N   UNL A   1      31.560  26.024  26.881  1.00  0.00    -0.356 N 
ATOM      3  C   UNL A   1      31.635  24.680  26.646  1.00  0.00     0.224 C 
ATOM      4  O   UNL A   1      30.734  23.966  27.095  1.00  0.00    -0.275 OA
ATOM      5  H   UNL A   1      30.721  26.330  27.295  1.00  0.00     0.163 HD
BRANCH   3   6
ATOM      6  C   UNL A   1      32.847  24.070  25.962  1.00  0.00     0.138 C 
BRANCH   6   7
ATOM      7  C   UNL A   1      32.607  23.565  24.568  1.00  0.00    -0.002 A 
ATOM      8  C   UNL A   1      32.461  24.317  23.406  1.00  0.00     0.093 A 
ATOM      9  N   UNL A   1      32.335  23.436  22.356  1.00  0.00    -0.352 N 
ATOM     10  C   UNL A   1      32.268  22.144  22.812  1.00  0.00     0.046 A 
ATOM     11  H   UNL A   1      32.297  23.698  21.409  1.00  0.00     0.167 HD
ATOM     12  C   UNL A   1      32.426  22.189  24.194  1.00  0.00     0.008 A 
ATOM     13  C   UNL A   1      32.096  20.949  22.110  1.00  0.00     0.030 A 
ATOM     14  C   UNL A   1      32.403  20.972  24.906  1.00  0.00     0.057 A 
ATOM     15  C   UNL A   1      32.082  19.754  22.842  1.00  0.00     0.049 A 
ATOM     16  C   UNL A   1      32.236  19.756  24.227  1.00  0.00     0.130 A 
BRANCH   8  17
ATOM     17  C   UNL A   1      32.515  25.758  23.223  1.00  0.00     0.227 C 
ATOM     18  O   UNL A   1      33.590  26.325  23.058  1.00  0.00    -0.285 OA
BRANCH  17  19
ATOM     19  C   UNL A   1      31.214  26.531  23.178  1.00  0.00     0.113 A 
ATOM     20  C   UNL A   1      29.718  29.791  21.928  1.00  0.00     0.044 C 
ATOM     21  C   UNL A   1      29.880  28.447  22.572  1.00  0.00    -0.047 A 
ATOM     22  C   UNL A   1      28.810  27.860  23.247  1.00  0.00     0.023 A 
ATOM     23  C   UNL A   1      31.097  27.757  22.518  1.00  0.00     0.036 A 
ATOM     24  C   UNL A   1      29.002  26.631  23.854  1.00  0.00     0.112 A 
ATOM     25  N   UNL A   1      30.176  25.967  23.848  1.00  0.00    -0.253 NA
ENDBRANCH  17  19
ENDBRANCH   8  17
BRANCH  16  26
ATOM     26  O   UNL A   1      32.247  18.660  25.043  1.00  0.00    -0.406 OA
BRANCH  26  27
ATOM     27  C   UNL A   1      33.297  17.723  24.882  1.00  0.00     0.573 C 
ATOM     28  F   UNL A   1      33.444  16.962  25.987  1.00  0.00    -0.132 F 
ATOM     29  F   UNL A   1      33.082  16.927  23.812  1.00  0.00    -0.132 F 
ATOM     30  F   UNL A   1      34.451  18.396  24.679  1.00  0.00    -0.132 F 
ENDBRANCH  26  27
ENDBRANCH  16  26
ENDBRANCH   6   7
ENDBRANCH   3   6
ENDBRANCH   1   2
BRANCH   1  31
ATOM     31  C   UNL A   1      31.892  28.384  26.182  1.00  0.00     0.042 C 
BRANCH  31  32
ATOM     32  C   UNL A   1      32.873  29.421  25.642  1.00  0.00     0.118 C 
BRANCH  32  33
ATOM     33  N   UNL A   1      32.532  30.781  26.037  1.00  0.00    -0.352 N 
ATOM     34  C   UNL A   1      33.083  31.603  26.988  1.00  0.00     0.251 C 
ATOM     35  H   UNL A   1      31.781  31.176  25.539  1.00  0.00     0.163 HD
ATOM     36  O   UNL A   1      32.523  32.664  27.260  1.00  0.00    -0.269 OA
BRANCH  34  37
ATOM     37  C   UNL A   1      34.326  31.239  27.706  1.00  0.00     0.039 A 
ATOM     38  C   UNL A   1      35.342  32.197  27.806  1.00  0.00     0.014 A 
ATOM     39  C   UNL A   1      34.533  29.956  28.221  1.00  0.00     0.014 A 
ATOM     40  C   UNL A   1      36.533  31.894  28.473  1.00  0.00     0.010 A 
ATOM     41  C   UNL A   1      35.700  29.669  28.931  1.00  0.00     0.010 A 
ATOM     42  C   UNL A   1      36.709  30.635  29.066  1.00  0.00    -0.014 A 
BRANCH  42  43
ATOM     43  C   UNL A   1      37.934  30.313  29.841  1.00  0.00     0.031 A 
ATOM     44  C   UNL A   1      38.973  29.390  29.271  1.00  0.00     0.074 A 
ATOM     45  C   UNL A   1      38.080  30.799  31.088  1.00  0.00     0.049 A 
ATOM     46  N   UNL A   1      40.047  28.902  29.839  1.00  0.00    -0.248 NA
ATOM     47  C   UNL A   1      38.767  28.940  27.886  1.00  0.00     0.031 C 
ATOM     48  C   UNL A   1      37.133  31.683  31.767  1.00  0.00     0.029 A 
ATOM     49  N   UNL A   1      39.073  30.599  32.015  1.00  0.00    -0.354 N 
ATOM     50  C   UNL A   1      40.630  28.069  28.893  1.00  0.00     0.074 A 
ATOM     51  C   UNL A   1      39.781  28.102  27.721  1.00  0.00     0.031 C 
ATOM     52  C   UNL A   1      37.592  31.956  32.998  1.00  0.00     0.029 A 
ATOM     53  C   UNL A   1      38.846  31.238  33.209  1.00  0.00     0.049 A 
ATOM     54  H   UNL A   1      39.871  30.051  31.840  1.00  0.00     0.167 HD
ATOM     55  C   UNL A   1      41.773  27.350  28.992  1.00  0.00     0.037 A 
ATOM     56  C   UNL A   1      39.561  31.233  34.350  1.00  0.00     0.037 A 
ATOM     57  C   UNL A   1      42.640  27.344  30.140  1.00  0.00     0.049 A 
ATOM     58  C   UNL A   1      40.830  30.436  34.429  1.00  0.00     0.074 A 
ATOM     59  C   UNL A   1      43.854  26.698  30.304  1.00  0.00     0.029 A 
ATOM     60  N   UNL A   1      42.385  28.021  31.322  1.00  0.00    -0.354 N 
ATOM     61  N   UNL A   1      41.388  29.681  33.515  1.00  0.00    -0.248 NA
ATOM     62  C   UNL A   1      41.568  30.485  35.700  1.00  0.00     0.031 C 
ATOM     63  C   UNL A   1      44.322  26.964  31.596  1.00  0.00     0.029 A 
ATOM     64  C   UNL A   1      43.412  27.796  32.226  1.00  0.00     0.049 A 
ATOM     65  H   UNL A   1      41.593  28.578  31.496  1.00  0.00     0.167 HD
ATOM     66  C   UNL A   1      42.547  29.180  34.092  1.00  0.00     0.074 A 
ATOM     67  C   UNL A   1      42.618  29.723  35.432  1.00  0.00     0.031 C 
ATOM     68  C   UNL A   1      43.468  28.345  33.555  1.00  0.00     0.037 A 
BRANCH  55  69
ATOM     69  C   UNL A   1      42.157  26.501  27.819  1.00  0.00     0.064 A 
ATOM     70  C   UNL A   1      41.700  25.182  27.690  1.00  0.00     0.173 A 
ATOM     71  C   UNL A   1      42.957  27.026  26.793  1.00  0.00     0.173 A 
ATOM     72  F   UNL A   1      40.941  24.634  28.652  1.00  0.00    -0.203 F 
ATOM     73  C   UNL A   1      42.044  24.412  26.583  1.00  0.00     0.198 A 
ATOM     74  C   UNL A   1      43.283  26.259  25.678  1.00  0.00     0.198 A 
ATOM     75  F   UNL A   1      43.413  28.285  26.869  1.00  0.00    -0.203 F 
ATOM     76  F   UNL A   1      41.623  23.142  26.495  1.00  0.00    -0.200 F 
ATOM     77  C   UNL A   1      42.831  24.952  25.576  1.00  0.00     0.200 A 
ATOM     78  F   UNL A   1      44.036  26.784  24.702  1.00  0.00    -0.200 F 
ATOM     79  F   UNL A   1      43.158  24.210  24.509  1.00  0.00    -0.200 F 
ENDBRANCH  55  69
BRANCH  56  80
ATOM     80  C   UNL A   1      39.089  32.025  35.512  1.00  0.00     0.064 A 
ATOM     81  C   UNL A   1      39.407  33.384  35.628  1.00  0.00     0.173 A 
ATOM     82  C   UNL A   1      38.305  31.444  36.519  1.00  0.00     0.173 A 
ATOM     83  F   UNL A   1      40.172  33.973  34.698  1.00  0.00    -0.203 F 
ATOM     84  C   UNL A   1      38.964  34.134  36.715  1.00  0.00     0.198 A 
ATOM     85  C   UNL A   1      37.848  32.200  37.595  1.00  0.00     0.198 A 
ATOM     86  F   UNL A   1      37.976  30.146  36.449  1.00  0.00    -0.203 F 
ATOM     87  F   UNL A   1      39.305  35.426  36.819  1.00  0.00    -0.200 F 
ATOM     88  C   UNL A   1      38.181  33.542  37.695  1.00  0.00     0.200 A 
ATOM     89  F   UNL A   1      37.083  31.627  38.536  1.00  0.00    -0.200 F 
ATOM     90  F   UNL A   1      37.751  34.265  38.738  1.00  0.00    -0.200 F 
ENDBRANCH  56  80
BRANCH  68  91
ATOM     91  C   UNL A   1      44.642  27.981  34.412  1.00  0.00     0.064 A 
ATOM     92  C   UNL A   1      45.799  28.771  34.433  1.00  0.00     0.173 A 
ATOM     93  C   UNL A   1      44.592  26.855  35.246  1.00  0.00     0.173 A 
ATOM     94  F   UNL A   1      45.897  29.848  33.639  1.00  0.00    -0.203 F 
ATOM     95  C   UNL A   1      46.874  28.439  35.254  1.00  0.00     0.198 A 
ATOM     96  C   UNL A   1      45.662  26.535  36.077  1.00  0.00     0.198 A 
ATOM     97  F   UNL A   1      43.505  26.070  35.258  1.00  0.00    -0.203 F 
ATOM     98  F   UNL A   1      47.984  29.190  35.238  1.00  0.00    -0.200 F 
ATOM     99  C   UNL A   1      46.802  27.325  36.078  1.00  0.00     0.200 A 
ATOM    100  F   UNL A   1      45.591  25.462  36.876  1.00  0.00    -0.200 F 
ATOM    101  F   UNL A   1      47.837  27.009  36.869  1.00  0.00    -0.200 F 
ENDBRANCH  68  91
ENDBRANCH  42  43
ENDBRANCH  34  37
ENDBRANCH  32  33
ENDBRANCH  31  32
ENDBRANCH   1  31
TORSDOF 15
ENDMDL
MODEL 2
REMARK VINA RESULT:     -13.2      3.340      5.196
REMARK SMILES Cc1ccnc(C(=O)c2[nH]c3ccc(OC(F)(F)F)cc3c2CC(=O)NCCCNC(=O)c2ccc(-c3c4nc(c(-c5c(F)c(F)c(F)c(F)c5F)c5ccc([nH]5)c(-c5c(F)c(F)c(F)c(F)c5F)c5nc(c(-c6c(F)c(F)c(F)c(F)c6F)c6ccc3[nH]6)C=C5)C=C4)cc2)c1
REMARK SMILES IDX 27 1 26 2 24 3 25 4 23 6 22 7 9 8 10 9 11 10 21 12 12 13
REMARK SMILES IDX 20 14 13 15 14 16 7 17 8 18 6 19 1 20 2 21 3 22 96 23 4 24
REMARK SMILES IDX 5 25 15 26 16 27 17 28 18 29 19 30 28 31 29 32 30 33 31 34
REMARK SMILES IDX 32 36 33 37 34 38 95 39 35 40 94 41 36 42 37 43 38 44 88 45
REMARK SMILES IDX 39 46 93 47 87 48 89 49 40 50 92 51 86 52 85 53 41 55 73 56
REMARK SMILES IDX 53 57 72 58 54 59 57 60 71 61 90 62 55 63 56 64 70 66 91 67
REMARK SMILES IDX 58 68 42 69 43 70 51 71 44 72 45 73 49 74 52 75 46 76 47 77
REMARK SMILES IDX 50 78 48 79 74 80 75 81 83 82 76 83 77 84 81 85 84 86 78 87
REMARK SMILES IDX 79 88 82 89 80 90 59 91 60 92 68 93 61 94 62 95 66 96 69 97
REMARK SMILES IDX 63 98 64 99 67 100 65 101
REMARK H PARENT 26 5 10 11 30 35 89 54 57 65
REMARK Flexibility Score: inf
ROOT
ATOM      1  C   UNL A   1      31.501  30.800  25.944  1.00  0.00     0.117 C 
ENDROOT
BRANCH   1   2
ATOM      2  N   UNL A   1      32.378  29.961  26.734  1.00  0.00    -0.356 N 
ATOM      3  C   UNL A   1      33.029  28.810  26.387  1.00  0.00     0.224 C 
ATOM      4  O   UNL A   1      33.843  28.345  27.190  1.00  0.00    -0.275 OA
ATOM      5  H   UNL A   1      32.529  30.264  27.658  1.00  0.00     0.163 HD
BRANCH   3   6
ATOM      6  C   UNL A   1      32.849  28.191  25.012  1.00  0.00     0.138 C 
BRANCH   6   7
ATOM      7  C   UNL A   1      31.563  27.439  24.813  1.00  0.00    -0.002 A 
ATOM      8  C   UNL A   1      31.274  26.134  25.201  1.00  0.00     0.093 A 
ATOM      9  N   UNL A   1      29.957  25.891  24.883  1.00  0.00    -0.352 N 
ATOM     10  C   UNL A   1      29.422  26.946  24.190  1.00  0.00     0.046 A 
ATOM     11  H   UNL A   1      29.467  25.071  25.120  1.00  0.00     0.167 HD
ATOM     12  C   UNL A   1      30.404  27.930  24.120  1.00  0.00     0.008 A 
ATOM     13  C   UNL A   1      28.149  27.108  23.637  1.00  0.00     0.030 A 
ATOM     14  C   UNL A   1      30.092  29.134  23.455  1.00  0.00     0.057 A 
ATOM     15  C   UNL A   1      27.865  28.317  22.987  1.00  0.00     0.049 A 
ATOM     16  C   UNL A   1      28.821  29.327  22.894  1.00  0.00     0.130 A 
BRANCH   8  17
ATOM     17  C   UNL A   1      32.106  25.171  25.902  1.00  0.00     0.227 C 
ATOM     18  O   UNL A   1      31.829  24.825  27.046  1.00  0.00    -0.285 OA
BRANCH  17  19
ATOM     19  C   UNL A   1      33.280  24.561  25.169  1.00  0.00     0.113 A 
ATOM     20  C   UNL A   1      36.958  23.715  25.600  1.00  0.00     0.044 C 
ATOM     21  C   UNL A   1      35.587  23.872  25.015  1.00  0.00    -0.047 A 
ATOM     22  C   UNL A   1      35.346  23.513  23.689  1.00  0.00     0.023 A 
ATOM     23  C   UNL A   1      34.528  24.384  25.773  1.00  0.00     0.036 A 
ATOM     24  C   UNL A   1      34.075  23.699  23.172  1.00  0.00     0.112 A 
ATOM     25  N   UNL A   1      33.050  24.226  23.873  1.00  0.00    -0.253 NA
ENDBRANCH  17  19
ENDBRANCH   8  17
BRANCH  16  26
ATOM     26  O   UNL A   1      28.659  30.544  22.294  1.00  0.00    -0.406 OA
BRANCH  26  27
ATOM     27  C   UNL A   1      28.182  31.616  23.088  1.00  0.00     0.573 C 
ATOM     28  F   UNL A   1      27.777  32.649  22.317  1.00  0.00    -0.132 F 
ATOM     29  F   UNL A   1      27.163  31.220  23.882  1.00  0.00    -0.132 F 
ATOM     30  F   UNL A   1      29.186  32.051  23.879  1.00  0.00    -0.132 F 
ENDBRANCH  26  27
ENDBRANCH  16  26
ENDBRANCH   6   7
ENDBRANCH   3   6
ENDBRANCH   1   2
BRANCH   1  31
ATOM     31  C   UNL A   1      31.335  32.205  26.519  1.00  0.00     0.042 C 
BRANCH  31  32
ATOM     32  C   UNL A   1      32.549  32.727  27.284  1.00  0.00     0.118 C 
BRANCH  32  33
ATOM     33  N   UNL A   1      32.403  34.118  27.691  1.00  0.00    -0.352 N 
ATOM     34  C   UNL A   1      33.069  34.848  28.644  1.00  0.00     0.251 C 
ATOM     35  H   UNL A   1      31.710  34.618  27.203  1.00  0.00     0.163 HD
ATOM     36  O   UNL A   1      32.664  35.974  28.928  1.00  0.00    -0.269 OA
BRANCH  34  37
ATOM     37  C   UNL A   1      34.255  34.308  29.349  1.00  0.00     0.039 A 
ATOM     38  C   UNL A   1      34.049  33.517  30.485  1.00  0.00     0.014 A 
ATOM     39  C   UNL A   1      35.557  34.621  28.951  1.00  0.00     0.014 A 
ATOM     40  C   UNL A   1      35.140  32.989  31.183  1.00  0.00     0.010 A 
ATOM     41  C   UNL A   1      36.646  34.054  29.616  1.00  0.00     0.010 A 
ATOM     42  C   UNL A   1      36.448  33.231  30.736  1.00  0.00    -0.014 A 
BRANCH  42  43
ATOM     43  C   UNL A   1      37.619  32.624  31.417  1.00  0.00     0.031 A 
ATOM     44  C   UNL A   1      38.355  31.476  30.785  1.00  0.00     0.074 A 
ATOM     45  C   UNL A   1      37.979  33.060  32.639  1.00  0.00     0.049 A 
ATOM     46  N   UNL A   1      39.323  30.744  31.276  1.00  0.00    -0.248 NA
ATOM     47  C   UNL A   1      37.933  31.088  29.431  1.00  0.00     0.031 C 
ATOM     48  C   UNL A   1      37.331  34.148  33.372  1.00  0.00     0.029 A 
ATOM     49  N   UNL A   1      38.967  32.627  33.487  1.00  0.00    -0.354 N 
ATOM     50  C   UNL A   1      39.607  29.794  30.304  1.00  0.00     0.074 A 
ATOM     51  C   UNL A   1      38.698  30.030  29.203  1.00  0.00     0.031 C 
ATOM     52  C   UNL A   1      37.942  34.303  34.557  1.00  0.00     0.029 A 
ATOM     53  C   UNL A   1      39.000  33.303  34.682  1.00  0.00     0.049 A 
ATOM     54  H   UNL A   1      39.593  31.903  33.261  1.00  0.00     0.167 HD
ATOM     55  C   UNL A   1      40.549  28.820  30.327  1.00  0.00     0.037 A 
ATOM     56  C   UNL A   1      39.784  33.127  35.763  1.00  0.00     0.037 A 
ATOM     57  C   UNL A   1      41.480  28.606  31.402  1.00  0.00     0.049 A 
ATOM     58  C   UNL A   1      40.826  32.047  35.757  1.00  0.00     0.074 A 
ATOM     59  C   UNL A   1      42.512  27.686  31.482  1.00  0.00     0.029 A 
ATOM     60  N   UNL A   1      41.493  29.325  32.586  1.00  0.00    -0.354 N 
ATOM     61  N   UNL A   1      41.109  31.179  34.817  1.00  0.00    -0.248 NA
ATOM     62  C   UNL A   1      41.656  31.918  36.964  1.00  0.00     0.031 C 
ATOM     63  C   UNL A   1      43.135  27.833  32.726  1.00  0.00     0.029 A 
ATOM     64  C   UNL A   1      42.507  28.860  33.410  1.00  0.00     0.049 A 
ATOM     65  H   UNL A   1      40.875  30.058  32.811  1.00  0.00     0.167 HD
ATOM     66  C   UNL A   1      42.157  30.413  35.310  1.00  0.00     0.074 A 
ATOM     67  C   UNL A   1      42.467  30.924  36.629  1.00  0.00     0.031 C 
ATOM     68  C   UNL A   1      42.803  29.380  34.719  1.00  0.00     0.037 A 
BRANCH  55  69
ATOM     69  C   UNL A   1      40.619  27.902  29.144  1.00  0.00     0.064 A 
ATOM     70  C   UNL A   1      39.817  26.756  29.060  1.00  0.00     0.173 A 
ATOM     71  C   UNL A   1      41.468  28.196  28.067  1.00  0.00     0.173 A 
ATOM     72  F   UNL A   1      38.998  26.430  30.071  1.00  0.00    -0.203 F 
ATOM     73  C   UNL A   1      39.874  25.925  27.945  1.00  0.00     0.198 A 
ATOM     74  C   UNL A   1      41.508  27.372  26.945  1.00  0.00     0.198 A 
ATOM     75  F   UNL A   1      42.250  29.285  28.100  1.00  0.00    -0.203 F 
ATOM     76  F   UNL A   1      39.122  24.816  27.898  1.00  0.00    -0.200 F 
ATOM     77  C   UNL A   1      40.716  26.236  26.887  1.00  0.00     0.200 A 
ATOM     78  F   UNL A   1      42.316  27.678  25.920  1.00  0.00    -0.200 F 
ATOM     79  F   UNL A   1      40.767  25.437  25.813  1.00  0.00    -0.200 F 
ENDBRANCH  55  69
BRANCH  56  80
ATOM     80  C   UNL A   1      39.614  34.011  36.942  1.00  0.00     0.064 A 
ATOM     81  C   UNL A   1      38.836  33.604  38.034  1.00  0.00     0.173 A 
ATOM     82  C   UNL A   1      40.230  35.268  37.004  1.00  0.00     0.173 A 
ATOM     83  F   UNL A   1      38.212  32.418  38.005  1.00  0.00    -0.203 F 
ATOM     84  C   UNL A   1      38.675  34.427  39.145  1.00  0.00     0.198 A 
ATOM     85  C   UNL A   1      40.083  36.082  38.124  1.00  0.00     0.198 A 
ATOM     86  F   UNL A   1      40.984  35.698  35.982  1.00  0.00    -0.203 F 
ATOM     87  F   UNL A   1      37.904  34.029  40.166  1.00  0.00    -0.200 F 
ATOM     88  C   UNL A   1      39.303  35.663  39.192  1.00  0.00     0.200 A 
ATOM     89  F   UNL A   1      40.699  37.272  38.170  1.00  0.00    -0.200 F 
ATOM     90  F   UNL A   1      39.152  36.454  40.264  1.00  0.00    -0.200 F 
ENDBRANCH  56  80
BRANCH  68  91
ATOM     91  C   UNL A   1      43.921  28.744  35.486  1.00  0.00     0.064 A 
ATOM     92  C   UNL A   1      45.249  29.159  35.315  1.00  0.00     0.173 A 
ATOM     93  C   UNL A   1      43.657  27.740  36.428  1.00  0.00     0.173 A 
ATOM     94  F   UNL A   1      45.550  30.105  34.412  1.00  0.00    -0.203 F 
ATOM     95  C   UNL A   1      46.277  28.580  36.054  1.00  0.00     0.198 A 
ATOM     96  C   UNL A   1      44.685  27.175  37.177  1.00  0.00     0.198 A 
ATOM     97  F   UNL A   1      42.401  27.312  36.626  1.00  0.00    -0.203 F 
ATOM     98  F   UNL A   1      47.544  28.969  35.854  1.00  0.00    -0.200 F 
ATOM     99  C   UNL A   1      45.994  27.594  36.987  1.00  0.00     0.200 A 
ATOM    100  F   UNL A   1      44.411  26.225  38.081  1.00  0.00    -0.200 F 
ATOM    101  F   UNL A   1      46.985  27.040  37.699  1.00  0.00    -0.200 F 
ENDBRANCH  68  91
ENDBRANCH  42  43
ENDBRANCH  34  37
ENDBRANCH  32  33
ENDBRANCH  31  32
ENDBRANCH   1  31
TORSDOF 15
ENDMDL
MODEL 3
REMARK VINA RESULT:     -13.1      3.375      5.458
REMARK SMILES Cc1ccnc(C(=O)c2[nH]c3ccc(OC(F)(F)F)cc3c2CC(=O)NCCCNC(=O)c2ccc(-c3c4nc(c(-c5c(F)c(F)c(F)c(F)c5F)c5ccc([nH]5)c(-c5c(F)c(F)c(F)c(F)c5F)c5nc(c(-c6c(F)c(F)c(F)c(F)c6F)c6ccc3[nH]6)C=C5)C=C4)cc2)c1
REMARK SMILES IDX 27 1 26 2 24 3 25 4 23 6 22 7 9 8 10 9 11 10 21 12 12 13
REMARK SMILES IDX 20 14 13 15 14 16 7 17 8 18 6 19 1 20 2 21 3 22 96 23 4 24
REMARK SMILES IDX 5 25 15 26 16 27 17 28 18 29 19 30 28 31 29 32 30 33 31 34
REMARK SMILES IDX 32 36 33 37 34 38 95 39 35 40 94 41 36 42 37 43 38 44 88 45
REMARK SMILES IDX 39 46 93 47 87 48 89 49 40 50 92 51 86 52 85 53 41 55 73 56
REMARK SMILES IDX 53 57 72 58 54 59 57 60 71 61 90 62 55 63 56 64 70 66 91 67
REMARK SMILES IDX 58 68 42 69 43 70 51 71 44 72 45 73 49 74 52 75 46 76 47 77
REMARK SMILES IDX 50 78 48 79 74 80 75 81 83 82 76 83 77 84 81 85 84 86 78 87
REMARK SMILES IDX 79 88 82 89 80 90 59 91 60 92 68 93 61 94 62 95 66 96 69 97
REMARK SMILES IDX 63 98 64 99 67 100 65 101
REMARK H PARENT 26 5 10 11 30 35 89 54 57 65
REMARK Flexibility Score: inf
ROOT
ATOM      1  C   UNL A   1      31.802  30.779  26.279  1.00  0.00     0.117 C 
ENDROOT
BRANCH   1   2
ATOM      2  N   UNL A   1      31.620  29.699  27.228  1.00  0.00    -0.356 N 
ATOM      3  C   UNL A   1      31.659  28.348  27.028  1.00  0.00     0.224 C 
ATOM      4  O   UNL A   1      31.617  27.618  28.023  1.00  0.00    -0.275 OA
ATOM      5  H   UNL A   1      31.442  29.980  28.154  1.00  0.00     0.163 HD
BRANCH   3   6
ATOM      6  C   UNL A   1      31.869  27.766  25.641  1.00  0.00     0.138 C 
BRANCH   6   7
ATOM      7  C   UNL A   1      30.612  27.395  24.906  1.00  0.00    -0.002 A 
ATOM      8  C   UNL A   1      29.966  26.162  24.898  1.00  0.00     0.093 A 
ATOM      9  N   UNL A   1      28.817  26.302  24.153  1.00  0.00    -0.352 N 
ATOM     10  C   UNL A   1      28.762  27.545  23.576  1.00  0.00     0.046 A 
ATOM     11  H   UNL A   1      28.131  25.605  24.049  1.00  0.00     0.167 HD
ATOM     12  C   UNL A   1      29.876  28.252  24.019  1.00  0.00     0.008 A 
ATOM     13  C   UNL A   1      27.811  28.096  22.713  1.00  0.00     0.030 A 
ATOM     14  C   UNL A   1      30.045  29.578  23.566  1.00  0.00     0.057 A 
ATOM     15  C   UNL A   1      28.002  29.416  22.284  1.00  0.00     0.049 A 
ATOM     16  C   UNL A   1      29.104  30.159  22.703  1.00  0.00     0.130 A 
BRANCH   8  17
ATOM     17  C   UNL A   1      30.309  24.932  25.593  1.00  0.00     0.227 C 
ATOM     18  O   UNL A   1      29.987  24.769  26.765  1.00  0.00    -0.285 OA
BRANCH  17  19
ATOM     19  C   UNL A   1      31.014  23.838  24.820  1.00  0.00     0.113 A 
ATOM     20  C   UNL A   1      32.608  20.419  25.266  1.00  0.00     0.044 C 
ATOM     21  C   UNL A   1      32.114  21.698  24.659  1.00  0.00    -0.047 A 
ATOM     22  C   UNL A   1      32.358  21.974  23.313  1.00  0.00     0.023 A 
ATOM     23  C   UNL A   1      31.409  22.638  25.418  1.00  0.00     0.036 A 
ATOM     24  C   UNL A   1      31.912  23.176  22.792  1.00  0.00     0.112 A 
ATOM     25  N   UNL A   1      31.266  24.113  23.515  1.00  0.00    -0.253 NA
ENDBRANCH  17  19
ENDBRANCH   8  17
BRANCH  16  26
ATOM     26  O   UNL A   1      29.391  31.450  22.360  1.00  0.00    -0.406 OA
BRANCH  26  27
ATOM     27  C   UNL A   1      28.369  32.419  22.511  1.00  0.00     0.573 C 
ATOM     28  F   UNL A   1      27.657  32.557  21.372  1.00  0.00    -0.132 F 
ATOM     29  F   UNL A   1      27.537  32.098  23.526  1.00  0.00    -0.132 F 
ATOM     30  F   UNL A   1      28.940  33.610  22.798  1.00  0.00    -0.132 F 
ENDBRANCH  26  27
ENDBRANCH  16  26
ENDBRANCH   6   7
ENDBRANCH   3   6
ENDBRANCH   1   2
BRANCH   1  31
ATOM     31  C   UNL A   1      31.543  32.158  26.883  1.00  0.00     0.042 C 
BRANCH  31  32
ATOM     32  C   UNL A   1      32.787  33.028  27.041  1.00  0.00     0.118 C 
BRANCH  32  33
ATOM     33  N   UNL A   1      32.500  34.317  27.656  1.00  0.00    -0.352 N 
ATOM     34  C   UNL A   1      33.050  34.929  28.754  1.00  0.00     0.251 C 
ATOM     35  H   UNL A   1      31.793  34.836  27.209  1.00  0.00     0.163 HD
ATOM     36  O   UNL A   1      32.534  35.958  29.188  1.00  0.00    -0.269 OA
BRANCH  34  37
ATOM     37  C   UNL A   1      34.239  34.373  29.440  1.00  0.00     0.039 A 
ATOM     38  C   UNL A   1      34.042  33.601  30.592  1.00  0.00     0.014 A 
ATOM     39  C   UNL A   1      35.539  34.652  29.009  1.00  0.00     0.014 A 
ATOM     40  C   UNL A   1      35.137  33.060  31.273  1.00  0.00     0.010 A 
ATOM     41  C   UNL A   1      36.630  34.070  29.658  1.00  0.00     0.010 A 
ATOM     42  C   UNL A   1      36.439  33.267  30.793  1.00  0.00    -0.014 A 
BRANCH  42  43
ATOM     43  C   UNL A   1      37.612  32.643  31.457  1.00  0.00     0.031 A 
ATOM     44  C   UNL A   1      38.328  31.491  30.810  1.00  0.00     0.074 A 
ATOM     45  C   UNL A   1      37.992  33.069  32.676  1.00  0.00     0.049 A 
ATOM     46  N   UNL A   1      39.294  30.746  31.285  1.00  0.00    -0.248 NA
ATOM     47  C   UNL A   1      37.885  31.116  29.459  1.00  0.00     0.031 C 
ATOM     48  C   UNL A   1      37.365  34.159  33.423  1.00  0.00     0.029 A 
ATOM     49  N   UNL A   1      38.986  32.621  33.510  1.00  0.00    -0.354 N 
ATOM     50  C   UNL A   1      39.556  29.799  30.304  1.00  0.00     0.074 A 
ATOM     51  C   UNL A   1      38.636  30.051  29.215  1.00  0.00     0.031 C 
ATOM     52  C   UNL A   1      37.992  34.301  34.602  1.00  0.00     0.029 A 
ATOM     53  C   UNL A   1      39.040  33.290  34.708  1.00  0.00     0.049 A 
ATOM     54  H   UNL A   1      39.601  31.891  33.272  1.00  0.00     0.167 HD
ATOM     55  C   UNL A   1      40.488  28.815  30.309  1.00  0.00     0.037 A 
ATOM     56  C   UNL A   1      39.835  33.100  35.778  1.00  0.00     0.037 A 
ATOM     57  C   UNL A   1      41.429  28.585  31.372  1.00  0.00     0.049 A 
ATOM     58  C   UNL A   1      40.866  32.008  35.753  1.00  0.00     0.074 A 
ATOM     59  C   UNL A   1      42.452  27.654  31.434  1.00  0.00     0.029 A 
ATOM     60  N   UNL A   1      41.465  29.297  32.560  1.00  0.00    -0.354 N 
ATOM     61  N   UNL A   1      41.128  31.142  34.805  1.00  0.00    -0.248 NA
ATOM     62  C   UNL A   1      41.709  31.863  36.949  1.00  0.00     0.031 C 
ATOM     63  C   UNL A   1      43.092  27.787  32.672  1.00  0.00     0.029 A 
ATOM     64  C   UNL A   1      42.483  28.817  33.369  1.00  0.00     0.049 A 
ATOM     65  H   UNL A   1      40.858  30.035  32.796  1.00  0.00     0.167 HD
ATOM     66  C   UNL A   1      42.174  30.363  35.281  1.00  0.00     0.074 A 
ATOM     67  C   UNL A   1      42.505  30.863  36.599  1.00  0.00     0.031 C 
ATOM     68  C   UNL A   1      42.801  29.326  34.676  1.00  0.00     0.037 A 
BRANCH  55  69
ATOM     69  C   UNL A   1      40.533  27.903  29.121  1.00  0.00     0.064 A 
ATOM     70  C   UNL A   1      41.398  28.148  28.045  1.00  0.00     0.173 A 
ATOM     71  C   UNL A   1      39.734  26.752  29.079  1.00  0.00     0.173 A 
ATOM     72  F   UNL A   1      42.173  29.242  28.038  1.00  0.00    -0.203 F 
ATOM     73  C   UNL A   1      41.447  27.279  26.958  1.00  0.00     0.198 A 
ATOM     74  C   UNL A   1      39.801  25.876  27.999  1.00  0.00     0.198 A 
ATOM     75  F   UNL A   1      38.896  26.473  30.088  1.00  0.00    -0.203 F 
ATOM     76  F   UNL A   1      42.258  27.548  25.924  1.00  0.00    -0.200 F 
ATOM     77  C   UNL A   1      40.653  26.142  26.938  1.00  0.00     0.200 A 
ATOM     78  F   UNL A   1      39.039  24.773  27.984  1.00  0.00    -0.200 F 
ATOM     79  F   UNL A   1      40.706  25.305  25.893  1.00  0.00    -0.200 F 
ENDBRANCH  55  69
BRANCH  56  80
ATOM     80  C   UNL A   1      39.689  33.978  36.964  1.00  0.00     0.064 A 
ATOM     81  C   UNL A   1      40.354  35.209  37.028  1.00  0.00     0.173 A 
ATOM     82  C   UNL A   1      38.878  33.610  38.046  1.00  0.00     0.173 A 
ATOM     83  F   UNL A   1      41.157  35.589  36.024  1.00  0.00    -0.203 F 
ATOM     84  C   UNL A   1      40.218  36.040  38.138  1.00  0.00     0.198 A 
ATOM     85  C   UNL A   1      38.728  34.451  39.147  1.00  0.00     0.198 A 
ATOM     86  F   UNL A   1      38.222  32.440  38.027  1.00  0.00    -0.203 F 
ATOM     87  F   UNL A   1      40.885  37.201  38.189  1.00  0.00    -0.200 F 
ATOM     88  C   UNL A   1      39.401  35.663  39.193  1.00  0.00     0.200 A 
ATOM     89  F   UNL A   1      37.931  34.086  40.161  1.00  0.00    -0.200 F 
ATOM     90  F   UNL A   1      39.266  36.464  40.259  1.00  0.00    -0.200 F 
ENDBRANCH  56  80
BRANCH  68  91
ATOM     91  C   UNL A   1      43.922  28.674  35.427  1.00  0.00     0.064 A 
ATOM     92  C   UNL A   1      43.689  27.590  36.284  1.00  0.00     0.173 A 
ATOM     93  C   UNL A   1      45.242  29.113  35.256  1.00  0.00     0.173 A 
ATOM     94  F   UNL A   1      42.439  27.148  36.490  1.00  0.00    -0.203 F 
ATOM     95  C   UNL A   1      44.742  26.974  36.955  1.00  0.00     0.198 A 
ATOM     96  C   UNL A   1      46.294  28.484  35.916  1.00  0.00     0.198 A 
ATOM     97  F   UNL A   1      45.512  30.147  34.446  1.00  0.00    -0.203 F 
ATOM     98  F   UNL A   1      44.496  25.958  37.793  1.00  0.00    -0.200 F 
ATOM     99  C   UNL A   1      46.043  27.417  36.766  1.00  0.00     0.200 A 
ATOM    100  F   UNL A   1      47.551  28.910  35.731  1.00  0.00    -0.200 F 
ATOM    101  F   UNL A   1      47.054  26.821  37.411  1.00  0.00    -0.200 F 
ENDBRANCH  68  91
ENDBRANCH  42  43
ENDBRANCH  34  37
ENDBRANCH  32  33
ENDBRANCH  31  32
ENDBRANCH   1  31
TORSDOF 15
ENDMDL
