MODEL 1
REMARK VINA RESULT:     -11.1      0.000      0.000
REMARK SMILES CCOC(=O)c1noc(C)c1C(=O)NCCCNC(=O)c1ccc(-c2c3nc(c(-c4c(F)c(F)c(F)c(F)c4F)c4ccc([nH]4)c(-c4c(F)c(F)c(F)c(F)c4F)c4nc(c(-c5c(F)c(F)c(F)c(F)c5F)c5ccc2[nH]5)C=C4)C=C3)cc1
REMARK SMILES IDX 15 1 14 2 12 3 13 4 11 6 6 7 7 8 8 9 9 10 10 11 4 12 5 13
REMARK SMILES IDX 3 14 2 15 1 16 16 17 17 18 18 19 19 20 20 22 21 23 22 24
REMARK SMILES IDX 83 25 23 26 82 27 24 28 25 29 26 30 76 31 27 32 81 33 75 34
REMARK SMILES IDX 77 35 28 36 80 37 74 38 73 39 29 41 61 42 41 43 60 44 42 45
REMARK SMILES IDX 45 46 59 47 78 48 43 49 44 50 58 52 79 53 46 54 30 55 31 56
REMARK SMILES IDX 39 57 32 58 33 59 37 60 40 61 34 62 35 63 38 64 36 65 62 66
REMARK SMILES IDX 63 67 71 68 64 69 65 70 69 71 72 72 66 73 67 74 70 75 68 76
REMARK SMILES IDX 47 77 48 78 56 79 49 80 50 81 54 82 57 83 51 84 52 85 55 86
REMARK SMILES IDX 53 87
REMARK H PARENT 14 5 18 21 77 40 45 51
REMARK Flexibility Score: inf
ROOT
ATOM      1  C   UNL A   1      37.062  20.733  24.584  1.00  0.00     0.118 C 
ENDROOT
BRANCH   1   2
ATOM      2  N   UNL A   1      36.136  20.956  25.665  1.00  0.00    -0.352 N 
ATOM      3  C   UNL A   1      34.844  21.384  25.741  1.00  0.00     0.257 C 
ATOM      4  O   UNL A   1      34.375  21.318  26.881  1.00  0.00    -0.269 OA
ATOM      5  H   UNL A   1      36.523  20.753  26.547  1.00  0.00     0.163 HD
BRANCH   3   6
ATOM      6  C   UNL A   1      34.019  21.840  24.630  1.00  0.00     0.117 A 
ATOM      7  C   UNL A   1      33.025  20.983  24.023  1.00  0.00     0.204 A 
ATOM      8  N   UNL A   1      32.426  21.575  22.983  1.00  0.00    -0.072 NA
ATOM      9  O   UNL A   1      32.954  22.833  22.921  1.00  0.00    -0.360 OA
ATOM     10  C   UNL A   1      33.881  23.015  23.903  1.00  0.00     0.147 A 
ATOM     11  C   UNL A   1      34.418  24.388  23.868  1.00  0.00     0.092 C 
BRANCH   7  12
ATOM     12  C   UNL A   1      32.641  19.632  24.405  1.00  0.00     0.361 C 
ATOM     13  O   UNL A   1      31.976  19.373  25.406  1.00  0.00    -0.244 OA
BRANCH  12  14
ATOM     14  O   UNL A   1      33.147  18.700  23.545  1.00  0.00    -0.461 OA
BRANCH  14  15
ATOM     15  C   UNL A   1      34.141  17.826  24.093  1.00  0.00     0.230 C 
ATOM     16  C   UNL A   1      34.075  16.474  23.411  1.00  0.00     0.049 C 
ENDBRANCH  14  15
ENDBRANCH  12  14
ENDBRANCH   7  12
ENDBRANCH   3   6
ENDBRANCH   1   2
BRANCH   1  17
ATOM     17  C   UNL A   1      38.056  19.627  24.934  1.00  0.00     0.042 C 
BRANCH  17  18
ATOM     18  C   UNL A   1      39.091  20.037  25.978  1.00  0.00     0.118 C 
BRANCH  18  19
ATOM     19  N   UNL A   1      40.222  19.123  26.006  1.00  0.00    -0.352 N 
ATOM     20  C   UNL A   1      41.570  19.373  26.048  1.00  0.00     0.251 C 
ATOM     21  H   UNL A   1      39.982  18.168  25.993  1.00  0.00     0.163 HD
ATOM     22  O   UNL A   1      42.356  18.462  25.801  1.00  0.00    -0.269 OA
BRANCH  20  23
ATOM     23  C   UNL A   1      42.087  20.716  26.382  1.00  0.00     0.039 A 
ATOM     24  C   UNL A   1      42.360  21.606  25.338  1.00  0.00     0.014 A 
ATOM     25  C   UNL A   1      42.365  21.085  27.701  1.00  0.00     0.014 A 
ATOM     26  C   UNL A   1      42.859  22.878  25.622  1.00  0.00     0.010 A 
ATOM     27  C   UNL A   1      42.785  22.382  27.989  1.00  0.00     0.010 A 
ATOM     28  C   UNL A   1      43.045  23.289  26.952  1.00  0.00    -0.014 A 
BRANCH  28  29
ATOM     29  C   UNL A   1      43.497  24.667  27.266  1.00  0.00     0.031 A 
ATOM     30  C   UNL A   1      42.533  25.682  27.813  1.00  0.00     0.074 A 
ATOM     31  C   UNL A   1      44.774  25.012  27.012  1.00  0.00     0.049 A 
ATOM     32  N   UNL A   1      42.740  26.938  28.119  1.00  0.00    -0.248 NA
ATOM     33  C   UNL A   1      41.146  25.236  28.020  1.00  0.00     0.031 C 
ATOM     34  C   UNL A   1      45.786  24.128  26.431  1.00  0.00     0.029 A 
ATOM     35  N   UNL A   1      45.438  26.197  27.201  1.00  0.00    -0.354 N 
ATOM     36  C   UNL A   1      41.513  27.431  28.546  1.00  0.00     0.074 A 
ATOM     37  C   UNL A   1      40.554  26.358  28.401  1.00  0.00     0.031 C 
ATOM     38  C   UNL A   1      46.950  24.791  26.343  1.00  0.00     0.029 A 
ATOM     39  C   UNL A   1      46.756  26.156  26.819  1.00  0.00     0.049 A 
ATOM     40  H   UNL A   1      45.010  27.002  27.577  1.00  0.00     0.167 HD
ATOM     41  C   UNL A   1      41.221  28.660  29.035  1.00  0.00     0.037 A 
ATOM     42  C   UNL A   1      47.701  27.115  26.843  1.00  0.00     0.037 A 
ATOM     43  C   UNL A   1      42.185  29.719  29.188  1.00  0.00     0.049 A 
ATOM     44  C   UNL A   1      47.345  28.475  27.380  1.00  0.00     0.074 A 
ATOM     45  C   UNL A   1      42.004  30.981  29.725  1.00  0.00     0.029 A 
ATOM     46  N   UNL A   1      43.514  29.641  28.792  1.00  0.00    -0.354 N 
ATOM     47  N   UNL A   1      46.200  28.906  27.852  1.00  0.00    -0.248 NA
ATOM     48  C   UNL A   1      48.417  29.477  27.396  1.00  0.00     0.031 C 
ATOM     49  C   UNL A   1      43.207  31.686  29.603  1.00  0.00     0.029 A 
ATOM     50  C   UNL A   1      44.156  30.841  29.048  1.00  0.00     0.049 A 
ATOM     51  H   UNL A   1      43.937  28.848  28.390  1.00  0.00     0.167 HD
ATOM     52  C   UNL A   1      46.419  30.219  28.243  1.00  0.00     0.074 A 
ATOM     53  C   UNL A   1      47.814  30.505  27.975  1.00  0.00     0.031 C 
ATOM     54  C   UNL A   1      45.545  31.111  28.772  1.00  0.00     0.037 A 
BRANCH  41  55
ATOM     55  C   UNL A   1      39.798  28.928  29.441  1.00  0.00     0.064 A 
ATOM     56  C   UNL A   1      38.846  29.400  28.523  1.00  0.00     0.173 A 
ATOM     57  C   UNL A   1      39.370  28.674  30.753  1.00  0.00     0.173 A 
ATOM     58  F   UNL A   1      39.202  29.670  27.259  1.00  0.00    -0.203 F 
ATOM     59  C   UNL A   1      37.529  29.639  28.912  1.00  0.00     0.198 A 
ATOM     60  C   UNL A   1      38.045  28.881  31.129  1.00  0.00     0.198 A 
ATOM     61  F   UNL A   1      40.235  28.216  31.670  1.00  0.00    -0.203 F 
ATOM     62  F   UNL A   1      36.652  30.140  28.031  1.00  0.00    -0.200 F 
ATOM     63  C   UNL A   1      37.129  29.371  30.212  1.00  0.00     0.200 A 
ATOM     64  F   UNL A   1      37.655  28.607  32.383  1.00  0.00    -0.200 F 
ATOM     65  F   UNL A   1      35.860  29.592  30.583  1.00  0.00    -0.200 F 
ENDBRANCH  41  55
BRANCH  42  66
ATOM     66  C   UNL A   1      49.077  26.815  26.365  1.00  0.00     0.064 A 
ATOM     67  C   UNL A   1      49.435  27.018  25.024  1.00  0.00     0.173 A 
ATOM     68  C   UNL A   1      50.059  26.317  27.233  1.00  0.00     0.173 A 
ATOM     69  F   UNL A   1      48.526  27.478  24.152  1.00  0.00    -0.203 F 
ATOM     70  C   UNL A   1      50.713  26.711  24.566  1.00  0.00     0.198 A 
ATOM     71  C   UNL A   1      51.347  26.040  26.781  1.00  0.00     0.198 A 
ATOM     72  F   UNL A   1      49.772  26.112  28.527  1.00  0.00    -0.203 F 
ATOM     73  F   UNL A   1      51.013  26.866  23.269  1.00  0.00    -0.200 F 
ATOM     74  C   UNL A   1      51.670  26.228  25.445  1.00  0.00     0.200 A 
ATOM     75  F   UNL A   1      52.274  25.591  27.638  1.00  0.00    -0.200 F 
ATOM     76  F   UNL A   1      52.902  25.936  25.004  1.00  0.00    -0.200 F 
ENDBRANCH  42  66
BRANCH  54  77
ATOM     77  C   UNL A   1      46.082  32.469  29.123  1.00  0.00     0.064 A 
ATOM     78  C   UNL A   1      46.046  33.535  28.210  1.00  0.00     0.173 A 
ATOM     79  C   UNL A   1      46.623  32.713  30.395  1.00  0.00     0.173 A 
ATOM     80  F   UNL A   1      45.554  33.351  26.976  1.00  0.00    -0.203 F 
ATOM     81  C   UNL A   1      46.567  34.782  28.545  1.00  0.00     0.198 A 
ATOM     82  C   UNL A   1      47.108  33.972  30.739  1.00  0.00     0.198 A 
ATOM     83  F   UNL A   1      46.674  31.732  31.308  1.00  0.00    -0.203 F 
ATOM     84  F   UNL A   1      46.580  35.766  27.636  1.00  0.00    -0.200 F 
ATOM     85  C   UNL A   1      47.090  35.002  29.811  1.00  0.00     0.200 A 
ATOM     86  F   UNL A   1      47.598  34.186  31.967  1.00  0.00    -0.200 F 
ATOM     87  F   UNL A   1      47.587  36.204  30.133  1.00  0.00    -0.200 F 
ENDBRANCH  54  77
ENDBRANCH  28  29
ENDBRANCH  20  23
ENDBRANCH  18  19
ENDBRANCH  17  18
ENDBRANCH   1  17
TORSDOF 13
ENDMDL
MODEL 2
REMARK VINA RESULT:     -11.0      0.309      2.047
REMARK SMILES CCOC(=O)c1noc(C)c1C(=O)NCCCNC(=O)c1ccc(-c2c3nc(c(-c4c(F)c(F)c(F)c(F)c4F)c4ccc([nH]4)c(-c4c(F)c(F)c(F)c(F)c4F)c4nc(c(-c5c(F)c(F)c(F)c(F)c5F)c5ccc2[nH]5)C=C4)C=C3)cc1
REMARK SMILES IDX 15 1 14 2 12 3 13 4 11 6 6 7 7 8 8 9 9 10 10 11 4 12 5 13
REMARK SMILES IDX 3 14 2 15 1 16 16 17 17 18 18 19 19 20 20 22 21 23 22 24
REMARK SMILES IDX 83 25 23 26 82 27 24 28 25 29 26 30 76 31 27 32 81 33 75 34
REMARK SMILES IDX 77 35 28 36 80 37 74 38 73 39 29 41 61 42 41 43 60 44 42 45
REMARK SMILES IDX 45 46 59 47 78 48 43 49 44 50 58 52 79 53 46 54 30 55 31 56
REMARK SMILES IDX 39 57 32 58 33 59 37 60 40 61 34 62 35 63 38 64 36 65 62 66
REMARK SMILES IDX 63 67 71 68 64 69 65 70 69 71 72 72 66 73 67 74 70 75 68 76
REMARK SMILES IDX 47 77 48 78 56 79 49 80 50 81 54 82 57 83 51 84 52 85 55 86
REMARK SMILES IDX 53 87
REMARK H PARENT 14 5 18 21 77 40 45 51
REMARK Flexibility Score: inf
ROOT
ATOM      1  C   UNL A   1      36.673  20.412  24.621  1.00  0.00     0.118 C 
ENDROOT
BRANCH   1   2
ATOM      2  N   UNL A   1      35.700  20.694  25.645  1.00  0.00    -0.352 N 
ATOM      3  C   UNL A   1      34.409  21.132  25.639  1.00  0.00     0.257 C 
ATOM      4  O   UNL A   1      33.887  21.127  26.758  1.00  0.00    -0.269 OA
ATOM      5  H   UNL A   1      36.044  20.535  26.553  1.00  0.00     0.163 HD
BRANCH   3   6
ATOM      6  C   UNL A   1      33.639  21.534  24.469  1.00  0.00     0.117 A 
ATOM      7  C   UNL A   1      32.755  20.613  23.791  1.00  0.00     0.204 A 
ATOM      8  N   UNL A   1      32.195  21.167  22.708  1.00  0.00    -0.072 NA
ATOM      9  O   UNL A   1      32.639  22.458  22.683  1.00  0.00    -0.360 OA
ATOM     10  C   UNL A   1      33.476  22.699  23.732  1.00  0.00     0.147 A 
ATOM     11  C   UNL A   1      33.918  24.106  23.734  1.00  0.00     0.092 C 
BRANCH   7  12
ATOM     12  C   UNL A   1      32.437  19.238  24.145  1.00  0.00     0.361 C 
ATOM     13  O   UNL A   1      31.991  18.905  25.241  1.00  0.00    -0.244 OA
BRANCH  12  14
ATOM     14  O   UNL A   1      32.737  18.372  23.133  1.00  0.00    -0.461 OA
BRANCH  14  15
ATOM     15  C   UNL A   1      33.277  17.109  23.537  1.00  0.00     0.230 C 
ATOM     16  C   UNL A   1      34.659  17.301  24.131  1.00  0.00     0.049 C 
ENDBRANCH  14  15
ENDBRANCH  12  14
ENDBRANCH   7  12
ENDBRANCH   3   6
ENDBRANCH   1   2
BRANCH   1  17
ATOM     17  C   UNL A   1      37.743  19.450  25.133  1.00  0.00     0.042 C 
BRANCH  17  18
ATOM     18  C   UNL A   1      39.042  20.137  25.548  1.00  0.00     0.118 C 
BRANCH  18  19
ATOM     19  N   UNL A   1      40.095  19.175  25.835  1.00  0.00    -0.352 N 
ATOM     20  C   UNL A   1      41.425  19.364  26.106  1.00  0.00     0.251 C 
ATOM     21  H   UNL A   1      39.805  18.234  25.835  1.00  0.00     0.163 HD
ATOM     22  O   UNL A   1      42.189  18.403  26.060  1.00  0.00    -0.269 OA
BRANCH  20  23
ATOM     23  C   UNL A   1      41.953  20.701  26.448  1.00  0.00     0.039 A 
ATOM     24  C   UNL A   1      42.344  21.552  25.409  1.00  0.00     0.014 A 
ATOM     25  C   UNL A   1      42.124  21.102  27.776  1.00  0.00     0.014 A 
ATOM     26  C   UNL A   1      42.856  22.817  25.701  1.00  0.00     0.010 A 
ATOM     27  C   UNL A   1      42.558  22.394  28.065  1.00  0.00     0.010 A 
ATOM     28  C   UNL A   1      42.936  23.261  27.030  1.00  0.00    -0.014 A 
BRANCH  28  29
ATOM     29  C   UNL A   1      43.401  24.635  27.346  1.00  0.00     0.031 A 
ATOM     30  C   UNL A   1      42.456  25.646  27.932  1.00  0.00     0.074 A 
ATOM     31  C   UNL A   1      44.670  24.980  27.057  1.00  0.00     0.049 A 
ATOM     32  N   UNL A   1      42.676  26.899  28.246  1.00  0.00    -0.248 NA
ATOM     33  C   UNL A   1      41.075  25.201  28.176  1.00  0.00     0.031 C 
ATOM     34  C   UNL A   1      45.663  24.100  26.437  1.00  0.00     0.029 A 
ATOM     35  N   UNL A   1      45.343  26.161  27.239  1.00  0.00    -0.354 N 
ATOM     36  C   UNL A   1      41.463  27.390  28.714  1.00  0.00     0.074 A 
ATOM     37  C   UNL A   1      40.498  26.320  28.587  1.00  0.00     0.031 C 
ATOM     38  C   UNL A   1      46.825  24.761  26.321  1.00  0.00     0.029 A 
ATOM     39  C   UNL A   1      46.649  26.122  26.817  1.00  0.00     0.049 A 
ATOM     40  H   UNL A   1      44.929  26.963  27.636  1.00  0.00     0.167 HD
ATOM     41  C   UNL A   1      41.189  28.614  29.226  1.00  0.00     0.037 A 
ATOM     42  C   UNL A   1      47.597  27.078  26.824  1.00  0.00     0.037 A 
ATOM     43  C   UNL A   1      42.161  29.669  29.361  1.00  0.00     0.049 A 
ATOM     44  C   UNL A   1      47.261  28.432  27.386  1.00  0.00     0.074 A 
ATOM     45  C   UNL A   1      41.999  30.926  29.917  1.00  0.00     0.029 A 
ATOM     46  N   UNL A   1      43.477  29.592  28.925  1.00  0.00    -0.354 N 
ATOM     47  N   UNL A   1      46.132  28.861  27.896  1.00  0.00    -0.248 NA
ATOM     48  C   UNL A   1      48.336  29.432  27.380  1.00  0.00     0.031 C 
ATOM     49  C   UNL A   1      43.200  31.629  29.767  1.00  0.00     0.029 A 
ATOM     50  C   UNL A   1      44.130  30.788  29.174  1.00  0.00     0.049 A 
ATOM     51  H   UNL A   1      43.886  28.802  28.502  1.00  0.00     0.167 HD
ATOM     52  C   UNL A   1      46.366  30.169  28.295  1.00  0.00     0.074 A 
ATOM     53  C   UNL A   1      47.753  30.455  27.989  1.00  0.00     0.031 C 
ATOM     54  C   UNL A   1      45.511  31.057  28.860  1.00  0.00     0.037 A 
BRANCH  41  55
ATOM     55  C   UNL A   1      39.780  28.881  29.677  1.00  0.00     0.064 A 
ATOM     56  C   UNL A   1      39.369  28.635  30.997  1.00  0.00     0.173 A 
ATOM     57  C   UNL A   1      38.838  29.425  28.791  1.00  0.00     0.173 A 
ATOM     58  F   UNL A   1      40.225  28.106  31.883  1.00  0.00    -0.203 F 
ATOM     59  C   UNL A   1      38.062  28.892  31.402  1.00  0.00     0.198 A 
ATOM     60  C   UNL A   1      37.541  29.713  29.209  1.00  0.00     0.198 A 
ATOM     61  F   UNL A   1      39.177  29.686  27.519  1.00  0.00    -0.203 F 
ATOM     62  F   UNL A   1      37.679  28.599  32.653  1.00  0.00    -0.200 F 
ATOM     63  C   UNL A   1      37.152  29.439  30.511  1.00  0.00     0.200 A 
ATOM     64  F   UNL A   1      36.666  30.255  28.349  1.00  0.00    -0.200 F 
ATOM     65  F   UNL A   1      35.896  29.694  30.904  1.00  0.00    -0.200 F 
ENDBRANCH  41  55
BRANCH  42  66
ATOM     66  C   UNL A   1      48.957  26.780  26.301  1.00  0.00     0.064 A 
ATOM     67  C   UNL A   1      49.947  26.239  27.134  1.00  0.00     0.173 A 
ATOM     68  C   UNL A   1      49.297  27.035  24.965  1.00  0.00     0.173 A 
ATOM     69  F   UNL A   1      49.675  25.993  28.424  1.00  0.00    -0.203 F 
ATOM     70  C   UNL A   1      51.231  25.986  26.657  1.00  0.00     0.198 A 
ATOM     71  C   UNL A   1      50.572  26.752  24.480  1.00  0.00     0.198 A 
ATOM     72  F   UNL A   1      48.386  27.545  24.124  1.00  0.00    -0.203 F 
ATOM     73  F   UNL A   1      52.172  25.517  27.487  1.00  0.00    -0.200 F 
ATOM     74  C   UNL A   1      51.542  26.237  25.329  1.00  0.00     0.200 A 
ATOM     75  F   UNL A   1      50.862  26.978  23.192  1.00  0.00    -0.200 F 
ATOM     76  F   UNL A   1      52.776  25.991  24.869  1.00  0.00    -0.200 F 
ENDBRANCH  42  66
BRANCH  54  77
ATOM     77  C   UNL A   1      46.062  32.411  29.209  1.00  0.00     0.064 A 
ATOM     78  C   UNL A   1      46.662  32.665  30.452  1.00  0.00     0.173 A 
ATOM     79  C   UNL A   1      46.004  33.462  28.281  1.00  0.00     0.173 A 
ATOM     80  F   UNL A   1      46.729  31.698  31.380  1.00  0.00    -0.203 F 
ATOM     81  C   UNL A   1      47.150  33.930  30.766  1.00  0.00     0.198 A 
ATOM     82  C   UNL A   1      46.527  34.716  28.585  1.00  0.00     0.198 A 
ATOM     83  F   UNL A   1      45.449  33.271  27.075  1.00  0.00    -0.203 F 
ATOM     84  F   UNL A   1      47.661  34.166  31.981  1.00  0.00    -0.200 F 
ATOM     85  C   UNL A   1      47.089  34.952  29.830  1.00  0.00     0.200 A 
ATOM     86  F   UNL A   1      46.482  35.697  27.673  1.00  0.00    -0.200 F 
ATOM     87  F   UNL A   1      47.562  36.169  30.133  1.00  0.00    -0.200 F 
ENDBRANCH  54  77
ENDBRANCH  28  29
ENDBRANCH  20  23
ENDBRANCH  18  19
ENDBRANCH  17  18
ENDBRANCH   1  17
TORSDOF 13
ENDMDL
MODEL 3
REMARK VINA RESULT:     -10.9      6.248     10.239
REMARK SMILES CCOC(=O)c1noc(C)c1C(=O)NCCCNC(=O)c1ccc(-c2c3nc(c(-c4c(F)c(F)c(F)c(F)c4F)c4ccc([nH]4)c(-c4c(F)c(F)c(F)c(F)c4F)c4nc(c(-c5c(F)c(F)c(F)c(F)c5F)c5ccc2[nH]5)C=C4)C=C3)cc1
REMARK SMILES IDX 15 1 14 2 12 3 13 4 11 6 6 7 7 8 8 9 9 10 10 11 4 12 5 13
REMARK SMILES IDX 3 14 2 15 1 16 16 17 17 18 18 19 19 20 20 22 21 23 22 24
REMARK SMILES IDX 83 25 23 26 82 27 24 28 25 29 26 30 76 31 27 32 81 33 75 34
REMARK SMILES IDX 77 35 28 36 80 37 74 38 73 39 29 41 61 42 41 43 60 44 42 45
REMARK SMILES IDX 45 46 59 47 78 48 43 49 44 50 58 52 79 53 46 54 30 55 31 56
REMARK SMILES IDX 39 57 32 58 33 59 37 60 40 61 34 62 35 63 38 64 36 65 62 66
REMARK SMILES IDX 63 67 71 68 64 69 65 70 69 71 72 72 66 73 67 74 70 75 68 76
REMARK SMILES IDX 47 77 48 78 56 79 49 80 50 81 54 82 57 83 51 84 52 85 55 86
REMARK SMILES IDX 53 87
REMARK H PARENT 14 5 18 21 77 40 45 51
REMARK Flexibility Score: inf
ROOT
ATOM      1  C   UNL A   1      31.159  30.590  26.025  1.00  0.00     0.118 C 
ENDROOT
BRANCH   1   2
ATOM      2  N   UNL A   1      31.974  30.076  24.953  1.00  0.00    -0.352 N 
ATOM      3  C   UNL A   1      31.814  29.097  24.019  1.00  0.00     0.257 C 
ATOM      4  O   UNL A   1      32.729  29.058  23.192  1.00  0.00    -0.269 OA
ATOM      5  H   UNL A   1      32.841  30.536  24.879  1.00  0.00     0.163 HD
BRANCH   3   6
ATOM      6  C   UNL A   1      30.685  28.182  23.913  1.00  0.00     0.117 A 
ATOM      7  C   UNL A   1      29.492  28.534  23.176  1.00  0.00     0.204 A 
ATOM      8  N   UNL A   1      28.557  27.579  23.256  1.00  0.00    -0.072 NA
ATOM      9  O   UNL A   1      29.123  26.569  23.981  1.00  0.00    -0.360 OA
ATOM     10  C   UNL A   1      30.391  26.899  24.357  1.00  0.00     0.147 A 
ATOM     11  C   UNL A   1      31.022  25.791  25.098  1.00  0.00     0.092 C 
BRANCH   7  12
ATOM     12  C   UNL A   1      29.226  29.742  22.409  1.00  0.00     0.361 C 
ATOM     13  O   UNL A   1      28.801  29.734  21.256  1.00  0.00    -0.244 OA
BRANCH  12  14
ATOM     14  O   UNL A   1      29.549  30.867  23.111  1.00  0.00    -0.461 OA
BRANCH  14  15
ATOM     15  C   UNL A   1      28.442  31.671  23.535  1.00  0.00     0.230 C 
ATOM     16  C   UNL A   1      28.455  32.999  22.804  1.00  0.00     0.049 C 
ENDBRANCH  14  15
ENDBRANCH  12  14
ENDBRANCH   7  12
ENDBRANCH   3   6
ENDBRANCH   1   2
BRANCH   1  17
ATOM     17  C   UNL A   1      31.383  32.089  26.212  1.00  0.00     0.042 C 
BRANCH  17  18
ATOM     18  C   UNL A   1      32.461  32.428  27.239  1.00  0.00     0.118 C 
BRANCH  18  19
ATOM     19  N   UNL A   1      32.476  33.847  27.559  1.00  0.00    -0.352 N 
ATOM     20  C   UNL A   1      33.208  34.544  28.485  1.00  0.00     0.251 C 
ATOM     21  H   UNL A   1      31.860  34.397  27.024  1.00  0.00     0.163 HD
ATOM     22  O   UNL A   1      32.877  35.692  28.770  1.00  0.00    -0.269 OA
BRANCH  20  23
ATOM     23  C   UNL A   1      34.383  33.936  29.145  1.00  0.00     0.039 A 
ATOM     24  C   UNL A   1      34.169  33.011  30.171  1.00  0.00     0.014 A 
ATOM     25  C   UNL A   1      35.686  34.312  28.808  1.00  0.00     0.014 A 
ATOM     26  C   UNL A   1      35.258  32.428  30.820  1.00  0.00     0.010 A 
ATOM     27  C   UNL A   1      36.773  33.670  29.399  1.00  0.00     0.010 A 
ATOM     28  C   UNL A   1      36.570  32.728  30.416  1.00  0.00    -0.014 A 
BRANCH  28  29
ATOM     29  C   UNL A   1      37.732  32.051  31.044  1.00  0.00     0.031 A 
ATOM     30  C   UNL A   1      38.186  32.434  32.424  1.00  0.00     0.074 A 
ATOM     31  C   UNL A   1      38.406  31.120  30.341  1.00  0.00     0.049 A 
ATOM     32  N   UNL A   1      39.195  31.973  33.121  1.00  0.00    -0.248 NA
ATOM     33  C   UNL A   1      37.421  33.490  33.105  1.00  0.00     0.031 C 
ATOM     34  C   UNL A   1      38.092  30.705  28.973  1.00  0.00     0.029 A 
ATOM     35  N   UNL A   1      39.498  30.360  30.676  1.00  0.00    -0.354 N 
ATOM     36  C   UNL A   1      39.190  32.687  34.312  1.00  0.00     0.074 A 
ATOM     37  C   UNL A   1      38.117  33.653  34.220  1.00  0.00     0.031 C 
ATOM     38  C   UNL A   1      38.949  29.743  28.597  1.00  0.00     0.029 A 
ATOM     39  C   UNL A   1      39.898  29.504  29.680  1.00  0.00     0.049 A 
ATOM     40  H   UNL A   1      39.951  30.420  31.549  1.00  0.00     0.167 HD
ATOM     41  C   UNL A   1      39.993  32.533  35.392  1.00  0.00     0.037 A 
ATOM     42  C   UNL A   1      40.920  28.628  29.641  1.00  0.00     0.037 A 
ATOM     43  C   UNL A   1      41.052  31.560  35.479  1.00  0.00     0.049 A 
ATOM     44  C   UNL A   1      41.804  28.487  30.850  1.00  0.00     0.074 A 
ATOM     45  C   UNL A   1      41.886  31.284  36.548  1.00  0.00     0.029 A 
ATOM     46  N   UNL A   1      41.427  30.706  34.451  1.00  0.00    -0.354 N 
ATOM     47  N   UNL A   1      41.742  29.114  31.999  1.00  0.00    -0.248 NA
ATOM     48  C   UNL A   1      42.895  27.508  30.757  1.00  0.00     0.031 C 
ATOM     49  C   UNL A   1      42.802  30.305  36.148  1.00  0.00     0.029 A 
ATOM     50  C   UNL A   1      42.498  29.924  34.850  1.00  0.00     0.049 A 
ATOM     51  H   UNL A   1      40.994  30.662  33.567  1.00  0.00     0.167 HD
ATOM     52  C   UNL A   1      42.766  28.590  32.775  1.00  0.00     0.074 A 
ATOM     53  C   UNL A   1      43.419  27.576  31.972  1.00  0.00     0.031 C 
ATOM     54  C   UNL A   1      43.138  28.920  34.037  1.00  0.00     0.037 A 
BRANCH  41  55
ATOM     55  C   UNL A   1      39.761  33.440  36.568  1.00  0.00     0.064 A 
ATOM     56  C   UNL A   1      40.428  34.669  36.696  1.00  0.00     0.173 A 
ATOM     57  C   UNL A   1      38.831  33.096  37.562  1.00  0.00     0.173 A 
ATOM     58  F   UNL A   1      41.334  35.043  35.781  1.00  0.00    -0.203 F 
ATOM     59  C   UNL A   1      40.198  35.501  37.789  1.00  0.00     0.198 A 
ATOM     60  C   UNL A   1      38.578  33.947  38.635  1.00  0.00     0.198 A 
ATOM     61  F   UNL A   1      38.160  31.937  37.488  1.00  0.00    -0.203 F 
ATOM     62  F   UNL A   1      40.887  36.644  37.916  1.00  0.00    -0.200 F 
ATOM     63  C   UNL A   1      39.268  35.144  38.752  1.00  0.00     0.200 A 
ATOM     64  F   UNL A   1      37.668  33.607  39.558  1.00  0.00    -0.200 F 
ATOM     65  F   UNL A   1      39.040  35.950  39.799  1.00  0.00    -0.200 F 
ENDBRANCH  41  55
BRANCH  42  66
ATOM     66  C   UNL A   1      41.147  27.804  28.424  1.00  0.00     0.064 A 
ATOM     67  C   UNL A   1      41.982  28.256  27.392  1.00  0.00     0.173 A 
ATOM     68  C   UNL A   1      40.532  26.553  28.265  1.00  0.00     0.173 A 
ATOM     69  F   UNL A   1      42.579  29.452  27.490  1.00  0.00    -0.203 F 
ATOM     70  C   UNL A   1      42.174  27.500  26.238  1.00  0.00     0.198 A 
ATOM     71  C   UNL A   1      40.751  25.784  27.124  1.00  0.00     0.198 A 
ATOM     72  F   UNL A   1      39.730  26.070  29.225  1.00  0.00    -0.203 F 
ATOM     73  F   UNL A   1      42.937  27.979  25.245  1.00  0.00    -0.200 F 
ATOM     74  C   UNL A   1      41.563  26.262  26.106  1.00  0.00     0.200 A 
ATOM     75  F   UNL A   1      40.173  24.580  27.010  1.00  0.00    -0.200 F 
ATOM     76  F   UNL A   1      41.751  25.534  24.998  1.00  0.00    -0.200 F 
ENDBRANCH  42  66
BRANCH  54  77
ATOM     77  C   UNL A   1      44.285  28.156  34.634  1.00  0.00     0.064 A 
ATOM     78  C   UNL A   1      44.089  26.946  35.318  1.00  0.00     0.173 A 
ATOM     79  C   UNL A   1      45.600  28.631  34.505  1.00  0.00     0.173 A 
ATOM     80  F   UNL A   1      42.851  26.456  35.482  1.00  0.00    -0.203 F 
ATOM     81  C   UNL A   1      45.161  26.260  35.882  1.00  0.00     0.198 A 
ATOM     82  C   UNL A   1      46.674  27.923  35.039  1.00  0.00     0.198 A 
ATOM     83  F   UNL A   1      45.844  29.777  33.854  1.00  0.00    -0.203 F 
ATOM     84  F   UNL A   1      44.943  25.141  36.585  1.00  0.00    -0.200 F 
ATOM     85  C   UNL A   1      46.453  26.745  35.736  1.00  0.00     0.200 A 
ATOM     86  F   UNL A   1      47.921  28.384  34.882  1.00  0.00    -0.200 F 
ATOM     87  F   UNL A   1      47.484  26.082  36.277  1.00  0.00    -0.200 F 
ENDBRANCH  54  77
ENDBRANCH  28  29
ENDBRANCH  20  23
ENDBRANCH  18  19
ENDBRANCH  17  18
ENDBRANCH   1  17
TORSDOF 13
ENDMDL
