MODEL 1
REMARK VINA RESULT:     -13.8      0.000      0.000
REMARK SMILES COc1cccc([C@@H]2[NH2+][C@@](C)(C(=O)NCCCNC(=O)c3ccc(-c4c5nc(c(-c6c(F)c(F)c(F)c(F)c6F)c6ccc([nH]6)c(-c6c(F)c(F)c(F)c(F)c6F)c6nc(c(-c7c(F)c(F)c(F)c(F)c7F)c7ccc4[nH]7)C=C6)C=C5)cc3)[C@@H]3C(=O)N(C)C(=O)[C@@H]32)c1O
REMARK SMILES IDX 16 1 15 2 14 3 12 4 13 5 10 7 8 8 9 9 91 10 84 13 89 14
REMARK SMILES IDX 11 15 85 16 87 17 90 18 86 19 88 20 7 21 3 22 4 23 92 24
REMARK SMILES IDX 5 25 6 26 2 27 1 28 93 29 17 31 18 32 19 33 20 35 21 36
REMARK SMILES IDX 22 37 83 38 23 39 82 40 24 41 25 42 26 43 76 44 27 45 81 46
REMARK SMILES IDX 75 47 77 48 28 49 80 50 74 51 73 52 29 54 61 55 41 56 60 57
REMARK SMILES IDX 42 58 45 59 59 60 78 61 43 62 44 63 58 65 79 66 46 67 30 68
REMARK SMILES IDX 31 69 39 70 32 71 33 72 37 73 40 74 34 75 35 76 38 77 36 78
REMARK SMILES IDX 62 79 63 80 71 81 64 82 65 83 69 84 72 85 66 86 67 87 70 88
REMARK SMILES IDX 68 89 47 90 48 91 56 92 49 93 50 94 54 95 57 96 51 97 52 98
REMARK SMILES IDX 55 99 53 100
REMARK H PARENT 14 6 9 11 9 12 93 30 18 34 77 53 45 64
REMARK Flexibility Score: inf
ROOT
ATOM      1  C   UNL A   1      32.358  28.071  25.295  1.00  0.00     0.042 C 
ENDROOT
BRANCH   1   2
ATOM      2  C   UNL A   1      32.753  26.901  26.177  1.00  0.00     0.118 C 
BRANCH   2   3
ATOM      3  N   UNL A   1      31.595  26.178  26.679  1.00  0.00    -0.351 N 
ATOM      4  C   UNL A   1      30.988  25.050  26.208  1.00  0.00     0.281 C 
ATOM      5  O   UNL A   1      29.943  24.707  26.772  1.00  0.00    -0.268 OA
ATOM      6  H   UNL A   1      31.186  26.562  27.487  1.00  0.00     0.163 HD
BRANCH   4   7
ATOM      7  C   UNL A   1      31.605  24.231  25.032  1.00  0.00     0.185 C 
ATOM      8  C   UNL A   1      32.068  21.953  25.701  1.00  0.00     0.232 C 
ATOM      9  N   UNL A   1      31.051  22.850  25.101  1.00  0.00    -0.326 N 
ATOM     10  C   UNL A   1      33.282  22.817  26.066  1.00  0.00     0.161 C 
ATOM     11  H   UNL A   1      30.209  22.847  25.678  1.00  0.00     0.347 HD
ATOM     12  H   UNL A   1      30.814  22.525  24.164  1.00  0.00     0.347 HD
ATOM     13  C   UNL A   1      33.114  24.096  25.262  1.00  0.00     0.169 C 
ATOM     14  C   UNL A   1      34.621  22.301  25.613  1.00  0.00     0.239 C 
ATOM     15  C   UNL A   1      31.267  24.962  23.721  1.00  0.00     0.091 C 
ATOM     16  C   UNL A   1      34.027  23.870  24.082  1.00  0.00     0.240 C 
ATOM     17  N   UNL A   1      34.935  22.911  24.429  1.00  0.00    -0.285 N 
ATOM     18  O   UNL A   1      35.277  21.451  26.190  1.00  0.00    -0.274 OA
ATOM     19  O   UNL A   1      33.995  24.459  23.011  1.00  0.00    -0.274 OA
ATOM     20  C   UNL A   1      36.066  22.532  23.618  1.00  0.00     0.156 C 
BRANCH   8  21
ATOM     21  C   UNL A   1      32.352  20.718  24.846  1.00  0.00     0.056 A 
ATOM     22  C   UNL A   1      32.805  18.320  24.580  1.00  0.00     0.161 A 
ATOM     23  C   UNL A   1      32.645  18.461  23.198  1.00  0.00     0.050 A 
ATOM     24  C   UNL A   1      32.698  19.458  25.387  1.00  0.00     0.166 A 
ATOM     25  C   UNL A   1      32.349  19.701  22.636  1.00  0.00     0.005 A 
ATOM     26  C   UNL A   1      32.188  20.818  23.454  1.00  0.00     0.014 A 
BRANCH  22  27
ATOM     27  O   UNL A   1      33.145  17.052  24.969  1.00  0.00    -0.493 OA
ATOM     28  C   UNL A   1      34.063  16.338  24.156  1.00  0.00     0.278 C 
ENDBRANCH  22  27
BRANCH  24  29
ATOM     29  O   UNL A   1      33.012  19.435  26.717  1.00  0.00    -0.504 OA
ATOM     30  H   UNL A   1      32.868  18.656  27.218  1.00  0.00     0.293 HD
ENDBRANCH  24  29
ENDBRANCH   8  21
ENDBRANCH   4   7
ENDBRANCH   2   3
ENDBRANCH   1   2
BRANCH   1  31
ATOM     31  C   UNL A   1      33.330  29.237  25.361  1.00  0.00     0.118 C 
BRANCH  31  32
ATOM     32  N   UNL A   1      32.740  30.442  25.938  1.00  0.00    -0.352 N 
ATOM     33  C   UNL A   1      33.175  31.211  26.990  1.00  0.00     0.251 C 
ATOM     34  H   UNL A   1      31.908  30.748  25.509  1.00  0.00     0.163 HD
ATOM     35  O   UNL A   1      32.464  32.099  27.448  1.00  0.00    -0.269 OA
BRANCH  33  36
ATOM     36  C   UNL A   1      34.499  30.939  27.584  1.00  0.00     0.039 A 
ATOM     37  C   UNL A   1      35.421  31.980  27.712  1.00  0.00     0.014 A 
ATOM     38  C   UNL A   1      34.805  29.661  28.053  1.00  0.00     0.014 A 
ATOM     39  C   UNL A   1      36.621  31.757  28.391  1.00  0.00     0.010 A 
ATOM     40  C   UNL A   1      35.946  29.469  28.816  1.00  0.00     0.010 A 
ATOM     41  C   UNL A   1      36.871  30.512  28.988  1.00  0.00    -0.014 A 
BRANCH  41  42
ATOM     42  C   UNL A   1      38.096  30.241  29.779  1.00  0.00     0.031 A 
ATOM     43  C   UNL A   1      39.131  29.299  29.231  1.00  0.00     0.074 A 
ATOM     44  C   UNL A   1      38.228  30.746  31.020  1.00  0.00     0.049 A 
ATOM     45  N   UNL A   1      40.179  28.781  29.817  1.00  0.00    -0.248 NA
ATOM     46  C   UNL A   1      38.931  28.845  27.845  1.00  0.00     0.031 C 
ATOM     47  C   UNL A   1      37.284  31.652  31.673  1.00  0.00     0.029 A 
ATOM     48  N   UNL A   1      39.206  30.549  31.962  1.00  0.00    -0.354 N 
ATOM     49  C   UNL A   1      40.745  27.924  28.882  1.00  0.00     0.074 A 
ATOM     50  C   UNL A   1      39.888  27.939  27.717  1.00  0.00     0.031 C 
ATOM     51  C   UNL A   1      37.737  31.947  32.903  1.00  0.00     0.029 A 
ATOM     52  C   UNL A   1      38.973  31.209  33.144  1.00  0.00     0.049 A 
ATOM     53  H   UNL A   1      40.000  29.987  31.807  1.00  0.00     0.167 HD
ATOM     54  C   UNL A   1      41.889  27.205  28.978  1.00  0.00     0.037 A 
ATOM     55  C   UNL A   1      39.670  31.205  34.296  1.00  0.00     0.037 A 
ATOM     56  C   UNL A   1      42.744  27.209  30.135  1.00  0.00     0.049 A 
ATOM     57  C   UNL A   1      40.917  30.367  34.397  1.00  0.00     0.074 A 
ATOM     58  C   UNL A   1      43.947  26.553  30.320  1.00  0.00     0.029 A 
ATOM     59  N   UNL A   1      42.480  27.904  31.307  1.00  0.00    -0.354 N 
ATOM     60  N   UNL A   1      41.472  29.595  33.493  1.00  0.00    -0.248 NA
ATOM     61  C   UNL A   1      41.638  30.402  35.677  1.00  0.00     0.031 C 
ATOM     62  C   UNL A   1      44.383  26.803  31.626  1.00  0.00     0.029 A 
ATOM     63  C   UNL A   1      43.488  27.673  32.229  1.00  0.00     0.049 A 
ATOM     64  H   UNL A   1      41.694  28.475  31.461  1.00  0.00     0.167 HD
ATOM     65  C   UNL A   1      42.625  29.088  34.077  1.00  0.00     0.074 A 
ATOM     66  C   UNL A   1      42.690  29.639  35.415  1.00  0.00     0.031 C 
ATOM     67  C   UNL A   1      43.550  28.249  33.550  1.00  0.00     0.037 A 
BRANCH  54  68
ATOM     68  C   UNL A   1      42.266  26.350  27.801  1.00  0.00     0.064 A 
ATOM     69  C   UNL A   1      41.721  25.069  27.611  1.00  0.00     0.173 A 
ATOM     70  C   UNL A   1      43.188  26.814  26.851  1.00  0.00     0.173 A 
ATOM     71  F   UNL A   1      40.843  24.571  28.494  1.00  0.00    -0.203 F 
ATOM     72  C   UNL A   1      42.123  24.269  26.545  1.00  0.00     0.198 A 
ATOM     73  C   UNL A   1      43.557  26.026  25.763  1.00  0.00     0.198 A 
ATOM     74  F   UNL A   1      43.736  28.032  26.977  1.00  0.00    -0.203 F 
ATOM     75  F   UNL A   1      41.646  23.022  26.430  1.00  0.00    -0.200 F 
ATOM     76  C   UNL A   1      43.037  24.750  25.619  1.00  0.00     0.200 A 
ATOM     77  F   UNL A   1      44.428  26.500  24.860  1.00  0.00    -0.200 F 
ATOM     78  F   UNL A   1      43.424  23.978  24.594  1.00  0.00    -0.200 F 
ENDBRANCH  54  68
BRANCH  55  79
ATOM     79  C   UNL A   1      39.220  32.044  35.438  1.00  0.00     0.064 A 
ATOM     80  C   UNL A   1      38.421  31.498  36.453  1.00  0.00     0.173 A 
ATOM     81  C   UNL A   1      39.579  33.394  35.548  1.00  0.00     0.173 A 
ATOM     82  F   UNL A   1      38.034  30.215  36.382  1.00  0.00    -0.203 F 
ATOM     83  C   UNL A   1      37.986  32.274  37.525  1.00  0.00     0.198 A 
ATOM     84  C   UNL A   1      39.169  34.162  36.636  1.00  0.00     0.198 A 
ATOM     85  F   UNL A   1      40.346  33.965  34.607  1.00  0.00    -0.203 F 
ATOM     86  F   UNL A   1      37.190  31.737  38.459  1.00  0.00    -0.200 F 
ATOM     87  C   UNL A   1      38.367  33.604  37.620  1.00  0.00     0.200 A 
ATOM     88  F   UNL A   1      39.552  35.443  36.731  1.00  0.00    -0.200 F 
ATOM     89  F   UNL A   1      37.956  34.348  38.655  1.00  0.00    -0.200 F 
ENDBRANCH  55  79
BRANCH  67  90
ATOM     90  C   UNL A   1      44.754  27.924  34.387  1.00  0.00     0.064 A 
ATOM     91  C   UNL A   1      44.801  26.795  35.218  1.00  0.00     0.173 A 
ATOM     92  C   UNL A   1      45.905  28.724  34.300  1.00  0.00     0.173 A 
ATOM     93  F   UNL A   1      43.723  26.007  35.348  1.00  0.00    -0.203 F 
ATOM     94  C   UNL A   1      45.949  26.489  35.944  1.00  0.00     0.198 A 
ATOM     95  C   UNL A   1      47.062  28.395  35.001  1.00  0.00     0.198 A 
ATOM     96  F   UNL A   1      45.915  29.811  33.514  1.00  0.00    -0.203 F 
ATOM     97  F   UNL A   1      45.958  25.428  36.764  1.00  0.00    -0.200 F 
ATOM     98  C   UNL A   1      47.081  27.282  35.826  1.00  0.00     0.200 A 
ATOM     99  F   UNL A   1      48.159  29.153  34.871  1.00  0.00    -0.200 F 
ATOM    100  F   UNL A   1      48.191  26.975  36.511  1.00  0.00    -0.200 F 
ENDBRANCH  67  90
ENDBRANCH  41  42
ENDBRANCH  33  36
ENDBRANCH  31  32
ENDBRANCH   1  31
TORSDOF 13
ENDMDL
MODEL 2
REMARK VINA RESULT:     -13.8      0.092      1.559
REMARK SMILES COc1cccc([C@@H]2[NH2+][C@@](C)(C(=O)NCCCNC(=O)c3ccc(-c4c5nc(c(-c6c(F)c(F)c(F)c(F)c6F)c6ccc([nH]6)c(-c6c(F)c(F)c(F)c(F)c6F)c6nc(c(-c7c(F)c(F)c(F)c(F)c7F)c7ccc4[nH]7)C=C6)C=C5)cc3)[C@@H]3C(=O)N(C)C(=O)[C@@H]32)c1O
REMARK SMILES IDX 16 1 15 2 14 3 12 4 13 5 10 7 8 8 9 9 91 10 84 13 89 14
REMARK SMILES IDX 11 15 85 16 87 17 90 18 86 19 88 20 7 21 3 22 4 23 92 24
REMARK SMILES IDX 5 25 6 26 2 27 1 28 93 29 17 31 18 32 19 33 20 35 21 36
REMARK SMILES IDX 22 37 83 38 23 39 82 40 24 41 25 42 26 43 76 44 27 45 81 46
REMARK SMILES IDX 75 47 77 48 28 49 80 50 74 51 73 52 29 54 61 55 41 56 60 57
REMARK SMILES IDX 42 58 45 59 59 60 78 61 43 62 44 63 58 65 79 66 46 67 30 68
REMARK SMILES IDX 31 69 39 70 32 71 33 72 37 73 40 74 34 75 35 76 38 77 36 78
REMARK SMILES IDX 62 79 63 80 71 81 64 82 65 83 69 84 72 85 66 86 67 87 70 88
REMARK SMILES IDX 68 89 47 90 48 91 56 92 49 93 50 94 54 95 57 96 51 97 52 98
REMARK SMILES IDX 55 99 53 100
REMARK H PARENT 14 6 9 11 9 12 93 30 18 34 77 53 45 64
REMARK Flexibility Score: inf
ROOT
ATOM      1  C   UNL A   1      32.331  28.064  25.325  1.00  0.00     0.042 C 
ENDROOT
BRANCH   1   2
ATOM      2  C   UNL A   1      32.728  26.889  26.200  1.00  0.00     0.118 C 
BRANCH   2   3
ATOM      3  N   UNL A   1      31.570  26.163  26.699  1.00  0.00    -0.351 N 
ATOM      4  C   UNL A   1      30.962  25.038  26.222  1.00  0.00     0.281 C 
ATOM      5  O   UNL A   1      29.919  24.692  26.784  1.00  0.00    -0.268 OA
ATOM      6  H   UNL A   1      31.163  26.541  27.510  1.00  0.00     0.163 HD
BRANCH   4   7
ATOM      7  C   UNL A   1      31.577  24.227  25.039  1.00  0.00     0.185 C 
ATOM      8  C   UNL A   1      32.055  21.948  25.696  1.00  0.00     0.232 C 
ATOM      9  N   UNL A   1      31.030  22.843  25.104  1.00  0.00    -0.326 N 
ATOM     10  C   UNL A   1      33.266  22.817  26.058  1.00  0.00     0.161 C 
ATOM     11  H   UNL A   1      30.192  22.834  25.686  1.00  0.00     0.347 HD
ATOM     12  H   UNL A   1      30.790  22.521  24.167  1.00  0.00     0.347 HD
ATOM     13  C   UNL A   1      33.088  24.099  25.260  1.00  0.00     0.169 C 
ATOM     14  C   UNL A   1      34.605  22.309  25.596  1.00  0.00     0.239 C 
ATOM     15  C   UNL A   1      31.229  24.962  23.732  1.00  0.00     0.091 C 
ATOM     16  C   UNL A   1      33.996  23.882  24.075  1.00  0.00     0.240 C 
ATOM     17  N   UNL A   1      34.910  22.925  24.413  1.00  0.00    -0.285 N 
ATOM     18  O   UNL A   1      35.268  21.460  26.166  1.00  0.00    -0.274 OA
ATOM     19  O   UNL A   1      33.956  24.475  23.007  1.00  0.00    -0.274 OA
ATOM     20  C   UNL A   1      36.039  22.556  23.595  1.00  0.00     0.156 C 
BRANCH   8  21
ATOM     21  C   UNL A   1      32.341  20.718  24.834  1.00  0.00     0.056 A 
ATOM     22  C   UNL A   1      32.807  18.324  24.555  1.00  0.00     0.161 A 
ATOM     23  C   UNL A   1      32.636  18.469  23.175  1.00  0.00     0.050 A 
ATOM     24  C   UNL A   1      32.698  19.459  25.367  1.00  0.00     0.166 A 
ATOM     25  C   UNL A   1      32.328  19.709  22.620  1.00  0.00     0.005 A 
ATOM     26  C   UNL A   1      32.166  20.822  23.443  1.00  0.00     0.014 A 
BRANCH  22  27
ATOM     27  O   UNL A   1      33.157  17.058  24.937  1.00  0.00    -0.493 OA
ATOM     28  C   UNL A   1      34.087  16.358  24.125  1.00  0.00     0.278 C 
ENDBRANCH  22  27
BRANCH  24  29
ATOM     29  O   UNL A   1      33.022  19.433  26.695  1.00  0.00    -0.504 OA
ATOM     30  H   UNL A   1      33.647  20.042  27.036  1.00  0.00     0.293 HD
ENDBRANCH  24  29
ENDBRANCH   8  21
ENDBRANCH   4   7
ENDBRANCH   2   3
ENDBRANCH   1   2
BRANCH   1  31
ATOM     31  C   UNL A   1      33.311  29.224  25.386  1.00  0.00     0.118 C 
BRANCH  31  32
ATOM     32  N   UNL A   1      32.729  30.436  25.955  1.00  0.00    -0.352 N 
ATOM     33  C   UNL A   1      33.170  31.211  27.000  1.00  0.00     0.251 C 
ATOM     34  H   UNL A   1      31.897  30.743  25.526  1.00  0.00     0.163 HD
ATOM     35  O   UNL A   1      32.465  32.106  27.453  1.00  0.00    -0.269 OA
BRANCH  33  36
ATOM     36  C   UNL A   1      34.494  30.938  27.592  1.00  0.00     0.039 A 
ATOM     37  C   UNL A   1      35.417  31.978  27.721  1.00  0.00     0.014 A 
ATOM     38  C   UNL A   1      34.801  29.659  28.059  1.00  0.00     0.014 A 
ATOM     39  C   UNL A   1      36.617  31.754  28.398  1.00  0.00     0.010 A 
ATOM     40  C   UNL A   1      35.942  29.465  28.821  1.00  0.00     0.010 A 
ATOM     41  C   UNL A   1      36.867  30.508  28.993  1.00  0.00    -0.014 A 
BRANCH  41  42
ATOM     42  C   UNL A   1      38.093  30.235  29.783  1.00  0.00     0.031 A 
ATOM     43  C   UNL A   1      39.126  29.291  29.233  1.00  0.00     0.074 A 
ATOM     44  C   UNL A   1      38.228  30.739  31.023  1.00  0.00     0.049 A 
ATOM     45  N   UNL A   1      40.175  28.772  29.818  1.00  0.00    -0.248 NA
ATOM     46  C   UNL A   1      38.924  28.838  27.847  1.00  0.00     0.031 C 
ATOM     47  C   UNL A   1      37.285  31.646  31.678  1.00  0.00     0.029 A 
ATOM     48  N   UNL A   1      39.207  30.540  31.965  1.00  0.00    -0.354 N 
ATOM     49  C   UNL A   1      40.738  27.914  28.882  1.00  0.00     0.074 A 
ATOM     50  C   UNL A   1      39.879  27.931  27.718  1.00  0.00     0.031 C 
ATOM     51  C   UNL A   1      37.740  31.940  32.907  1.00  0.00     0.029 A 
ATOM     52  C   UNL A   1      38.976  31.201  33.147  1.00  0.00     0.049 A 
ATOM     53  H   UNL A   1      39.999  29.978  31.808  1.00  0.00     0.167 HD
ATOM     54  C   UNL A   1      41.881  27.194  28.976  1.00  0.00     0.037 A 
ATOM     55  C   UNL A   1      39.674  31.195  34.298  1.00  0.00     0.037 A 
ATOM     56  C   UNL A   1      42.738  27.196  30.132  1.00  0.00     0.049 A 
ATOM     57  C   UNL A   1      40.921  30.356  34.397  1.00  0.00     0.074 A 
ATOM     58  C   UNL A   1      43.940  26.539  30.316  1.00  0.00     0.029 A 
ATOM     59  N   UNL A   1      42.476  27.891  31.305  1.00  0.00    -0.354 N 
ATOM     60  N   UNL A   1      41.473  29.583  33.493  1.00  0.00    -0.248 NA
ATOM     61  C   UNL A   1      41.643  30.390  35.676  1.00  0.00     0.031 C 
ATOM     62  C   UNL A   1      44.378  26.788  31.620  1.00  0.00     0.029 A 
ATOM     63  C   UNL A   1      43.485  27.659  32.226  1.00  0.00     0.049 A 
ATOM     64  H   UNL A   1      41.691  28.464  31.460  1.00  0.00     0.167 HD
ATOM     65  C   UNL A   1      42.626  29.075  34.075  1.00  0.00     0.074 A 
ATOM     66  C   UNL A   1      42.694  29.626  35.413  1.00  0.00     0.031 C 
ATOM     67  C   UNL A   1      43.549  28.235  33.546  1.00  0.00     0.037 A 
BRANCH  54  68
ATOM     68  C   UNL A   1      42.255  26.339  27.798  1.00  0.00     0.064 A 
ATOM     69  C   UNL A   1      41.704  25.061  27.605  1.00  0.00     0.173 A 
ATOM     70  C   UNL A   1      43.183  26.799  26.851  1.00  0.00     0.173 A 
ATOM     71  F   UNL A   1      40.821  24.567  28.485  1.00  0.00    -0.203 F 
ATOM     72  C   UNL A   1      42.103  24.260  26.538  1.00  0.00     0.198 A 
ATOM     73  C   UNL A   1      43.549  26.011  25.763  1.00  0.00     0.198 A 
ATOM     74  F   UNL A   1      43.737  28.014  26.980  1.00  0.00    -0.203 F 
ATOM     75  F   UNL A   1      41.619  23.017  26.420  1.00  0.00    -0.200 F 
ATOM     76  C   UNL A   1      43.022  24.738  25.616  1.00  0.00     0.200 A 
ATOM     77  F   UNL A   1      44.424  26.481  24.862  1.00  0.00    -0.200 F 
ATOM     78  F   UNL A   1      43.406  23.965  24.590  1.00  0.00    -0.200 F 
ENDBRANCH  54  68
BRANCH  55  79
ATOM     79  C   UNL A   1      39.227  32.035  35.440  1.00  0.00     0.064 A 
ATOM     80  C   UNL A   1      39.588  33.388  35.515  1.00  0.00     0.173 A 
ATOM     81  C   UNL A   1      38.429  31.516  36.470  1.00  0.00     0.173 A 
ATOM     82  F   UNL A   1      40.367  33.925  34.564  1.00  0.00    -0.203 F 
ATOM     83  C   UNL A   1      39.182  34.185  36.583  1.00  0.00     0.198 A 
ATOM     84  C   UNL A   1      37.998  32.321  37.522  1.00  0.00     0.198 A 
ATOM     85  F   UNL A   1      38.052  30.229  36.444  1.00  0.00    -0.203 F 
ATOM     86  F   UNL A   1      39.576  35.464  36.650  1.00  0.00    -0.200 F 
ATOM     87  C   UNL A   1      38.381  33.653  37.582  1.00  0.00     0.200 A 
ATOM     88  F   UNL A   1      37.212  31.807  38.478  1.00  0.00    -0.200 F 
ATOM     89  F   UNL A   1      37.983  34.422  38.605  1.00  0.00    -0.200 F 
ENDBRANCH  55  79
BRANCH  67  90
ATOM     90  C   UNL A   1      44.754  27.907  34.382  1.00  0.00     0.064 A 
ATOM     91  C   UNL A   1      45.871  28.753  34.443  1.00  0.00     0.173 A 
ATOM     92  C   UNL A   1      44.756  26.758  35.188  1.00  0.00     0.173 A 
ATOM     93  F   UNL A   1      45.925  29.857  33.681  1.00  0.00    -0.203 F 
ATOM     94  C   UNL A   1      46.953  28.450  35.266  1.00  0.00     0.198 A 
ATOM     95  C   UNL A   1      45.824  26.476  36.034  1.00  0.00     0.198 A 
ATOM     96  F   UNL A   1      43.709  25.919  35.173  1.00  0.00    -0.203 F 
ATOM     97  F   UNL A   1      48.028  29.251  35.277  1.00  0.00    -0.200 F 
ATOM     98  C   UNL A   1      46.924  27.319  36.069  1.00  0.00     0.200 A 
ATOM     99  F   UNL A   1      45.785  25.392  36.822  1.00  0.00    -0.200 F 
ATOM    100  F   UNL A   1      47.958  27.040  36.873  1.00  0.00    -0.200 F 
ENDBRANCH  67  90
ENDBRANCH  41  42
ENDBRANCH  33  36
ENDBRANCH  31  32
ENDBRANCH   1  31
TORSDOF 13
ENDMDL
MODEL 3
REMARK VINA RESULT:     -13.6      4.246      9.739
REMARK SMILES COc1cccc([C@@H]2[NH2+][C@@](C)(C(=O)NCCCNC(=O)c3ccc(-c4c5nc(c(-c6c(F)c(F)c(F)c(F)c6F)c6ccc([nH]6)c(-c6c(F)c(F)c(F)c(F)c6F)c6nc(c(-c7c(F)c(F)c(F)c(F)c7F)c7ccc4[nH]7)C=C6)C=C5)cc3)[C@@H]3C(=O)N(C)C(=O)[C@@H]32)c1O
REMARK SMILES IDX 16 1 15 2 14 3 12 4 13 5 10 7 8 8 9 9 91 10 84 13 89 14
REMARK SMILES IDX 11 15 85 16 87 17 90 18 86 19 88 20 7 21 3 22 4 23 92 24
REMARK SMILES IDX 5 25 6 26 2 27 1 28 93 29 17 31 18 32 19 33 20 35 21 36
REMARK SMILES IDX 22 37 83 38 23 39 82 40 24 41 25 42 26 43 76 44 27 45 81 46
REMARK SMILES IDX 75 47 77 48 28 49 80 50 74 51 73 52 29 54 61 55 41 56 60 57
REMARK SMILES IDX 42 58 45 59 59 60 78 61 43 62 44 63 58 65 79 66 46 67 30 68
REMARK SMILES IDX 31 69 39 70 32 71 33 72 37 73 40 74 34 75 35 76 38 77 36 78
REMARK SMILES IDX 62 79 63 80 71 81 64 82 65 83 69 84 72 85 66 86 67 87 70 88
REMARK SMILES IDX 68 89 47 90 48 91 56 92 49 93 50 94 54 95 57 96 51 97 52 98
REMARK SMILES IDX 55 99 53 100
REMARK H PARENT 14 6 9 11 9 12 93 30 18 34 77 53 45 64
REMARK Flexibility Score: inf
ROOT
ATOM      1  C   UNL A   1      35.955  23.371  24.669  1.00  0.00     0.042 C 
ENDROOT
BRANCH   1   2
ATOM      2  C   UNL A   1      34.530  23.075  24.237  1.00  0.00     0.118 C 
BRANCH   2   3
ATOM      3  N   UNL A   1      34.307  23.387  22.834  1.00  0.00    -0.351 N 
ATOM      4  C   UNL A   1      33.256  24.009  22.226  1.00  0.00     0.281 C 
ATOM      5  O   UNL A   1      33.274  24.048  20.992  1.00  0.00    -0.268 OA
ATOM      6  H   UNL A   1      35.029  23.105  22.228  1.00  0.00     0.163 HD
BRANCH   4   7
ATOM      7  C   UNL A   1      32.106  24.656  23.061  1.00  0.00     0.185 C 
ATOM      8  C   UNL A   1      31.674  26.926  22.344  1.00  0.00     0.232 C 
ATOM      9  N   UNL A   1      31.299  25.505  22.141  1.00  0.00    -0.326 N 
ATOM     10  C   UNL A   1      32.792  26.958  23.394  1.00  0.00     0.161 C 
ATOM     11  H   UNL A   1      31.487  25.236  21.174  1.00  0.00     0.347 HD
ATOM     12  H   UNL A   1      30.306  25.379  22.335  1.00  0.00     0.347 HD
ATOM     13  C   UNL A   1      32.720  25.609  24.092  1.00  0.00     0.169 C 
ATOM     14  C   UNL A   1      32.611  27.937  24.522  1.00  0.00     0.239 C 
ATOM     15  C   UNL A   1      31.299  23.518  23.710  1.00  0.00     0.091 C 
ATOM     16  C   UNL A   1      31.956  25.928  25.354  1.00  0.00     0.240 C 
ATOM     17  N   UNL A   1      32.061  27.270  25.582  1.00  0.00    -0.285 N 
ATOM     18  O   UNL A   1      32.873  29.127  24.466  1.00  0.00    -0.274 OA
ATOM     19  O   UNL A   1      31.374  25.131  26.075  1.00  0.00    -0.274 OA
ATOM     20  C   UNL A   1      31.592  27.930  26.776  1.00  0.00     0.156 C 
BRANCH   8  21
ATOM     21  C   UNL A   1      30.470  27.827  22.614  1.00  0.00     0.056 A 
ATOM     22  C   UNL A   1      29.217  29.919  22.330  1.00  0.00     0.161 A 
ATOM     23  C   UNL A   1      28.124  29.332  22.974  1.00  0.00     0.050 A 
ATOM     24  C   UNL A   1      30.394  29.174  22.193  1.00  0.00     0.166 A 
ATOM     25  C   UNL A   1      28.189  28.021  23.440  1.00  0.00     0.005 A 
ATOM     26  C   UNL A   1      29.346  27.268  23.247  1.00  0.00     0.014 A 
BRANCH  22  27
ATOM     27  O   UNL A   1      29.014  31.227  21.981  1.00  0.00    -0.493 OA
ATOM     28  C   UNL A   1      28.158  31.489  20.879  1.00  0.00     0.278 C 
ENDBRANCH  22  27
BRANCH  24  29
ATOM     29  O   UNL A   1      31.555  29.732  21.734  1.00  0.00    -0.504 OA
ATOM     30  H   UNL A   1      31.734  30.638  21.895  1.00  0.00     0.293 HD
ENDBRANCH  24  29
ENDBRANCH   8  21
ENDBRANCH   4   7
ENDBRANCH   2   3
ENDBRANCH   1   2
BRANCH   1  31
ATOM     31  C   UNL A   1      36.334  22.730  25.994  1.00  0.00     0.118 C 
BRANCH  31  32
ATOM     32  N   UNL A   1      37.280  21.630  25.847  1.00  0.00    -0.352 N 
ATOM     33  C   UNL A   1      38.644  21.619  26.019  1.00  0.00     0.251 C 
ATOM     34  H   UNL A   1      36.883  20.767  25.585  1.00  0.00     0.163 HD
ATOM     35  O   UNL A   1      39.306  20.641  25.690  1.00  0.00    -0.269 OA
BRANCH  33  36
ATOM     36  C   UNL A   1      39.310  22.812  26.578  1.00  0.00     0.039 A 
ATOM     37  C   UNL A   1      40.317  22.652  27.532  1.00  0.00     0.014 A 
ATOM     38  C   UNL A   1      38.961  24.085  26.124  1.00  0.00     0.014 A 
ATOM     39  C   UNL A   1      41.038  23.766  27.966  1.00  0.00     0.010 A 
ATOM     40  C   UNL A   1      39.745  25.173  26.475  1.00  0.00     0.010 A 
ATOM     41  C   UNL A   1      40.787  25.028  27.405  1.00  0.00    -0.014 A 
BRANCH  41  42
ATOM     42  C   UNL A   1      41.567  26.233  27.778  1.00  0.00     0.031 A 
ATOM     43  C   UNL A   1      40.900  27.326  28.566  1.00  0.00     0.074 A 
ATOM     44  C   UNL A   1      42.824  26.396  27.322  1.00  0.00     0.049 A 
ATOM     45  N   UNL A   1      41.327  28.531  28.845  1.00  0.00    -0.248 NA
ATOM     46  C   UNL A   1      39.549  27.034  29.072  1.00  0.00     0.031 C 
ATOM     47  C   UNL A   1      43.572  25.422  26.529  1.00  0.00     0.029 A 
ATOM     48  N   UNL A   1      43.686  27.457  27.445  1.00  0.00    -0.354 N 
ATOM     49  C   UNL A   1      40.289  29.145  29.532  1.00  0.00     0.074 A 
ATOM     50  C   UNL A   1      39.189  28.206  29.569  1.00  0.00     0.031 C 
ATOM     51  C   UNL A   1      44.788  25.921  26.252  1.00  0.00     0.029 A 
ATOM     52  C   UNL A   1      44.884  27.270  26.800  1.00  0.00     0.049 A 
ATOM     53  H   UNL A   1      43.467  28.274  27.948  1.00  0.00     0.167 HD
ATOM     54  C   UNL A   1      40.262  30.374  30.101  1.00  0.00     0.037 A 
ATOM     55  C   UNL A   1      45.933  28.101  26.654  1.00  0.00     0.037 A 
ATOM     56  C   UNL A   1      41.367  31.294  30.074  1.00  0.00     0.049 A 
ATOM     57  C   UNL A   1      45.868  29.479  27.260  1.00  0.00     0.074 A 
ATOM     58  C   UNL A   1      41.463  32.545  30.656  1.00  0.00     0.029 A 
ATOM     59  N   UNL A   1      42.571  31.061  29.422  1.00  0.00    -0.354 N 
ATOM     60  N   UNL A   1      44.902  30.037  27.949  1.00  0.00    -0.248 NA
ATOM     61  C   UNL A   1      47.042  30.342  27.070  1.00  0.00     0.031 C 
ATOM     62  C   UNL A   1      42.702  33.094  30.309  1.00  0.00     0.029 A 
ATOM     63  C   UNL A   1      43.406  32.156  29.569  1.00  0.00     0.049 A 
ATOM     64  H   UNL A   1      42.797  30.240  28.929  1.00  0.00     0.167 HD
ATOM     65  C   UNL A   1      45.365  31.294  28.310  1.00  0.00     0.074 A 
ATOM     66  C   UNL A   1      46.700  31.419  27.763  1.00  0.00     0.031 C 
ATOM     67  C   UNL A   1      44.744  32.255  29.038  1.00  0.00     0.037 A 
BRANCH  54  68
ATOM     68  C   UNL A   1      38.992  30.787  30.789  1.00  0.00     0.064 A 
ATOM     69  C   UNL A   1      37.936  31.398  30.091  1.00  0.00     0.173 A 
ATOM     70  C   UNL A   1      38.827  30.575  32.166  1.00  0.00     0.173 A 
ATOM     71  F   UNL A   1      38.045  31.635  28.775  1.00  0.00    -0.203 F 
ATOM     72  C   UNL A   1      36.789  31.824  30.754  1.00  0.00     0.198 A 
ATOM     73  C   UNL A   1      37.660  30.967  32.819  1.00  0.00     0.198 A 
ATOM     74  F   UNL A   1      39.797  29.990  32.884  1.00  0.00    -0.203 F 
ATOM     75  F   UNL A   1      35.830  32.473  30.078  1.00  0.00    -0.200 F 
ATOM     76  C   UNL A   1      36.649  31.604  32.116  1.00  0.00     0.200 A 
ATOM     77  F   UNL A   1      37.519  30.737  34.132  1.00  0.00    -0.200 F 
ATOM     78  F   UNL A   1      35.544  32.017  32.753  1.00  0.00    -0.200 F 
ENDBRANCH  54  68
BRANCH  55  79
ATOM     79  C   UNL A   1      47.146  27.643  25.928  1.00  0.00     0.064 A 
ATOM     80  C   UNL A   1      48.238  27.109  26.628  1.00  0.00     0.173 A 
ATOM     81  C   UNL A   1      47.243  27.718  24.531  1.00  0.00     0.173 A 
ATOM     82  F   UNL A   1      48.201  27.036  27.967  1.00  0.00    -0.203 F 
ATOM     83  C   UNL A   1      49.384  26.682  25.961  1.00  0.00     0.198 A 
ATOM     84  C   UNL A   1      48.377  27.263  23.862  1.00  0.00     0.198 A 
ATOM     85  F   UNL A   1      46.225  28.216  23.813  1.00  0.00    -0.203 F 
ATOM     86  F   UNL A   1      50.428  26.214  26.659  1.00  0.00    -0.200 F 
ATOM     87  C   UNL A   1      49.450  26.752  24.578  1.00  0.00     0.200 A 
ATOM     88  F   UNL A   1      48.431  27.319  22.525  1.00  0.00    -0.200 F 
ATOM     89  F   UNL A   1      50.549  26.334  23.935  1.00  0.00    -0.200 F 
ENDBRANCH  55  79
BRANCH  67  90
ATOM     90  C   UNL A   1      45.518  33.504  29.350  1.00  0.00     0.064 A 
ATOM     91  C   UNL A   1      46.354  33.601  30.472  1.00  0.00     0.173 A 
ATOM     92  C   UNL A   1      45.471  34.596  28.469  1.00  0.00     0.173 A 
ATOM     93  F   UNL A   1      46.423  32.591  31.352  1.00  0.00    -0.203 F 
ATOM     94  C   UNL A   1      47.100  34.753  30.709  1.00  0.00     0.198 A 
ATOM     95  C   UNL A   1      46.244  35.731  28.691  1.00  0.00     0.198 A 
ATOM     96  F   UNL A   1      44.693  34.551  27.377  1.00  0.00    -0.203 F 
ATOM     97  F   UNL A   1      47.861  34.841  31.809  1.00  0.00    -0.200 F 
ATOM     98  C   UNL A   1      47.054  35.811  29.813  1.00  0.00     0.200 A 
ATOM     99  F   UNL A   1      46.211  36.745  27.815  1.00  0.00    -0.200 F 
ATOM    100  F   UNL A   1      47.787  36.911  30.034  1.00  0.00    -0.200 F 
ENDBRANCH  67  90
ENDBRANCH  41  42
ENDBRANCH  33  36
ENDBRANCH  31  32
ENDBRANCH   1  31
TORSDOF 13
ENDMDL
