MODEL 1
REMARK VINA RESULT:     -12.1      0.000      0.000
REMARK SMILES C[N@H+]1CCO[C@@H](CNc2cccc(F)c2C(=O)NCCCNC(=O)c2ccc(-c3c4nc(c(-c5c(F)c(F)c(F)c(F)c5F)c5ccc([nH]5)c(-c5c(F)c(F)c(F)c(F)c5F)c5nc(c(-c6c(F)c(F)c(F)c(F)c6F)c6ccc3[nH]6)C=C5)C=C4)cc2)C1
REMARK SMILES IDX 19 1 18 2 16 3 17 4 15 6 9 7 10 8 11 9 13 10 12 11 14 12
REMARK SMILES IDX 8 13 7 15 6 16 1 17 2 18 3 19 88 20 4 22 5 23 20 24 21 25
REMARK SMILES IDX 22 26 23 27 24 29 25 30 26 31 87 32 27 33 86 34 28 35 29 36
REMARK SMILES IDX 30 37 80 38 31 39 85 40 79 41 81 42 32 43 84 44 78 45 77 46
REMARK SMILES IDX 33 48 65 49 45 50 64 51 46 52 49 53 63 54 82 55 47 56 48 57
REMARK SMILES IDX 62 59 83 60 50 61 34 62 35 63 43 64 36 65 37 66 41 67 44 68
REMARK SMILES IDX 38 69 39 70 42 71 40 72 66 73 67 74 75 75 68 76 69 77 73 78
REMARK SMILES IDX 76 79 70 80 71 81 74 82 72 83 51 84 52 85 60 86 53 87 54 88
REMARK SMILES IDX 58 89 61 90 55 91 56 92 59 93 57 94
REMARK H PARENT 18 5 8 14 2 21 22 28 81 47 49 58
REMARK Flexibility Score: inf
ROOT
ATOM      1  C   UNL A   1      31.791  30.582  26.809  1.00  0.00     0.118 C 
ENDROOT
BRANCH   1   2
ATOM      2  N   UNL A   1      32.473  30.258  25.573  1.00  0.00    -0.352 N 
ATOM      3  C   UNL A   1      32.567  29.116  24.823  1.00  0.00     0.256 C 
ATOM      4  O   UNL A   1      33.343  29.179  23.862  1.00  0.00    -0.269 OA
ATOM      5  H   UNL A   1      32.971  31.017  25.192  1.00  0.00     0.163 HD
BRANCH   3   6
ATOM      6  C   UNL A   1      31.758  27.874  25.026  1.00  0.00     0.098 A 
ATOM      7  C   UNL A   1      30.633  27.667  24.174  1.00  0.00     0.050 A 
ATOM      8  C   UNL A   1      29.854  26.510  24.343  1.00  0.00     0.027 A 
ATOM      9  C   UNL A   1      30.165  25.563  25.317  1.00  0.00     0.005 A 
ATOM     10  C   UNL A   1      32.070  26.889  25.966  1.00  0.00     0.138 A 
ATOM     11  C   UNL A   1      31.273  25.757  26.130  1.00  0.00     0.040 A 
ATOM     12  F   UNL A   1      33.169  26.955  26.724  1.00  0.00    -0.206 F 
BRANCH   7  13
ATOM     13  N   UNL A   1      30.282  28.628  23.240  1.00  0.00    -0.381 N 
ATOM     14  H   UNL A   1      30.421  28.392  22.295  1.00  0.00     0.160 HD
BRANCH  13  15
ATOM     15  C   UNL A   1      29.732  29.944  23.498  1.00  0.00     0.151 C 
BRANCH  15  16
ATOM     16  C   UNL A   1      28.292  30.058  22.952  1.00  0.00     0.192 C 
ATOM     17  C   UNL A   1      29.095  33.200  23.072  1.00  0.00     0.332 C 
ATOM     18  N   UNL A   1      27.868  32.567  22.605  1.00  0.00    -0.333 N 
ATOM     19  C   UNL A   1      27.893  32.270  21.162  1.00  0.00     0.290 C 
ATOM     20  C   UNL A   1      27.519  31.340  23.341  1.00  0.00     0.296 C 
ATOM     21  H   UNL A   1      27.147  33.263  22.791  1.00  0.00     0.348 HD
ATOM     22  C   UNL A   1      28.696  31.010  20.795  1.00  0.00     0.222 C 
ATOM     23  O   UNL A   1      28.258  29.856  21.522  1.00  0.00    -0.365 OA
ENDBRANCH  15  16
ENDBRANCH  13  15
ENDBRANCH   7  13
ENDBRANCH   3   6
ENDBRANCH   1   2
BRANCH   1  24
ATOM     24  C   UNL A   1      31.502  32.083  26.877  1.00  0.00     0.042 C 
BRANCH  24  25
ATOM     25  C   UNL A   1      32.759  32.950  26.882  1.00  0.00     0.118 C 
BRANCH  25  26
ATOM     26  N   UNL A   1      32.553  34.205  27.588  1.00  0.00    -0.352 N 
ATOM     27  C   UNL A   1      33.120  34.672  28.746  1.00  0.00     0.251 C 
ATOM     28  H   UNL A   1      31.905  34.816  27.168  1.00  0.00     0.163 HD
ATOM     29  O   UNL A   1      32.636  35.653  29.302  1.00  0.00    -0.269 OA
BRANCH  27  30
ATOM     30  C   UNL A   1      34.306  34.009  29.337  1.00  0.00     0.039 A 
ATOM     31  C   UNL A   1      34.103  33.002  30.285  1.00  0.00     0.014 A 
ATOM     32  C   UNL A   1      35.606  34.419  29.026  1.00  0.00     0.014 A 
ATOM     33  C   UNL A   1      35.199  32.379  30.888  1.00  0.00     0.010 A 
ATOM     34  C   UNL A   1      36.699  33.750  29.575  1.00  0.00     0.010 A 
ATOM     35  C   UNL A   1      36.507  32.731  30.520  1.00  0.00    -0.014 A 
BRANCH  35  36
ATOM     36  C   UNL A   1      37.680  32.047  31.124  1.00  0.00     0.031 A 
ATOM     37  C   UNL A   1      38.145  32.413  32.506  1.00  0.00     0.074 A 
ATOM     38  C   UNL A   1      38.352  31.126  30.406  1.00  0.00     0.049 A 
ATOM     39  N   UNL A   1      39.178  31.966  33.177  1.00  0.00    -0.248 NA
ATOM     40  C   UNL A   1      37.363  33.432  33.224  1.00  0.00     0.031 C 
ATOM     41  C   UNL A   1      38.023  30.718  29.040  1.00  0.00     0.029 A 
ATOM     42  N   UNL A   1      39.453  30.370  30.723  1.00  0.00    -0.354 N 
ATOM     43  C   UNL A   1      39.176  32.657  34.380  1.00  0.00     0.074 A 
ATOM     44  C   UNL A   1      38.070  33.587  34.334  1.00  0.00     0.031 C 
ATOM     45  C   UNL A   1      38.884  29.767  28.646  1.00  0.00     0.029 A 
ATOM     46  C   UNL A   1      39.847  29.524  29.716  1.00  0.00     0.049 A 
ATOM     47  H   UNL A   1      39.915  30.427  31.590  1.00  0.00     0.167 HD
ATOM     48  C   UNL A   1      40.009  32.509  35.438  1.00  0.00     0.037 A 
ATOM     49  C   UNL A   1      40.872  28.651  29.658  1.00  0.00     0.037 A 
ATOM     50  C   UNL A   1      41.086  31.555  35.495  1.00  0.00     0.049 A 
ATOM     51  C   UNL A   1      41.775  28.501  30.852  1.00  0.00     0.074 A 
ATOM     52  C   UNL A   1      41.945  31.290  36.547  1.00  0.00     0.029 A 
ATOM     53  N   UNL A   1      41.447  30.708  34.459  1.00  0.00    -0.354 N 
ATOM     54  N   UNL A   1      41.731  29.124  32.004  1.00  0.00    -0.248 NA
ATOM     55  C   UNL A   1      42.866  27.523  30.740  1.00  0.00     0.031 C 
ATOM     56  C   UNL A   1      42.853  30.311  36.133  1.00  0.00     0.029 A 
ATOM     57  C   UNL A   1      42.529  29.931  34.841  1.00  0.00     0.049 A 
ATOM     58  H   UNL A   1      41.000  30.665  33.583  1.00  0.00     0.167 HD
ATOM     59  C   UNL A   1      42.772  28.603  32.760  1.00  0.00     0.074 A 
ATOM     60  C   UNL A   1      43.419  27.598  31.943  1.00  0.00     0.031 C 
ATOM     61  C   UNL A   1      43.160  28.933  34.016  1.00  0.00     0.037 A 
BRANCH  48  62
ATOM     62  C   UNL A   1      39.785  33.384  36.638  1.00  0.00     0.064 A 
ATOM     63  C   UNL A   1      38.867  33.010  37.631  1.00  0.00     0.173 A 
ATOM     64  C   UNL A   1      40.414  34.631  36.762  1.00  0.00     0.173 A 
ATOM     65  F   UNL A   1      38.231  31.831  37.556  1.00  0.00    -0.203 F 
ATOM     66  C   UNL A   1      38.577  33.860  38.696  1.00  0.00     0.198 A 
ATOM     67  C   UNL A   1      40.143  35.466  37.842  1.00  0.00     0.198 A 
ATOM     68  F   UNL A   1      41.307  35.031  35.844  1.00  0.00    -0.203 F 
ATOM     69  F   UNL A   1      37.670  33.498  39.614  1.00  0.00    -0.200 F 
ATOM     70  C   UNL A   1      39.217  35.085  38.802  1.00  0.00     0.200 A 
ATOM     71  F   UNL A   1      40.778  36.641  37.956  1.00  0.00    -0.200 F 
ATOM     72  F   UNL A   1      38.941  35.900  39.830  1.00  0.00    -0.200 F 
ENDBRANCH  48  62
BRANCH  49  73
ATOM     73  C   UNL A   1      41.074  27.831  28.436  1.00  0.00     0.064 A 
ATOM     74  C   UNL A   1      41.896  28.269  27.387  1.00  0.00     0.173 A 
ATOM     75  C   UNL A   1      40.425  26.597  28.285  1.00  0.00     0.173 A 
ATOM     76  F   UNL A   1      42.534  29.444  27.481  1.00  0.00    -0.203 F 
ATOM     77  C   UNL A   1      42.047  27.513  26.228  1.00  0.00     0.198 A 
ATOM     78  C   UNL A   1      40.600  25.828  27.136  1.00  0.00     0.198 A 
ATOM     79  F   UNL A   1      39.645  26.126  29.268  1.00  0.00    -0.203 F 
ATOM     80  F   UNL A   1      42.813  27.969  25.227  1.00  0.00    -0.200 F 
ATOM     81  C   UNL A   1      41.404  26.290  26.105  1.00  0.00     0.200 A 
ATOM     82  F   UNL A   1      39.996  24.637  27.032  1.00  0.00    -0.200 F 
ATOM     83  F   UNL A   1      41.563  25.556  24.996  1.00  0.00    -0.200 F 
ENDBRANCH  49  73
BRANCH  61  84
ATOM     84  C   UNL A   1      44.330  28.194  34.597  1.00  0.00     0.064 A 
ATOM     85  C   UNL A   1      44.135  27.001  35.310  1.00  0.00     0.173 A 
ATOM     86  C   UNL A   1      45.634  28.700  34.505  1.00  0.00     0.173 A 
ATOM     87  F   UNL A   1      42.906  26.480  35.434  1.00  0.00    -0.203 F 
ATOM     88  C   UNL A   1      45.203  26.351  35.920  1.00  0.00     0.198 A 
ATOM     89  C   UNL A   1      46.703  28.031  35.092  1.00  0.00     0.198 A 
ATOM     90  F   UNL A   1      45.873  29.831  33.822  1.00  0.00    -0.203 F 
ATOM     91  F   UNL A   1      44.990  25.230  36.624  1.00  0.00    -0.200 F 
ATOM     92  C   UNL A   1      46.487  26.863  35.807  1.00  0.00     0.200 A 
ATOM     93  F   UNL A   1      47.946  28.514  34.959  1.00  0.00    -0.200 F 
ATOM     94  F   UNL A   1      47.516  26.228  36.384  1.00  0.00    -0.200 F 
ENDBRANCH  61  84
ENDBRANCH  35  36
ENDBRANCH  27  30
ENDBRANCH  25  26
ENDBRANCH  24  25
ENDBRANCH   1  24
TORSDOF 13
ENDMDL
MODEL 2
REMARK VINA RESULT:     -12.1      6.394     11.622
REMARK SMILES C[N@H+]1CCO[C@@H](CNc2cccc(F)c2C(=O)NCCCNC(=O)c2ccc(-c3c4nc(c(-c5c(F)c(F)c(F)c(F)c5F)c5ccc([nH]5)c(-c5c(F)c(F)c(F)c(F)c5F)c5nc(c(-c6c(F)c(F)c(F)c(F)c6F)c6ccc3[nH]6)C=C5)C=C4)cc2)C1
REMARK SMILES IDX 19 1 18 2 16 3 17 4 15 6 9 7 10 8 11 9 13 10 12 11 14 12
REMARK SMILES IDX 8 13 7 15 6 16 1 17 2 18 3 19 88 20 4 22 5 23 20 24 21 25
REMARK SMILES IDX 22 26 23 27 24 29 25 30 26 31 87 32 27 33 86 34 28 35 29 36
REMARK SMILES IDX 30 37 80 38 31 39 85 40 79 41 81 42 32 43 84 44 78 45 77 46
REMARK SMILES IDX 33 48 65 49 45 50 64 51 46 52 49 53 63 54 82 55 47 56 48 57
REMARK SMILES IDX 62 59 83 60 50 61 34 62 35 63 43 64 36 65 37 66 41 67 44 68
REMARK SMILES IDX 38 69 39 70 42 71 40 72 66 73 67 74 75 75 68 76 69 77 73 78
REMARK SMILES IDX 76 79 70 80 71 81 74 82 72 83 51 84 52 85 60 86 53 87 54 88
REMARK SMILES IDX 58 89 61 90 55 91 56 92 59 93 57 94
REMARK H PARENT 18 5 8 14 2 21 22 28 81 47 49 58
REMARK Flexibility Score: inf
ROOT
ATOM      1  C   UNL A   1      37.396  21.073  24.536  1.00  0.00     0.118 C 
ENDROOT
BRANCH   1   2
ATOM      2  N   UNL A   1      36.589  21.465  25.673  1.00  0.00    -0.352 N 
ATOM      3  C   UNL A   1      35.388  22.111  25.794  1.00  0.00     0.256 C 
ATOM      4  O   UNL A   1      35.049  22.380  26.953  1.00  0.00    -0.269 OA
ATOM      5  H   UNL A   1      36.988  21.216  26.538  1.00  0.00     0.163 HD
BRANCH   3   6
ATOM      6  C   UNL A   1      34.451  22.421  24.670  1.00  0.00     0.098 A 
ATOM      7  C   UNL A   1      33.479  21.435  24.323  1.00  0.00     0.050 A 
ATOM      8  C   UNL A   1      32.587  21.699  23.271  1.00  0.00     0.027 A 
ATOM      9  C   UNL A   1      32.628  22.902  22.570  1.00  0.00     0.005 A 
ATOM     10  C   UNL A   1      34.442  23.633  23.978  1.00  0.00     0.138 A 
ATOM     11  C   UNL A   1      33.560  23.868  22.923  1.00  0.00     0.040 A 
ATOM     12  F   UNL A   1      35.244  24.649  24.315  1.00  0.00    -0.206 F 
BRANCH   7  13
ATOM     13  N   UNL A   1      33.466  20.213  24.975  1.00  0.00    -0.381 N 
ATOM     14  H   UNL A   1      32.921  20.160  25.794  1.00  0.00     0.160 HD
BRANCH  13  15
ATOM     15  C   UNL A   1      34.165  19.004  24.590  1.00  0.00     0.151 C 
BRANCH  15  16
ATOM     16  C   UNL A   1      33.208  18.011  23.892  1.00  0.00     0.192 C 
ATOM     17  C   UNL A   1      35.269  15.922  25.277  1.00  0.00     0.332 C 
ATOM     18  N   UNL A   1      34.074  15.667  24.483  1.00  0.00    -0.333 N 
ATOM     19  C   UNL A   1      32.859  15.534  25.306  1.00  0.00     0.290 C 
ATOM     20  C   UNL A   1      33.835  16.674  23.435  1.00  0.00     0.296 C 
ATOM     21  H   UNL A   1      34.267  14.776  24.027  1.00  0.00     0.348 HD
ATOM     22  C   UNL A   1      32.273  16.876  25.779  1.00  0.00     0.222 C 
ATOM     23  O   UNL A   1      32.028  17.775  24.690  1.00  0.00    -0.365 OA
ENDBRANCH  15  16
ENDBRANCH  13  15
ENDBRANCH   7  13
ENDBRANCH   3   6
ENDBRANCH   1   2
BRANCH   1  24
ATOM     24  C   UNL A   1      38.214  19.824  24.873  1.00  0.00     0.042 C 
BRANCH  24  25
ATOM     25  C   UNL A   1      39.096  19.984  26.110  1.00  0.00     0.118 C 
BRANCH  25  26
ATOM     26  N   UNL A   1      40.302  19.176  26.029  1.00  0.00    -0.352 N 
ATOM     27  C   UNL A   1      41.621  19.553  26.023  1.00  0.00     0.251 C 
ATOM     28  H   UNL A   1      40.148  18.205  25.968  1.00  0.00     0.163 HD
ATOM     29  O   UNL A   1      42.480  18.735  25.708  1.00  0.00    -0.269 OA
BRANCH  27  30
ATOM     30  C   UNL A   1      42.024  20.930  26.388  1.00  0.00     0.039 A 
ATOM     31  C   UNL A   1      42.218  21.862  25.365  1.00  0.00     0.014 A 
ATOM     32  C   UNL A   1      42.283  21.291  27.714  1.00  0.00     0.014 A 
ATOM     33  C   UNL A   1      42.630  23.161  25.671  1.00  0.00     0.010 A 
ATOM     34  C   UNL A   1      42.627  22.606  28.026  1.00  0.00     0.010 A 
ATOM     35  C   UNL A   1      42.815  23.551  27.007  1.00  0.00    -0.014 A 
BRANCH  35  36
ATOM     36  C   UNL A   1      43.214  24.941  27.348  1.00  0.00     0.031 A 
ATOM     37  C   UNL A   1      44.622  25.410  27.105  1.00  0.00     0.074 A 
ATOM     38  C   UNL A   1      42.315  25.768  27.918  1.00  0.00     0.049 A 
ATOM     39  N   UNL A   1      45.169  26.566  27.388  1.00  0.00    -0.248 NA
ATOM     40  C   UNL A   1      45.546  24.448  26.487  1.00  0.00     0.031 C 
ATOM     41  C   UNL A   1      40.932  25.415  28.242  1.00  0.00     0.029 A 
ATOM     42  N   UNL A   1      42.430  27.073  28.329  1.00  0.00    -0.354 N 
ATOM     43  C   UNL A   1      46.497  26.464  26.996  1.00  0.00     0.074 A 
ATOM     44  C   UNL A   1      46.689  25.119  26.499  1.00  0.00     0.031 C 
ATOM     45  C   UNL A   1      40.320  26.483  28.774  1.00  0.00     0.029 A 
ATOM     46  C   UNL A   1      41.274  27.584  28.864  1.00  0.00     0.049 A 
ATOM     47  H   UNL A   1      43.262  27.592  28.247  1.00  0.00     0.167 HD
ATOM     48  C   UNL A   1      47.460  27.415  27.026  1.00  0.00     0.037 A 
ATOM     49  C   UNL A   1      41.012  28.804  29.374  1.00  0.00     0.037 A 
ATOM     50  C   UNL A   1      47.255  28.763  27.485  1.00  0.00     0.049 A 
ATOM     51  C   UNL A   1      42.098  29.843  29.385  1.00  0.00     0.074 A 
ATOM     52  C   UNL A   1      48.154  29.815  27.497  1.00  0.00     0.029 A 
ATOM     53  N   UNL A   1      46.066  29.246  28.010  1.00  0.00    -0.354 N 
ATOM     54  N   UNL A   1      43.335  29.749  28.963  1.00  0.00    -0.248 NA
ATOM     55  C   UNL A   1      41.752  31.161  29.937  1.00  0.00     0.031 C 
ATOM     56  C   UNL A   1      47.523  30.923  28.067  1.00  0.00     0.029 A 
ATOM     57  C   UNL A   1      46.215  30.577  28.365  1.00  0.00     0.049 A 
ATOM     58  H   UNL A   1      45.240  28.722  28.114  1.00  0.00     0.167 HD
ATOM     59  C   UNL A   1      43.909  30.994  29.181  1.00  0.00     0.074 A 
ATOM     60  C   UNL A   1      42.879  31.834  29.754  1.00  0.00     0.031 C 
ATOM     61  C   UNL A   1      45.178  31.401  28.933  1.00  0.00     0.037 A 
BRANCH  48  62
ATOM     62  C   UNL A   1      48.829  27.045  26.529  1.00  0.00     0.064 A 
ATOM     63  C   UNL A   1      49.149  27.161  25.169  1.00  0.00     0.173 A 
ATOM     64  C   UNL A   1      49.794  26.496  27.387  1.00  0.00     0.173 A 
ATOM     65  F   UNL A   1      48.259  27.672  24.304  1.00  0.00    -0.203 F 
ATOM     66  C   UNL A   1      50.380  26.727  24.682  1.00  0.00     0.198 A 
ATOM     67  C   UNL A   1      51.034  26.089  26.901  1.00  0.00     0.198 A 
ATOM     68  F   UNL A   1      49.541  26.372  28.698  1.00  0.00    -0.203 F 
ATOM     69  F   UNL A   1      50.651  26.815  23.372  1.00  0.00    -0.200 F 
ATOM     70  C   UNL A   1      51.322  26.195  25.549  1.00  0.00     0.200 A 
ATOM     71  F   UNL A   1      51.952  25.595  27.744  1.00  0.00    -0.200 F 
ATOM     72  F   UNL A   1      52.509  25.783  25.081  1.00  0.00    -0.200 F 
ENDBRANCH  48  62
BRANCH  49  73
ATOM     73  C   UNL A   1      39.651  29.111  29.884  1.00  0.00     0.064 A 
ATOM     74  C   UNL A   1      38.668  29.674  29.056  1.00  0.00     0.173 A 
ATOM     75  C   UNL A   1      39.313  28.868  31.223  1.00  0.00     0.173 A 
ATOM     76  F   UNL A   1      38.942  29.931  27.769  1.00  0.00    -0.203 F 
ATOM     77  C   UNL A   1      37.407  29.996  29.552  1.00  0.00     0.198 A 
ATOM     78  C   UNL A   1      38.043  29.164  31.711  1.00  0.00     0.198 A 
ATOM     79  F   UNL A   1      40.211  28.312  32.049  1.00  0.00    -0.203 F 
ATOM     80  F   UNL A   1      36.497  30.563  28.747  1.00  0.00    -0.200 F 
ATOM     81  C   UNL A   1      37.093  29.736  30.877  1.00  0.00     0.200 A 
ATOM     82  F   UNL A   1      37.736  28.889  32.986  1.00  0.00    -0.200 F 
ATOM     83  F   UNL A   1      35.875  30.032  31.350  1.00  0.00    -0.200 F 
ENDBRANCH  49  73
BRANCH  61  84
ATOM     84  C   UNL A   1      45.527  32.823  29.264  1.00  0.00     0.064 A 
ATOM     85  C   UNL A   1      46.012  33.158  30.538  1.00  0.00     0.173 A 
ATOM     86  C   UNL A   1      45.318  33.860  28.346  1.00  0.00     0.173 A 
ATOM     87  F   UNL A   1      46.219  32.202  31.455  1.00  0.00    -0.203 F 
ATOM     88  C   UNL A   1      46.262  34.483  30.882  1.00  0.00     0.198 A 
ATOM     89  C   UNL A   1      45.598  35.181  28.683  1.00  0.00     0.198 A 
ATOM     90  F   UNL A   1      44.868  33.589  27.111  1.00  0.00    -0.203 F 
ATOM     91  F   UNL A   1      46.694  34.784  32.115  1.00  0.00    -0.200 F 
ATOM     92  C   UNL A   1      46.060  35.493  29.953  1.00  0.00     0.200 A 
ATOM     93  F   UNL A   1      45.427  36.153  27.777  1.00  0.00    -0.200 F 
ATOM     94  F   UNL A   1      46.315  36.767  30.281  1.00  0.00    -0.200 F 
ENDBRANCH  61  84
ENDBRANCH  35  36
ENDBRANCH  27  30
ENDBRANCH  25  26
ENDBRANCH  24  25
ENDBRANCH   1  24
TORSDOF 13
ENDMDL
MODEL 3
REMARK VINA RESULT:     -12.1      6.515     10.537
REMARK SMILES C[N@H+]1CCO[C@@H](CNc2cccc(F)c2C(=O)NCCCNC(=O)c2ccc(-c3c4nc(c(-c5c(F)c(F)c(F)c(F)c5F)c5ccc([nH]5)c(-c5c(F)c(F)c(F)c(F)c5F)c5nc(c(-c6c(F)c(F)c(F)c(F)c6F)c6ccc3[nH]6)C=C5)C=C4)cc2)C1
REMARK SMILES IDX 19 1 18 2 16 3 17 4 15 6 9 7 10 8 11 9 13 10 12 11 14 12
REMARK SMILES IDX 8 13 7 15 6 16 1 17 2 18 3 19 88 20 4 22 5 23 20 24 21 25
REMARK SMILES IDX 22 26 23 27 24 29 25 30 26 31 87 32 27 33 86 34 28 35 29 36
REMARK SMILES IDX 30 37 80 38 31 39 85 40 79 41 81 42 32 43 84 44 78 45 77 46
REMARK SMILES IDX 33 48 65 49 45 50 64 51 46 52 49 53 63 54 82 55 47 56 48 57
REMARK SMILES IDX 62 59 83 60 50 61 34 62 35 63 43 64 36 65 37 66 41 67 44 68
REMARK SMILES IDX 38 69 39 70 42 71 40 72 66 73 67 74 75 75 68 76 69 77 73 78
REMARK SMILES IDX 76 79 70 80 71 81 74 82 72 83 51 84 52 85 60 86 53 87 54 88
REMARK SMILES IDX 58 89 61 90 55 91 56 92 59 93 57 94
REMARK H PARENT 18 5 8 14 2 21 22 28 81 47 49 58
REMARK Flexibility Score: inf
ROOT
ATOM      1  C   UNL A   1      37.380  20.944  24.584  1.00  0.00     0.118 C 
ENDROOT
BRANCH   1   2
ATOM      2  N   UNL A   1      36.486  21.242  25.684  1.00  0.00    -0.352 N 
ATOM      3  C   UNL A   1      35.285  21.895  25.769  1.00  0.00     0.256 C 
ATOM      4  O   UNL A   1      34.854  22.059  26.916  1.00  0.00    -0.269 OA
ATOM      5  H   UNL A   1      36.808  20.903  26.551  1.00  0.00     0.163 HD
BRANCH   3   6
ATOM      6  C   UNL A   1      34.448  22.328  24.607  1.00  0.00     0.098 A 
ATOM      7  C   UNL A   1      33.397  21.461  24.185  1.00  0.00     0.050 A 
ATOM      8  C   UNL A   1      32.595  21.843  23.096  1.00  0.00     0.027 A 
ATOM      9  C   UNL A   1      32.803  23.049  22.430  1.00  0.00     0.005 A 
ATOM     10  C   UNL A   1      34.607  23.549  23.947  1.00  0.00     0.138 A 
ATOM     11  C   UNL A   1      33.813  23.900  22.856  1.00  0.00     0.040 A 
ATOM     12  F   UNL A   1      35.495  24.464  24.352  1.00  0.00    -0.206 F 
BRANCH   7  13
ATOM     13  N   UNL A   1      33.217  20.235  24.803  1.00  0.00    -0.381 N 
ATOM     14  H   UNL A   1      32.501  20.185  25.477  1.00  0.00     0.160 HD
BRANCH  13  15
ATOM     15  C   UNL A   1      33.966  19.016  24.572  1.00  0.00     0.151 C 
BRANCH  15  16
ATOM     16  C   UNL A   1      33.074  17.935  23.921  1.00  0.00     0.192 C 
ATOM     17  C   UNL A   1      35.327  16.049  25.298  1.00  0.00     0.332 C 
ATOM     18  N   UNL A   1      34.137  15.681  24.540  1.00  0.00    -0.333 N 
ATOM     19  C   UNL A   1      32.957  15.473  25.398  1.00  0.00     0.290 C 
ATOM     20  C   UNL A   1      33.794  16.641  23.477  1.00  0.00     0.296 C 
ATOM     21  H   UNL A   1      34.390  14.797  24.100  1.00  0.00     0.348 HD
ATOM     22  C   UNL A   1      32.278  16.776  25.856  1.00  0.00     0.222 C 
ATOM     23  O   UNL A   1      31.936  17.626  24.754  1.00  0.00    -0.365 OA
ENDBRANCH  15  16
ENDBRANCH  13  15
ENDBRANCH   7  13
ENDBRANCH   3   6
ENDBRANCH   1   2
BRANCH   1  24
ATOM     24  C   UNL A   1      38.259  19.740  24.927  1.00  0.00     0.042 C 
BRANCH  24  25
ATOM     25  C   UNL A   1      39.223  19.994  26.085  1.00  0.00     0.118 C 
BRANCH  25  26
ATOM     26  N   UNL A   1      40.389  19.127  26.024  1.00  0.00    -0.352 N 
ATOM     27  C   UNL A   1      41.724  19.440  26.023  1.00  0.00     0.251 C 
ATOM     28  H   UNL A   1      40.188  18.164  25.977  1.00  0.00     0.163 HD
ATOM     29  O   UNL A   1      42.545  18.577  25.726  1.00  0.00    -0.269 OA
BRANCH  27  30
ATOM     30  C   UNL A   1      42.191  20.802  26.372  1.00  0.00     0.039 A 
ATOM     31  C   UNL A   1      42.424  21.712  25.337  1.00  0.00     0.014 A 
ATOM     32  C   UNL A   1      42.469  21.165  27.693  1.00  0.00     0.014 A 
ATOM     33  C   UNL A   1      42.896  22.994  25.628  1.00  0.00     0.010 A 
ATOM     34  C   UNL A   1      42.875  22.466  27.989  1.00  0.00     0.010 A 
ATOM     35  C   UNL A   1      43.103  23.391  26.959  1.00  0.00    -0.014 A 
BRANCH  35  36
ATOM     36  C   UNL A   1      43.565  24.765  27.283  1.00  0.00     0.031 A 
ATOM     37  C   UNL A   1      42.607  25.778  27.845  1.00  0.00     0.074 A 
ATOM     38  C   UNL A   1      44.842  25.111  27.030  1.00  0.00     0.049 A 
ATOM     39  N   UNL A   1      42.812  27.038  28.137  1.00  0.00    -0.248 NA
ATOM     40  C   UNL A   1      41.228  25.326  28.088  1.00  0.00     0.031 C 
ATOM     41  C   UNL A   1      45.855  24.229  26.446  1.00  0.00     0.029 A 
ATOM     42  N   UNL A   1      45.507  26.297  27.225  1.00  0.00    -0.354 N 
ATOM     43  C   UNL A   1      41.592  27.528  28.582  1.00  0.00     0.074 A 
ATOM     44  C   UNL A   1      40.638  26.446  28.479  1.00  0.00     0.031 C 
ATOM     45  C   UNL A   1      47.017  24.894  26.358  1.00  0.00     0.029 A 
ATOM     46  C   UNL A   1      46.825  26.258  26.842  1.00  0.00     0.049 A 
ATOM     47  H   UNL A   1      45.079  27.098  27.604  1.00  0.00     0.167 HD
ATOM     48  C   UNL A   1      41.302  28.762  29.058  1.00  0.00     0.037 A 
ATOM     49  C   UNL A   1      47.773  27.215  26.874  1.00  0.00     0.037 A 
ATOM     50  C   UNL A   1      42.263  29.825  29.195  1.00  0.00     0.049 A 
ATOM     51  C   UNL A   1      47.424  28.574  27.416  1.00  0.00     0.074 A 
ATOM     52  C   UNL A   1      42.078  31.090  29.723  1.00  0.00     0.029 A 
ATOM     53  N   UNL A   1      43.592  29.743  28.807  1.00  0.00    -0.354 N 
ATOM     54  N   UNL A   1      46.279  29.008  27.882  1.00  0.00    -0.248 NA
ATOM     55  C   UNL A   1      48.501  29.574  27.443  1.00  0.00     0.031 C 
ATOM     56  C   UNL A   1      43.284  31.789  29.616  1.00  0.00     0.029 A 
ATOM     57  C   UNL A   1      44.233  30.943  29.067  1.00  0.00     0.049 A 
ATOM     58  H   UNL A   1      44.016  28.951  28.406  1.00  0.00     0.167 HD
ATOM     59  C   UNL A   1      46.500  30.321  28.274  1.00  0.00     0.074 A 
ATOM     60  C   UNL A   1      47.895  30.607  28.010  1.00  0.00     0.031 C 
ATOM     61  C   UNL A   1      45.623  31.211  28.800  1.00  0.00     0.037 A 
BRANCH  48  62
ATOM     62  C   UNL A   1      39.889  29.037  29.488  1.00  0.00     0.064 A 
ATOM     63  C   UNL A   1      39.492  28.817  30.815  1.00  0.00     0.173 A 
ATOM     64  C   UNL A   1      38.909  29.436  28.567  1.00  0.00     0.173 A 
ATOM     65  F   UNL A   1      40.389  28.426  31.734  1.00  0.00    -0.203 F 
ATOM     66  C   UNL A   1      38.163  28.972  31.201  1.00  0.00     0.198 A 
ATOM     67  C   UNL A   1      37.587  29.617  28.962  1.00  0.00     0.198 A 
ATOM     68  F   UNL A   1      39.239  29.669  27.288  1.00  0.00    -0.203 F 
ATOM     69  F   UNL A   1      37.800  28.722  32.467  1.00  0.00    -0.200 F 
ATOM     70  C   UNL A   1      37.213  29.375  30.276  1.00  0.00     0.200 A 
ATOM     71  F   UNL A   1      36.673  30.027  28.072  1.00  0.00    -0.200 F 
ATOM     72  F   UNL A   1      35.934  29.529  30.649  1.00  0.00    -0.200 F 
ENDBRANCH  48  62
BRANCH  49  73
ATOM     73  C   UNL A   1      49.148  26.905  26.406  1.00  0.00     0.064 A 
ATOM     74  C   UNL A   1      49.514  27.049  25.060  1.00  0.00     0.173 A 
ATOM     75  C   UNL A   1      50.121  26.434  27.300  1.00  0.00     0.173 A 
ATOM     76  F   UNL A   1      48.619  27.490  24.165  1.00  0.00    -0.203 F 
ATOM     77  C   UNL A   1      50.795  26.717  24.623  1.00  0.00     0.198 A 
ATOM     78  C   UNL A   1      51.409  26.130  26.867  1.00  0.00     0.198 A 
ATOM     79  F   UNL A   1      49.825  26.300  28.601  1.00  0.00    -0.203 F 
ATOM     80  F   UNL A   1      51.109  26.833  23.325  1.00  0.00    -0.200 F 
ATOM     81  C   UNL A   1      51.743  26.264  25.527  1.00  0.00     0.200 A 
ATOM     82  F   UNL A   1      52.330  25.715  27.748  1.00  0.00    -0.200 F 
ATOM     83  F   UNL A   1      52.979  25.960  25.109  1.00  0.00    -0.200 F 
ENDBRANCH  49  73
BRANCH  61  84
ATOM     84  C   UNL A   1      46.143  32.578  29.140  1.00  0.00     0.064 A 
ATOM     85  C   UNL A   1      46.649  32.847  30.422  1.00  0.00     0.173 A 
ATOM     86  C   UNL A   1      46.078  33.635  28.222  1.00  0.00     0.173 A 
ATOM     87  F   UNL A   1      46.723  31.872  31.338  1.00  0.00    -0.203 F 
ATOM     88  C   UNL A   1      47.059  34.130  30.773  1.00  0.00     0.198 A 
ATOM     89  C   UNL A   1      46.517  34.910  28.568  1.00  0.00     0.198 A 
ATOM     90  F   UNL A   1      45.614  33.424  26.981  1.00  0.00    -0.203 F 
ATOM     91  F   UNL A   1      47.508  34.373  32.012  1.00  0.00    -0.200 F 
ATOM     92  C   UNL A   1      46.997  35.159  29.845  1.00  0.00     0.200 A 
ATOM     93  F   UNL A   1      46.480  35.896  27.663  1.00  0.00    -0.200 F 
ATOM     94  F   UNL A   1      47.405  36.390  30.180  1.00  0.00    -0.200 F 
ENDBRANCH  61  84
ENDBRANCH  35  36
ENDBRANCH  27  30
ENDBRANCH  25  26
ENDBRANCH  24  25
ENDBRANCH   1  24
TORSDOF 13
ENDMDL
