MODEL 1
REMARK VINA RESULT:     -12.4      0.000      0.000
REMARK SMILES CCN(Cc1ccccn1)C(=O)[C@H]1CC[C@@H](C(=O)NCCCNC(=O)c2ccc(-c3c4nc(c(-c5c(F)c(F)c(F)c(F)c5F)c5ccc([nH]5)c(-c5c(F)c(F)c(F)c(F)c5F)c5nc(c(-c6c(F)c(F)c(F)c(F)c6F)c6ccc3[nH]6)C=C5)C=C4)cc2)CC1
REMARK SMILES IDX 20 1 19 2 17 3 18 4 16 6 13 7 90 8 14 9 89 10 15 11 11 12
REMARK SMILES IDX 12 13 3 14 2 15 1 16 4 17 5 18 6 19 10 20 7 21 9 22 8 23
REMARK SMILES IDX 21 24 22 25 23 26 24 27 25 29 26 30 27 31 88 32 28 33 87 34
REMARK SMILES IDX 29 35 30 36 31 37 81 38 32 39 86 40 80 41 82 42 33 43 85 44
REMARK SMILES IDX 79 45 78 46 34 48 66 49 46 50 65 51 47 52 50 53 64 54 83 55
REMARK SMILES IDX 48 56 49 57 63 59 84 60 51 61 35 62 36 63 44 64 37 65 38 66
REMARK SMILES IDX 42 67 45 68 39 69 40 70 43 71 41 72 67 73 68 74 76 75 69 76
REMARK SMILES IDX 70 77 74 78 77 79 71 80 72 81 75 82 73 83 52 84 53 85 61 86
REMARK SMILES IDX 54 87 55 88 59 89 62 90 56 91 57 92 60 93 58 94
REMARK H PARENT 19 5 23 28 82 47 50 58
REMARK Flexibility Score: inf
ROOT
ATOM      1  C   UNL A   1      31.639  30.846  26.070  1.00  0.00     0.117 C 
ENDROOT
BRANCH   1   2
ATOM      2  N   UNL A   1      31.521  29.785  27.037  1.00  0.00    -0.356 N 
ATOM      3  C   UNL A   1      31.682  28.446  26.917  1.00  0.00     0.223 C 
ATOM      4  O   UNL A   1      31.606  27.803  27.972  1.00  0.00    -0.275 OA
ATOM      5  H   UNL A   1      31.280  30.087  27.944  1.00  0.00     0.163 HD
BRANCH   3   6
ATOM      6  C   UNL A   1      31.891  27.695  25.591  1.00  0.00     0.078 C 
ATOM      7  C   UNL A   1      32.206  24.656  25.521  1.00  0.00     0.079 C 
ATOM      8  C   UNL A   1      30.817  25.325  25.321  1.00  0.00     0.014 C 
ATOM      9  C   UNL A   1      33.343  25.609  25.918  1.00  0.00     0.014 C 
ATOM     10  C   UNL A   1      30.767  26.827  25.041  1.00  0.00     0.014 C 
ATOM     11  C   UNL A   1      33.251  27.044  25.439  1.00  0.00     0.014 C 
BRANCH   7  12
ATOM     12  C   UNL A   1      32.091  23.467  26.530  1.00  0.00     0.226 C 
ATOM     13  O   UNL A   1      31.431  23.613  27.568  1.00  0.00    -0.275 OA
BRANCH  12  14
ATOM     14  N   UNL A   1      32.718  22.242  26.299  1.00  0.00    -0.337 N 
BRANCH  14  15
ATOM     15  C   UNL A   1      32.165  21.380  25.244  1.00  0.00     0.116 C 
ATOM     16  C   UNL A   1      32.662  21.733  23.848  1.00  0.00     0.027 C 
ENDBRANCH  14  15
BRANCH  14  17
ATOM     17  C   UNL A   1      33.932  21.758  26.974  1.00  0.00     0.175 C 
BRANCH  17  18
ATOM     18  C   UNL A   1      35.182  21.953  26.145  1.00  0.00     0.060 A 
ATOM     19  C   UNL A   1      35.817  23.194  26.120  1.00  0.00     0.026 A 
ATOM     20  N   UNL A   1      35.725  20.845  25.578  1.00  0.00    -0.259 NA
ATOM     21  C   UNL A   1      37.086  23.282  25.559  1.00  0.00     0.004 A 
ATOM     22  C   UNL A   1      36.960  20.961  25.044  1.00  0.00     0.111 A 
ATOM     23  C   UNL A   1      37.679  22.143  25.028  1.00  0.00     0.020 A 
ENDBRANCH  17  18
ENDBRANCH  14  17
ENDBRANCH  12  14
ENDBRANCH   7  12
ENDBRANCH   3   6
ENDBRANCH   1   2
BRANCH   1  24
ATOM     24  C   UNL A   1      31.401  32.223  26.663  1.00  0.00     0.042 C 
BRANCH  24  25
ATOM     25  C   UNL A   1      32.655  32.877  27.199  1.00  0.00     0.118 C 
BRANCH  25  26
ATOM     26  N   UNL A   1      32.429  34.234  27.685  1.00  0.00    -0.352 N 
ATOM     27  C   UNL A   1      33.021  34.950  28.697  1.00  0.00     0.251 C 
ATOM     28  H   UNL A   1      31.727  34.726  27.200  1.00  0.00     0.163 HD
ATOM     29  O   UNL A   1      32.576  36.048  29.005  1.00  0.00    -0.269 OA
BRANCH  27  30
ATOM     30  C   UNL A   1      34.172  34.395  29.442  1.00  0.00     0.039 A 
ATOM     31  C   UNL A   1      33.937  33.717  30.642  1.00  0.00     0.014 A 
ATOM     32  C   UNL A   1      35.478  34.543  28.976  1.00  0.00     0.014 A 
ATOM     33  C   UNL A   1      35.004  33.134  31.330  1.00  0.00     0.010 A 
ATOM     34  C   UNL A   1      36.513  33.846  29.579  1.00  0.00     0.010 A 
ATOM     35  C   UNL A   1      36.295  33.161  30.782  1.00  0.00    -0.014 A 
BRANCH  35  36
ATOM     36  C   UNL A   1      37.452  32.541  31.471  1.00  0.00     0.031 A 
ATOM     37  C   UNL A   1      38.182  31.400  30.813  1.00  0.00     0.074 A 
ATOM     38  C   UNL A   1      37.798  32.953  32.705  1.00  0.00     0.049 A 
ATOM     39  N   UNL A   1      39.161  30.664  31.276  1.00  0.00    -0.248 NA
ATOM     40  C   UNL A   1      37.722  31.006  29.472  1.00  0.00     0.031 C 
ATOM     41  C   UNL A   1      37.132  34.013  33.463  1.00  0.00     0.029 A 
ATOM     42  N   UNL A   1      38.797  32.523  33.540  1.00  0.00    -0.354 N 
ATOM     43  C   UNL A   1      39.409  29.714  30.293  1.00  0.00     0.074 A 
ATOM     44  C   UNL A   1      38.428  29.911  29.251  1.00  0.00     0.031 C 
ATOM     45  C   UNL A   1      37.767  34.180  34.634  1.00  0.00     0.029 A 
ATOM     46  C   UNL A   1      38.852  33.209  34.728  1.00  0.00     0.049 A 
ATOM     47  H   UNL A   1      39.414  31.792  33.311  1.00  0.00     0.167 HD
ATOM     48  C   UNL A   1      40.392  28.784  30.245  1.00  0.00     0.037 A 
ATOM     49  C   UNL A   1      39.690  33.067  35.773  1.00  0.00     0.037 A 
ATOM     50  C   UNL A   1      41.381  28.614  31.275  1.00  0.00     0.049 A 
ATOM     51  C   UNL A   1      40.768  32.019  35.704  1.00  0.00     0.074 A 
ATOM     52  C   UNL A   1      42.454  27.743  31.307  1.00  0.00     0.029 A 
ATOM     53  N   UNL A   1      41.413  29.336  32.460  1.00  0.00    -0.354 N 
ATOM     54  N   UNL A   1      41.039  31.171  34.742  1.00  0.00    -0.248 NA
ATOM     55  C   UNL A   1      41.660  31.914  36.866  1.00  0.00     0.031 C 
ATOM     56  C   UNL A   1      43.104  27.899  32.537  1.00  0.00     0.029 A 
ATOM     57  C   UNL A   1      42.474  28.913  33.243  1.00  0.00     0.049 A 
ATOM     58  H   UNL A   1      40.776  30.045  32.707  1.00  0.00     0.167 HD
ATOM     59  C   UNL A   1      42.153  30.455  35.165  1.00  0.00     0.074 A 
ATOM     60  C   UNL A   1      42.511  30.980  36.466  1.00  0.00     0.031 C 
ATOM     61  C   UNL A   1      42.818  29.456  34.534  1.00  0.00     0.037 A 
BRANCH  48  62
ATOM     62  C   UNL A   1      40.434  27.888  29.038  1.00  0.00     0.064 A 
ATOM     63  C   UNL A   1      41.219  28.197  27.914  1.00  0.00     0.173 A 
ATOM     64  C   UNL A   1      39.675  26.708  28.998  1.00  0.00     0.173 A 
ATOM     65  F   UNL A   1      41.955  29.318  27.892  1.00  0.00    -0.203 F 
ATOM     66  C   UNL A   1      41.203  27.388  26.781  1.00  0.00     0.198 A 
ATOM     67  C   UNL A   1      39.693  25.880  27.878  1.00  0.00     0.198 A 
ATOM     68  F   UNL A   1      38.911  26.359  30.043  1.00  0.00    -0.203 F 
ATOM     69  F   UNL A   1      41.901  27.746  25.694  1.00  0.00    -0.200 F 
ATOM     70  C   UNL A   1      40.445  26.227  26.765  1.00  0.00     0.200 A 
ATOM     71  F   UNL A   1      38.971  24.751  27.869  1.00  0.00    -0.200 F 
ATOM     72  F   UNL A   1      40.429  25.451  25.673  1.00  0.00    -0.200 F 
ENDBRANCH  48  62
BRANCH  49  73
ATOM     73  C   UNL A   1      39.572  33.972  36.946  1.00  0.00     0.064 A 
ATOM     74  C   UNL A   1      40.216  35.219  36.957  1.00  0.00     0.173 A 
ATOM     75  C   UNL A   1      38.809  33.624  38.070  1.00  0.00     0.173 A 
ATOM     76  F   UNL A   1      40.970  35.591  35.911  1.00  0.00    -0.203 F 
ATOM     77  C   UNL A   1      40.117  36.072  38.053  1.00  0.00     0.198 A 
ATOM     78  C   UNL A   1      38.687  34.492  39.154  1.00  0.00     0.198 A 
ATOM     79  F   UNL A   1      38.165  32.449  38.107  1.00  0.00    -0.203 F 
ATOM     80  F   UNL A   1      40.775  37.239  38.052  1.00  0.00    -0.200 F 
ATOM     81  C   UNL A   1      39.346  35.711  39.148  1.00  0.00     0.200 A 
ATOM     82  F   UNL A   1      37.926  34.148  40.201  1.00  0.00    -0.200 F 
ATOM     83  F   UNL A   1      39.242  36.537  40.198  1.00  0.00    -0.200 F 
ENDBRANCH  49  73
BRANCH  61  84
ATOM     84  C   UNL A   1      44.029  28.894  35.222  1.00  0.00     0.064 A 
ATOM     85  C   UNL A   1      45.311  29.421  35.009  1.00  0.00     0.173 A 
ATOM     86  C   UNL A   1      43.896  27.839  36.138  1.00  0.00     0.173 A 
ATOM     87  F   UNL A   1      45.494  30.421  34.133  1.00  0.00    -0.203 F 
ATOM     88  C   UNL A   1      46.420  28.890  35.665  1.00  0.00     0.198 A 
ATOM     89  C   UNL A   1      45.000  27.335  36.817  1.00  0.00     0.198 A 
ATOM     90  F   UNL A   1      42.690  27.304  36.383  1.00  0.00    -0.203 F 
ATOM     91  F   UNL A   1      47.643  29.373  35.404  1.00  0.00    -0.200 F 
ATOM     92  C   UNL A   1      46.262  27.855  36.574  1.00  0.00     0.200 A 
ATOM     93  F   UNL A   1      44.843  26.347  37.708  1.00  0.00    -0.200 F 
ATOM     94  F   UNL A   1      47.329  27.352  37.209  1.00  0.00    -0.200 F 
ENDBRANCH  61  84
ENDBRANCH  35  36
ENDBRANCH  27  30
ENDBRANCH  25  26
ENDBRANCH  24  25
ENDBRANCH   1  24
TORSDOF 15
ENDMDL
MODEL 2
REMARK VINA RESULT:     -12.1      5.561     11.264
REMARK SMILES CCN(Cc1ccccn1)C(=O)[C@H]1CC[C@@H](C(=O)NCCCNC(=O)c2ccc(-c3c4nc(c(-c5c(F)c(F)c(F)c(F)c5F)c5ccc([nH]5)c(-c5c(F)c(F)c(F)c(F)c5F)c5nc(c(-c6c(F)c(F)c(F)c(F)c6F)c6ccc3[nH]6)C=C5)C=C4)cc2)CC1
REMARK SMILES IDX 20 1 19 2 17 3 18 4 16 6 13 7 90 8 14 9 89 10 15 11 11 12
REMARK SMILES IDX 12 13 3 14 2 15 1 16 4 17 5 18 6 19 10 20 7 21 9 22 8 23
REMARK SMILES IDX 21 24 22 25 23 26 24 27 25 29 26 30 27 31 88 32 28 33 87 34
REMARK SMILES IDX 29 35 30 36 31 37 81 38 32 39 86 40 80 41 82 42 33 43 85 44
REMARK SMILES IDX 79 45 78 46 34 48 66 49 46 50 65 51 47 52 50 53 64 54 83 55
REMARK SMILES IDX 48 56 49 57 63 59 84 60 51 61 35 62 36 63 44 64 37 65 38 66
REMARK SMILES IDX 42 67 45 68 39 69 40 70 43 71 41 72 67 73 68 74 76 75 69 76
REMARK SMILES IDX 70 77 74 78 77 79 71 80 72 81 75 82 73 83 52 84 53 85 61 86
REMARK SMILES IDX 54 87 55 88 59 89 62 90 56 91 57 92 60 93 58 94
REMARK H PARENT 19 5 23 28 82 47 50 58
REMARK Flexibility Score: inf
ROOT
ATOM      1  C   UNL A   1      36.850  20.407  24.988  1.00  0.00     0.117 C 
ENDROOT
BRANCH   1   2
ATOM      2  N   UNL A   1      36.989  21.474  24.031  1.00  0.00    -0.356 N 
ATOM      3  C   UNL A   1      36.182  22.521  23.739  1.00  0.00     0.223 C 
ATOM      4  O   UNL A   1      36.635  23.332  22.920  1.00  0.00    -0.275 OA
ATOM      5  H   UNL A   1      37.816  21.435  23.496  1.00  0.00     0.163 HD
BRANCH   3   6
ATOM      6  C   UNL A   1      34.764  22.728  24.298  1.00  0.00     0.078 C 
ATOM      7  C   UNL A   1      33.109  25.188  23.554  1.00  0.00     0.079 C 
ATOM      8  C   UNL A   1      32.974  23.858  22.760  1.00  0.00     0.014 C 
ATOM      9  C   UNL A   1      34.234  25.218  24.599  1.00  0.00     0.014 C 
ATOM     10  C   UNL A   1      33.567  22.587  23.366  1.00  0.00     0.014 C 
ATOM     11  C   UNL A   1      34.622  23.902  25.246  1.00  0.00     0.014 C 
BRANCH   7  12
ATOM     12  C   UNL A   1      33.228  26.395  22.567  1.00  0.00     0.226 C 
ATOM     13  O   UNL A   1      34.026  26.332  21.622  1.00  0.00    -0.275 OA
BRANCH  12  14
ATOM     14  N   UNL A   1      32.463  27.551  22.723  1.00  0.00    -0.337 N 
BRANCH  14  15
ATOM     15  C   UNL A   1      31.010  27.442  22.519  1.00  0.00     0.116 C 
ATOM     16  C   UNL A   1      30.254  27.005  23.767  1.00  0.00     0.027 C 
ENDBRANCH  14  15
BRANCH  14  17
ATOM     17  C   UNL A   1      32.970  28.868  23.140  1.00  0.00     0.175 C 
BRANCH  17  18
ATOM     18  C   UNL A   1      32.870  29.089  24.633  1.00  0.00     0.060 A 
ATOM     19  C   UNL A   1      33.849  28.577  25.483  1.00  0.00     0.026 A 
ATOM     20  N   UNL A   1      31.894  29.927  25.068  1.00  0.00    -0.259 NA
ATOM     21  C   UNL A   1      33.870  29.000  26.807  1.00  0.00     0.004 A 
ATOM     22  C   UNL A   1      31.943  30.322  26.358  1.00  0.00     0.111 A 
ATOM     23  C   UNL A   1      32.913  29.904  27.251  1.00  0.00     0.020 A 
ENDBRANCH  17  18
ENDBRANCH  14  17
ENDBRANCH  12  14
ENDBRANCH   7  12
ENDBRANCH   3   6
ENDBRANCH   1   2
BRANCH   1  24
ATOM     24  C   UNL A   1      38.044  19.471  25.015  1.00  0.00     0.042 C 
BRANCH  24  25
ATOM     25  C   UNL A   1      39.238  20.032  25.756  1.00  0.00     0.118 C 
BRANCH  25  26
ATOM     26  N   UNL A   1      40.326  19.071  25.901  1.00  0.00    -0.352 N 
ATOM     27  C   UNL A   1      41.669  19.242  26.131  1.00  0.00     0.251 C 
ATOM     28  H   UNL A   1      40.047  18.130  25.821  1.00  0.00     0.163 HD
ATOM     29  O   UNL A   1      42.420  18.276  26.094  1.00  0.00    -0.269 OA
BRANCH  27  30
ATOM     30  C   UNL A   1      42.226  20.588  26.392  1.00  0.00     0.039 A 
ATOM     31  C   UNL A   1      42.664  21.359  25.311  1.00  0.00     0.014 A 
ATOM     32  C   UNL A   1      42.327  21.092  27.688  1.00  0.00     0.014 A 
ATOM     33  C   UNL A   1      43.138  22.654  25.530  1.00  0.00     0.010 A 
ATOM     34  C   UNL A   1      42.659  22.423  27.889  1.00  0.00     0.010 A 
ATOM     35  C   UNL A   1      43.102  23.210  26.817  1.00  0.00    -0.014 A 
BRANCH  35  36
ATOM     36  C   UNL A   1      43.579  24.586  27.091  1.00  0.00     0.031 A 
ATOM     37  C   UNL A   1      42.610  25.619  27.603  1.00  0.00     0.074 A 
ATOM     38  C   UNL A   1      44.853  24.923  26.816  1.00  0.00     0.049 A 
ATOM     39  N   UNL A   1      42.797  26.895  27.826  1.00  0.00    -0.248 NA
ATOM     40  C   UNL A   1      41.233  25.165  27.857  1.00  0.00     0.031 C 
ATOM     41  C   UNL A   1      45.868  24.021  26.269  1.00  0.00     0.029 A 
ATOM     42  N   UNL A   1      45.510  26.118  26.956  1.00  0.00    -0.354 N 
ATOM     43  C   UNL A   1      41.560  27.391  28.220  1.00  0.00     0.074 A 
ATOM     44  C   UNL A   1      40.615  26.302  28.126  1.00  0.00     0.031 C 
ATOM     45  C   UNL A   1      47.030  24.685  26.159  1.00  0.00     0.029 A 
ATOM     46  C   UNL A   1      46.830  26.067  26.584  1.00  0.00     0.049 A 
ATOM     47  H   UNL A   1      45.075  26.935  27.291  1.00  0.00     0.167 HD
ATOM     48  C   UNL A   1      41.248  28.632  28.660  1.00  0.00     0.037 A 
ATOM     49  C   UNL A   1      47.771  27.030  26.588  1.00  0.00     0.037 A 
ATOM     50  C   UNL A   1      42.203  29.701  28.778  1.00  0.00     0.049 A 
ATOM     51  C   UNL A   1      47.399  28.407  27.069  1.00  0.00     0.074 A 
ATOM     52  C   UNL A   1      42.011  30.982  29.262  1.00  0.00     0.029 A 
ATOM     53  N   UNL A   1      43.536  29.608  28.402  1.00  0.00    -0.354 N 
ATOM     54  N   UNL A   1      46.244  28.849  27.507  1.00  0.00    -0.248 NA
ATOM     55  C   UNL A   1      48.464  29.417  27.063  1.00  0.00     0.031 C 
ATOM     56  C   UNL A   1      43.216  31.682  29.128  1.00  0.00     0.029 A 
ATOM     57  C   UNL A   1      44.174  30.818  28.621  1.00  0.00     0.049 A 
ATOM     58  H   UNL A   1      43.964  28.802  28.035  1.00  0.00     0.167 HD
ATOM     59  C   UNL A   1      46.451  30.176  27.860  1.00  0.00     0.074 A 
ATOM     60  C   UNL A   1      47.847  30.461  27.597  1.00  0.00     0.031 C 
ATOM     61  C   UNL A   1      45.568  31.077  28.358  1.00  0.00     0.037 A 
BRANCH  48  62
ATOM     62  C   UNL A   1      39.816  28.888  29.043  1.00  0.00     0.064 A 
ATOM     63  C   UNL A   1      38.881  29.385  28.121  1.00  0.00     0.173 A 
ATOM     64  C   UNL A   1      39.373  28.640  30.351  1.00  0.00     0.173 A 
ATOM     65  F   UNL A   1      39.252  29.652  26.859  1.00  0.00    -0.203 F 
ATOM     66  C   UNL A   1      37.573  29.671  28.505  1.00  0.00     0.198 A 
ATOM     67  C   UNL A   1      38.053  28.890  30.722  1.00  0.00     0.198 A 
ATOM     68  F   UNL A   1      40.219  28.160  31.274  1.00  0.00    -0.203 F 
ATOM     69  F   UNL A   1      36.723  30.217  27.624  1.00  0.00    -0.200 F 
ATOM     70  C   UNL A   1      37.159  29.418  29.803  1.00  0.00     0.200 A 
ATOM     71  F   UNL A   1      37.650  28.631  31.973  1.00  0.00    -0.200 F 
ATOM     72  F   UNL A   1      35.901  29.696  30.172  1.00  0.00    -0.200 F 
ENDBRANCH  48  62
BRANCH  49  73
ATOM     73  C   UNL A   1      49.160  26.711  26.170  1.00  0.00     0.064 A 
ATOM     74  C   UNL A   1      50.086  26.201  27.092  1.00  0.00     0.173 A 
ATOM     75  C   UNL A   1      49.592  26.895  24.849  1.00  0.00     0.173 A 
ATOM     76  F   UNL A   1      49.726  26.022  28.372  1.00  0.00    -0.203 F 
ATOM     77  C   UNL A   1      51.393  25.904  26.713  1.00  0.00     0.198 A 
ATOM     78  C   UNL A   1      50.891  26.570  24.463  1.00  0.00     0.198 A 
ATOM     79  F   UNL A   1      48.744  27.371  23.925  1.00  0.00    -0.203 F 
ATOM     80  F   UNL A   1      52.267  25.455  27.624  1.00  0.00    -0.200 F 
ATOM     81  C   UNL A   1      51.793  26.082  25.398  1.00  0.00     0.200 A 
ATOM     82  F   UNL A   1      51.268  26.724  23.187  1.00  0.00    -0.200 F 
ATOM     83  F   UNL A   1      53.047  25.786  25.030  1.00  0.00    -0.200 F 
ENDBRANCH  49  73
BRANCH  61  84
ATOM     84  C   UNL A   1      46.094  32.443  28.693  1.00  0.00     0.064 A 
ATOM     85  C   UNL A   1      46.605  32.748  29.963  1.00  0.00     0.173 A 
ATOM     86  C   UNL A   1      46.122  33.450  27.715  1.00  0.00     0.173 A 
ATOM     87  F   UNL A   1      46.589  31.825  30.937  1.00  0.00    -0.203 F 
ATOM     88  C   UNL A   1      47.096  34.019  30.250  1.00  0.00     0.198 A 
ATOM     89  C   UNL A   1      46.646  34.707  27.995  1.00  0.00     0.198 A 
ATOM     90  F   UNL A   1      45.652  33.208  26.482  1.00  0.00    -0.203 F 
ATOM     91  F   UNL A   1      47.529  34.304  31.487  1.00  0.00    -0.200 F 
ATOM     92  C   UNL A   1      47.125  34.995  29.265  1.00  0.00     0.200 A 
ATOM     93  F   UNL A   1      46.689  35.642  27.036  1.00  0.00    -0.200 F 
ATOM     94  F   UNL A   1      47.606  36.214  29.541  1.00  0.00    -0.200 F 
ENDBRANCH  61  84
ENDBRANCH  35  36
ENDBRANCH  27  30
ENDBRANCH  25  26
ENDBRANCH  24  25
ENDBRANCH   1  24
TORSDOF 15
ENDMDL
MODEL 3
REMARK VINA RESULT:     -12.1      5.431     10.897
REMARK SMILES CCN(Cc1ccccn1)C(=O)[C@H]1CC[C@@H](C(=O)NCCCNC(=O)c2ccc(-c3c4nc(c(-c5c(F)c(F)c(F)c(F)c5F)c5ccc([nH]5)c(-c5c(F)c(F)c(F)c(F)c5F)c5nc(c(-c6c(F)c(F)c(F)c(F)c6F)c6ccc3[nH]6)C=C5)C=C4)cc2)CC1
REMARK SMILES IDX 20 1 19 2 17 3 18 4 16 6 13 7 90 8 14 9 89 10 15 11 11 12
REMARK SMILES IDX 12 13 3 14 2 15 1 16 4 17 5 18 6 19 10 20 7 21 9 22 8 23
REMARK SMILES IDX 21 24 22 25 23 26 24 27 25 29 26 30 27 31 88 32 28 33 87 34
REMARK SMILES IDX 29 35 30 36 31 37 81 38 32 39 86 40 80 41 82 42 33 43 85 44
REMARK SMILES IDX 79 45 78 46 34 48 66 49 46 50 65 51 47 52 50 53 64 54 83 55
REMARK SMILES IDX 48 56 49 57 63 59 84 60 51 61 35 62 36 63 44 64 37 65 38 66
REMARK SMILES IDX 42 67 45 68 39 69 40 70 43 71 41 72 67 73 68 74 76 75 69 76
REMARK SMILES IDX 70 77 74 78 77 79 71 80 72 81 75 82 73 83 52 84 53 85 61 86
REMARK SMILES IDX 54 87 55 88 59 89 62 90 56 91 57 92 60 93 58 94
REMARK H PARENT 19 5 23 28 82 47 50 58
REMARK Flexibility Score: inf
ROOT
ATOM      1  C   UNL A   1      36.885  20.503  25.006  1.00  0.00     0.117 C 
ENDROOT
BRANCH   1   2
ATOM      2  N   UNL A   1      36.984  21.541  24.013  1.00  0.00    -0.356 N 
ATOM      3  C   UNL A   1      36.143  22.552  23.693  1.00  0.00     0.223 C 
ATOM      4  O   UNL A   1      36.565  23.349  22.844  1.00  0.00    -0.275 OA
ATOM      5  H   UNL A   1      37.808  21.510  23.473  1.00  0.00     0.163 HD
BRANCH   3   6
ATOM      6  C   UNL A   1      34.723  22.735  24.256  1.00  0.00     0.078 C 
ATOM      7  C   UNL A   1      33.023  25.164  23.516  1.00  0.00     0.079 C 
ATOM      8  C   UNL A   1      32.909  23.831  22.724  1.00  0.00     0.014 C 
ATOM      9  C   UNL A   1      34.150  25.215  24.558  1.00  0.00     0.014 C 
ATOM     10  C   UNL A   1      33.527  22.571  23.328  1.00  0.00     0.014 C 
ATOM     11  C   UNL A   1      34.563  23.907  25.204  1.00  0.00     0.014 C 
BRANCH   7  12
ATOM     12  C   UNL A   1      33.116  26.372  22.527  1.00  0.00     0.226 C 
ATOM     13  O   UNL A   1      33.854  26.290  21.536  1.00  0.00    -0.275 OA
BRANCH  12  14
ATOM     14  N   UNL A   1      32.396  27.549  22.733  1.00  0.00    -0.337 N 
BRANCH  14  15
ATOM     15  C   UNL A   1      30.939  27.502  22.540  1.00  0.00     0.116 C 
ATOM     16  C   UNL A   1      30.213  26.679  23.596  1.00  0.00     0.027 C 
ENDBRANCH  14  15
BRANCH  14  17
ATOM     17  C   UNL A   1      32.956  28.830  23.194  1.00  0.00     0.175 C 
BRANCH  17  18
ATOM     18  C   UNL A   1      32.781  29.045  24.681  1.00  0.00     0.060 A 
ATOM     19  C   UNL A   1      33.695  28.499  25.579  1.00  0.00     0.026 A 
ATOM     20  N   UNL A   1      31.808  29.911  25.067  1.00  0.00    -0.259 NA
ATOM     21  C   UNL A   1      33.656  28.913  26.906  1.00  0.00     0.004 A 
ATOM     22  C   UNL A   1      31.798  30.297  26.361  1.00  0.00     0.111 A 
ATOM     23  C   UNL A   1      32.704  29.844  27.303  1.00  0.00     0.020 A 
ENDBRANCH  17  18
ENDBRANCH  14  17
ENDBRANCH  12  14
ENDBRANCH   7  12
ENDBRANCH   3   6
ENDBRANCH   1   2
BRANCH   1  24
ATOM     24  C   UNL A   1      38.082  19.570  25.016  1.00  0.00     0.042 C 
BRANCH  24  25
ATOM     25  C   UNL A   1      39.263  20.107  25.795  1.00  0.00     0.118 C 
BRANCH  25  26
ATOM     26  N   UNL A   1      40.353  19.145  25.918  1.00  0.00    -0.352 N 
ATOM     27  C   UNL A   1      41.688  19.311  26.198  1.00  0.00     0.251 C 
ATOM     28  H   UNL A   1      40.083  18.208  25.776  1.00  0.00     0.163 HD
ATOM     29  O   UNL A   1      42.446  18.352  26.129  1.00  0.00    -0.269 OA
BRANCH  27  30
ATOM     30  C   UNL A   1      42.226  20.642  26.551  1.00  0.00     0.039 A 
ATOM     31  C   UNL A   1      42.696  21.474  25.530  1.00  0.00     0.014 A 
ATOM     32  C   UNL A   1      42.280  21.075  27.875  1.00  0.00     0.014 A 
ATOM     33  C   UNL A   1      43.153  22.757  25.836  1.00  0.00     0.010 A 
ATOM     34  C   UNL A   1      42.596  22.394  28.161  1.00  0.00     0.010 A 
ATOM     35  C   UNL A   1      43.070  23.241  27.150  1.00  0.00    -0.014 A 
BRANCH  35  36
ATOM     36  C   UNL A   1      43.528  24.602  27.515  1.00  0.00     0.031 A 
ATOM     37  C   UNL A   1      42.515  25.649  27.895  1.00  0.00     0.074 A 
ATOM     38  C   UNL A   1      44.836  24.914  27.438  1.00  0.00     0.049 A 
ATOM     39  N   UNL A   1      42.692  26.918  28.165  1.00  0.00    -0.248 NA
ATOM     40  C   UNL A   1      41.107  25.222  27.935  1.00  0.00     0.031 C 
ATOM     41  C   UNL A   1      45.903  23.998  27.032  1.00  0.00     0.029 A 
ATOM     42  N   UNL A   1      45.488  26.092  27.695  1.00  0.00    -0.354 N 
ATOM     43  C   UNL A   1      41.421  27.435  28.380  1.00  0.00     0.074 A 
ATOM     44  C   UNL A   1      40.479  26.370  28.128  1.00  0.00     0.031 C 
ATOM     45  C   UNL A   1      47.081  24.637  27.108  1.00  0.00     0.029 A 
ATOM     46  C   UNL A   1      46.847  26.017  27.522  1.00  0.00     0.049 A 
ATOM     47  H   UNL A   1      45.025  26.914  27.975  1.00  0.00     0.167 HD
ATOM     48  C   UNL A   1      41.071  28.677  28.791  1.00  0.00     0.037 A 
ATOM     49  C   UNL A   1      47.796  26.959  27.682  1.00  0.00     0.037 A 
ATOM     50  C   UNL A   1      42.019  29.722  29.067  1.00  0.00     0.049 A 
ATOM     51  C   UNL A   1      47.385  28.337  28.127  1.00  0.00     0.074 A 
ATOM     52  C   UNL A   1      41.783  31.000  29.540  1.00  0.00     0.029 A 
ATOM     53  N   UNL A   1      43.391  29.605  28.891  1.00  0.00    -0.354 N 
ATOM     54  N   UNL A   1      46.187  28.798  28.395  1.00  0.00    -0.248 NA
ATOM     55  C   UNL A   1      48.459  29.322  28.297  1.00  0.00     0.031 C 
ATOM     56  C   UNL A   1      43.008  31.675  29.598  1.00  0.00     0.029 A 
ATOM     57  C   UNL A   1      44.014  30.797  29.224  1.00  0.00     0.049 A 
ATOM     58  H   UNL A   1      43.853  28.795  28.579  1.00  0.00     0.167 HD
ATOM     59  C   UNL A   1      46.366  30.115  28.799  1.00  0.00     0.074 A 
ATOM     60  C   UNL A   1      47.790  30.373  28.750  1.00  0.00     0.031 C 
ATOM     61  C   UNL A   1      45.437  31.029  29.175  1.00  0.00     0.037 A 
BRANCH  48  62
ATOM     62  C   UNL A   1      39.604  28.959  28.961  1.00  0.00     0.064 A 
ATOM     63  C   UNL A   1      38.961  28.809  30.201  1.00  0.00     0.173 A 
ATOM     64  C   UNL A   1      38.827  29.377  27.870  1.00  0.00     0.173 A 
ATOM     65  F   UNL A   1      39.652  28.398  31.275  1.00  0.00    -0.203 F 
ATOM     66  C   UNL A   1      37.590  29.017  30.330  1.00  0.00     0.198 A 
ATOM     67  C   UNL A   1      37.463  29.624  28.013  1.00  0.00     0.198 A 
ATOM     68  F   UNL A   1      39.387  29.543  26.663  1.00  0.00    -0.203 F 
ATOM     69  F   UNL A   1      36.988  28.792  31.507  1.00  0.00    -0.200 F 
ATOM     70  C   UNL A   1      36.843  29.430  29.238  1.00  0.00     0.200 A 
ATOM     71  F   UNL A   1      36.745  30.037  26.959  1.00  0.00    -0.200 F 
ATOM     72  F   UNL A   1      35.524  29.629  29.363  1.00  0.00    -0.200 F 
ENDBRANCH  48  62
BRANCH  49  73
ATOM     73  C   UNL A   1      49.226  26.615  27.470  1.00  0.00     0.064 A 
ATOM     74  C   UNL A   1      49.783  26.629  26.183  1.00  0.00     0.173 A 
ATOM     75  C   UNL A   1      50.068  26.278  28.540  1.00  0.00     0.173 A 
ATOM     76  F   UNL A   1      49.015  26.930  25.125  1.00  0.00    -0.203 F 
ATOM     77  C   UNL A   1      51.121  26.301  25.973  1.00  0.00     0.198 A 
ATOM     78  C   UNL A   1      51.413  25.980  28.332  1.00  0.00     0.198 A 
ATOM     79  F   UNL A   1      49.589  26.259  29.793  1.00  0.00    -0.203 F 
ATOM     80  F   UNL A   1      51.616  26.284  24.727  1.00  0.00    -0.200 F 
ATOM     81  C   UNL A   1      51.937  25.985  27.047  1.00  0.00     0.200 A 
ATOM     82  F   UNL A   1      52.203  25.693  29.375  1.00  0.00    -0.200 F 
ATOM     83  F   UNL A   1      53.226  25.680  26.846  1.00  0.00    -0.200 F 
ENDBRANCH  49  73
BRANCH  61  84
ATOM     84  C   UNL A   1      45.934  32.378  29.609  1.00  0.00     0.064 A 
ATOM     85  C   UNL A   1      46.298  32.640  30.937  1.00  0.00     0.173 A 
ATOM     86  C   UNL A   1      46.084  33.411  28.670  1.00  0.00     0.173 A 
ATOM     87  F   UNL A   1      46.161  31.690  31.876  1.00  0.00    -0.203 F 
ATOM     88  C   UNL A   1      46.766  33.896  31.316  1.00  0.00     0.198 A 
ATOM     89  C   UNL A   1      46.585  34.653  29.045  1.00  0.00     0.198 A 
ATOM     90  F   UNL A   1      45.757  33.210  27.385  1.00  0.00    -0.203 F 
ATOM     91  F   UNL A   1      47.056  34.140  32.601  1.00  0.00    -0.200 F 
ATOM     92  C   UNL A   1      46.917  34.898  30.369  1.00  0.00     0.200 A 
ATOM     93  F   UNL A   1      46.747  35.614  28.125  1.00  0.00    -0.200 F 
ATOM     94  F   UNL A   1      47.375  36.103  30.734  1.00  0.00    -0.200 F 
ENDBRANCH  61  84
ENDBRANCH  35  36
ENDBRANCH  27  30
ENDBRANCH  25  26
ENDBRANCH  24  25
ENDBRANCH   1  24
TORSDOF 15
ENDMDL
