MODEL 1
REMARK VINA RESULT:     -13.7      0.000      0.000
REMARK SMILES Cc1ccc(Nc2c(F)cccc2I)c(CC(=O)NCCCNC(=O)c2ccc(-c3c4nc(c(-c5c(F)c(F)c(F)c(F)c5F)c5ccc([nH]5)c(-c5c(F)c(F)c(F)c(F)c5F)c5nc(c(-c6c(F)c(F)c(F)c(F)c6F)c6ccc3[nH]6)C=C5)C=C4)cc2)c1
REMARK SMILES IDX 20 1 19 2 17 3 18 4 16 6 15 7 1 8 2 9 3 10 89 11 4 12 5 13
REMARK SMILES IDX 6 14 7 16 8 17 13 18 9 19 10 20 12 21 14 22 11 23 21 24
REMARK SMILES IDX 22 25 23 26 24 27 25 29 26 30 27 31 88 32 28 33 87 34 29 35
REMARK SMILES IDX 30 36 31 37 81 38 32 39 86 40 80 41 82 42 33 43 85 44 79 45
REMARK SMILES IDX 78 46 34 48 66 49 46 50 65 51 47 52 50 53 64 54 83 55 48 56
REMARK SMILES IDX 49 57 63 59 84 60 51 61 35 62 36 63 44 64 37 65 38 66 42 67
REMARK SMILES IDX 45 68 39 69 40 70 43 71 41 72 67 73 68 74 76 75 69 76 70 77
REMARK SMILES IDX 74 78 77 79 71 80 72 81 75 82 73 83 52 84 53 85 61 86 54 87
REMARK SMILES IDX 55 88 59 89 62 90 56 91 57 92 60 93 58 94
REMARK H PARENT 19 5 6 15 23 28 82 47 50 58
REMARK Flexibility Score: inf
ROOT
ATOM      1  C   UNL A   1      37.385  21.125  25.261  1.00  0.00     0.117 C 
ENDROOT
BRANCH   1   2
ATOM      2  N   UNL A   1      37.119  21.894  24.055  1.00  0.00    -0.356 N 
ATOM      3  C   UNL A   1      36.324  22.993  23.893  1.00  0.00     0.224 C 
ATOM      4  O   UNL A   1      36.186  23.455  22.757  1.00  0.00    -0.275 OA
ATOM      5  H   UNL A   1      37.577  21.579  23.242  1.00  0.00     0.163 HD
BRANCH   3   6
ATOM      6  C   UNL A   1      35.599  23.623  25.069  1.00  0.00     0.137 C 
BRANCH   6   7
ATOM      7  C   UNL A   1      34.165  23.160  25.220  1.00  0.00    -0.015 A 
ATOM      8  C   UNL A   1      32.374  19.786  24.976  1.00  0.00     0.044 C 
ATOM      9  C   UNL A   1      32.627  21.251  25.170  1.00  0.00    -0.051 A 
ATOM     10  C   UNL A   1      31.559  22.132  25.318  1.00  0.00     0.005 A 
ATOM     11  C   UNL A   1      33.925  21.768  25.169  1.00  0.00     0.009 A 
ATOM     12  C   UNL A   1      31.786  23.506  25.426  1.00  0.00     0.026 A 
ATOM     13  C   UNL A   1      33.077  24.055  25.349  1.00  0.00     0.042 A 
BRANCH  13  14
ATOM     14  N   UNL A   1      33.275  25.451  25.408  1.00  0.00    -0.352 N 
ATOM     15  H   UNL A   1      33.314  25.825  26.318  1.00  0.00     0.167 HD
BRANCH  14  16
ATOM     16  C   UNL A   1      33.425  26.396  24.367  1.00  0.00     0.088 A 
ATOM     17  C   UNL A   1      33.427  26.011  23.014  1.00  0.00     0.147 A 
ATOM     18  C   UNL A   1      33.641  27.760  24.643  1.00  0.00     0.040 A 
ATOM     19  F   UNL A   1      33.221  24.729  22.673  1.00  0.00    -0.205 F 
ATOM     20  C   UNL A   1      33.611  26.933  21.983  1.00  0.00     0.041 A 
ATOM     21  C   UNL A   1      33.826  28.692  23.611  1.00  0.00     0.017 A 
ATOM     22  I   UNL A   1      33.790  28.490  26.613  1.00  0.00    -0.042 I 
ATOM     23  C   UNL A   1      33.809  28.277  22.280  1.00  0.00     0.004 A 
ENDBRANCH  14  16
ENDBRANCH  13  14
ENDBRANCH   6   7
ENDBRANCH   3   6
ENDBRANCH   1   2
BRANCH   1  24
ATOM     24  C   UNL A   1      38.833  21.250  25.727  1.00  0.00     0.042 C 
BRANCH  24  25
ATOM     25  C   UNL A   1      39.213  22.625  26.247  1.00  0.00     0.118 C 
BRANCH  25  26
ATOM     26  N   UNL A   1      40.654  22.859  26.303  1.00  0.00    -0.352 N 
ATOM     27  C   UNL A   1      41.331  24.045  26.546  1.00  0.00     0.251 C 
ATOM     28  H   UNL A   1      41.221  22.068  26.149  1.00  0.00     0.163 HD
ATOM     29  O   UNL A   1      42.545  24.080  26.588  1.00  0.00    -0.269 OA
BRANCH  27  30
ATOM     30  C   UNL A   1      40.531  25.248  26.880  1.00  0.00     0.039 A 
ATOM     31  C   UNL A   1      40.806  26.429  26.186  1.00  0.00     0.014 A 
ATOM     32  C   UNL A   1      39.724  25.258  28.013  1.00  0.00     0.014 A 
ATOM     33  C   UNL A   1      40.491  27.648  26.779  1.00  0.00     0.010 A 
ATOM     34  C   UNL A   1      39.506  26.462  28.653  1.00  0.00     0.010 A 
ATOM     35  C   UNL A   1      39.960  27.651  28.070  1.00  0.00    -0.014 A 
BRANCH  35  36
ATOM     36  C   UNL A   1      39.968  28.827  28.931  1.00  0.00     0.031 A 
ATOM     37  C   UNL A   1      38.938  29.874  28.791  1.00  0.00     0.074 A 
ATOM     38  C   UNL A   1      40.869  28.903  29.937  1.00  0.00     0.049 A 
ATOM     39  N   UNL A   1      39.045  31.070  29.265  1.00  0.00    -0.248 NA
ATOM     40  C   UNL A   1      37.704  29.657  28.052  1.00  0.00     0.031 C 
ATOM     41  C   UNL A   1      40.868  29.829  31.067  1.00  0.00     0.029 A 
ATOM     42  N   UNL A   1      42.124  28.273  30.009  1.00  0.00    -0.354 N 
ATOM     43  C   UNL A   1      37.820  31.685  29.145  1.00  0.00     0.074 A 
ATOM     44  C   UNL A   1      37.044  30.787  28.320  1.00  0.00     0.031 C 
ATOM     45  C   UNL A   1      42.126  29.961  31.515  1.00  0.00     0.029 A 
ATOM     46  C   UNL A   1      42.983  29.236  30.594  1.00  0.00     0.049 A 
ATOM     47  H   UNL A   1      42.354  27.361  29.717  1.00  0.00     0.167 HD
ATOM     48  C   UNL A   1      37.581  32.824  29.860  1.00  0.00     0.037 A 
ATOM     49  C   UNL A   1      44.017  29.775  29.884  1.00  0.00     0.037 A 
ATOM     50  C   UNL A   1      38.794  33.299  30.531  1.00  0.00     0.049 A 
ATOM     51  C   UNL A   1      43.955  31.279  29.709  1.00  0.00     0.074 A 
ATOM     52  C   UNL A   1      39.284  33.242  31.825  1.00  0.00     0.029 A 
ATOM     53  N   UNL A   1      39.854  33.720  29.746  1.00  0.00    -0.354 N 
ATOM     54  N   UNL A   1      42.956  32.024  30.091  1.00  0.00    -0.248 NA
ATOM     55  C   UNL A   1      44.973  32.043  28.985  1.00  0.00     0.031 C 
ATOM     56  C   UNL A   1      40.656  33.632  31.803  1.00  0.00     0.029 A 
ATOM     57  C   UNL A   1      40.995  33.921  30.495  1.00  0.00     0.049 A 
ATOM     58  H   UNL A   1      39.799  33.859  28.773  1.00  0.00     0.167 HD
ATOM     59  C   UNL A   1      43.146  33.302  29.637  1.00  0.00     0.074 A 
ATOM     60  C   UNL A   1      44.422  33.267  28.951  1.00  0.00     0.031 C 
ATOM     61  C   UNL A   1      42.223  34.290  29.812  1.00  0.00     0.037 A 
BRANCH  48  62
ATOM     62  C   UNL A   1      36.203  33.387  30.146  1.00  0.00     0.064 A 
ATOM     63  C   UNL A   1      35.427  33.954  29.110  1.00  0.00     0.173 A 
ATOM     64  C   UNL A   1      35.606  33.461  31.419  1.00  0.00     0.173 A 
ATOM     65  F   UNL A   1      35.793  33.857  27.825  1.00  0.00    -0.203 F 
ATOM     66  C   UNL A   1      34.236  34.647  29.348  1.00  0.00     0.198 A 
ATOM     67  C   UNL A   1      34.445  34.201  31.669  1.00  0.00     0.198 A 
ATOM     68  F   UNL A   1      36.077  32.759  32.454  1.00  0.00    -0.203 F 
ATOM     69  F   UNL A   1      33.554  35.171  28.320  1.00  0.00    -0.200 F 
ATOM     70  C   UNL A   1      33.768  34.807  30.634  1.00  0.00     0.200 A 
ATOM     71  F   UNL A   1      33.988  34.314  32.924  1.00  0.00    -0.200 F 
ATOM     72  F   UNL A   1      32.653  35.511  30.872  1.00  0.00    -0.200 F 
ENDBRANCH  48  62
BRANCH  49  73
ATOM     73  C   UNL A   1      44.586  28.828  28.886  1.00  0.00     0.064 A 
ATOM     74  C   UNL A   1      45.418  27.786  29.345  1.00  0.00     0.173 A 
ATOM     75  C   UNL A   1      44.051  28.709  27.600  1.00  0.00     0.173 A 
ATOM     76  F   UNL A   1      45.954  27.846  30.574  1.00  0.00    -0.203 F 
ATOM     77  C   UNL A   1      45.596  26.622  28.601  1.00  0.00     0.198 A 
ATOM     78  C   UNL A   1      44.256  27.553  26.846  1.00  0.00     0.198 A 
ATOM     79  F   UNL A   1      43.235  29.653  27.112  1.00  0.00    -0.203 F 
ATOM     80  F   UNL A   1      46.283  25.595  29.122  1.00  0.00    -0.200 F 
ATOM     81  C   UNL A   1      44.994  26.498  27.362  1.00  0.00     0.200 A 
ATOM     82  F   UNL A   1      43.650  27.420  25.657  1.00  0.00    -0.200 F 
ATOM     83  F   UNL A   1      45.084  25.345  26.684  1.00  0.00    -0.200 F 
ENDBRANCH  49  73
BRANCH  61  84
ATOM     84  C   UNL A   1      42.416  35.696  29.331  1.00  0.00     0.064 A 
ATOM     85  C   UNL A   1      41.879  36.151  28.117  1.00  0.00     0.173 A 
ATOM     86  C   UNL A   1      43.252  36.596  30.022  1.00  0.00     0.173 A 
ATOM     87  F   UNL A   1      41.110  35.351  27.364  1.00  0.00    -0.203 F 
ATOM     88  C   UNL A   1      42.137  37.439  27.642  1.00  0.00     0.198 A 
ATOM     89  C   UNL A   1      43.550  37.861  29.521  1.00  0.00     0.198 A 
ATOM     90  F   UNL A   1      43.782  36.281  31.213  1.00  0.00    -0.203 F 
ATOM     91  F   UNL A   1      41.567  37.854  26.502  1.00  0.00    -0.200 F 
ATOM     92  C   UNL A   1      42.983  38.287  28.335  1.00  0.00     0.200 A 
ATOM     93  F   UNL A   1      44.383  38.665  30.196  1.00  0.00    -0.200 F 
ATOM     94  F   UNL A   1      43.249  39.514  27.866  1.00  0.00    -0.200 F 
ENDBRANCH  61  84
ENDBRANCH  35  36
ENDBRANCH  27  30
ENDBRANCH  25  26
ENDBRANCH  24  25
ENDBRANCH   1  24
TORSDOF 13
ENDMDL
MODEL 2
REMARK VINA RESULT:     -13.7      1.260      1.673
REMARK SMILES Cc1ccc(Nc2c(F)cccc2I)c(CC(=O)NCCCNC(=O)c2ccc(-c3c4nc(c(-c5c(F)c(F)c(F)c(F)c5F)c5ccc([nH]5)c(-c5c(F)c(F)c(F)c(F)c5F)c5nc(c(-c6c(F)c(F)c(F)c(F)c6F)c6ccc3[nH]6)C=C5)C=C4)cc2)c1
REMARK SMILES IDX 20 1 19 2 17 3 18 4 16 6 15 7 1 8 2 9 3 10 89 11 4 12 5 13
REMARK SMILES IDX 6 14 7 16 8 17 13 18 9 19 10 20 12 21 14 22 11 23 21 24
REMARK SMILES IDX 22 25 23 26 24 27 25 29 26 30 27 31 88 32 28 33 87 34 29 35
REMARK SMILES IDX 30 36 31 37 81 38 32 39 86 40 80 41 82 42 33 43 85 44 79 45
REMARK SMILES IDX 78 46 34 48 66 49 46 50 65 51 47 52 50 53 64 54 83 55 48 56
REMARK SMILES IDX 49 57 63 59 84 60 51 61 35 62 36 63 44 64 37 65 38 66 42 67
REMARK SMILES IDX 45 68 39 69 40 70 43 71 41 72 67 73 68 74 76 75 69 76 70 77
REMARK SMILES IDX 74 78 77 79 71 80 72 81 75 82 73 83 52 84 53 85 61 86 54 87
REMARK SMILES IDX 55 88 59 89 62 90 56 91 57 92 60 93 58 94
REMARK H PARENT 19 5 6 15 23 28 82 47 50 58
REMARK Flexibility Score: inf
ROOT
ATOM      1  C   UNL A   1      37.640  23.466  25.601  1.00  0.00     0.117 C 
ENDROOT
BRANCH   1   2
ATOM      2  N   UNL A   1      37.040  23.476  24.275  1.00  0.00    -0.356 N 
ATOM      3  C   UNL A   1      35.777  23.113  23.899  1.00  0.00     0.224 C 
ATOM      4  O   UNL A   1      35.494  23.137  22.698  1.00  0.00    -0.275 OA
ATOM      5  H   UNL A   1      37.625  23.789  23.548  1.00  0.00     0.163 HD
BRANCH   3   6
ATOM      6  C   UNL A   1      34.748  22.663  24.921  1.00  0.00     0.137 C 
BRANCH   6   7
ATOM      7  C   UNL A   1      33.953  21.448  24.491  1.00  0.00    -0.015 A 
ATOM      8  C   UNL A   1      34.517  17.664  24.626  1.00  0.00     0.044 C 
ATOM      9  C   UNL A   1      33.884  19.000  24.374  1.00  0.00    -0.051 A 
ATOM     10  C   UNL A   1      32.705  19.087  23.639  1.00  0.00     0.005 A 
ATOM     11  C   UNL A   1      34.474  20.179  24.835  1.00  0.00     0.009 A 
ATOM     12  C   UNL A   1      32.150  20.334  23.339  1.00  0.00     0.026 A 
ATOM     13  C   UNL A   1      32.768  21.535  23.725  1.00  0.00     0.042 A 
BRANCH  13  14
ATOM     14  N   UNL A   1      32.214  22.782  23.365  1.00  0.00    -0.352 N 
ATOM     15  H   UNL A   1      32.183  22.958  22.397  1.00  0.00     0.167 HD
BRANCH  14  16
ATOM     16  C   UNL A   1      31.696  23.817  24.176  1.00  0.00     0.088 A 
ATOM     17  C   UNL A   1      30.954  23.545  25.340  1.00  0.00     0.147 A 
ATOM     18  C   UNL A   1      31.848  25.172  23.820  1.00  0.00     0.040 A 
ATOM     19  F   UNL A   1      30.771  22.278  25.746  1.00  0.00    -0.205 F 
ATOM     20  C   UNL A   1      30.408  24.561  26.125  1.00  0.00     0.041 A 
ATOM     21  C   UNL A   1      31.304  26.198  24.605  1.00  0.00     0.017 A 
ATOM     22  I   UNL A   1      32.824  25.756  22.046  1.00  0.00    -0.042 I 
ATOM     23  C   UNL A   1      30.584  25.891  25.760  1.00  0.00     0.004 A 
ENDBRANCH  14  16
ENDBRANCH  13  14
ENDBRANCH   6   7
ENDBRANCH   3   6
ENDBRANCH   1   2
BRANCH   1  24
ATOM     24  C   UNL A   1      38.599  22.296  25.798  1.00  0.00     0.042 C 
BRANCH  24  25
ATOM     25  C   UNL A   1      39.569  22.461  26.955  1.00  0.00     0.118 C 
BRANCH  25  26
ATOM     26  N   UNL A   1      40.919  22.844  26.547  1.00  0.00    -0.352 N 
ATOM     27  C   UNL A   1      41.458  24.115  26.421  1.00  0.00     0.251 C 
ATOM     28  H   UNL A   1      41.527  22.099  26.334  1.00  0.00     0.163 HD
ATOM     29  O   UNL A   1      42.617  24.278  26.094  1.00  0.00    -0.269 OA
BRANCH  27  30
ATOM     30  C   UNL A   1      40.619  25.270  26.821  1.00  0.00     0.039 A 
ATOM     31  C   UNL A   1      40.774  26.466  26.116  1.00  0.00     0.014 A 
ATOM     32  C   UNL A   1      39.901  25.234  28.012  1.00  0.00     0.014 A 
ATOM     33  C   UNL A   1      40.437  27.665  26.738  1.00  0.00     0.010 A 
ATOM     34  C   UNL A   1      39.665  26.423  28.673  1.00  0.00     0.010 A 
ATOM     35  C   UNL A   1      40.006  27.636  28.065  1.00  0.00    -0.014 A 
BRANCH  35  36
ATOM     36  C   UNL A   1      40.012  28.810  28.930  1.00  0.00     0.031 A 
ATOM     37  C   UNL A   1      38.977  29.851  28.798  1.00  0.00     0.074 A 
ATOM     38  C   UNL A   1      40.919  28.887  29.930  1.00  0.00     0.049 A 
ATOM     39  N   UNL A   1      39.080  31.046  29.276  1.00  0.00    -0.248 NA
ATOM     40  C   UNL A   1      37.740  29.631  28.066  1.00  0.00     0.031 C 
ATOM     41  C   UNL A   1      40.919  29.809  31.064  1.00  0.00     0.029 A 
ATOM     42  N   UNL A   1      42.177  28.262  29.994  1.00  0.00    -0.354 N 
ATOM     43  C   UNL A   1      37.852  31.655  29.164  1.00  0.00     0.074 A 
ATOM     44  C   UNL A   1      37.075  30.756  28.341  1.00  0.00     0.031 C 
ATOM     45  C   UNL A   1      42.180  29.946  31.504  1.00  0.00     0.029 A 
ATOM     46  C   UNL A   1      43.035  29.229  30.577  1.00  0.00     0.049 A 
ATOM     47  H   UNL A   1      42.410  27.353  29.697  1.00  0.00     0.167 HD
ATOM     48  C   UNL A   1      37.611  32.791  29.884  1.00  0.00     0.037 A 
ATOM     49  C   UNL A   1      44.062  29.775  29.863  1.00  0.00     0.037 A 
ATOM     50  C   UNL A   1      38.825  33.271  30.550  1.00  0.00     0.049 A 
ATOM     51  C   UNL A   1      43.991  31.279  29.693  1.00  0.00     0.074 A 
ATOM     52  C   UNL A   1      39.323  33.212  31.842  1.00  0.00     0.029 A 
ATOM     53  N   UNL A   1      39.878  33.700  29.761  1.00  0.00    -0.354 N 
ATOM     54  N   UNL A   1      42.990  32.018  30.083  1.00  0.00    -0.248 NA
ATOM     55  C   UNL A   1      45.002  32.050  28.966  1.00  0.00     0.031 C 
ATOM     56  C   UNL A   1      40.692  33.609  31.812  1.00  0.00     0.029 A 
ATOM     57  C   UNL A   1      41.023  33.904  30.503  1.00  0.00     0.049 A 
ATOM     58  H   UNL A   1      39.817  33.840  28.789  1.00  0.00     0.167 HD
ATOM     59  C   UNL A   1      43.171  33.298  29.632  1.00  0.00     0.074 A 
ATOM     60  C   UNL A   1      44.444  33.272  28.939  1.00  0.00     0.031 C 
ATOM     61  C   UNL A   1      42.244  34.281  29.815  1.00  0.00     0.037 A 
BRANCH  48  62
ATOM     62  C   UNL A   1      36.231  33.347  30.180  1.00  0.00     0.064 A 
ATOM     63  C   UNL A   1      35.449  33.917  29.151  1.00  0.00     0.173 A 
ATOM     64  C   UNL A   1      35.640  33.409  31.456  1.00  0.00     0.173 A 
ATOM     65  F   UNL A   1      35.810  33.830  27.864  1.00  0.00    -0.203 F 
ATOM     66  C   UNL A   1      34.256  34.603  29.399  1.00  0.00     0.198 A 
ATOM     67  C   UNL A   1      34.477  34.142  31.716  1.00  0.00     0.198 A 
ATOM     68  F   UNL A   1      36.118  32.703  32.484  1.00  0.00    -0.203 F 
ATOM     69  F   UNL A   1      33.567  35.131  28.377  1.00  0.00    -0.200 F 
ATOM     70  C   UNL A   1      33.792  34.752  30.687  1.00  0.00     0.200 A 
ATOM     71  F   UNL A   1      34.024  34.245  32.974  1.00  0.00    -0.200 F 
ATOM     72  F   UNL A   1      32.675  35.450  30.935  1.00  0.00    -0.200 F 
ENDBRANCH  48  62
BRANCH  49  73
ATOM     73  C   UNL A   1      44.630  28.834  28.859  1.00  0.00     0.064 A 
ATOM     74  C   UNL A   1      45.500  27.818  29.305  1.00  0.00     0.173 A 
ATOM     75  C   UNL A   1      44.066  28.690  27.587  1.00  0.00     0.173 A 
ATOM     76  F   UNL A   1      46.066  27.903  30.520  1.00  0.00    -0.203 F 
ATOM     77  C   UNL A   1      45.690  26.653  28.567  1.00  0.00     0.198 A 
ATOM     78  C   UNL A   1      44.283  27.532  26.838  1.00  0.00     0.198 A 
ATOM     79  F   UNL A   1      43.213  29.607  27.113  1.00  0.00    -0.203 F 
ATOM     80  F   UNL A   1      46.417  25.648  29.078  1.00  0.00    -0.200 F 
ATOM     81  C   UNL A   1      45.060  26.501  27.345  1.00  0.00     0.200 A 
ATOM     82  F   UNL A   1      43.650  27.372  25.667  1.00  0.00    -0.200 F 
ATOM     83  F   UNL A   1      45.164  25.345  26.674  1.00  0.00    -0.200 F 
ENDBRANCH  49  73
BRANCH  61  84
ATOM     84  C   UNL A   1      42.427  35.689  29.338  1.00  0.00     0.064 A 
ATOM     85  C   UNL A   1      41.900  36.140  28.118  1.00  0.00     0.173 A 
ATOM     86  C   UNL A   1      43.246  36.598  30.039  1.00  0.00     0.173 A 
ATOM     87  F   UNL A   1      41.148  35.331  27.355  1.00  0.00    -0.203 F 
ATOM     88  C   UNL A   1      42.149  37.430  27.647  1.00  0.00     0.198 A 
ATOM     89  C   UNL A   1      43.535  37.867  29.542  1.00  0.00     0.198 A 
ATOM     90  F   UNL A   1      43.766  36.288  31.236  1.00  0.00    -0.203 F 
ATOM     91  F   UNL A   1      41.588  37.841  26.500  1.00  0.00    -0.200 F 
ATOM     92  C   UNL A   1      42.978  38.287  28.351  1.00  0.00     0.200 A 
ATOM     93  F   UNL A   1      44.352  38.679  30.227  1.00  0.00    -0.200 F 
ATOM     94  F   UNL A   1      43.236  39.517  27.885  1.00  0.00    -0.200 F 
ENDBRANCH  61  84
ENDBRANCH  35  36
ENDBRANCH  27  30
ENDBRANCH  25  26
ENDBRANCH  24  25
ENDBRANCH   1  24
TORSDOF 13
ENDMDL
MODEL 3
REMARK VINA RESULT:     -13.3      1.530      2.277
REMARK SMILES Cc1ccc(Nc2c(F)cccc2I)c(CC(=O)NCCCNC(=O)c2ccc(-c3c4nc(c(-c5c(F)c(F)c(F)c(F)c5F)c5ccc([nH]5)c(-c5c(F)c(F)c(F)c(F)c5F)c5nc(c(-c6c(F)c(F)c(F)c(F)c6F)c6ccc3[nH]6)C=C5)C=C4)cc2)c1
REMARK SMILES IDX 20 1 19 2 17 3 18 4 16 6 15 7 1 8 2 9 3 10 89 11 4 12 5 13
REMARK SMILES IDX 6 14 7 16 8 17 13 18 9 19 10 20 12 21 14 22 11 23 21 24
REMARK SMILES IDX 22 25 23 26 24 27 25 29 26 30 27 31 88 32 28 33 87 34 29 35
REMARK SMILES IDX 30 36 31 37 81 38 32 39 86 40 80 41 82 42 33 43 85 44 79 45
REMARK SMILES IDX 78 46 34 48 66 49 46 50 65 51 47 52 50 53 64 54 83 55 48 56
REMARK SMILES IDX 49 57 63 59 84 60 51 61 35 62 36 63 44 64 37 65 38 66 42 67
REMARK SMILES IDX 45 68 39 69 40 70 43 71 41 72 67 73 68 74 76 75 69 76 70 77
REMARK SMILES IDX 74 78 77 79 71 80 72 81 75 82 73 83 52 84 53 85 61 86 54 87
REMARK SMILES IDX 55 88 59 89 62 90 56 91 57 92 60 93 58 94
REMARK H PARENT 19 5 6 15 23 28 82 47 50 58
REMARK Flexibility Score: inf
ROOT
ATOM      1  C   UNL A   1      37.996  22.045  25.324  1.00  0.00     0.117 C 
ENDROOT
BRANCH   1   2
ATOM      2  N   UNL A   1      37.325  22.524  24.126  1.00  0.00    -0.356 N 
ATOM      3  C   UNL A   1      35.987  22.595  23.859  1.00  0.00     0.224 C 
ATOM      4  O   UNL A   1      35.632  22.976  22.740  1.00  0.00    -0.275 OA
ATOM      5  H   UNL A   1      37.918  22.841  23.407  1.00  0.00     0.163 HD
BRANCH   3   6
ATOM      6  C   UNL A   1      34.953  22.191  24.895  1.00  0.00     0.137 C 
BRANCH   6   7
ATOM      7  C   UNL A   1      34.071  21.039  24.460  1.00  0.00    -0.015 A 
ATOM      8  C   UNL A   1      34.430  17.229  24.416  1.00  0.00     0.044 C 
ATOM      9  C   UNL A   1      33.860  18.606  24.251  1.00  0.00    -0.051 A 
ATOM     10  C   UNL A   1      32.653  18.787  23.583  1.00  0.00     0.005 A 
ATOM     11  C   UNL A   1      34.537  19.731  24.726  1.00  0.00     0.009 A 
ATOM     12  C   UNL A   1      32.153  20.073  23.361  1.00  0.00     0.026 A 
ATOM     13  C   UNL A   1      32.856  21.222  23.761  1.00  0.00     0.042 A 
BRANCH  13  14
ATOM     14  N   UNL A   1      32.354  22.511  23.480  1.00  0.00    -0.352 N 
ATOM     15  H   UNL A   1      32.398  22.776  22.533  1.00  0.00     0.167 HD
BRANCH  14  16
ATOM     16  C   UNL A   1      31.797  23.481  24.346  1.00  0.00     0.088 A 
ATOM     17  C   UNL A   1      31.041  23.118  25.474  1.00  0.00     0.147 A 
ATOM     18  C   UNL A   1      31.926  24.859  24.079  1.00  0.00     0.040 A 
ATOM     19  F   UNL A   1      30.879  21.825  25.795  1.00  0.00    -0.205 F 
ATOM     20  C   UNL A   1      30.458  24.070  26.312  1.00  0.00     0.041 A 
ATOM     21  C   UNL A   1      31.344  25.820  24.917  1.00  0.00     0.017 A 
ATOM     22  I   UNL A   1      32.921  25.576  22.366  1.00  0.00    -0.042 I 
ATOM     23  C   UNL A   1      30.611  25.425  26.036  1.00  0.00     0.004 A 
ENDBRANCH  14  16
ENDBRANCH  13  14
ENDBRANCH   6   7
ENDBRANCH   3   6
ENDBRANCH   1   2
BRANCH   1  24
ATOM     24  C   UNL A   1      38.502  23.183  26.206  1.00  0.00     0.042 C 
BRANCH  24  25
ATOM     25  C   UNL A   1      39.682  22.823  27.090  1.00  0.00     0.118 C 
BRANCH  25  26
ATOM     26  N   UNL A   1      40.978  23.204  26.533  1.00  0.00    -0.352 N 
ATOM     27  C   UNL A   1      41.517  24.472  26.381  1.00  0.00     0.251 C 
ATOM     28  H   UNL A   1      41.545  22.459  26.226  1.00  0.00     0.163 HD
ATOM     29  O   UNL A   1      42.631  24.632  25.920  1.00  0.00    -0.269 OA
BRANCH  27  30
ATOM     30  C   UNL A   1      40.750  25.623  26.913  1.00  0.00     0.039 A 
ATOM     31  C   UNL A   1      40.778  26.818  26.190  1.00  0.00     0.014 A 
ATOM     32  C   UNL A   1      40.240  25.586  28.207  1.00  0.00     0.014 A 
ATOM     33  C   UNL A   1      40.542  28.016  26.857  1.00  0.00     0.010 A 
ATOM     34  C   UNL A   1      40.110  26.775  28.896  1.00  0.00     0.010 A 
ATOM     35  C   UNL A   1      40.339  27.988  28.237  1.00  0.00    -0.014 A 
BRANCH  35  36
ATOM     36  C   UNL A   1      40.482  29.165  29.087  1.00  0.00     0.031 A 
ATOM     37  C   UNL A   1      39.395  30.155  29.197  1.00  0.00     0.074 A 
ATOM     38  C   UNL A   1      41.584  29.289  29.861  1.00  0.00     0.049 A 
ATOM     39  N   UNL A   1      39.546  31.355  29.648  1.00  0.00    -0.248 NA
ATOM     40  C   UNL A   1      38.038  29.873  28.757  1.00  0.00     0.031 C 
ATOM     41  C   UNL A   1      41.793  30.214  30.972  1.00  0.00     0.029 A 
ATOM     42  N   UNL A   1      42.853  28.725  29.638  1.00  0.00    -0.354 N 
ATOM     43  C   UNL A   1      38.296  31.905  29.817  1.00  0.00     0.074 A 
ATOM     44  C   UNL A   1      37.398  30.967  29.182  1.00  0.00     0.031 C 
ATOM     45  C   UNL A   1      43.112  30.413  31.122  1.00  0.00     0.029 A 
ATOM     46  C   UNL A   1      43.773  29.734  30.023  1.00  0.00     0.049 A 
ATOM     47  H   UNL A   1      43.057  27.827  29.291  1.00  0.00     0.167 HD
ATOM     48  C   UNL A   1      38.168  33.030  30.581  1.00  0.00     0.037 A 
ATOM     49  C   UNL A   1      44.588  30.326  29.101  1.00  0.00     0.037 A 
ATOM     50  C   UNL A   1      39.476  33.570  30.962  1.00  0.00     0.049 A 
ATOM     51  C   UNL A   1      44.410  31.824  28.962  1.00  0.00     0.074 A 
ATOM     52  C   UNL A   1      40.251  33.540  32.110  1.00  0.00     0.029 A 
ATOM     53  N   UNL A   1      40.305  34.046  29.961  1.00  0.00    -0.354 N 
ATOM     54  N   UNL A   1      43.487  32.516  29.570  1.00  0.00    -0.248 NA
ATOM     55  C   UNL A   1      45.194  32.640  28.033  1.00  0.00     0.031 C 
ATOM     56  C   UNL A   1      41.559  34.002  31.779  1.00  0.00     0.029 A 
ATOM     57  C   UNL A   1      41.575  34.307  30.432  1.00  0.00     0.049 A 
ATOM     58  H   UNL A   1      40.022  34.180  29.028  1.00  0.00     0.167 HD
ATOM     59  C   UNL A   1      43.502  33.801  29.099  1.00  0.00     0.074 A 
ATOM     60  C   UNL A   1      44.588  33.834  28.140  1.00  0.00     0.031 C 
ATOM     61  C   UNL A   1      42.593  34.739  29.491  1.00  0.00     0.037 A 
BRANCH  48  62
ATOM     62  C   UNL A   1      36.864  33.521  31.181  1.00  0.00     0.064 A 
ATOM     63  C   UNL A   1      36.604  33.366  32.561  1.00  0.00     0.173 A 
ATOM     64  C   UNL A   1      35.804  34.094  30.454  1.00  0.00     0.173 A 
ATOM     65  F   UNL A   1      37.551  32.952  33.413  1.00  0.00    -0.203 F 
ATOM     66  C   UNL A   1      35.354  33.631  33.130  1.00  0.00     0.198 A 
ATOM     67  C   UNL A   1      34.536  34.308  31.008  1.00  0.00     0.198 A 
ATOM     68  F   UNL A   1      35.971  34.540  29.207  1.00  0.00    -0.203 F 
ATOM     69  F   UNL A   1      35.170  33.452  34.445  1.00  0.00    -0.200 F 
ATOM     70  C   UNL A   1      34.307  34.062  32.344  1.00  0.00     0.200 A 
ATOM     71  F   UNL A   1      33.541  34.761  30.231  1.00  0.00    -0.200 F 
ATOM     72  F   UNL A   1      33.096  34.272  32.876  1.00  0.00    -0.200 F 
ENDBRANCH  48  62
BRANCH  49  73
ATOM     73  C   UNL A   1      44.961  29.409  27.989  1.00  0.00     0.064 A 
ATOM     74  C   UNL A   1      45.984  28.464  28.211  1.00  0.00     0.173 A 
ATOM     75  C   UNL A   1      44.118  29.204  26.893  1.00  0.00     0.173 A 
ATOM     76  F   UNL A   1      46.820  28.610  29.251  1.00  0.00    -0.203 F 
ATOM     77  C   UNL A   1      46.073  27.302  27.448  1.00  0.00     0.198 A 
ATOM     78  C   UNL A   1      44.229  28.051  26.114  1.00  0.00     0.198 A 
ATOM     79  F   UNL A   1      43.111  30.051  26.640  1.00  0.00    -0.203 F 
ATOM     80  F   UNL A   1      46.972  26.360  27.768  1.00  0.00    -0.200 F 
ATOM     81  C   UNL A   1      45.178  27.086  26.416  1.00  0.00     0.200 A 
ATOM     82  F   UNL A   1      43.344  27.827  25.132  1.00  0.00    -0.200 F 
ATOM     83  F   UNL A   1      45.198  25.928  25.740  1.00  0.00    -0.200 F 
ENDBRANCH  49  73
BRANCH  61  84
ATOM     84  C   UNL A   1      42.598  36.153  28.995  1.00  0.00     0.064 A 
ATOM     85  C   UNL A   1      41.904  36.542  27.838  1.00  0.00     0.173 A 
ATOM     86  C   UNL A   1      43.403  37.138  29.602  1.00  0.00     0.173 A 
ATOM     87  F   UNL A   1      41.150  35.662  27.163  1.00  0.00    -0.203 F 
ATOM     88  C   UNL A   1      41.987  37.844  27.341  1.00  0.00     0.198 A 
ATOM     89  C   UNL A   1      43.524  38.422  29.075  1.00  0.00     0.198 A 
ATOM     90  F   UNL A   1      44.075  36.888  30.736  1.00  0.00    -0.203 F 
ATOM     91  F   UNL A   1      41.271  38.191  26.262  1.00  0.00    -0.200 F 
ATOM     92  C   UNL A   1      42.807  38.778  27.950  1.00  0.00     0.200 A 
ATOM     93  F   UNL A   1      44.335  39.310  29.666  1.00  0.00    -0.200 F 
ATOM     94  F   UNL A   1      42.903  40.021  27.457  1.00  0.00    -0.200 F 
ENDBRANCH  61  84
ENDBRANCH  35  36
ENDBRANCH  27  30
ENDBRANCH  25  26
ENDBRANCH  24  25
ENDBRANCH   1  24
TORSDOF 13
ENDMDL
