MODEL 1
REMARK VINA RESULT:     -12.6      0.000      0.000
REMARK SMILES COc1ccc(-n2c(=S)[nH]cc(CC(=O)NCCCNC(=O)c3ccc(-c4c5nc(c(-c6c(F)c(F)c(F)c(F)c6F)c6ccc([nH]6)c(-c6c(F)c(F)c(F)c(F)c6F)c6nc(c(-c7c(F)c(F)c(F)c(F)c7F)c7ccc4[nH]7)C=C6)C=C5)cc3)c2=O)cc1Cl
REMARK SMILES IDX 17 1 16 2 14 3 15 4 13 6 12 7 7 8 8 9 86 10 9 11 10 12 87 13
REMARK SMILES IDX 11 14 6 16 3 17 4 18 89 19 5 20 88 21 90 22 2 23 1 24 18 25
REMARK SMILES IDX 19 26 20 27 21 28 22 30 23 31 24 32 85 33 25 34 84 35 26 36
REMARK SMILES IDX 27 37 28 38 78 39 29 40 83 41 77 42 79 43 30 44 82 45 76 46
REMARK SMILES IDX 75 47 31 49 63 50 43 51 62 52 44 53 47 54 61 55 80 56 45 57
REMARK SMILES IDX 46 58 60 60 81 61 48 62 32 63 33 64 41 65 34 66 35 67 39 68
REMARK SMILES IDX 42 69 36 70 37 71 40 72 38 73 64 74 65 75 73 76 66 77 67 78
REMARK SMILES IDX 71 79 74 80 68 81 69 82 72 83 70 84 49 85 50 86 58 87 51 88
REMARK SMILES IDX 52 89 56 90 59 91 53 92 54 93 57 94 55 95
REMARK H PARENT 16 5 10 15 20 29 79 48 47 59
REMARK Flexibility Score: inf
ROOT
ATOM      1  C   UNL A   1      31.748  30.582  26.091  1.00  0.00     0.117 C 
ENDROOT
BRANCH   1   2
ATOM      2  N   UNL A   1      32.976  30.049  26.656  1.00  0.00    -0.356 N 
ATOM      3  C   UNL A   1      33.654  28.911  26.329  1.00  0.00     0.224 C 
ATOM      4  O   UNL A   1      34.619  28.581  27.023  1.00  0.00    -0.275 OA
ATOM      5  H   UNL A   1      33.376  30.586  27.377  1.00  0.00     0.163 HD
BRANCH   3   6
ATOM      6  C   UNL A   1      33.200  28.061  25.152  1.00  0.00     0.142 C 
BRANCH   6   7
ATOM      7  C   UNL A   1      32.450  26.845  25.617  1.00  0.00     0.043 A 
ATOM      8  N   UNL A   1      32.225  24.384  25.597  1.00  0.00    -0.253 N 
ATOM      9  C   UNL A   1      31.024  24.492  26.321  1.00  0.00     0.184 A 
ATOM     10  C   UNL A   1      32.987  25.507  25.236  1.00  0.00     0.262 A 
ATOM     11  S   UNL A   1      30.034  23.274  26.923  1.00  0.00    -0.040 S 
ATOM     12  N   UNL A   1      30.629  25.769  26.637  1.00  0.00    -0.338 N 
ATOM     13  O   UNL A   1      34.030  25.466  24.582  1.00  0.00    -0.269 OA
ATOM     14  C   UNL A   1      31.310  26.897  26.310  1.00  0.00     0.095 A 
ATOM     15  H   UNL A   1      29.789  25.874  27.140  1.00  0.00     0.168 HD
BRANCH   8  16
ATOM     16  C   UNL A   1      32.755  23.097  25.221  1.00  0.00     0.053 A 
ATOM     17  C   UNL A   1      33.698  20.512  24.601  1.00  0.00     0.137 A 
ATOM     18  C   UNL A   1      34.173  21.186  25.728  1.00  0.00     0.050 A 
ATOM     19  C   UNL A   1      32.765  21.138  23.769  1.00  0.00     0.085 A 
ATOM     20  C   UNL A   1      33.720  22.474  26.027  1.00  0.00     0.031 A 
ATOM     21  C   UNL A   1      32.310  22.429  24.071  1.00  0.00     0.051 A 
ATOM     22  Cl  UNL A   1      32.078  20.362  22.386  1.00  0.00    -0.080 Cl
BRANCH  17  23
ATOM     23  O   UNL A   1      34.111  19.213  24.472  1.00  0.00    -0.495 OA
ATOM     24  C   UNL A   1      33.222  18.272  25.068  1.00  0.00     0.278 C 
ENDBRANCH  17  23
ENDBRANCH   8  16
ENDBRANCH   6   7
ENDBRANCH   3   6
ENDBRANCH   1   2
BRANCH   1  25
ATOM     25  C   UNL A   1      31.476  32.011  26.556  1.00  0.00     0.042 C 
BRANCH  25  26
ATOM     26  C   UNL A   1      32.655  32.675  27.263  1.00  0.00     0.118 C 
BRANCH  26  27
ATOM     27  N   UNL A   1      32.395  34.061  27.627  1.00  0.00    -0.352 N 
ATOM     28  C   UNL A   1      33.009  34.861  28.562  1.00  0.00     0.251 C 
ATOM     29  H   UNL A   1      31.666  34.492  27.125  1.00  0.00     0.163 HD
ATOM     30  O   UNL A   1      32.541  35.968  28.817  1.00  0.00    -0.269 OA
BRANCH  28  31
ATOM     31  C   UNL A   1      34.205  34.386  29.292  1.00  0.00     0.039 A 
ATOM     32  C   UNL A   1      35.490  34.588  28.784  1.00  0.00     0.014 A 
ATOM     33  C   UNL A   1      34.033  33.724  30.512  1.00  0.00     0.014 A 
ATOM     34  C   UNL A   1      36.579  33.977  29.399  1.00  0.00     0.010 A 
ATOM     35  C   UNL A   1      35.140  33.182  31.172  1.00  0.00     0.010 A 
ATOM     36  C   UNL A   1      36.415  33.255  30.593  1.00  0.00    -0.014 A 
BRANCH  36  37
ATOM     37  C   UNL A   1      37.583  32.562  31.197  1.00  0.00     0.031 A 
ATOM     38  C   UNL A   1      38.042  32.907  32.588  1.00  0.00     0.074 A 
ATOM     39  C   UNL A   1      38.200  31.580  30.513  1.00  0.00     0.049 A 
ATOM     40  N   UNL A   1      39.020  32.388  33.289  1.00  0.00    -0.248 NA
ATOM     41  C   UNL A   1      37.313  33.978  33.285  1.00  0.00     0.031 C 
ATOM     42  C   UNL A   1      37.849  31.152  29.160  1.00  0.00     0.029 A 
ATOM     43  N   UNL A   1      39.234  30.751  30.869  1.00  0.00    -0.354 N 
ATOM     44  C   UNL A   1      39.035  33.080  34.493  1.00  0.00     0.074 A 
ATOM     45  C   UNL A   1      37.989  34.077  34.420  1.00  0.00     0.031 C 
ATOM     46  C   UNL A   1      38.618  30.108  28.817  1.00  0.00     0.029 A 
ATOM     47  C   UNL A   1      39.553  29.829  29.903  1.00  0.00     0.049 A 
ATOM     48  H   UNL A   1      39.702  30.812  31.732  1.00  0.00     0.167 HD
ATOM     49  C   UNL A   1      39.838  32.889  35.568  1.00  0.00     0.037 A 
ATOM     50  C   UNL A   1      40.499  28.870  29.888  1.00  0.00     0.037 A 
ATOM     51  C   UNL A   1      40.857  31.876  35.653  1.00  0.00     0.049 A 
ATOM     52  C   UNL A   1      41.395  28.697  31.080  1.00  0.00     0.074 A 
ATOM     53  C   UNL A   1      41.686  31.576  36.719  1.00  0.00     0.029 A 
ATOM     54  N   UNL A   1      41.187  30.997  34.631  1.00  0.00    -0.354 N 
ATOM     55  N   UNL A   1      41.384  29.343  32.219  1.00  0.00    -0.248 NA
ATOM     56  C   UNL A   1      42.440  27.669  30.980  1.00  0.00     0.031 C 
ATOM     57  C   UNL A   1      42.550  30.548  36.328  1.00  0.00     0.029 A 
ATOM     58  C   UNL A   1      42.227  30.174  35.033  1.00  0.00     0.049 A 
ATOM     59  H   UNL A   1      40.747  30.964  33.751  1.00  0.00     0.167 HD
ATOM     60  C   UNL A   1      42.415  28.802  32.975  1.00  0.00     0.074 A 
ATOM     61  C   UNL A   1      43.016  27.756  32.172  1.00  0.00     0.031 C 
ATOM     62  C   UNL A   1      42.827  29.147  34.219  1.00  0.00     0.037 A 
BRANCH  49  63
ATOM     63  C   UNL A   1      39.658  33.807  36.744  1.00  0.00     0.064 A 
ATOM     64  C   UNL A   1      38.843  33.461  37.832  1.00  0.00     0.173 A 
ATOM     65  C   UNL A   1      40.351  35.025  36.803  1.00  0.00     0.173 A 
ATOM     66  F   UNL A   1      38.153  32.310  37.818  1.00  0.00    -0.203 F 
ATOM     67  C   UNL A   1      38.711  34.311  38.927  1.00  0.00     0.198 A 
ATOM     68  C   UNL A   1      40.238  35.861  37.912  1.00  0.00     0.198 A 
ATOM     69  F   UNL A   1      41.149  35.400  35.793  1.00  0.00    -0.203 F 
ATOM     70  F   UNL A   1      37.901  33.976  39.940  1.00  0.00    -0.200 F 
ATOM     71  C   UNL A   1      39.415  35.506  38.970  1.00  0.00     0.200 A 
ATOM     72  F   UNL A   1      40.930  37.009  37.958  1.00  0.00    -0.200 F 
ATOM     73  F   UNL A   1      39.298  36.318  40.030  1.00  0.00    -0.200 F 
ENDBRANCH  49  63
BRANCH  50  74
ATOM     74  C   UNL A   1      40.625  27.999  28.691  1.00  0.00     0.064 A 
ATOM     75  C   UNL A   1      39.927  26.788  28.607  1.00  0.00     0.173 A 
ATOM     76  C   UNL A   1      41.395  28.390  27.587  1.00  0.00     0.173 A 
ATOM     77  F   UNL A   1      39.194  26.364  29.648  1.00  0.00    -0.203 F 
ATOM     78  C   UNL A   1      39.991  26.001  27.459  1.00  0.00     0.198 A 
ATOM     79  C   UNL A   1      41.437  27.616  26.430  1.00  0.00     0.198 A 
ATOM     80  F   UNL A   1      42.078  29.544  27.619  1.00  0.00    -0.203 F 
ATOM     81  F   UNL A   1      39.327  24.838  27.409  1.00  0.00    -0.200 F 
ATOM     82  C   UNL A   1      40.736  26.421  26.367  1.00  0.00     0.200 A 
ATOM     83  F   UNL A   1      42.145  28.035  25.371  1.00  0.00    -0.200 F 
ATOM     84  F   UNL A   1      40.777  25.676  25.254  1.00  0.00    -0.200 F 
ENDBRANCH  50  74
BRANCH  62  85
ATOM     85  C   UNL A   1      43.991  28.396  34.795  1.00  0.00     0.064 A 
ATOM     86  C   UNL A   1      45.302  28.876  34.668  1.00  0.00     0.173 A 
ATOM     87  C   UNL A   1      43.788  27.223  35.537  1.00  0.00     0.173 A 
ATOM     88  F   UNL A   1      45.548  29.986  33.955  1.00  0.00    -0.203 F 
ATOM     89  C   UNL A   1      46.370  28.203  35.254  1.00  0.00     0.198 A 
ATOM     90  C   UNL A   1      44.855  26.566  36.143  1.00  0.00     0.198 A 
ATOM     91  F   UNL A   1      42.552  26.726  35.692  1.00  0.00    -0.203 F 
ATOM     92  F   UNL A   1      47.619  28.663  35.093  1.00  0.00    -0.200 F 
ATOM     93  C   UNL A   1      46.145  27.055  35.999  1.00  0.00     0.200 A 
ATOM     94  F   UNL A   1      44.635  25.463  36.873  1.00  0.00    -0.200 F 
ATOM     95  F   UNL A   1      47.173  26.416  36.574  1.00  0.00    -0.200 F 
ENDBRANCH  62  85
ENDBRANCH  36  37
ENDBRANCH  28  31
ENDBRANCH  26  27
ENDBRANCH  25  26
ENDBRANCH   1  25
TORSDOF 13
ENDMDL
MODEL 2
REMARK VINA RESULT:     -12.6      0.244      7.436
REMARK SMILES COc1ccc(-n2c(=S)[nH]cc(CC(=O)NCCCNC(=O)c3ccc(-c4c5nc(c(-c6c(F)c(F)c(F)c(F)c6F)c6ccc([nH]6)c(-c6c(F)c(F)c(F)c(F)c6F)c6nc(c(-c7c(F)c(F)c(F)c(F)c7F)c7ccc4[nH]7)C=C6)C=C5)cc3)c2=O)cc1Cl
REMARK SMILES IDX 17 1 16 2 14 3 15 4 13 6 12 7 7 8 8 9 86 10 9 11 10 12 87 13
REMARK SMILES IDX 11 14 6 16 3 17 4 18 89 19 5 20 88 21 90 22 2 23 1 24 18 25
REMARK SMILES IDX 19 26 20 27 21 28 22 30 23 31 24 32 85 33 25 34 84 35 26 36
REMARK SMILES IDX 27 37 28 38 78 39 29 40 83 41 77 42 79 43 30 44 82 45 76 46
REMARK SMILES IDX 75 47 31 49 63 50 43 51 62 52 44 53 47 54 61 55 80 56 45 57
REMARK SMILES IDX 46 58 60 60 81 61 48 62 32 63 33 64 41 65 34 66 35 67 39 68
REMARK SMILES IDX 42 69 36 70 37 71 40 72 38 73 64 74 65 75 73 76 66 77 67 78
REMARK SMILES IDX 71 79 74 80 68 81 69 82 72 83 70 84 49 85 50 86 58 87 51 88
REMARK SMILES IDX 52 89 56 90 59 91 53 92 54 93 57 94 55 95
REMARK H PARENT 16 5 10 15 20 29 79 48 47 59
REMARK Flexibility Score: inf
ROOT
ATOM      1  C   UNL A   1      31.711  30.711  26.124  1.00  0.00     0.117 C 
ENDROOT
BRANCH   1   2
ATOM      2  N   UNL A   1      32.954  30.185  26.664  1.00  0.00    -0.356 N 
ATOM      3  C   UNL A   1      33.641  29.061  26.311  1.00  0.00     0.224 C 
ATOM      4  O   UNL A   1      34.619  28.733  26.985  1.00  0.00    -0.275 OA
ATOM      5  H   UNL A   1      33.358  30.717  27.386  1.00  0.00     0.163 HD
BRANCH   3   6
ATOM      6  C   UNL A   1      33.179  28.222  25.129  1.00  0.00     0.142 C 
BRANCH   6   7
ATOM      7  C   UNL A   1      32.419  27.009  25.586  1.00  0.00     0.043 A 
ATOM      8  N   UNL A   1      32.186  24.549  25.568  1.00  0.00    -0.253 N 
ATOM      9  C   UNL A   1      30.976  24.663  26.277  1.00  0.00     0.184 A 
ATOM     10  C   UNL A   1      32.956  25.668  25.215  1.00  0.00     0.262 A 
ATOM     11  S   UNL A   1      29.974  23.449  26.868  1.00  0.00    -0.040 S 
ATOM     12  N   UNL A   1      30.582  25.942  26.585  1.00  0.00    -0.338 N 
ATOM     13  O   UNL A   1      34.008  25.623  24.576  1.00  0.00    -0.269 OA
ATOM     14  C   UNL A   1      31.270  27.066  26.264  1.00  0.00     0.095 A 
ATOM     15  H   UNL A   1      29.735  26.051  27.076  1.00  0.00     0.168 HD
BRANCH   8  16
ATOM     16  C   UNL A   1      32.716  23.260  25.203  1.00  0.00     0.053 A 
ATOM     17  C   UNL A   1      33.657  20.670  24.599  1.00  0.00     0.137 A 
ATOM     18  C   UNL A   1      34.105  21.335  25.742  1.00  0.00     0.050 A 
ATOM     19  C   UNL A   1      32.753  21.306  23.743  1.00  0.00     0.085 A 
ATOM     20  C   UNL A   1      33.653  22.626  26.033  1.00  0.00     0.031 A 
ATOM     21  C   UNL A   1      32.299  22.599  24.038  1.00  0.00     0.051 A 
ATOM     22  Cl  UNL A   1      32.100  20.541  22.338  1.00  0.00    -0.080 Cl
BRANCH  17  23
ATOM     23  O   UNL A   1      34.064  19.368  24.477  1.00  0.00    -0.495 OA
ATOM     24  C   UNL A   1      33.131  18.429  25.005  1.00  0.00     0.278 C 
ENDBRANCH  17  23
ENDBRANCH   8  16
ENDBRANCH   6   7
ENDBRANCH   3   6
ENDBRANCH   1   2
BRANCH   1  25
ATOM     25  C   UNL A   1      31.478  32.164  26.534  1.00  0.00     0.042 C 
BRANCH  25  26
ATOM     26  C   UNL A   1      32.650  32.803  27.274  1.00  0.00     0.118 C 
BRANCH  26  27
ATOM     27  N   UNL A   1      32.406  34.191  27.640  1.00  0.00    -0.352 N 
ATOM     28  C   UNL A   1      32.994  34.968  28.610  1.00  0.00     0.251 C 
ATOM     29  H   UNL A   1      31.712  34.645  27.108  1.00  0.00     0.163 HD
ATOM     30  O   UNL A   1      32.541  36.083  28.854  1.00  0.00    -0.269 OA
BRANCH  28  31
ATOM     31  C   UNL A   1      34.143  34.457  29.391  1.00  0.00     0.039 A 
ATOM     32  C   UNL A   1      35.448  34.547  28.901  1.00  0.00     0.014 A 
ATOM     33  C   UNL A   1      33.906  33.876  30.640  1.00  0.00     0.014 A 
ATOM     34  C   UNL A   1      36.483  33.902  29.571  1.00  0.00     0.010 A 
ATOM     35  C   UNL A   1      34.962  33.301  31.354  1.00  0.00     0.010 A 
ATOM     36  C   UNL A   1      36.250  33.259  30.798  1.00  0.00    -0.014 A 
BRANCH  36  37
ATOM     37  C   UNL A   1      37.359  32.527  31.465  1.00  0.00     0.031 A 
ATOM     38  C   UNL A   1      38.089  31.424  30.746  1.00  0.00     0.074 A 
ATOM     39  C   UNL A   1      37.748  32.892  32.701  1.00  0.00     0.049 A 
ATOM     40  N   UNL A   1      39.098  30.696  31.157  1.00  0.00    -0.248 NA
ATOM     41  C   UNL A   1      37.622  31.087  29.392  1.00  0.00     0.031 C 
ATOM     42  C   UNL A   1      37.123  33.946  33.500  1.00  0.00     0.029 A 
ATOM     43  N   UNL A   1      38.772  32.436  33.492  1.00  0.00    -0.354 N 
ATOM     44  C   UNL A   1      39.373  29.808  30.125  1.00  0.00     0.074 A 
ATOM     45  C   UNL A   1      38.405  30.064  29.079  1.00  0.00     0.031 C 
ATOM     46  C   UNL A   1      37.806  34.091  34.644  1.00  0.00     0.029 A 
ATOM     47  C   UNL A   1      38.881  33.104  34.686  1.00  0.00     0.049 A 
ATOM     48  H   UNL A   1      39.370  31.700  33.229  1.00  0.00     0.167 HD
ATOM     49  C   UNL A   1      40.352  28.875  30.050  1.00  0.00     0.037 A 
ATOM     50  C   UNL A   1      39.745  32.938  35.706  1.00  0.00     0.037 A 
ATOM     51  C   UNL A   1      41.334  28.642  31.076  1.00  0.00     0.049 A 
ATOM     52  C   UNL A   1      40.804  31.878  35.611  1.00  0.00     0.074 A 
ATOM     53  C   UNL A   1      42.394  27.752  31.069  1.00  0.00     0.029 A 
ATOM     54  N   UNL A   1      41.377  29.303  32.296  1.00  0.00    -0.354 N 
ATOM     55  N   UNL A   1      41.066  31.060  34.621  1.00  0.00    -0.248 NA
ATOM     56  C   UNL A   1      41.681  31.711  36.778  1.00  0.00     0.031 C 
ATOM     57  C   UNL A   1      43.050  27.841  32.301  1.00  0.00     0.029 A 
ATOM     58  C   UNL A   1      42.427  28.819  33.059  1.00  0.00     0.049 A 
ATOM     59  H   UNL A   1      40.752  30.010  32.577  1.00  0.00     0.167 HD
ATOM     60  C   UNL A   1      42.136  30.284  35.040  1.00  0.00     0.074 A 
ATOM     61  C   UNL A   1      42.492  30.745  36.367  1.00  0.00     0.031 C 
ATOM     62  C   UNL A   1      42.762  29.276  34.385  1.00  0.00     0.037 A 
BRANCH  49  63
ATOM     63  C   UNL A   1      40.407  28.020  28.816  1.00  0.00     0.064 A 
ATOM     64  C   UNL A   1      41.151  28.398  27.689  1.00  0.00     0.173 A 
ATOM     65  C   UNL A   1      39.747  26.782  28.783  1.00  0.00     0.173 A 
ATOM     66  F   UNL A   1      41.793  29.576  27.669  1.00  0.00    -0.203 F 
ATOM     67  C   UNL A   1      41.215  27.577  26.565  1.00  0.00     0.198 A 
ATOM     68  C   UNL A   1      39.835  25.953  27.667  1.00  0.00     0.198 A 
ATOM     69  F   UNL A   1      39.028  26.370  29.838  1.00  0.00    -0.203 F 
ATOM     70  F   UNL A   1      41.904  27.973  25.486  1.00  0.00    -0.200 F 
ATOM     71  C   UNL A   1      40.563  26.353  26.558  1.00  0.00     0.200 A 
ATOM     72  F   UNL A   1      39.216  24.763  27.669  1.00  0.00    -0.200 F 
ATOM     73  F   UNL A   1      40.636  25.558  25.481  1.00  0.00    -0.200 F 
ENDBRANCH  49  63
BRANCH  50  74
ATOM     74  C   UNL A   1      39.633  33.816  36.898  1.00  0.00     0.064 A 
ATOM     75  C   UNL A   1      40.225  35.085  36.914  1.00  0.00     0.173 A 
ATOM     76  C   UNL A   1      38.881  33.429  38.017  1.00  0.00     0.173 A 
ATOM     77  F   UNL A   1      40.970  35.489  35.874  1.00  0.00    -0.203 F 
ATOM     78  C   UNL A   1      40.066  35.937  38.004  1.00  0.00     0.198 A 
ATOM     79  C   UNL A   1      38.700  34.292  39.095  1.00  0.00     0.198 A 
ATOM     80  F   UNL A   1      38.291  32.224  38.045  1.00  0.00    -0.203 F 
ATOM     81  F   UNL A   1      40.656  37.140  38.004  1.00  0.00    -0.200 F 
ATOM     82  C   UNL A   1      39.294  35.545  39.088  1.00  0.00     0.200 A 
ATOM     83  F   UNL A   1      37.939  33.915  40.132  1.00  0.00    -0.200 F 
ATOM     84  F   UNL A   1      39.120  36.375  40.126  1.00  0.00    -0.200 F 
ENDBRANCH  50  74
BRANCH  62  85
ATOM     85  C   UNL A   1      43.895  28.590  35.090  1.00  0.00     0.064 A 
ATOM     86  C   UNL A   1      43.671  27.483  35.921  1.00  0.00     0.173 A 
ATOM     87  C   UNL A   1      45.220  29.000  34.881  1.00  0.00     0.173 A 
ATOM     88  F   UNL A   1      42.420  27.063  36.163  1.00  0.00    -0.203 F 
ATOM     89  C   UNL A   1      44.733  26.817  36.526  1.00  0.00     0.198 A 
ATOM     90  C   UNL A   1      46.281  28.317  35.468  1.00  0.00     0.198 A 
ATOM     91  F   UNL A   1      45.487  30.050  34.091  1.00  0.00    -0.203 F 
ATOM     92  F   UNL A   1      44.495  25.781  37.343  1.00  0.00    -0.200 F 
ATOM     93  C   UNL A   1      46.037  27.228  36.292  1.00  0.00     0.200 A 
ATOM     94  F   UNL A   1      47.541  28.708  35.231  1.00  0.00    -0.200 F 
ATOM     95  F   UNL A   1      47.059  26.578  36.865  1.00  0.00    -0.200 F 
ENDBRANCH  62  85
ENDBRANCH  36  37
ENDBRANCH  28  31
ENDBRANCH  26  27
ENDBRANCH  25  26
ENDBRANCH   1  25
TORSDOF 13
ENDMDL
MODEL 3
REMARK VINA RESULT:     -12.4      1.218      2.104
REMARK SMILES COc1ccc(-n2c(=S)[nH]cc(CC(=O)NCCCNC(=O)c3ccc(-c4c5nc(c(-c6c(F)c(F)c(F)c(F)c6F)c6ccc([nH]6)c(-c6c(F)c(F)c(F)c(F)c6F)c6nc(c(-c7c(F)c(F)c(F)c(F)c7F)c7ccc4[nH]7)C=C6)C=C5)cc3)c2=O)cc1Cl
REMARK SMILES IDX 17 1 16 2 14 3 15 4 13 6 12 7 7 8 8 9 86 10 9 11 10 12 87 13
REMARK SMILES IDX 11 14 6 16 3 17 4 18 89 19 5 20 88 21 90 22 2 23 1 24 18 25
REMARK SMILES IDX 19 26 20 27 21 28 22 30 23 31 24 32 85 33 25 34 84 35 26 36
REMARK SMILES IDX 27 37 28 38 78 39 29 40 83 41 77 42 79 43 30 44 82 45 76 46
REMARK SMILES IDX 75 47 31 49 63 50 43 51 62 52 44 53 47 54 61 55 80 56 45 57
REMARK SMILES IDX 46 58 60 60 81 61 48 62 32 63 33 64 41 65 34 66 35 67 39 68
REMARK SMILES IDX 42 69 36 70 37 71 40 72 38 73 64 74 65 75 73 76 66 77 67 78
REMARK SMILES IDX 71 79 74 80 68 81 69 82 72 83 70 84 49 85 50 86 58 87 51 88
REMARK SMILES IDX 52 89 56 90 59 91 53 92 54 93 57 94 55 95
REMARK H PARENT 16 5 10 15 20 29 79 48 47 59
REMARK Flexibility Score: inf
ROOT
ATOM      1  C   UNL A   1      31.664  30.857  25.939  1.00  0.00     0.117 C 
ENDROOT
BRANCH   1   2
ATOM      2  N   UNL A   1      31.667  29.786  26.922  1.00  0.00    -0.356 N 
ATOM      3  C   UNL A   1      32.530  28.737  27.052  1.00  0.00     0.224 C 
ATOM      4  O   UNL A   1      32.277  27.869  27.890  1.00  0.00    -0.275 OA
ATOM      5  H   UNL A   1      30.944  29.823  27.587  1.00  0.00     0.163 HD
BRANCH   3   6
ATOM      6  C   UNL A   1      33.756  28.638  26.157  1.00  0.00     0.142 C 
BRANCH   6   7
ATOM      7  C   UNL A   1      33.491  27.757  24.969  1.00  0.00     0.043 A 
ATOM      8  N   UNL A   1      33.667  25.518  23.936  1.00  0.00    -0.253 N 
ATOM      9  C   UNL A   1      33.166  26.040  22.730  1.00  0.00     0.184 A 
ATOM     10  C   UNL A   1      33.831  26.309  25.085  1.00  0.00     0.262 A 
ATOM     11  S   UNL A   1      32.811  25.241  21.294  1.00  0.00    -0.040 S 
ATOM     12  N   UNL A   1      32.867  27.381  22.737  1.00  0.00    -0.338 N 
ATOM     13  O   UNL A   1      34.287  25.906  26.156  1.00  0.00    -0.269 OA
ATOM     14  C   UNL A   1      33.013  28.205  23.805  1.00  0.00     0.095 A 
ATOM     15  H   UNL A   1      32.520  27.773  21.903  1.00  0.00     0.168 HD
BRANCH   8  16
ATOM     16  C   UNL A   1      34.000  24.122  24.062  1.00  0.00     0.053 A 
ATOM     17  C   UNL A   1      34.721  21.423  24.452  1.00  0.00     0.137 A 
ATOM     18  C   UNL A   1      35.678  22.359  24.057  1.00  0.00     0.050 A 
ATOM     19  C   UNL A   1      33.395  21.829  24.633  1.00  0.00     0.085 A 
ATOM     20  C   UNL A   1      35.319  23.694  23.846  1.00  0.00     0.031 A 
ATOM     21  C   UNL A   1      33.038  23.168  24.423  1.00  0.00     0.051 A 
ATOM     22  Cl  UNL A   1      32.155  20.755  25.175  1.00  0.00    -0.080 Cl
BRANCH  17  23
ATOM     23  O   UNL A   1      35.203  20.177  24.751  1.00  0.00    -0.495 OA
ATOM     24  C   UNL A   1      36.606  20.155  25.004  1.00  0.00     0.278 C 
ENDBRANCH  17  23
ENDBRANCH   8  16
ENDBRANCH   6   7
ENDBRANCH   3   6
ENDBRANCH   1   2
BRANCH   1  25
ATOM     25  C   UNL A   1      31.362  32.214  26.572  1.00  0.00     0.042 C 
BRANCH  25  26
ATOM     26  C   UNL A   1      32.549  32.850  27.291  1.00  0.00     0.118 C 
BRANCH  26  27
ATOM     27  N   UNL A   1      32.305  34.230  27.686  1.00  0.00    -0.352 N 
ATOM     28  C   UNL A   1      32.942  35.009  28.623  1.00  0.00     0.251 C 
ATOM     29  H   UNL A   1      31.570  34.675  27.206  1.00  0.00     0.163 HD
ATOM     30  O   UNL A   1      32.486  36.113  28.908  1.00  0.00    -0.269 OA
BRANCH  28  31
ATOM     31  C   UNL A   1      34.149  34.512  29.321  1.00  0.00     0.039 A 
ATOM     32  C   UNL A   1      35.422  34.677  28.772  1.00  0.00     0.014 A 
ATOM     33  C   UNL A   1      33.999  33.869  30.554  1.00  0.00     0.014 A 
ATOM     34  C   UNL A   1      36.514  34.046  29.360  1.00  0.00     0.010 A 
ATOM     35  C   UNL A   1      35.113  33.307  31.187  1.00  0.00     0.010 A 
ATOM     36  C   UNL A   1      36.371  33.342  30.566  1.00  0.00    -0.014 A 
BRANCH  36  37
ATOM     37  C   UNL A   1      37.540  32.628  31.143  1.00  0.00     0.031 A 
ATOM     38  C   UNL A   1      38.033  32.957  32.526  1.00  0.00     0.074 A 
ATOM     39  C   UNL A   1      38.126  31.639  30.441  1.00  0.00     0.049 A 
ATOM     40  N   UNL A   1      39.018  32.419  33.202  1.00  0.00    -0.248 NA
ATOM     41  C   UNL A   1      37.336  34.037  33.243  1.00  0.00     0.031 C 
ATOM     42  C   UNL A   1      37.740  31.224  29.093  1.00  0.00     0.029 A 
ATOM     43  N   UNL A   1      39.155  30.792  30.770  1.00  0.00    -0.354 N 
ATOM     44  C   UNL A   1      39.069  33.105  34.410  1.00  0.00     0.074 A 
ATOM     45  C   UNL A   1      38.037  34.119  34.364  1.00  0.00     0.031 C 
ATOM     46  C   UNL A   1      38.484  30.170  28.729  1.00  0.00     0.029 A 
ATOM     47  C   UNL A   1      39.438  29.871  29.794  1.00  0.00     0.049 A 
ATOM     48  H   UNL A   1      39.641  30.841  31.624  1.00  0.00     0.167 HD
ATOM     49  C   UNL A   1      39.891  32.896  35.466  1.00  0.00     0.037 A 
ATOM     50  C   UNL A   1      40.367  28.897  29.753  1.00  0.00     0.037 A 
ATOM     51  C   UNL A   1      40.895  31.866  35.525  1.00  0.00     0.049 A 
ATOM     52  C   UNL A   1      41.286  28.703  30.925  1.00  0.00     0.074 A 
ATOM     53  C   UNL A   1      41.742  31.547  36.572  1.00  0.00     0.029 A 
ATOM     54  N   UNL A   1      41.189  30.988  34.492  1.00  0.00    -0.354 N 
ATOM     55  N   UNL A   1      41.310  29.343  32.068  1.00  0.00    -0.248 NA
ATOM     56  C   UNL A   1      42.312  27.659  30.799  1.00  0.00     0.031 C 
ATOM     57  C   UNL A   1      42.580  30.507  36.157  1.00  0.00     0.029 A 
ATOM     58  C   UNL A   1      42.225  30.146  34.867  1.00  0.00     0.049 A 
ATOM     59  H   UNL A   1      40.731  30.966  33.621  1.00  0.00     0.167 HD
ATOM     60  C   UNL A   1      42.347  28.782  32.799  1.00  0.00     0.074 A 
ATOM     61  C   UNL A   1      42.914  27.731  31.979  1.00  0.00     0.031 C 
ATOM     62  C   UNL A   1      42.791  29.114  34.036  1.00  0.00     0.037 A 
BRANCH  49  63
ATOM     63  C   UNL A   1      39.750  33.810  36.650  1.00  0.00     0.064 A 
ATOM     64  C   UNL A   1      40.396  35.054  36.702  1.00  0.00     0.173 A 
ATOM     65  C   UNL A   1      38.918  33.456  37.723  1.00  0.00     0.173 A 
ATOM     66  F   UNL A   1      41.209  35.433  35.705  1.00  0.00    -0.203 F 
ATOM     67  C   UNL A   1      40.229  35.902  37.795  1.00  0.00     0.198 A 
ATOM     68  C   UNL A   1      38.733  34.318  38.801  1.00  0.00     0.198 A 
ATOM     69  F   UNL A   1      38.271  32.281  37.719  1.00  0.00    -0.203 F 
ATOM     70  F   UNL A   1      40.882  37.071  37.840  1.00  0.00    -0.200 F 
ATOM     71  C   UNL A   1      39.392  35.537  38.839  1.00  0.00     0.200 A 
ATOM     72  F   UNL A   1      37.912  33.969  39.803  1.00  0.00    -0.200 F 
ATOM     73  F   UNL A   1      39.223  36.359  39.885  1.00  0.00    -0.200 F 
ENDBRANCH  49  63
BRANCH  50  74
ATOM     74  C   UNL A   1      40.454  28.030  28.550  1.00  0.00     0.064 A 
ATOM     75  C   UNL A   1      41.227  28.410  27.445  1.00  0.00     0.173 A 
ATOM     76  C   UNL A   1      39.818  26.781  28.507  1.00  0.00     0.173 A 
ATOM     77  F   UNL A   1      41.837  29.605  27.434  1.00  0.00    -0.203 F 
ATOM     78  C   UNL A   1      41.364  27.570  26.343  1.00  0.00     0.198 A 
ATOM     79  C   UNL A   1      39.977  25.931  27.416  1.00  0.00     0.198 A 
ATOM     80  F   UNL A   1      39.071  26.372  29.543  1.00  0.00    -0.203 F 
ATOM     81  F   UNL A   1      42.095  27.963  25.291  1.00  0.00    -0.200 F 
ATOM     82  C   UNL A   1      40.749  26.326  26.334  1.00  0.00     0.200 A 
ATOM     83  F   UNL A   1      39.395  24.724  27.420  1.00  0.00    -0.200 F 
ATOM     84  F   UNL A   1      40.902  25.508  25.284  1.00  0.00    -0.200 F 
ENDBRANCH  50  74
BRANCH  62  85
ATOM     85  C   UNL A   1      43.954  28.341  34.583  1.00  0.00     0.064 A 
ATOM     86  C   UNL A   1      45.268  28.810  34.447  1.00  0.00     0.173 A 
ATOM     87  C   UNL A   1      43.749  27.158  35.308  1.00  0.00     0.173 A 
ATOM     88  F   UNL A   1      45.516  29.930  33.750  1.00  0.00    -0.203 F 
ATOM     89  C   UNL A   1      46.337  28.117  35.007  1.00  0.00     0.198 A 
ATOM     90  C   UNL A   1      44.818  26.480  35.888  1.00  0.00     0.198 A 
ATOM     91  F   UNL A   1      42.511  26.670  35.471  1.00  0.00    -0.203 F 
ATOM     92  F   UNL A   1      47.589  28.566  34.837  1.00  0.00    -0.200 F 
ATOM     93  C   UNL A   1      46.111  26.958  35.735  1.00  0.00     0.200 A 
ATOM     94  F   UNL A   1      44.596  25.367  36.602  1.00  0.00    -0.200 F 
ATOM     95  F   UNL A   1      47.139  26.299  36.286  1.00  0.00    -0.200 F 
ENDBRANCH  62  85
ENDBRANCH  36  37
ENDBRANCH  28  31
ENDBRANCH  26  27
ENDBRANCH  25  26
ENDBRANCH   1  25
TORSDOF 13
ENDMDL
