MODEL 1
REMARK VINA RESULT:     -10.8      0.000      0.000
REMARK SMILES C[C@@H]([NH3+])CCC(=O)N[C@H]1C=C[C@@H](C(=O)NCCCNC(=O)c2ccc(-c3c4nc(c(-c5c(F)c(F)c(F)c(F)c5F)c5ccc([nH]5)c(-c5c(F)c(F)c(F)c(F)c5F)c5nc(c(-c6c(F)c(F)c(F)c(F)c6F)c6ccc3[nH]6)C=C5)C=C4)cc2)C1
REMARK SMILES IDX 13 1 14 2 15 3 12 5 9 6 10 7 85 8 11 9 8 10 6 11 7 12 5 14
REMARK SMILES IDX 4 15 2 16 1 17 3 18 16 22 17 23 18 24 19 25 20 26 21 28
REMARK SMILES IDX 22 29 23 30 84 31 24 32 83 33 25 34 26 35 27 36 77 37 28 38
REMARK SMILES IDX 82 39 76 40 78 41 29 42 81 43 75 44 74 45 30 47 62 48 42 49
REMARK SMILES IDX 61 50 43 51 46 52 60 53 79 54 44 55 45 56 59 58 80 59 47 60
REMARK SMILES IDX 31 61 32 62 40 63 33 64 34 65 38 66 41 67 35 68 36 69 39 70
REMARK SMILES IDX 37 71 63 72 64 73 72 74 65 75 66 76 70 77 73 78 67 79 68 80
REMARK SMILES IDX 71 81 69 82 48 83 49 84 57 85 50 86 51 87 55 88 58 89 52 90
REMARK SMILES IDX 53 91 56 92 54 93
REMARK H PARENT 15 4 8 13 3 19 3 20 3 21 19 27 78 46 46 57
REMARK Flexibility Score: inf
ROOT
ATOM      1  C   UNL A   1      41.056  22.265  27.809  1.00  0.00     0.227 C 
ATOM      2  O   UNL A   1      41.564  23.133  28.544  1.00  0.00    -0.274 OA
ATOM      3  N   UNL A   1      41.353  20.996  28.209  1.00  0.00    -0.356 N 
ATOM      4  H   UNL A   1      41.786  21.011  29.092  1.00  0.00     0.163 HD
ENDROOT
BRANCH   1   5
ATOM      5  C   UNL A   1      40.162  22.794  26.628  1.00  0.00     0.103 C 
ATOM      6  C   UNL A   1      37.782  22.514  25.853  1.00  0.00     0.106 C 
ATOM      7  C   UNL A   1      38.124  23.928  26.169  1.00  0.00    -0.006 C 
ATOM      8  C   UNL A   1      39.090  21.739  26.165  1.00  0.00     0.047 C 
ATOM      9  C   UNL A   1      39.392  24.078  26.592  1.00  0.00    -0.016 C 
BRANCH   6  10
ATOM     10  N   UNL A   1      36.389  22.094  26.210  1.00  0.00    -0.350 N 
ATOM     11  C   UNL A   1      35.224  21.462  25.935  1.00  0.00     0.220 C 
ATOM     12  O   UNL A   1      34.459  21.442  26.919  1.00  0.00    -0.275 OA
ATOM     13  H   UNL A   1      36.248  22.475  27.107  1.00  0.00     0.164 HD
BRANCH  11  14
ATOM     14  C   UNL A   1      34.709  20.716  24.699  1.00  0.00     0.106 C 
BRANCH  14  15
ATOM     15  C   UNL A   1      33.221  20.368  24.631  1.00  0.00     0.074 C 
BRANCH  15  16
ATOM     16  C   UNL A   1      33.052  18.917  24.983  1.00  0.00     0.178 C 
ATOM     17  C   UNL A   1      34.218  18.167  24.371  1.00  0.00     0.075 C 
BRANCH  16  18
ATOM     18  N   UNL A   1      32.901  18.646  26.407  1.00  0.00    -0.355 N 
ATOM     19  H   UNL A   1      33.739  18.180  26.755  1.00  0.00     0.344 HD
ATOM     20  H   UNL A   1      32.091  18.045  26.555  1.00  0.00     0.344 HD
ATOM     21  H   UNL A   1      32.770  19.526  26.908  1.00  0.00     0.344 HD
ENDBRANCH  16  18
ENDBRANCH  15  16
ENDBRANCH  14  15
ENDBRANCH  11  14
ENDBRANCH   6  10
ENDBRANCH   1   5
BRANCH   3  22
ATOM     22  C   UNL A   1      41.225  19.601  27.720  1.00  0.00     0.117 C 
BRANCH  22  23
ATOM     23  C   UNL A   1      42.465  19.128  26.902  1.00  0.00     0.042 C 
BRANCH  23  24
ATOM     24  C   UNL A   1      42.468  19.045  25.372  1.00  0.00     0.118 C 
BRANCH  24  25
ATOM     25  N   UNL A   1      43.798  18.734  24.847  1.00  0.00    -0.352 N 
ATOM     26  C   UNL A   1      44.901  19.460  24.452  1.00  0.00     0.251 C 
ATOM     27  H   UNL A   1      43.939  17.765  24.753  1.00  0.00     0.163 HD
ATOM     28  O   UNL A   1      45.754  18.826  23.823  1.00  0.00    -0.269 OA
BRANCH  26  29
ATOM     29  C   UNL A   1      45.181  20.910  24.721  1.00  0.00     0.039 A 
ATOM     30  C   UNL A   1      45.569  21.258  26.032  1.00  0.00     0.014 A 
ATOM     31  C   UNL A   1      44.947  21.958  23.831  1.00  0.00     0.014 A 
ATOM     32  C   UNL A   1      45.712  22.598  26.442  1.00  0.00     0.010 A 
ATOM     33  C   UNL A   1      45.147  23.302  24.224  1.00  0.00     0.010 A 
ATOM     34  C   UNL A   1      45.510  23.647  25.538  1.00  0.00    -0.014 A 
BRANCH  34  35
ATOM     35  C   UNL A   1      45.622  25.085  25.962  1.00  0.00     0.031 A 
ATOM     36  C   UNL A   1      46.948  25.808  25.892  1.00  0.00     0.074 A 
ATOM     37  C   UNL A   1      44.553  25.758  26.439  1.00  0.00     0.049 A 
ATOM     38  N   UNL A   1      47.271  27.011  26.310  1.00  0.00    -0.248 NA
ATOM     39  C   UNL A   1      48.068  25.072  25.291  1.00  0.00     0.031 C 
ATOM     40  C   UNL A   1      43.204  25.215  26.576  1.00  0.00     0.029 A 
ATOM     41  N   UNL A   1      44.439  27.048  26.913  1.00  0.00    -0.354 N 
ATOM     42  C   UNL A   1      48.631  27.158  26.055  1.00  0.00     0.074 A 
ATOM     43  C   UNL A   1      49.079  25.908  25.476  1.00  0.00     0.031 C 
ATOM     44  C   UNL A   1      42.397  26.160  27.087  1.00  0.00     0.029 A 
ATOM     45  C   UNL A   1      43.176  27.367  27.353  1.00  0.00     0.049 A 
ATOM     46  H   UNL A   1      45.191  27.682  26.933  1.00  0.00     0.167 HD
ATOM     47  C   UNL A   1      49.434  28.232  26.266  1.00  0.00     0.037 A 
ATOM     48  C   UNL A   1      42.695  28.493  27.922  1.00  0.00     0.037 A 
ATOM     49  C   UNL A   1      48.994  29.498  26.796  1.00  0.00     0.049 A 
ATOM     50  C   UNL A   1      43.605  29.671  28.154  1.00  0.00     0.074 A 
ATOM     51  C   UNL A   1      49.731  30.657  26.984  1.00  0.00     0.029 A 
ATOM     52  N   UNL A   1      47.705  29.776  27.220  1.00  0.00    -0.354 N 
ATOM     53  N   UNL A   1      44.878  29.801  27.878  1.00  0.00    -0.248 NA
ATOM     54  C   UNL A   1      43.007  30.862  28.780  1.00  0.00     0.031 C 
ATOM     55  C   UNL A   1      48.897  31.622  27.560  1.00  0.00     0.029 A 
ATOM     56  C   UNL A   1      47.629  31.080  27.687  1.00  0.00     0.049 A 
ATOM     57  H   UNL A   1      46.952  29.141  27.194  1.00  0.00     0.167 HD
ATOM     58  C   UNL A   1      45.226  31.089  28.268  1.00  0.00     0.074 A 
ATOM     59  C   UNL A   1      44.026  31.707  28.789  1.00  0.00     0.031 C 
ATOM     60  C   UNL A   1      46.433  31.700  28.198  1.00  0.00     0.037 A 
BRANCH  47  61
ATOM     61  C   UNL A   1      50.891  28.087  25.924  1.00  0.00     0.064 A 
ATOM     62  C   UNL A   1      51.841  27.701  26.882  1.00  0.00     0.173 A 
ATOM     63  C   UNL A   1      51.338  28.298  24.609  1.00  0.00     0.173 A 
ATOM     64  F   UNL A   1      51.468  27.490  28.153  1.00  0.00    -0.203 F 
ATOM     65  C   UNL A   1      53.186  27.570  26.547  1.00  0.00     0.198 A 
ATOM     66  C   UNL A   1      52.679  28.135  24.271  1.00  0.00     0.198 A 
ATOM     67  F   UNL A   1      50.471  28.654  23.649  1.00  0.00    -0.203 F 
ATOM     68  F   UNL A   1      54.082  27.253  27.493  1.00  0.00    -0.200 F 
ATOM     69  C   UNL A   1      53.603  27.781  25.242  1.00  0.00     0.200 A 
ATOM     70  F   UNL A   1      53.078  28.324  23.006  1.00  0.00    -0.200 F 
ATOM     71  F   UNL A   1      54.898  27.651  24.921  1.00  0.00    -0.200 F 
ENDBRANCH  47  61
BRANCH  48  72
ATOM     72  C   UNL A   1      41.259  28.571  28.308  1.00  0.00     0.064 A 
ATOM     73  C   UNL A   1      40.290  28.992  27.387  1.00  0.00     0.173 A 
ATOM     74  C   UNL A   1      40.831  28.244  29.603  1.00  0.00     0.173 A 
ATOM     75  F   UNL A   1      40.655  29.348  26.146  1.00  0.00    -0.203 F 
ATOM     76  C   UNL A   1      38.947  29.092  27.748  1.00  0.00     0.198 A 
ATOM     77  C   UNL A   1      39.484  28.318  29.954  1.00  0.00     0.198 A 
ATOM     78  F   UNL A   1      41.719  27.844  30.523  1.00  0.00    -0.203 F 
ATOM     79  F   UNL A   1      38.048  29.538  26.860  1.00  0.00    -0.200 F 
ATOM     80  C   UNL A   1      38.545  28.748  29.030  1.00  0.00     0.200 A 
ATOM     81  F   UNL A   1      39.097  27.977  31.192  1.00  0.00    -0.200 F 
ATOM     82  F   UNL A   1      37.253  28.839  29.375  1.00  0.00    -0.200 F 
ENDBRANCH  48  72
BRANCH  60  83
ATOM     83  C   UNL A   1      46.520  33.125  28.665  1.00  0.00     0.064 A 
ATOM     84  C   UNL A   1      46.856  33.449  29.988  1.00  0.00     0.173 A 
ATOM     85  C   UNL A   1      46.302  34.182  27.767  1.00  0.00     0.173 A 
ATOM     86  F   UNL A   1      47.060  32.476  30.889  1.00  0.00    -0.203 F 
ATOM     87  C   UNL A   1      46.949  34.776  30.399  1.00  0.00     0.198 A 
ATOM     88  C   UNL A   1      46.422  35.507  28.175  1.00  0.00     0.198 A 
ATOM     89  F   UNL A   1      45.983  33.928  26.489  1.00  0.00    -0.203 F 
ATOM     90  F   UNL A   1      47.230  35.061  31.679  1.00  0.00    -0.200 F 
ATOM     91  C   UNL A   1      46.739  35.804  29.492  1.00  0.00     0.200 A 
ATOM     92  F   UNL A   1      46.230  36.499  27.294  1.00  0.00    -0.200 F 
ATOM     93  F   UNL A   1      46.836  37.081  29.889  1.00  0.00    -0.200 F 
ENDBRANCH  60  83
ENDBRANCH  34  35
ENDBRANCH  26  29
ENDBRANCH  24  25
ENDBRANCH  23  24
ENDBRANCH  22  23
ENDBRANCH   3  22
TORSDOF 15
ENDMDL
MODEL 2
REMARK VINA RESULT:     -10.8      5.709      9.675
REMARK SMILES C[C@@H]([NH3+])CCC(=O)N[C@H]1C=C[C@@H](C(=O)NCCCNC(=O)c2ccc(-c3c4nc(c(-c5c(F)c(F)c(F)c(F)c5F)c5ccc([nH]5)c(-c5c(F)c(F)c(F)c(F)c5F)c5nc(c(-c6c(F)c(F)c(F)c(F)c6F)c6ccc3[nH]6)C=C5)C=C4)cc2)C1
REMARK SMILES IDX 13 1 14 2 15 3 12 5 9 6 10 7 85 8 11 9 8 10 6 11 7 12 5 14
REMARK SMILES IDX 4 15 2 16 1 17 3 18 16 22 17 23 18 24 19 25 20 26 21 28
REMARK SMILES IDX 22 29 23 30 84 31 24 32 83 33 25 34 26 35 27 36 77 37 28 38
REMARK SMILES IDX 82 39 76 40 78 41 29 42 81 43 75 44 74 45 30 47 62 48 42 49
REMARK SMILES IDX 61 50 43 51 46 52 60 53 79 54 44 55 45 56 59 58 80 59 47 60
REMARK SMILES IDX 31 61 32 62 40 63 33 64 34 65 38 66 41 67 35 68 36 69 39 70
REMARK SMILES IDX 37 71 63 72 64 73 72 74 65 75 66 76 70 77 73 78 67 79 68 80
REMARK SMILES IDX 71 81 69 82 48 83 49 84 57 85 50 86 51 87 55 88 58 89 52 90
REMARK SMILES IDX 53 91 56 92 54 93
REMARK H PARENT 15 4 8 13 3 19 3 20 3 21 19 27 78 46 46 57
REMARK Flexibility Score: inf
ROOT
ATOM      1  C   UNL A   1      33.497  26.261  22.495  1.00  0.00     0.227 C 
ATOM      2  O   UNL A   1      33.653  25.472  21.543  1.00  0.00    -0.274 OA
ATOM      3  N   UNL A   1      33.565  27.567  22.112  1.00  0.00    -0.356 N 
ATOM      4  H   UNL A   1      33.571  27.634  21.131  1.00  0.00     0.163 HD
ENDROOT
BRANCH   1   5
ATOM      5  C   UNL A   1      33.217  25.608  23.897  1.00  0.00     0.103 C 
ATOM      6  C   UNL A   1      33.716  23.420  25.043  1.00  0.00     0.106 C 
ATOM      7  C   UNL A   1      34.302  24.590  25.753  1.00  0.00    -0.006 C 
ATOM      8  C   UNL A   1      33.017  24.050  23.808  1.00  0.00     0.047 C 
ATOM      9  C   UNL A   1      34.043  25.759  25.137  1.00  0.00    -0.016 C 
BRANCH   6  10
ATOM     10  N   UNL A   1      34.550  22.176  25.059  1.00  0.00    -0.350 N 
ATOM     11  C   UNL A   1      34.688  20.830  25.035  1.00  0.00     0.220 C 
ATOM     12  O   UNL A   1      35.881  20.482  24.942  1.00  0.00    -0.275 OA
ATOM     13  H   UNL A   1      35.475  22.509  25.116  1.00  0.00     0.164 HD
BRANCH  11  14
ATOM     14  C   UNL A   1      33.676  19.678  25.023  1.00  0.00     0.106 C 
BRANCH  14  15
ATOM     15  C   UNL A   1      32.759  19.533  23.808  1.00  0.00     0.074 C 
BRANCH  15  16
ATOM     16  C   UNL A   1      32.818  18.110  23.329  1.00  0.00     0.178 C 
ATOM     17  C   UNL A   1      32.721  17.220  24.551  1.00  0.00     0.075 C 
BRANCH  16  18
ATOM     18  N   UNL A   1      31.833  17.767  22.310  1.00  0.00    -0.355 N 
ATOM     19  H   UNL A   1      32.265  17.163  21.611  1.00  0.00     0.344 HD
ATOM     20  H   UNL A   1      31.496  18.619  21.863  1.00  0.00     0.344 HD
ATOM     21  H   UNL A   1      31.050  17.278  22.745  1.00  0.00     0.344 HD
ENDBRANCH  16  18
ENDBRANCH  15  16
ENDBRANCH  14  15
ENDBRANCH  11  14
ENDBRANCH   6  10
ENDBRANCH   1   5
BRANCH   3  22
ATOM     22  C   UNL A   1      33.632  28.919  22.722  1.00  0.00     0.117 C 
BRANCH  22  23
ATOM     23  C   UNL A   1      32.462  29.197  23.713  1.00  0.00     0.042 C 
BRANCH  23  24
ATOM     24  C   UNL A   1      32.638  29.173  25.235  1.00  0.00     0.118 C 
BRANCH  24  25
ATOM     25  N   UNL A   1      32.415  30.491  25.829  1.00  0.00    -0.352 N 
ATOM     26  C   UNL A   1      33.011  31.246  26.817  1.00  0.00     0.251 C 
ATOM     27  H   UNL A   1      31.648  30.954  25.421  1.00  0.00     0.163 HD
ATOM     28  O   UNL A   1      32.361  32.223  27.201  1.00  0.00    -0.269 OA
BRANCH  26  29
ATOM     29  C   UNL A   1      34.355  31.021  27.448  1.00  0.00     0.039 A 
ATOM     30  C   UNL A   1      34.648  29.712  27.886  1.00  0.00     0.014 A 
ATOM     31  C   UNL A   1      35.272  32.019  27.774  1.00  0.00     0.014 A 
ATOM     32  C   UNL A   1      35.810  29.412  28.625  1.00  0.00     0.010 A 
ATOM     33  C   UNL A   1      36.467  31.709  28.464  1.00  0.00     0.010 A 
ATOM     34  C   UNL A   1      36.746  30.408  28.921  1.00  0.00    -0.014 A 
BRANCH  34  35
ATOM     35  C   UNL A   1      37.974  30.118  29.738  1.00  0.00     0.031 A 
ATOM     36  C   UNL A   1      39.058  29.207  29.205  1.00  0.00     0.074 A 
ATOM     37  C   UNL A   1      38.130  30.638  30.974  1.00  0.00     0.049 A 
ATOM     38  N   UNL A   1      40.137  28.751  29.798  1.00  0.00    -0.248 NA
ATOM     39  C   UNL A   1      38.894  28.728  27.826  1.00  0.00     0.031 C 
ATOM     40  C   UNL A   1      37.185  31.530  31.641  1.00  0.00     0.029 A 
ATOM     41  N   UNL A   1      39.140  30.476  31.899  1.00  0.00    -0.354 N 
ATOM     42  C   UNL A   1      40.757  27.909  28.880  1.00  0.00     0.074 A 
ATOM     43  C   UNL A   1      39.914  27.892  27.702  1.00  0.00     0.031 C 
ATOM     44  C   UNL A   1      37.659  31.846  32.858  1.00  0.00     0.029 A 
ATOM     45  C   UNL A   1      38.924  31.148  33.079  1.00  0.00     0.049 A 
ATOM     46  H   UNL A   1      39.942  29.932  31.730  1.00  0.00     0.167 HD
ATOM     47  C   UNL A   1      41.923  27.223  28.994  1.00  0.00     0.037 A 
ATOM     48  C   UNL A   1      39.646  31.190  34.219  1.00  0.00     0.037 A 
ATOM     49  C   UNL A   1      42.796  27.266  30.140  1.00  0.00     0.049 A 
ATOM     50  C   UNL A   1      40.933  30.415  34.327  1.00  0.00     0.074 A 
ATOM     51  C   UNL A   1      44.026  26.650  30.311  1.00  0.00     0.029 A 
ATOM     52  N   UNL A   1      42.539  27.966  31.307  1.00  0.00    -0.354 N 
ATOM     53  N   UNL A   1      41.517  29.651  33.438  1.00  0.00    -0.248 NA
ATOM     54  C   UNL A   1      41.664  30.511  35.602  1.00  0.00     0.031 C 
ATOM     55  C   UNL A   1      44.492  26.943  31.597  1.00  0.00     0.029 A 
ATOM     56  C   UNL A   1      43.576  27.782  32.210  1.00  0.00     0.049 A 
ATOM     57  H   UNL A   1      41.738  28.515  31.472  1.00  0.00     0.167 HD
ATOM     58  C   UNL A   1      42.690  29.199  34.032  1.00  0.00     0.074 A 
ATOM     59  C   UNL A   1      42.743  29.785  35.354  1.00  0.00     0.031 C 
ATOM     60  C   UNL A   1      43.634  28.371  33.523  1.00  0.00     0.037 A 
BRANCH  47  61
ATOM     61  C   UNL A   1      42.330  26.350  27.840  1.00  0.00     0.064 A 
ATOM     62  C   UNL A   1      41.811  25.057  27.670  1.00  0.00     0.173 A 
ATOM     63  C   UNL A   1      43.221  26.829  26.865  1.00  0.00     0.173 A 
ATOM     64  F   UNL A   1      40.959  24.550  28.574  1.00  0.00    -0.203 F 
ATOM     65  C   UNL A   1      42.199  24.263  26.594  1.00  0.00     0.198 A 
ATOM     66  C   UNL A   1      43.581  26.043  25.773  1.00  0.00     0.198 A 
ATOM     67  F   UNL A   1      43.737  28.063  26.967  1.00  0.00    -0.203 F 
ATOM     68  F   UNL A   1      41.731  23.011  26.485  1.00  0.00    -0.200 F 
ATOM     69  C   UNL A   1      43.078  24.758  25.643  1.00  0.00     0.200 A 
ATOM     70  F   UNL A   1      44.419  26.529  24.846  1.00  0.00    -0.200 F 
ATOM     71  F   UNL A   1      43.447  23.993  24.606  1.00  0.00    -0.200 F 
ENDBRANCH  47  61
BRANCH  48  72
ATOM     72  C   UNL A   1      39.173  32.015  35.365  1.00  0.00     0.064 A 
ATOM     73  C   UNL A   1      39.513  33.371  35.462  1.00  0.00     0.173 A 
ATOM     74  C   UNL A   1      38.388  31.463  36.388  1.00  0.00     0.173 A 
ATOM     75  F   UNL A   1      40.289  33.936  34.525  1.00  0.00    -0.203 F 
ATOM     76  C   UNL A   1      39.094  34.144  36.544  1.00  0.00     0.198 A 
ATOM     77  C   UNL A   1      37.948  32.243  37.455  1.00  0.00     0.198 A 
ATOM     78  F   UNL A   1      38.042  30.169  36.346  1.00  0.00    -0.203 F 
ATOM     79  F   UNL A   1      39.470  35.426  36.634  1.00  0.00    -0.200 F 
ATOM     80  C   UNL A   1      38.305  33.580  37.536  1.00  0.00     0.200 A 
ATOM     81  F   UNL A   1      37.179  31.698  38.408  1.00  0.00    -0.200 F 
ATOM     82  F   UNL A   1      37.899  34.325  38.574  1.00  0.00    -0.200 F 
ENDBRANCH  48  72
BRANCH  60  83
ATOM     83  C   UNL A   1      44.831  28.071  34.380  1.00  0.00     0.064 A 
ATOM     84  C   UNL A   1      45.968  28.892  34.374  1.00  0.00     0.173 A 
ATOM     85  C   UNL A   1      44.824  26.969  35.250  1.00  0.00     0.173 A 
ATOM     86  F   UNL A   1      46.031  29.951  33.551  1.00  0.00    -0.203 F 
ATOM     87  C   UNL A   1      47.061  28.609  35.190  1.00  0.00     0.198 A 
ATOM     88  C   UNL A   1      45.908  26.703  36.082  1.00  0.00     0.198 A 
ATOM     89  F   UNL A   1      43.759  26.154  35.300  1.00  0.00    -0.203 F 
ATOM     90  F   UNL A   1      48.154  29.384  35.134  1.00  0.00    -0.200 F 
ATOM     91  C   UNL A   1      47.028  27.519  36.047  1.00  0.00     0.200 A 
ATOM     92  F   UNL A   1      45.869  25.657  36.920  1.00  0.00    -0.200 F 
ATOM     93  F   UNL A   1      48.079  27.253  36.835  1.00  0.00    -0.200 F 
ENDBRANCH  60  83
ENDBRANCH  34  35
ENDBRANCH  26  29
ENDBRANCH  24  25
ENDBRANCH  23  24
ENDBRANCH  22  23
ENDBRANCH   3  22
TORSDOF 15
ENDMDL
MODEL 3
REMARK VINA RESULT:     -10.7      2.124      8.084
REMARK SMILES C[C@@H]([NH3+])CCC(=O)N[C@H]1C=C[C@@H](C(=O)NCCCNC(=O)c2ccc(-c3c4nc(c(-c5c(F)c(F)c(F)c(F)c5F)c5ccc([nH]5)c(-c5c(F)c(F)c(F)c(F)c5F)c5nc(c(-c6c(F)c(F)c(F)c(F)c6F)c6ccc3[nH]6)C=C5)C=C4)cc2)C1
REMARK SMILES IDX 13 1 14 2 15 3 12 5 9 6 10 7 85 8 11 9 8 10 6 11 7 12 5 14
REMARK SMILES IDX 4 15 2 16 1 17 3 18 16 22 17 23 18 24 19 25 20 26 21 28
REMARK SMILES IDX 22 29 23 30 84 31 24 32 83 33 25 34 26 35 27 36 77 37 28 38
REMARK SMILES IDX 82 39 76 40 78 41 29 42 81 43 75 44 74 45 30 47 62 48 42 49
REMARK SMILES IDX 61 50 43 51 46 52 60 53 79 54 44 55 45 56 59 58 80 59 47 60
REMARK SMILES IDX 31 61 32 62 40 63 33 64 34 65 38 66 41 67 35 68 36 69 39 70
REMARK SMILES IDX 37 71 63 72 64 73 72 74 65 75 66 76 70 77 73 78 67 79 68 80
REMARK SMILES IDX 71 81 69 82 48 83 49 84 57 85 50 86 51 87 55 88 58 89 52 90
REMARK SMILES IDX 53 91 56 92 54 93
REMARK H PARENT 15 4 8 13 3 19 3 20 3 21 19 27 78 46 46 57
REMARK Flexibility Score: inf
ROOT
ATOM      1  C   UNL A   1      36.122  22.615  24.063  1.00  0.00     0.227 C 
ATOM      2  O   UNL A   1      36.141  22.943  22.861  1.00  0.00    -0.274 OA
ATOM      3  N   UNL A   1      37.332  22.770  24.670  1.00  0.00    -0.356 N 
ATOM      4  H   UNL A   1      37.949  23.258  24.079  1.00  0.00     0.163 HD
ENDROOT
BRANCH   1   5
ATOM      5  C   UNL A   1      34.734  22.143  24.630  1.00  0.00     0.103 C 
ATOM      6  C   UNL A   1      32.910  20.547  23.943  1.00  0.00     0.106 C 
ATOM      7  C   UNL A   1      33.516  20.200  25.258  1.00  0.00    -0.006 C 
ATOM      8  C   UNL A   1      33.701  21.804  23.493  1.00  0.00     0.047 C 
ATOM      9  C   UNL A   1      34.496  21.046  25.622  1.00  0.00    -0.016 C 
BRANCH   6  10
ATOM     10  N   UNL A   1      32.522  19.381  23.086  1.00  0.00    -0.350 N 
ATOM     11  C   UNL A   1      32.712  18.124  22.623  1.00  0.00     0.220 C 
ATOM     12  O   UNL A   1      31.762  17.737  21.915  1.00  0.00    -0.275 OA
ATOM     13  H   UNL A   1      31.711  19.687  22.620  1.00  0.00     0.164 HD
BRANCH  11  14
ATOM     14  C   UNL A   1      33.810  17.080  22.859  1.00  0.00     0.106 C 
BRANCH  14  15
ATOM     15  C   UNL A   1      34.776  17.297  24.026  1.00  0.00     0.074 C 
BRANCH  15  16
ATOM     16  C   UNL A   1      34.527  16.235  25.058  1.00  0.00     0.178 C 
ATOM     17  C   UNL A   1      35.871  15.854  25.644  1.00  0.00     0.075 C 
BRANCH  16  18
ATOM     18  N   UNL A   1      33.554  16.594  26.083  1.00  0.00    -0.355 N 
ATOM     19  H   UNL A   1      32.680  16.098  25.910  1.00  0.00     0.344 HD
ATOM     20  H   UNL A   1      33.387  17.600  26.055  1.00  0.00     0.344 HD
ATOM     21  H   UNL A   1      33.916  16.334  27.001  1.00  0.00     0.344 HD
ENDBRANCH  16  18
ENDBRANCH  15  16
ENDBRANCH  14  15
ENDBRANCH  11  14
ENDBRANCH   6  10
ENDBRANCH   1   5
BRANCH   3  22
ATOM     22  C   UNL A   1      38.005  22.429  25.949  1.00  0.00     0.117 C 
BRANCH  22  23
ATOM     23  C   UNL A   1      39.161  21.398  25.771  1.00  0.00     0.042 C 
BRANCH  23  24
ATOM     24  C   UNL A   1      38.914  19.925  25.429  1.00  0.00     0.118 C 
BRANCH  24  25
ATOM     25  N   UNL A   1      40.062  19.087  25.778  1.00  0.00    -0.352 N 
ATOM     26  C   UNL A   1      41.392  19.301  26.070  1.00  0.00     0.251 C 
ATOM     27  H   UNL A   1      39.824  18.133  25.813  1.00  0.00     0.163 HD
ATOM     28  O   UNL A   1      42.103  18.292  26.069  1.00  0.00    -0.269 OA
BRANCH  26  29
ATOM     29  C   UNL A   1      42.051  20.608  26.406  1.00  0.00     0.039 A 
ATOM     30  C   UNL A   1      42.090  20.977  27.768  1.00  0.00     0.014 A 
ATOM     31  C   UNL A   1      42.493  21.553  25.481  1.00  0.00     0.014 A 
ATOM     32  C   UNL A   1      42.546  22.242  28.189  1.00  0.00     0.010 A 
ATOM     33  C   UNL A   1      43.006  22.800  25.906  1.00  0.00     0.010 A 
ATOM     34  C   UNL A   1      43.020  23.176  27.261  1.00  0.00    -0.014 A 
BRANCH  34  35
ATOM     35  C   UNL A   1      43.478  24.544  27.684  1.00  0.00     0.031 A 
ATOM     36  C   UNL A   1      42.474  25.612  28.055  1.00  0.00     0.074 A 
ATOM     37  C   UNL A   1      44.789  24.863  27.718  1.00  0.00     0.049 A 
ATOM     38  N   UNL A   1      42.665  26.880  28.342  1.00  0.00    -0.248 NA
ATOM     39  C   UNL A   1      41.063  25.205  28.088  1.00  0.00     0.031 C 
ATOM     40  C   UNL A   1      45.888  23.957  27.390  1.00  0.00     0.029 A 
ATOM     41  N   UNL A   1      45.421  26.048  28.032  1.00  0.00    -0.354 N 
ATOM     42  C   UNL A   1      41.401  27.424  28.551  1.00  0.00     0.074 A 
ATOM     43  C   UNL A   1      40.450  26.355  28.327  1.00  0.00     0.031 C 
ATOM     44  C   UNL A   1      47.055  24.610  27.528  1.00  0.00     0.029 A 
ATOM     45  C   UNL A   1      46.790  25.994  27.915  1.00  0.00     0.049 A 
ATOM     46  H   UNL A   1      44.937  26.857  28.314  1.00  0.00     0.167 HD
ATOM     47  C   UNL A   1      41.059  28.687  28.911  1.00  0.00     0.037 A 
ATOM     48  C   UNL A   1      47.730  26.948  28.083  1.00  0.00     0.037 A 
ATOM     49  C   UNL A   1      41.995  29.749  29.185  1.00  0.00     0.049 A 
ATOM     50  C   UNL A   1      47.328  28.346  28.475  1.00  0.00     0.074 A 
ATOM     51  C   UNL A   1      41.733  31.041  29.615  1.00  0.00     0.029 A 
ATOM     52  N   UNL A   1      43.371  29.645  29.061  1.00  0.00    -0.354 N 
ATOM     53  N   UNL A   1      46.133  28.831  28.699  1.00  0.00    -0.248 NA
ATOM     54  C   UNL A   1      48.411  29.330  28.637  1.00  0.00     0.031 C 
ATOM     55  C   UNL A   1      42.947  31.729  29.710  1.00  0.00     0.029 A 
ATOM     56  C   UNL A   1      43.970  30.853  29.387  1.00  0.00     0.049 A 
ATOM     57  H   UNL A   1      43.853  28.832  28.783  1.00  0.00     0.167 HD
ATOM     58  C   UNL A   1      46.320  30.162  29.054  1.00  0.00     0.074 A 
ATOM     59  C   UNL A   1      47.747  30.406  29.028  1.00  0.00     0.031 C 
ATOM     60  C   UNL A   1      45.390  31.095  29.370  1.00  0.00     0.037 A 
BRANCH  47  61
ATOM     61  C   UNL A   1      39.593  29.003  29.029  1.00  0.00     0.064 A 
ATOM     62  C   UNL A   1      38.827  29.385  27.917  1.00  0.00     0.173 A 
ATOM     63  C   UNL A   1      38.936  28.881  30.264  1.00  0.00     0.173 A 
ATOM     64  F   UNL A   1      39.406  29.519  26.714  1.00  0.00    -0.203 F 
ATOM     65  C   UNL A   1      37.471  29.671  28.044  1.00  0.00     0.198 A 
ATOM     66  C   UNL A   1      37.572  29.137  30.381  1.00  0.00     0.198 A 
ATOM     67  F   UNL A   1      39.616  28.503  31.358  1.00  0.00    -0.203 F 
ATOM     68  F   UNL A   1      36.773  30.087  26.977  1.00  0.00    -0.200 F 
ATOM     69  C   UNL A   1      36.843  29.542  29.274  1.00  0.00     0.200 A 
ATOM     70  F   UNL A   1      36.964  28.995  31.566  1.00  0.00    -0.200 F 
ATOM     71  F   UNL A   1      35.536  29.815  29.393  1.00  0.00    -0.200 F 
ENDBRANCH  47  61
BRANCH  48  72
ATOM     72  C   UNL A   1      49.168  26.611  27.891  1.00  0.00     0.064 A 
ATOM     73  C   UNL A   1      49.715  26.500  26.605  1.00  0.00     0.173 A 
ATOM     74  C   UNL A   1      50.017  26.379  28.983  1.00  0.00     0.173 A 
ATOM     75  F   UNL A   1      48.935  26.680  25.528  1.00  0.00    -0.203 F 
ATOM     76  C   UNL A   1      51.054  26.161  26.417  1.00  0.00     0.198 A 
ATOM     77  C   UNL A   1      51.362  26.066  28.794  1.00  0.00     0.198 A 
ATOM     78  F   UNL A   1      49.542  26.465  30.234  1.00  0.00    -0.203 F 
ATOM     79  F   UNL A   1      51.539  26.019  25.177  1.00  0.00    -0.200 F 
ATOM     80  C   UNL A   1      51.877  25.952  27.513  1.00  0.00     0.200 A 
ATOM     81  F   UNL A   1      52.158  25.873  29.855  1.00  0.00    -0.200 F 
ATOM     82  F   UNL A   1      53.166  25.630  27.331  1.00  0.00    -0.200 F 
ENDBRANCH  48  72
BRANCH  60  83
ATOM     83  C   UNL A   1      45.878  32.463  29.751  1.00  0.00     0.064 A 
ATOM     84  C   UNL A   1      46.224  32.782  31.072  1.00  0.00     0.173 A 
ATOM     85  C   UNL A   1      46.041  33.458  28.774  1.00  0.00     0.173 A 
ATOM     86  F   UNL A   1      46.074  31.871  32.047  1.00  0.00    -0.203 F 
ATOM     87  C   UNL A   1      46.693  34.051  31.405  1.00  0.00     0.198 A 
ATOM     88  C   UNL A   1      46.534  34.717  29.105  1.00  0.00     0.198 A 
ATOM     89  F   UNL A   1      45.731  33.204  27.493  1.00  0.00    -0.203 F 
ATOM     90  F   UNL A   1      46.976  34.345  32.682  1.00  0.00    -0.200 F 
ATOM     91  C   UNL A   1      46.854  35.015  30.421  1.00  0.00     0.200 A 
ATOM     92  F   UNL A   1      46.701  35.643  28.150  1.00  0.00    -0.200 F 
ATOM     93  F   UNL A   1      47.312  36.233  30.743  1.00  0.00    -0.200 F 
ENDBRANCH  60  83
ENDBRANCH  34  35
ENDBRANCH  26  29
ENDBRANCH  24  25
ENDBRANCH  23  24
ENDBRANCH  22  23
ENDBRANCH   3  22
TORSDOF 15
ENDMDL
