MODEL 1
REMARK VINA RESULT:     -14.0      0.000      0.000
REMARK SMILES O=C(CN1C(=O)/C(=C2\SC(N3CCN(c4ccccc4F)CC3)=[NH+]C2=O)c2ccccc21)NCCCNC(=O)c1ccc(-c2c3nc(c(-c4c(F)c(F)c(F)c(F)c4F)c4ccc([nH]4)c(-c4c(F)c(F)c(F)c(F)c4F)c4nc(c(-c5c(F)c(F)c(F)c(F)c5F)c5ccc2[nH]5)C=C4)C=C3)cc1
REMARK SMILES IDX 35 1 34 2 33 3 1 4 2 5 3 7 4 8 5 9 32 10 6 11 7 12 27 13
REMARK SMILES IDX 31 14 8 15 28 16 30 17 9 18 25 19 29 20 10 21 24 22 26 23
REMARK SMILES IDX 11 24 12 26 23 27 13 28 22 29 14 30 15 31 16 32 20 33 17 34
REMARK SMILES IDX 19 35 21 36 18 37 36 38 37 39 38 40 39 42 40 43 41 44 102 45
REMARK SMILES IDX 42 46 101 47 43 48 44 49 45 50 95 51 46 52 100 53 94 54
REMARK SMILES IDX 96 55 47 56 99 57 93 58 92 59 48 61 80 62 60 63 79 64 61 65
REMARK SMILES IDX 64 66 78 67 97 68 62 69 63 70 77 72 98 73 65 74 49 75 50 76
REMARK SMILES IDX 58 77 51 78 52 79 56 80 59 81 53 82 54 83 57 84 55 85 81 86
REMARK SMILES IDX 82 87 90 88 83 89 84 90 88 91 91 92 85 93 86 94 89 95 87 96
REMARK SMILES IDX 66 97 67 98 75 99 68 100 69 101 73 102 76 103 70 104 71 105
REMARK SMILES IDX 74 106 72 107
REMARK H PARENT 33 6 24 25 37 41 96 60 64 71
REMARK Flexibility Score: inf
ROOT
ATOM      1  C   UNL A   1      37.843  20.440  24.975  1.00  0.00     0.042 C 
ENDROOT
BRANCH   1   2
ATOM      2  C   UNL A   1      37.408  21.813  24.492  1.00  0.00     0.117 C 
BRANCH   2   3
ATOM      3  N   UNL A   1      35.979  21.923  24.285  1.00  0.00    -0.354 N 
ATOM      4  O   UNL A   1      35.444  22.211  26.486  1.00  0.00    -0.273 OA
ATOM      5  C   UNL A   1      35.129  22.302  25.299  1.00  0.00     0.240 C 
ATOM      6  H   UNL A   1      35.606  21.722  23.396  1.00  0.00     0.163 HD
BRANCH   5   7
ATOM      7  C   UNL A   1      33.697  22.697  24.894  1.00  0.00     0.225 C 
BRANCH   7   8
ATOM      8  N   UNL A   1      33.442  24.045  24.395  1.00  0.00    -0.298 N 
ATOM      9  C   UNL A   1      32.887  25.061  25.166  1.00  0.00     0.260 C 
ATOM     10  C   UNL A   1      33.247  24.328  23.026  1.00  0.00     0.053 A 
ATOM     11  O   UNL A   1      32.709  25.036  26.369  1.00  0.00    -0.269 OA
ATOM     12  C   UNL A   1      32.507  26.168  24.207  1.00  0.00     0.071 C 
ATOM     13  C   UNL A   1      32.664  25.599  22.856  1.00  0.00     0.012 A 
ATOM     14  C   UNL A   1      33.526  23.496  21.950  1.00  0.00     0.027 A 
ATOM     15  C   UNL A   1      32.163  27.389  24.654  1.00  0.00     0.122 C 
ATOM     16  C   UNL A   1      32.390  26.053  21.576  1.00  0.00     0.011 A 
ATOM     17  C   UNL A   1      33.227  23.953  20.668  1.00  0.00     0.002 A 
ATOM     18  S   UNL A   1      32.467  27.963  26.264  1.00  0.00     0.007 SA
ATOM     19  C   UNL A   1      31.574  28.537  23.893  1.00  0.00     0.347 C 
ATOM     20  C   UNL A   1      32.667  25.223  20.483  1.00  0.00     0.001 A 
ATOM     21  C   UNL A   1      32.119  29.600  25.776  1.00  0.00     0.319 C 
ATOM     22  N   UNL A   1      31.640  29.727  24.586  1.00  0.00    -0.200 N 
ATOM     23  O   UNL A   1      31.039  28.428  22.801  1.00  0.00    -0.240 OA
ATOM     24  N   UNL A   1      32.360  30.616  26.655  1.00  0.00    -0.252 N 
ATOM     25  H   UNL A   1      31.350  30.588  24.209  1.00  0.00     0.316 HD
ATOM     26  C   UNL A   1      33.533  30.645  27.547  1.00  0.00     0.258 C 
ATOM     27  C   UNL A   1      31.350  31.659  26.907  1.00  0.00     0.258 C 
ATOM     28  C   UNL A   1      34.170  32.050  27.568  1.00  0.00     0.162 C 
ATOM     29  C   UNL A   1      31.973  33.065  27.040  1.00  0.00     0.162 C 
ATOM     30  N   UNL A   1      33.138  33.023  27.933  1.00  0.00    -0.361 N 
BRANCH  30  31
ATOM     31  C   UNL A   1      33.418  34.060  28.798  1.00  0.00     0.073 A 
ATOM     32  C   UNL A   1      33.028  35.364  28.457  1.00  0.00     0.029 A 
ATOM     33  C   UNL A   1      34.024  33.882  30.054  1.00  0.00     0.146 A 
ATOM     34  C   UNL A   1      33.209  36.435  29.338  1.00  0.00     0.002 A 
ATOM     35  C   UNL A   1      34.228  34.946  30.931  1.00  0.00     0.041 A 
ATOM     36  F   UNL A   1      34.437  32.661  30.435  1.00  0.00    -0.205 F 
ATOM     37  C   UNL A   1      33.812  36.226  30.576  1.00  0.00     0.003 A 
ENDBRANCH  30  31
ENDBRANCH   7   8
ENDBRANCH   5   7
ENDBRANCH   2   3
ENDBRANCH   1   2
BRANCH   1  38
ATOM     38  C   UNL A   1      38.912  20.465  26.058  1.00  0.00     0.118 C 
BRANCH  38  39
ATOM     39  N   UNL A   1      39.927  19.427  25.912  1.00  0.00    -0.352 N 
ATOM     40  C   UNL A   1      41.298  19.494  26.009  1.00  0.00     0.251 C 
ATOM     41  H   UNL A   1      39.572  18.530  25.711  1.00  0.00     0.163 HD
ATOM     42  O   UNL A   1      41.973  18.498  25.761  1.00  0.00    -0.269 OA
BRANCH  40  43
ATOM     43  C   UNL A   1      41.970  20.765  26.365  1.00  0.00     0.039 A 
ATOM     44  C   UNL A   1      42.304  21.065  27.685  1.00  0.00     0.014 A 
ATOM     45  C   UNL A   1      42.266  21.682  25.350  1.00  0.00     0.014 A 
ATOM     46  C   UNL A   1      42.738  22.347  28.014  1.00  0.00     0.010 A 
ATOM     47  C   UNL A   1      42.799  22.935  25.672  1.00  0.00     0.010 A 
ATOM     48  C   UNL A   1      42.982  23.302  27.014  1.00  0.00    -0.014 A 
BRANCH  48  49
ATOM     49  C   UNL A   1      43.409  24.675  27.401  1.00  0.00     0.031 A 
ATOM     50  C   UNL A   1      44.811  25.154  27.125  1.00  0.00     0.074 A 
ATOM     51  C   UNL A   1      42.510  25.519  27.945  1.00  0.00     0.049 A 
ATOM     52  N   UNL A   1      45.342  26.330  27.357  1.00  0.00    -0.248 NA
ATOM     53  C   UNL A   1      45.740  24.192  26.512  1.00  0.00     0.031 C 
ATOM     54  C   UNL A   1      41.120  25.180  28.255  1.00  0.00     0.029 A 
ATOM     55  N   UNL A   1      42.618  26.839  28.306  1.00  0.00    -0.354 N 
ATOM     56  C   UNL A   1      46.662  26.244  26.931  1.00  0.00     0.074 A 
ATOM     57  C   UNL A   1      46.866  24.890  26.464  1.00  0.00     0.031 C 
ATOM     58  C   UNL A   1      40.490  26.275  28.704  1.00  0.00     0.029 A 
ATOM     59  C   UNL A   1      41.444  27.378  28.775  1.00  0.00     0.049 A 
ATOM     60  H   UNL A   1      43.456  27.351  28.236  1.00  0.00     0.167 HD
ATOM     61  C   UNL A   1      47.610  27.211  26.913  1.00  0.00     0.037 A 
ATOM     62  C   UNL A   1      41.165  28.617  29.223  1.00  0.00     0.037 A 
ATOM     63  C   UNL A   1      47.401  28.565  27.354  1.00  0.00     0.049 A 
ATOM     64  C   UNL A   1      42.252  29.655  29.241  1.00  0.00     0.074 A 
ATOM     65  C   UNL A   1      48.297  29.621  27.347  1.00  0.00     0.029 A 
ATOM     66  N   UNL A   1      46.214  29.052  27.881  1.00  0.00    -0.354 N 
ATOM     67  N   UNL A   1      43.488  29.565  28.815  1.00  0.00    -0.248 NA
ATOM     68  C   UNL A   1      41.907  30.966  29.809  1.00  0.00     0.031 C 
ATOM     69  C   UNL A   1      47.669  30.732  27.915  1.00  0.00     0.029 A 
ATOM     70  C   UNL A   1      46.364  30.386  28.227  1.00  0.00     0.049 A 
ATOM     71  H   UNL A   1      45.388  28.529  27.993  1.00  0.00     0.167 HD
ATOM     72  C   UNL A   1      44.064  30.805  29.050  1.00  0.00     0.074 A 
ATOM     73  C   UNL A   1      43.037  31.640  29.635  1.00  0.00     0.031 C 
ATOM     74  C   UNL A   1      45.334  31.210  28.807  1.00  0.00     0.037 A 
BRANCH  61  75
ATOM     75  C   UNL A   1      48.974  26.850  26.394  1.00  0.00     0.064 A 
ATOM     76  C   UNL A   1      49.935  26.244  27.215  1.00  0.00     0.173 A 
ATOM     77  C   UNL A   1      49.293  27.038  25.039  1.00  0.00     0.173 A 
ATOM     78  F   UNL A   1      49.684  26.048  28.517  1.00  0.00    -0.203 F 
ATOM     79  C   UNL A   1      51.171  25.852  26.703  1.00  0.00     0.198 A 
ATOM     80  C   UNL A   1      50.517  26.619  24.526  1.00  0.00     0.198 A 
ATOM     81  F   UNL A   1      48.405  27.605  24.208  1.00  0.00    -0.203 F 
ATOM     82  F   UNL A   1      52.086  25.302  27.514  1.00  0.00    -0.200 F 
ATOM     83  C   UNL A   1      51.456  26.030  25.358  1.00  0.00     0.200 A 
ATOM     84  F   UNL A   1      50.784  26.776  23.221  1.00  0.00    -0.200 F 
ATOM     85  F   UNL A   1      52.638  25.635  24.864  1.00  0.00    -0.200 F 
ENDBRANCH  61  75
BRANCH  62  86
ATOM     86  C   UNL A   1      39.789  28.938  29.682  1.00  0.00     0.064 A 
ATOM     87  C   UNL A   1      38.812  29.378  28.779  1.00  0.00     0.173 A 
ATOM     88  C   UNL A   1      39.414  28.787  31.025  1.00  0.00     0.173 A 
ATOM     89  F   UNL A   1      39.127  29.559  27.488  1.00  0.00    -0.203 F 
ATOM     90  C   UNL A   1      37.515  29.661  29.202  1.00  0.00     0.198 A 
ATOM     91  C   UNL A   1      38.110  29.040  31.443  1.00  0.00     0.198 A 
ATOM     92  F   UNL A   1      40.311  28.367  31.930  1.00  0.00    -0.203 F 
ATOM     93  F   UNL A   1      36.609  30.111  28.324  1.00  0.00    -0.200 F 
ATOM     94  C   UNL A   1      37.162  29.481  30.532  1.00  0.00     0.200 A 
ATOM     95  F   UNL A   1      37.769  28.847  32.724  1.00  0.00    -0.200 F 
ATOM     96  F   UNL A   1      35.910  29.736  30.935  1.00  0.00    -0.200 F 
ENDBRANCH  62  86
BRANCH  74  97
ATOM     97  C   UNL A   1      45.694  32.623  29.159  1.00  0.00     0.064 A 
ATOM     98  C   UNL A   1      45.470  33.678  28.263  1.00  0.00     0.173 A 
ATOM     99  C   UNL A   1      46.190  32.937  30.433  1.00  0.00     0.173 A 
ATOM    100  F   UNL A   1      45.010  33.429  27.027  1.00  0.00    -0.203 F 
ATOM    101  C   UNL A   1      45.741  34.995  28.626  1.00  0.00     0.198 A 
ATOM    102  C   UNL A   1      46.432  34.258  30.804  1.00  0.00     0.198 A 
ATOM    103  F   UNL A   1      46.415  31.965  31.330  1.00  0.00    -0.203 F 
ATOM    104  F   UNL A   1      45.550  35.985  27.742  1.00  0.00    -0.200 F 
ATOM    105  C   UNL A   1      46.210  35.284  29.898  1.00  0.00     0.200 A 
ATOM    106  F   UNL A   1      46.869  34.536  32.039  1.00  0.00    -0.200 F 
ATOM    107  F   UNL A   1      46.451  36.554  30.253  1.00  0.00    -0.200 F 
ENDBRANCH  74  97
ENDBRANCH  48  49
ENDBRANCH  40  43
ENDBRANCH  38  39
ENDBRANCH   1  38
TORSDOF 12
ENDMDL
MODEL 2
REMARK VINA RESULT:     -13.5      5.227     11.464
REMARK SMILES O=C(CN1C(=O)/C(=C2\SC(N3CCN(c4ccccc4F)CC3)=[NH+]C2=O)c2ccccc21)NCCCNC(=O)c1ccc(-c2c3nc(c(-c4c(F)c(F)c(F)c(F)c4F)c4ccc([nH]4)c(-c4c(F)c(F)c(F)c(F)c4F)c4nc(c(-c5c(F)c(F)c(F)c(F)c5F)c5ccc2[nH]5)C=C4)C=C3)cc1
REMARK SMILES IDX 35 1 34 2 33 3 1 4 2 5 3 7 4 8 5 9 32 10 6 11 7 12 27 13
REMARK SMILES IDX 31 14 8 15 28 16 30 17 9 18 25 19 29 20 10 21 24 22 26 23
REMARK SMILES IDX 11 24 12 26 23 27 13 28 22 29 14 30 15 31 16 32 20 33 17 34
REMARK SMILES IDX 19 35 21 36 18 37 36 38 37 39 38 40 39 42 40 43 41 44 102 45
REMARK SMILES IDX 42 46 101 47 43 48 44 49 45 50 95 51 46 52 100 53 94 54
REMARK SMILES IDX 96 55 47 56 99 57 93 58 92 59 48 61 80 62 60 63 79 64 61 65
REMARK SMILES IDX 64 66 78 67 97 68 62 69 63 70 77 72 98 73 65 74 49 75 50 76
REMARK SMILES IDX 58 77 51 78 52 79 56 80 59 81 53 82 54 83 57 84 55 85 81 86
REMARK SMILES IDX 82 87 90 88 83 89 84 90 88 91 91 92 85 93 86 94 89 95 87 96
REMARK SMILES IDX 66 97 67 98 75 99 68 100 69 101 73 102 76 103 70 104 71 105
REMARK SMILES IDX 74 106 72 107
REMARK H PARENT 33 6 24 25 37 41 96 60 64 71
REMARK Flexibility Score: inf
ROOT
ATOM      1  C   UNL A   1      36.166  33.533  28.695  1.00  0.00     0.042 C 
ENDROOT
BRANCH   1   2
ATOM      2  C   UNL A   1      37.593  33.426  29.207  1.00  0.00     0.117 C 
BRANCH   2   3
ATOM      3  N   UNL A   1      37.678  33.290  30.646  1.00  0.00    -0.354 N 
ATOM      4  O   UNL A   1      39.417  34.745  30.917  1.00  0.00    -0.273 OA
ATOM      5  C   UNL A   1      38.477  34.116  31.403  1.00  0.00     0.240 C 
ATOM      6  H   UNL A   1      37.151  32.589  31.094  1.00  0.00     0.163 HD
BRANCH   5   7
ATOM      7  C   UNL A   1      38.246  34.099  32.926  1.00  0.00     0.225 C 
BRANCH   7   8
ATOM      8  N   UNL A   1      39.305  33.612  33.805  1.00  0.00    -0.298 N 
ATOM      9  C   UNL A   1      39.425  32.287  34.208  1.00  0.00     0.260 C 
ATOM     10  C   UNL A   1      39.986  34.448  34.715  1.00  0.00     0.053 A 
ATOM     11  O   UNL A   1      38.802  31.340  33.764  1.00  0.00    -0.269 OA
ATOM     12  C   UNL A   1      40.435  32.270  35.334  1.00  0.00     0.071 C 
ATOM     13  C   UNL A   1      40.674  33.683  35.678  1.00  0.00     0.012 A 
ATOM     14  C   UNL A   1      39.982  35.836  34.743  1.00  0.00     0.027 A 
ATOM     15  C   UNL A   1      40.954  31.115  35.786  1.00  0.00     0.122 C 
ATOM     16  C   UNL A   1      41.400  34.331  36.664  1.00  0.00     0.011 A 
ATOM     17  C   UNL A   1      40.698  36.477  35.752  1.00  0.00     0.002 A 
ATOM     18  S   UNL A   1      40.856  29.601  34.944  1.00  0.00     0.007 SA
ATOM     19  C   UNL A   1      41.799  30.876  37.001  1.00  0.00     0.347 C 
ATOM     20  C   UNL A   1      41.404  35.731  36.702  1.00  0.00     0.001 A 
ATOM     21  C   UNL A   1      42.072  28.911  35.985  1.00  0.00     0.319 C 
ATOM     22  N   UNL A   1      42.411  29.642  36.991  1.00  0.00    -0.200 N 
ATOM     23  O   UNL A   1      41.894  31.662  37.930  1.00  0.00    -0.240 OA
ATOM     24  N   UNL A   1      42.572  27.676  35.687  1.00  0.00    -0.252 N 
ATOM     25  H   UNL A   1      43.044  29.347  37.684  1.00  0.00     0.316 HD
ATOM     26  C   UNL A   1      42.845  27.231  34.308  1.00  0.00     0.258 C 
ATOM     27  C   UNL A   1      42.687  26.632  36.720  1.00  0.00     0.258 C 
ATOM     28  C   UNL A   1      44.205  26.506  34.226  1.00  0.00     0.162 C 
ATOM     29  C   UNL A   1      43.992  25.818  36.596  1.00  0.00     0.162 C 
ATOM     30  N   UNL A   1      44.209  25.414  35.201  1.00  0.00    -0.361 N 
BRANCH  30  31
ATOM     31  C   UNL A   1      44.751  24.185  34.885  1.00  0.00     0.073 A 
ATOM     32  C   UNL A   1      46.145  24.033  34.875  1.00  0.00     0.029 A 
ATOM     33  C   UNL A   1      43.980  23.038  34.628  1.00  0.00     0.146 A 
ATOM     34  C   UNL A   1      46.742  22.788  34.648  1.00  0.00     0.002 A 
ATOM     35  C   UNL A   1      44.565  21.797  34.380  1.00  0.00     0.041 A 
ATOM     36  F   UNL A   1      42.639  23.120  34.606  1.00  0.00    -0.205 F 
ATOM     37  C   UNL A   1      45.951  21.669  34.398  1.00  0.00     0.003 A 
ENDBRANCH  30  31
ENDBRANCH   7   8
ENDBRANCH   5   7
ENDBRANCH   2   3
ENDBRANCH   1   2
BRANCH   1  38
ATOM     38  C   UNL A   1      35.146  32.751  29.511  1.00  0.00     0.118 C 
BRANCH  38  39
ATOM     39  N   UNL A   1      34.362  31.803  28.726  1.00  0.00    -0.352 N 
ATOM     40  C   UNL A   1      34.702  30.579  28.198  1.00  0.00     0.251 C 
ATOM     41  H   UNL A   1      33.436  32.086  28.545  1.00  0.00     0.163 HD
ATOM     42  O   UNL A   1      33.898  29.980  27.488  1.00  0.00    -0.269 OA
BRANCH  40  43
ATOM     43  C   UNL A   1      36.043  29.997  28.439  1.00  0.00     0.039 A 
ATOM     44  C   UNL A   1      36.357  29.374  29.646  1.00  0.00     0.014 A 
ATOM     45  C   UNL A   1      37.011  30.086  27.433  1.00  0.00     0.014 A 
ATOM     46  C   UNL A   1      37.677  29.028  29.922  1.00  0.00     0.010 A 
ATOM     47  C   UNL A   1      38.316  29.643  27.676  1.00  0.00     0.010 A 
ATOM     48  C   UNL A   1      38.677  29.166  28.945  1.00  0.00    -0.014 A 
BRANCH  48  49
ATOM     49  C   UNL A   1      40.086  28.824  29.284  1.00  0.00     0.031 A 
ATOM     50  C   UNL A   1      40.714  27.551  28.778  1.00  0.00     0.074 A 
ATOM     51  C   UNL A   1      40.825  29.696  29.998  1.00  0.00     0.049 A 
ATOM     52  N   UNL A   1      41.938  27.113  28.941  1.00  0.00    -0.248 NA
ATOM     53  C   UNL A   1      39.860  26.650  27.988  1.00  0.00     0.031 C 
ATOM     54  C   UNL A   1      40.337  30.966  30.539  1.00  0.00     0.029 A 
ATOM     55  N   UNL A   1      42.147  29.664  30.366  1.00  0.00    -0.354 N 
ATOM     56  C   UNL A   1      41.996  25.888  28.288  1.00  0.00     0.074 A 
ATOM     57  C   UNL A   1      40.675  25.629  27.760  1.00  0.00     0.031 C 
ATOM     58  C   UNL A   1      41.356  31.617  31.118  1.00  0.00     0.029 A 
ATOM     59  C   UNL A   1      42.555  30.786  31.047  1.00  0.00     0.049 A 
ATOM     60  H   UNL A   1      42.746  28.910  30.162  1.00  0.00     0.167 HD
ATOM     61  C   UNL A   1      43.059  25.065  28.126  1.00  0.00     0.037 A 
ATOM     62  C   UNL A   1      43.754  31.110  31.566  1.00  0.00     0.037 A 
ATOM     63  C   UNL A   1      44.381  25.333  28.630  1.00  0.00     0.049 A 
ATOM     64  C   UNL A   1      44.904  30.152  31.418  1.00  0.00     0.074 A 
ATOM     65  C   UNL A   1      45.527  24.568  28.491  1.00  0.00     0.029 A 
ATOM     66  N   UNL A   1      44.735  26.452  29.369  1.00  0.00    -0.354 N 
ATOM     67  N   UNL A   1      44.948  29.008  30.779  1.00  0.00    -0.248 NA
ATOM     68  C   UNL A   1      46.166  30.525  32.069  1.00  0.00     0.031 C 
ATOM     69  C   UNL A   1      46.562  25.198  29.187  1.00  0.00     0.029 A 
ATOM     70  C   UNL A   1      46.076  26.384  29.715  1.00  0.00     0.049 A 
ATOM     71  H   UNL A   1      44.126  27.185  29.612  1.00  0.00     0.167 HD
ATOM     72  C   UNL A   1      46.242  28.532  30.939  1.00  0.00     0.074 A 
ATOM     73  C   UNL A   1      46.959  29.521  31.716  1.00  0.00     0.031 C 
ATOM     74  C   UNL A   1      46.782  27.375  30.487  1.00  0.00     0.037 A 
BRANCH  61  75
ATOM     75  C   UNL A   1      42.850  23.785  27.367  1.00  0.00     0.064 A 
ATOM     76  C   UNL A   1      43.202  23.667  26.015  1.00  0.00     0.173 A 
ATOM     77  C   UNL A   1      42.369  22.639  28.022  1.00  0.00     0.173 A 
ATOM     78  F   UNL A   1      43.660  24.733  25.342  1.00  0.00    -0.203 F 
ATOM     79  C   UNL A   1      43.068  22.455  25.341  1.00  0.00     0.198 A 
ATOM     80  C   UNL A   1      42.263  21.422  27.352  1.00  0.00     0.198 A 
ATOM     81  F   UNL A   1      42.026  22.694  29.318  1.00  0.00    -0.203 F 
ATOM     82  F   UNL A   1      43.382  22.375  24.041  1.00  0.00    -0.200 F 
ATOM     83  C   UNL A   1      42.608  21.332  26.013  1.00  0.00     0.200 A 
ATOM     84  F   UNL A   1      41.835  20.334  28.008  1.00  0.00    -0.200 F 
ATOM     85  F   UNL A   1      42.497  20.162  25.368  1.00  0.00    -0.200 F 
ENDBRANCH  61  75
BRANCH  62  86
ATOM     86  C   UNL A   1      43.924  32.408  32.268  1.00  0.00     0.064 A 
ATOM     87  C   UNL A   1      44.016  33.608  31.550  1.00  0.00     0.173 A 
ATOM     88  C   UNL A   1      43.971  32.481  33.668  1.00  0.00     0.173 A 
ATOM     89  F   UNL A   1      43.997  33.590  30.209  1.00  0.00    -0.203 F 
ATOM     90  C   UNL A   1      44.154  34.830  32.205  1.00  0.00     0.198 A 
ATOM     91  C   UNL A   1      44.078  33.705  34.323  1.00  0.00     0.198 A 
ATOM     92  F   UNL A   1      43.887  31.361  34.402  1.00  0.00    -0.203 F 
ATOM     93  F   UNL A   1      44.272  35.960  31.495  1.00  0.00    -0.200 F 
ATOM     94  C   UNL A   1      44.174  34.878  33.592  1.00  0.00     0.200 A 
ATOM     95  F   UNL A   1      44.079  33.748  35.663  1.00  0.00    -0.200 F 
ATOM     96  F   UNL A   1      44.290  36.055  34.221  1.00  0.00    -0.200 F 
ENDBRANCH  62  86
BRANCH  74  97
ATOM     97  C   UNL A   1      48.224  27.108  30.803  1.00  0.00     0.064 A 
ATOM     98  C   UNL A   1      48.600  26.400  31.953  1.00  0.00     0.173 A 
ATOM     99  C   UNL A   1      49.234  27.493  29.909  1.00  0.00     0.173 A 
ATOM    100  F   UNL A   1      47.673  26.021  32.847  1.00  0.00    -0.203 F 
ATOM    101  C   UNL A   1      49.936  26.096  32.201  1.00  0.00     0.198 A 
ATOM    102  C   UNL A   1      50.566  27.162  30.144  1.00  0.00     0.198 A 
ATOM    103  F   UNL A   1      48.926  28.168  28.790  1.00  0.00    -0.203 F 
ATOM    104  F   UNL A   1      50.277  25.445  33.323  1.00  0.00    -0.200 F 
ATOM    105  C   UNL A   1      50.915  26.467  31.292  1.00  0.00     0.200 A 
ATOM    106  F   UNL A   1      51.508  27.507  29.256  1.00  0.00    -0.200 F 
ATOM    107  F   UNL A   1      52.199  26.156  31.522  1.00  0.00    -0.200 F 
ENDBRANCH  74  97
ENDBRANCH  48  49
ENDBRANCH  40  43
ENDBRANCH  38  39
ENDBRANCH   1  38
TORSDOF 12
ENDMDL
MODEL 3
REMARK VINA RESULT:     -13.5      0.583      6.844
REMARK SMILES O=C(CN1C(=O)/C(=C2\SC(N3CCN(c4ccccc4F)CC3)=[NH+]C2=O)c2ccccc21)NCCCNC(=O)c1ccc(-c2c3nc(c(-c4c(F)c(F)c(F)c(F)c4F)c4ccc([nH]4)c(-c4c(F)c(F)c(F)c(F)c4F)c4nc(c(-c5c(F)c(F)c(F)c(F)c5F)c5ccc2[nH]5)C=C4)C=C3)cc1
REMARK SMILES IDX 35 1 34 2 33 3 1 4 2 5 3 7 4 8 5 9 32 10 6 11 7 12 27 13
REMARK SMILES IDX 31 14 8 15 28 16 30 17 9 18 25 19 29 20 10 21 24 22 26 23
REMARK SMILES IDX 11 24 12 26 23 27 13 28 22 29 14 30 15 31 16 32 20 33 17 34
REMARK SMILES IDX 19 35 21 36 18 37 36 38 37 39 38 40 39 42 40 43 41 44 102 45
REMARK SMILES IDX 42 46 101 47 43 48 44 49 45 50 95 51 46 52 100 53 94 54
REMARK SMILES IDX 96 55 47 56 99 57 93 58 92 59 48 61 80 62 60 63 79 64 61 65
REMARK SMILES IDX 64 66 78 67 97 68 62 69 63 70 77 72 98 73 65 74 49 75 50 76
REMARK SMILES IDX 58 77 51 78 52 79 56 80 59 81 53 82 54 83 57 84 55 85 81 86
REMARK SMILES IDX 82 87 90 88 83 89 84 90 88 91 91 92 85 93 86 94 89 95 87 96
REMARK SMILES IDX 66 97 67 98 75 99 68 100 69 101 73 102 76 103 70 104 71 105
REMARK SMILES IDX 74 106 72 107
REMARK H PARENT 33 6 24 25 37 41 96 60 64 71
REMARK Flexibility Score: inf
ROOT
ATOM      1  C   UNL A   1      38.192  20.786  25.173  1.00  0.00     0.042 C 
ENDROOT
BRANCH   1   2
ATOM      2  C   UNL A   1      37.581  22.176  25.135  1.00  0.00     0.117 C 
BRANCH   2   3
ATOM      3  N   UNL A   1      36.208  22.188  24.675  1.00  0.00    -0.354 N 
ATOM      4  O   UNL A   1      35.264  22.167  26.753  1.00  0.00    -0.273 OA
ATOM      5  C   UNL A   1      35.156  22.370  25.544  1.00  0.00     0.240 C 
ATOM      6  H   UNL A   1      36.022  22.062  23.716  1.00  0.00     0.163 HD
BRANCH   5   7
ATOM      7  C   UNL A   1      33.786  22.688  24.918  1.00  0.00     0.225 C 
BRANCH   7   8
ATOM      8  N   UNL A   1      33.519  24.036  24.426  1.00  0.00    -0.298 N 
ATOM      9  C   UNL A   1      32.963  25.045  25.203  1.00  0.00     0.260 C 
ATOM     10  C   UNL A   1      33.313  24.322  23.059  1.00  0.00     0.053 A 
ATOM     11  O   UNL A   1      32.793  25.016  26.408  1.00  0.00    -0.269 OA
ATOM     12  C   UNL A   1      32.570  26.153  24.251  1.00  0.00     0.071 C 
ATOM     13  C   UNL A   1      32.721  25.590  22.897  1.00  0.00     0.012 A 
ATOM     14  C   UNL A   1      33.590  23.495  21.979  1.00  0.00     0.027 A 
ATOM     15  C   UNL A   1      32.222  27.371  24.704  1.00  0.00     0.122 C 
ATOM     16  C   UNL A   1      32.437  26.046  21.621  1.00  0.00     0.011 A 
ATOM     17  C   UNL A   1      33.280  23.955  20.700  1.00  0.00     0.002 A 
ATOM     18  S   UNL A   1      32.533  27.941  26.313  1.00  0.00     0.007 SA
ATOM     19  C   UNL A   1      31.621  28.518  23.950  1.00  0.00     0.347 C 
ATOM     20  C   UNL A   1      32.712  25.221  20.523  1.00  0.00     0.001 A 
ATOM     21  C   UNL A   1      32.172  29.578  25.833  1.00  0.00     0.319 C 
ATOM     22  N   UNL A   1      31.685  29.705  24.647  1.00  0.00    -0.200 N 
ATOM     23  O   UNL A   1      31.080  28.410  22.862  1.00  0.00    -0.240 OA
ATOM     24  N   UNL A   1      32.413  30.592  26.715  1.00  0.00    -0.252 N 
ATOM     25  H   UNL A   1      31.387  30.566  24.275  1.00  0.00     0.316 HD
ATOM     26  C   UNL A   1      33.592  30.625  27.599  1.00  0.00     0.258 C 
ATOM     27  C   UNL A   1      31.399  31.629  26.977  1.00  0.00     0.258 C 
ATOM     28  C   UNL A   1      34.221  32.034  27.621  1.00  0.00     0.162 C 
ATOM     29  C   UNL A   1      32.014  33.037  27.110  1.00  0.00     0.162 C 
ATOM     30  N   UNL A   1      33.185  33.000  27.995  1.00  0.00    -0.361 N 
BRANCH  30  31
ATOM     31  C   UNL A   1      33.465  34.036  28.862  1.00  0.00     0.073 A 
ATOM     32  C   UNL A   1      33.099  35.343  28.510  1.00  0.00     0.029 A 
ATOM     33  C   UNL A   1      34.047  33.853  30.128  1.00  0.00     0.146 A 
ATOM     34  C   UNL A   1      33.280  36.415  29.392  1.00  0.00     0.002 A 
ATOM     35  C   UNL A   1      34.251  34.917  31.006  1.00  0.00     0.041 A 
ATOM     36  F   UNL A   1      34.436  32.628  30.520  1.00  0.00    -0.205 F 
ATOM     37  C   UNL A   1      33.858  36.201  30.640  1.00  0.00     0.003 A 
ENDBRANCH  30  31
ENDBRANCH   7   8
ENDBRANCH   5   7
ENDBRANCH   2   3
ENDBRANCH   1   2
BRANCH   1  38
ATOM     38  C   UNL A   1      39.107  20.535  26.363  1.00  0.00     0.118 C 
BRANCH  38  39
ATOM     39  N   UNL A   1      40.113  19.503  26.129  1.00  0.00    -0.352 N 
ATOM     40  C   UNL A   1      41.483  19.591  26.041  1.00  0.00     0.251 C 
ATOM     41  H   UNL A   1      39.750  18.594  26.016  1.00  0.00     0.163 HD
ATOM     42  O   UNL A   1      42.137  18.593  25.751  1.00  0.00    -0.269 OA
BRANCH  40  43
ATOM     43  C   UNL A   1      42.174  20.885  26.250  1.00  0.00     0.039 A 
ATOM     44  C   UNL A   1      42.520  21.326  27.526  1.00  0.00     0.014 A 
ATOM     45  C   UNL A   1      42.474  21.679  25.138  1.00  0.00     0.014 A 
ATOM     46  C   UNL A   1      42.973  22.630  27.708  1.00  0.00     0.010 A 
ATOM     47  C   UNL A   1      43.025  22.953  25.315  1.00  0.00     0.010 A 
ATOM     48  C   UNL A   1      43.222  23.464  26.606  1.00  0.00    -0.014 A 
BRANCH  48  49
ATOM     49  C   UNL A   1      43.669  24.866  26.836  1.00  0.00     0.031 A 
ATOM     50  C   UNL A   1      42.720  25.898  27.388  1.00  0.00     0.074 A 
ATOM     51  C   UNL A   1      44.956  25.196  26.608  1.00  0.00     0.049 A 
ATOM     52  N   UNL A   1      42.948  27.153  27.689  1.00  0.00    -0.248 NA
ATOM     53  C   UNL A   1      41.334  25.470  27.634  1.00  0.00     0.031 C 
ATOM     54  C   UNL A   1      45.976  24.288  26.082  1.00  0.00     0.029 A 
ATOM     55  N   UNL A   1      45.633  26.372  26.816  1.00  0.00    -0.354 N 
ATOM     56  C   UNL A   1      41.739  27.663  28.145  1.00  0.00     0.074 A 
ATOM     57  C   UNL A   1      40.767  26.597  28.044  1.00  0.00     0.031 C 
ATOM     58  C   UNL A   1      47.159  24.919  26.063  1.00  0.00     0.029 A 
ATOM     59  C   UNL A   1      46.972  26.295  26.514  1.00  0.00     0.049 A 
ATOM     60  H   UNL A   1      45.202  27.192  27.150  1.00  0.00     0.167 HD
ATOM     61  C   UNL A   1      41.469  28.902  28.622  1.00  0.00     0.037 A 
ATOM     62  C   UNL A   1      47.941  27.228  26.580  1.00  0.00     0.037 A 
ATOM     63  C   UNL A   1      42.441  29.957  28.746  1.00  0.00     0.049 A 
ATOM     64  C   UNL A   1      47.601  28.610  27.064  1.00  0.00     0.074 A 
ATOM     65  C   UNL A   1      42.264  31.236  29.245  1.00  0.00     0.029 A 
ATOM     66  N   UNL A   1      43.772  29.856  28.369  1.00  0.00    -0.354 N 
ATOM     67  N   UNL A   1      46.458  29.071  27.512  1.00  0.00    -0.248 NA
ATOM     68  C   UNL A   1      48.682  29.605  27.044  1.00  0.00     0.031 C 
ATOM     69  C   UNL A   1      43.474  31.925  29.124  1.00  0.00     0.029 A 
ATOM     70  C   UNL A   1      44.420  31.059  28.599  1.00  0.00     0.049 A 
ATOM     71  H   UNL A   1      44.194  29.050  27.993  1.00  0.00     0.167 HD
ATOM     72  C   UNL A   1      46.684  30.400  27.839  1.00  0.00     0.074 A 
ATOM     73  C   UNL A   1      48.079  30.668  27.560  1.00  0.00     0.031 C 
ATOM     74  C   UNL A   1      45.810  31.316  28.321  1.00  0.00     0.037 A 
BRANCH  61  75
ATOM     75  C   UNL A   1      40.061  29.198  29.057  1.00  0.00     0.064 A 
ATOM     76  C   UNL A   1      39.706  29.244  30.413  1.00  0.00     0.173 A 
ATOM     77  C   UNL A   1      39.076  29.520  28.109  1.00  0.00     0.173 A 
ATOM     78  F   UNL A   1      40.607  28.939  31.357  1.00  0.00    -0.203 F 
ATOM     79  C   UNL A   1      38.414  29.588  30.804  1.00  0.00     0.198 A 
ATOM     80  C   UNL A   1      37.794  29.891  28.506  1.00  0.00     0.198 A 
ATOM     81  F   UNL A   1      39.366  29.500  26.799  1.00  0.00    -0.203 F 
ATOM     82  F   UNL A   1      38.089  29.596  32.105  1.00  0.00    -0.200 F 
ATOM     83  C   UNL A   1      37.462  29.921  29.851  1.00  0.00     0.200 A 
ATOM     84  F   UNL A   1      36.881  30.229  27.584  1.00  0.00    -0.200 F 
ATOM     85  F   UNL A   1      36.225  30.270  30.231  1.00  0.00    -0.200 F 
ENDBRANCH  61  75
BRANCH  62  86
ATOM     86  C   UNL A   1      49.329  26.874  26.183  1.00  0.00     0.064 A 
ATOM     87  C   UNL A   1      50.243  26.381  27.123  1.00  0.00     0.173 A 
ATOM     88  C   UNL A   1      49.761  26.995  24.855  1.00  0.00     0.173 A 
ATOM     89  F   UNL A   1      49.884  26.267  28.411  1.00  0.00    -0.203 F 
ATOM     90  C   UNL A   1      51.538  26.028  26.752  1.00  0.00     0.198 A 
ATOM     91  C   UNL A   1      51.046  26.614  24.477  1.00  0.00     0.198 A 
ATOM     92  F   UNL A   1      48.924  27.461  23.916  1.00  0.00    -0.203 F 
ATOM     93  F   UNL A   1      52.403  25.589  27.676  1.00  0.00    -0.200 F 
ATOM     94  C   UNL A   1      51.935  26.134  25.426  1.00  0.00     0.200 A 
ATOM     95  F   UNL A   1      51.419  26.701  23.193  1.00  0.00    -0.200 F 
ATOM     96  F   UNL A   1      53.175  25.779  25.066  1.00  0.00    -0.200 F 
ENDBRANCH  62  86
BRANCH  74  97
ATOM     97  C   UNL A   1      46.328  32.697  28.594  1.00  0.00     0.064 A 
ATOM     98  C   UNL A   1      46.257  33.709  27.626  1.00  0.00     0.173 A 
ATOM     99  C   UNL A   1      46.825  33.035  29.862  1.00  0.00     0.173 A 
ATOM    100  F   UNL A   1      45.802  33.433  26.394  1.00  0.00    -0.203 F 
ATOM    101  C   UNL A   1      46.674  35.005  27.914  1.00  0.00     0.198 A 
ATOM    102  C   UNL A   1      47.214  34.339  30.156  1.00  0.00     0.198 A 
ATOM    103  F   UNL A   1      46.907  32.105  30.826  1.00  0.00    -0.203 F 
ATOM    104  F   UNL A   1      46.628  35.950  26.963  1.00  0.00    -0.200 F 
ATOM    105  C   UNL A   1      47.142  35.322  29.181  1.00  0.00     0.200 A 
ATOM    106  F   UNL A   1      47.649  34.645  31.386  1.00  0.00    -0.200 F 
ATOM    107  F   UNL A   1      47.524  36.575  29.462  1.00  0.00    -0.200 F 
ENDBRANCH  74  97
ENDBRANCH  48  49
ENDBRANCH  40  43
ENDBRANCH  38  39
ENDBRANCH   1  38
TORSDOF 12
ENDMDL
