MODEL 1
REMARK VINA RESULT:     -11.9      0.000      0.000
REMARK SMILES O=C(CCC[N@@H+]1CCC[C@]2(CCC(=O)N(CCc3ccccc3)C2)C1)NCCCNC(=O)c1ccc(-c2c3nc(c(-c4c(F)c(F)c(F)c(F)c4F)c4ccc([nH]4)c(-c4c(F)c(F)c(F)c(F)c4F)c4nc(c(-c5c(F)c(F)c(F)c(F)c5F)c5ccc2[nH]5)C=C4)C=C3)cc1
REMARK SMILES IDX 1 1 2 2 26 3 3 5 4 6 5 7 6 8 7 9 25 10 8 12 10 13 9 14 11 15
REMARK SMILES IDX 24 16 12 17 15 18 13 19 14 20 16 21 17 22 18 23 19 24 23 25
REMARK SMILES IDX 20 26 22 27 21 28 27 29 28 30 29 31 30 32 31 33 32 35 33 36
REMARK SMILES IDX 34 37 95 38 35 39 94 40 36 41 37 42 38 43 88 44 39 45 93 46
REMARK SMILES IDX 87 47 89 48 40 49 92 50 86 51 85 52 41 54 73 55 53 56 72 57
REMARK SMILES IDX 54 58 57 59 71 60 90 61 55 62 56 63 70 65 91 66 58 67 42 68
REMARK SMILES IDX 43 69 51 70 44 71 45 72 49 73 52 74 46 75 47 76 50 77 48 78
REMARK SMILES IDX 74 79 75 80 83 81 76 82 77 83 81 84 84 85 78 86 79 87 82 88
REMARK SMILES IDX 80 89 59 90 60 91 68 92 61 93 62 94 66 95 69 96 63 97 64 98
REMARK SMILES IDX 67 99 65 100
REMARK H PARENT 26 4 6 11 30 34 89 53 57 64
REMARK Flexibility Score: inf
ROOT
ATOM      1  O   UNL A   1      31.060  30.284  25.357  1.00  0.00    -0.275 OA
ATOM      2  C   UNL A   1      31.224  29.525  24.410  1.00  0.00     0.220 C 
ATOM      3  N   UNL A   1      32.358  28.778  24.206  1.00  0.00    -0.356 N 
ATOM      4  H   UNL A   1      32.340  28.041  23.554  1.00  0.00     0.163 HD
ENDROOT
BRANCH   2   5
ATOM      5  C   UNL A   1      30.255  29.437  23.257  1.00  0.00     0.106 C 
BRANCH   5   6
ATOM      6  C   UNL A   1      29.397  28.186  23.445  1.00  0.00     0.071 C 
BRANCH   6   7
ATOM      7  C   UNL A   1      30.092  26.846  23.120  1.00  0.00     0.262 C 
BRANCH   7   8
ATOM      8  N   UNL A   1      29.615  25.658  23.844  1.00  0.00    -0.334 N 
ATOM      9  C   UNL A   1      29.475  25.906  25.290  1.00  0.00     0.262 C 
ATOM     10  C   UNL A   1      30.372  24.417  23.628  1.00  0.00     0.271 C 
ATOM     11  H   UNL A   1      28.699  25.497  23.424  1.00  0.00     0.348 HD
ATOM     12  C   UNL A   1      30.795  25.866  26.073  1.00  0.00     0.062 C 
ATOM     13  C   UNL A   1      31.777  24.294  24.304  1.00  0.00     0.038 C 
ATOM     14  C   UNL A   1      31.595  24.582  25.813  1.00  0.00     0.020 C 
ATOM     15  C   UNL A   1      32.807  25.282  23.672  1.00  0.00     0.024 C 
ATOM     16  C   UNL A   1      32.246  22.818  24.078  1.00  0.00     0.132 C 
ATOM     17  C   UNL A   1      34.263  24.904  23.892  1.00  0.00     0.101 C 
ATOM     18  N   UNL A   1      33.684  22.610  24.137  1.00  0.00    -0.342 N 
ATOM     19  C   UNL A   1      34.415  23.504  23.369  1.00  0.00     0.222 C 
ATOM     20  O   UNL A   1      34.933  23.224  22.297  1.00  0.00    -0.275 OA
BRANCH  18  21
ATOM     21  C   UNL A   1      34.293  22.015  25.326  1.00  0.00     0.124 C 
BRANCH  21  22
ATOM     22  C   UNL A   1      35.560  21.178  25.049  1.00  0.00     0.057 C 
BRANCH  22  23
ATOM     23  C   UNL A   1      36.867  21.807  25.480  1.00  0.00    -0.046 A 
ATOM     24  C   UNL A   1      36.893  23.148  25.894  1.00  0.00     0.004 A 
ATOM     25  C   UNL A   1      38.060  21.073  25.507  1.00  0.00     0.004 A 
ATOM     26  C   UNL A   1      38.070  23.727  26.371  1.00  0.00     0.000 A 
ATOM     27  C   UNL A   1      39.237  21.653  25.987  1.00  0.00     0.000 A 
ATOM     28  C   UNL A   1      39.241  22.976  26.425  1.00  0.00     0.000 A 
ENDBRANCH  22  23
ENDBRANCH  21  22
ENDBRANCH  18  21
ENDBRANCH   7   8
ENDBRANCH   6   7
ENDBRANCH   5   6
ENDBRANCH   2   5
BRANCH   3  29
ATOM     29  C   UNL A   1      33.578  29.054  24.930  1.00  0.00     0.117 C 
BRANCH  29  30
ATOM     30  C   UNL A   1      33.847  28.031  26.019  1.00  0.00     0.042 C 
BRANCH  30  31
ATOM     31  C   UNL A   1      33.330  28.433  27.395  1.00  0.00     0.118 C 
BRANCH  31  32
ATOM     32  N   UNL A   1      33.282  29.872  27.607  1.00  0.00    -0.352 N 
ATOM     33  C   UNL A   1      34.289  30.712  28.029  1.00  0.00     0.251 C 
ATOM     34  H   UNL A   1      32.415  30.303  27.424  1.00  0.00     0.163 HD
ATOM     35  O   UNL A   1      34.072  31.895  28.252  1.00  0.00    -0.269 OA
BRANCH  33  36
ATOM     36  C   UNL A   1      35.640  30.150  28.252  1.00  0.00     0.039 A 
ATOM     37  C   UNL A   1      36.560  30.162  27.201  1.00  0.00     0.014 A 
ATOM     38  C   UNL A   1      36.013  29.688  29.517  1.00  0.00     0.014 A 
ATOM     39  C   UNL A   1      37.888  29.801  27.445  1.00  0.00     0.010 A 
ATOM     40  C   UNL A   1      37.350  29.405  29.774  1.00  0.00     0.010 A 
ATOM     41  C   UNL A   1      38.304  29.472  28.745  1.00  0.00    -0.014 A 
BRANCH  41  42
ATOM     42  C   UNL A   1      39.731  29.210  29.069  1.00  0.00     0.031 A 
ATOM     43  C   UNL A   1      40.550  30.270  29.749  1.00  0.00     0.074 A 
ATOM     44  C   UNL A   1      40.315  28.066  28.657  1.00  0.00     0.049 A 
ATOM     45  N   UNL A   1      41.840  30.308  29.971  1.00  0.00    -0.248 NA
ATOM     46  C   UNL A   1      39.824  31.462  30.214  1.00  0.00     0.031 C 
ATOM     47  C   UNL A   1      39.641  26.974  27.956  1.00  0.00     0.029 A 
ATOM     48  N   UNL A   1      41.620  27.645  28.750  1.00  0.00    -0.354 N 
ATOM     49  C   UNL A   1      42.082  31.533  30.574  1.00  0.00     0.074 A 
ATOM     50  C   UNL A   1      40.815  32.228  30.646  1.00  0.00     0.031 C 
ATOM     51  C   UNL A   1      40.532  26.004  27.691  1.00  0.00     0.029 A 
ATOM     52  C   UNL A   1      41.848  26.426  28.160  1.00  0.00     0.049 A 
ATOM     53  H   UNL A   1      42.325  28.168  29.197  1.00  0.00     0.167 HD
ATOM     54  C   UNL A   1      43.253  32.027  31.042  1.00  0.00     0.037 A 
ATOM     55  C   UNL A   1      42.993  25.734  27.997  1.00  0.00     0.037 A 
ATOM     56  C   UNL A   1      44.506  31.321  30.999  1.00  0.00     0.049 A 
ATOM     57  C   UNL A   1      44.282  26.307  28.521  1.00  0.00     0.074 A 
ATOM     58  C   UNL A   1      45.734  31.715  31.498  1.00  0.00     0.029 A 
ATOM     59  N   UNL A   1      44.687  30.070  30.426  1.00  0.00    -0.354 N 
ATOM     60  N   UNL A   1      44.491  27.446  29.134  1.00  0.00    -0.248 NA
ATOM     61  C   UNL A   1      45.495  25.498  28.331  1.00  0.00     0.031 C 
ATOM     62  C   UNL A   1      46.670  30.720  31.192  1.00  0.00     0.029 A 
ATOM     63  C   UNL A   1      46.013  29.686  30.545  1.00  0.00     0.049 A 
ATOM     64  H   UNL A   1      43.980  29.537  29.997  1.00  0.00     0.167 HD
ATOM     65  C   UNL A   1      45.846  27.475  29.435  1.00  0.00     0.074 A 
ATOM     66  C   UNL A   1      46.412  26.239  28.939  1.00  0.00     0.031 C 
ATOM     67  C   UNL A   1      46.555  28.440  30.069  1.00  0.00     0.037 A 
BRANCH  54  68
ATOM     68  C   UNL A   1      43.236  33.402  31.641  1.00  0.00     0.064 A 
ATOM     69  C   UNL A   1      43.037  33.602  33.016  1.00  0.00     0.173 A 
ATOM     70  C   UNL A   1      43.458  34.531  30.840  1.00  0.00     0.173 A 
ATOM     71  F   UNL A   1      42.807  32.556  33.825  1.00  0.00    -0.203 F 
ATOM     72  C   UNL A   1      43.034  34.883  33.561  1.00  0.00     0.198 A 
ATOM     73  C   UNL A   1      43.484  35.808  31.393  1.00  0.00     0.198 A 
ATOM     74  F   UNL A   1      43.659  34.396  29.521  1.00  0.00    -0.203 F 
ATOM     75  F   UNL A   1      42.793  35.052  34.868  1.00  0.00    -0.200 F 
ATOM     76  C   UNL A   1      43.264  35.985  32.750  1.00  0.00     0.200 A 
ATOM     77  F   UNL A   1      43.718  36.872  30.610  1.00  0.00    -0.200 F 
ATOM     78  F   UNL A   1      43.267  37.217  33.277  1.00  0.00    -0.200 F 
ENDBRANCH  54  68
BRANCH  55  79
ATOM     79  C   UNL A   1      42.971  24.410  27.321  1.00  0.00     0.064 A 
ATOM     80  C   UNL A   1      42.674  23.243  28.038  1.00  0.00     0.173 A 
ATOM     81  C   UNL A   1      43.252  24.283  25.953  1.00  0.00     0.173 A 
ATOM     82  F   UNL A   1      42.422  23.312  29.354  1.00  0.00    -0.203 F 
ATOM     83  C   UNL A   1      42.675  21.996  27.416  1.00  0.00     0.198 A 
ATOM     84  C   UNL A   1      43.226  23.038  25.327  1.00  0.00     0.198 A 
ATOM     85  F   UNL A   1      43.540  25.369  25.221  1.00  0.00    -0.203 F 
ATOM     86  F   UNL A   1      42.430  20.892  28.135  1.00  0.00    -0.200 F 
ATOM     87  C   UNL A   1      42.945  21.895  26.060  1.00  0.00     0.200 A 
ATOM     88  F   UNL A   1      43.476  22.946  24.013  1.00  0.00    -0.200 F 
ATOM     89  F   UNL A   1      42.942  20.696  25.462  1.00  0.00    -0.200 F 
ENDBRANCH  55  79
BRANCH  67  90
ATOM     90  C   UNL A   1      48.012  28.180  30.318  1.00  0.00     0.064 A 
ATOM     91  C   UNL A   1      48.458  27.532  31.478  1.00  0.00     0.173 A 
ATOM     92  C   UNL A   1      48.965  28.525  29.346  1.00  0.00     0.173 A 
ATOM     93  F   UNL A   1      47.588  27.196  32.441  1.00  0.00    -0.203 F 
ATOM     94  C   UNL A   1      49.810  27.251  31.662  1.00  0.00     0.198 A 
ATOM     95  C   UNL A   1      50.310  28.219  29.522  1.00  0.00     0.198 A 
ATOM     96  F   UNL A   1      48.585  29.141  28.217  1.00  0.00    -0.203 F 
ATOM     97  F   UNL A   1      50.221  26.660  32.792  1.00  0.00    -0.200 F 
ATOM     98  C   UNL A   1      50.732  27.585  30.682  1.00  0.00     0.200 A 
ATOM     99  F   UNL A   1      51.197  28.531  28.568  1.00  0.00    -0.200 F 
ATOM    100  F   UNL A   1      52.030  27.300  30.854  1.00  0.00    -0.200 F 
ENDBRANCH  67  90
ENDBRANCH  41  42
ENDBRANCH  33  36
ENDBRANCH  31  32
ENDBRANCH  30  31
ENDBRANCH  29  30
ENDBRANCH   3  29
TORSDOF 16
ENDMDL
MODEL 2
REMARK VINA RESULT:     -11.8      3.240      8.501
REMARK SMILES O=C(CCC[N@@H+]1CCC[C@]2(CCC(=O)N(CCc3ccccc3)C2)C1)NCCCNC(=O)c1ccc(-c2c3nc(c(-c4c(F)c(F)c(F)c(F)c4F)c4ccc([nH]4)c(-c4c(F)c(F)c(F)c(F)c4F)c4nc(c(-c5c(F)c(F)c(F)c(F)c5F)c5ccc2[nH]5)C=C4)C=C3)cc1
REMARK SMILES IDX 1 1 2 2 26 3 3 5 4 6 5 7 6 8 7 9 25 10 8 12 10 13 9 14 11 15
REMARK SMILES IDX 24 16 12 17 15 18 13 19 14 20 16 21 17 22 18 23 19 24 23 25
REMARK SMILES IDX 20 26 22 27 21 28 27 29 28 30 29 31 30 32 31 33 32 35 33 36
REMARK SMILES IDX 34 37 95 38 35 39 94 40 36 41 37 42 38 43 88 44 39 45 93 46
REMARK SMILES IDX 87 47 89 48 40 49 92 50 86 51 85 52 41 54 73 55 53 56 72 57
REMARK SMILES IDX 54 58 57 59 71 60 90 61 55 62 56 63 70 65 91 66 58 67 42 68
REMARK SMILES IDX 43 69 51 70 44 71 45 72 49 73 52 74 46 75 47 76 50 77 48 78
REMARK SMILES IDX 74 79 75 80 83 81 76 82 77 83 81 84 84 85 78 86 79 87 82 88
REMARK SMILES IDX 80 89 59 90 60 91 68 92 61 93 62 94 66 95 69 96 63 97 64 98
REMARK SMILES IDX 67 99 65 100
REMARK H PARENT 26 4 6 11 30 34 89 53 57 64
REMARK Flexibility Score: inf
ROOT
ATOM      1  O   UNL A   1      34.629  21.376  26.765  1.00  0.00    -0.275 OA
ATOM      2  C   UNL A   1      34.545  20.565  25.851  1.00  0.00     0.220 C 
ATOM      3  N   UNL A   1      35.605  20.162  25.076  1.00  0.00    -0.356 N 
ATOM      4  H   UNL A   1      35.511  19.364  24.509  1.00  0.00     0.163 HD
ENDROOT
BRANCH   2   5
ATOM      5  C   UNL A   1      33.225  20.024  25.358  1.00  0.00     0.106 C 
BRANCH   5   6
ATOM      6  C   UNL A   1      32.555  21.099  24.502  1.00  0.00     0.071 C 
BRANCH   6   7
ATOM      7  C   UNL A   1      31.789  22.191  25.280  1.00  0.00     0.262 C 
BRANCH   7   8
ATOM      8  N   UNL A   1      32.598  23.225  25.942  1.00  0.00    -0.334 N 
ATOM      9  C   UNL A   1      31.793  24.069  26.844  1.00  0.00     0.262 C 
ATOM     10  C   UNL A   1      33.408  24.079  25.061  1.00  0.00     0.271 C 
ATOM     11  H   UNL A   1      33.267  22.672  26.479  1.00  0.00     0.348 HD
ATOM     12  C   UNL A   1      30.968  25.151  26.134  1.00  0.00     0.062 C 
ATOM     13  C   UNL A   1      32.667  25.165  24.216  1.00  0.00     0.038 C 
ATOM     14  C   UNL A   1      31.817  26.015  25.191  1.00  0.00     0.020 C 
ATOM     15  C   UNL A   1      31.767  24.521  23.115  1.00  0.00     0.024 C 
ATOM     16  C   UNL A   1      33.780  26.041  23.550  1.00  0.00     0.132 C 
ATOM     17  C   UNL A   1      31.419  25.447  21.961  1.00  0.00     0.101 C 
ATOM     18  N   UNL A   1      33.375  26.745  22.344  1.00  0.00    -0.342 N 
ATOM     19  C   UNL A   1      32.726  25.945  21.415  1.00  0.00     0.222 C 
ATOM     20  O   UNL A   1      33.243  25.532  20.387  1.00  0.00    -0.275 OA
BRANCH  18  21
ATOM     21  C   UNL A   1      33.082  28.177  22.392  1.00  0.00     0.124 C 
BRANCH  21  22
ATOM     22  C   UNL A   1      33.960  28.981  23.373  1.00  0.00     0.057 C 
BRANCH  22  23
ATOM     23  C   UNL A   1      33.397  29.150  24.768  1.00  0.00    -0.046 A 
ATOM     24  C   UNL A   1      32.084  29.615  24.938  1.00  0.00     0.004 A 
ATOM     25  C   UNL A   1      34.146  28.823  25.906  1.00  0.00     0.004 A 
ATOM     26  C   UNL A   1      31.515  29.704  26.210  1.00  0.00     0.000 A 
ATOM     27  C   UNL A   1      33.576  28.911  27.178  1.00  0.00     0.000 A 
ATOM     28  C   UNL A   1      32.259  29.344  27.330  1.00  0.00     0.000 A 
ENDBRANCH  22  23
ENDBRANCH  21  22
ENDBRANCH  18  21
ENDBRANCH   7   8
ENDBRANCH   6   7
ENDBRANCH   5   6
ENDBRANCH   2   5
BRANCH   3  29
ATOM     29  C   UNL A   1      36.854  20.889  25.078  1.00  0.00     0.117 C 
BRANCH  29  30
ATOM     30  C   UNL A   1      38.051  19.980  24.874  1.00  0.00     0.042 C 
BRANCH  30  31
ATOM     31  C   UNL A   1      39.220  20.267  25.809  1.00  0.00     0.118 C 
BRANCH  31  32
ATOM     32  N   UNL A   1      40.174  19.172  25.910  1.00  0.00    -0.352 N 
ATOM     33  C   UNL A   1      41.532  19.235  26.136  1.00  0.00     0.251 C 
ATOM     34  H   UNL A   1      39.799  18.268  25.804  1.00  0.00     0.163 HD
ATOM     35  O   UNL A   1      42.224  18.227  26.103  1.00  0.00    -0.269 OA
BRANCH  33  36
ATOM     36  C   UNL A   1      42.155  20.555  26.380  1.00  0.00     0.039 A 
ATOM     37  C   UNL A   1      42.600  21.306  25.290  1.00  0.00     0.014 A 
ATOM     38  C   UNL A   1      42.224  21.075  27.675  1.00  0.00     0.014 A 
ATOM     39  C   UNL A   1      43.026  22.622  25.488  1.00  0.00     0.010 A 
ATOM     40  C   UNL A   1      42.574  22.409  27.859  1.00  0.00     0.010 A 
ATOM     41  C   UNL A   1      42.964  23.201  26.766  1.00  0.00    -0.014 A 
BRANCH  41  42
ATOM     42  C   UNL A   1      43.283  24.634  26.994  1.00  0.00     0.031 A 
ATOM     43  C   UNL A   1      44.683  25.133  26.775  1.00  0.00     0.074 A 
ATOM     44  C   UNL A   1      42.344  25.459  27.500  1.00  0.00     0.049 A 
ATOM     45  N   UNL A   1      45.205  26.297  27.069  1.00  0.00    -0.248 NA
ATOM     46  C   UNL A   1      45.630  24.184  26.169  1.00  0.00     0.031 C 
ATOM     47  C   UNL A   1      40.959  25.091  27.792  1.00  0.00     0.029 A 
ATOM     48  N   UNL A   1      42.424  26.778  27.880  1.00  0.00    -0.354 N 
ATOM     49  C   UNL A   1      46.544  26.210  26.712  1.00  0.00     0.074 A 
ATOM     50  C   UNL A   1      46.764  24.867  26.218  1.00  0.00     0.031 C 
ATOM     51  C   UNL A   1      40.317  26.157  28.296  1.00  0.00     0.029 A 
ATOM     52  C   UNL A   1      41.254  27.271  28.406  1.00  0.00     0.049 A 
ATOM     53  H   UNL A   1      43.242  27.318  27.785  1.00  0.00     0.167 HD
ATOM     54  C   UNL A   1      47.498  27.168  26.774  1.00  0.00     0.037 A 
ATOM     55  C   UNL A   1      40.975  28.477  28.937  1.00  0.00     0.037 A 
ATOM     56  C   UNL A   1      47.269  28.512  27.235  1.00  0.00     0.049 A 
ATOM     57  C   UNL A   1      42.055  29.523  28.999  1.00  0.00     0.074 A 
ATOM     58  C   UNL A   1      48.159  29.570  27.282  1.00  0.00     0.029 A 
ATOM     59  N   UNL A   1      46.059  28.982  27.725  1.00  0.00    -0.354 N 
ATOM     60  N   UNL A   1      43.304  29.445  28.613  1.00  0.00    -0.248 NA
ATOM     61  C   UNL A   1      41.685  30.827  29.572  1.00  0.00     0.031 C 
ATOM     62  C   UNL A   1      47.499  30.671  27.838  1.00  0.00     0.029 A 
ATOM     63  C   UNL A   1      46.185  30.312  28.092  1.00  0.00     0.049 A 
ATOM     64  H   UNL A   1      45.235  28.450  27.802  1.00  0.00     0.167 HD
ATOM     65  C   UNL A   1      43.859  30.694  28.860  1.00  0.00     0.074 A 
ATOM     66  C   UNL A   1      42.810  31.514  29.429  1.00  0.00     0.031 C 
ATOM     67  C   UNL A   1      45.124  31.122  28.632  1.00  0.00     0.037 A 
BRANCH  54  68
ATOM     68  C   UNL A   1      48.883  26.798  26.333  1.00  0.00     0.064 A 
ATOM     69  C   UNL A   1      49.313  26.998  25.012  1.00  0.00     0.173 A 
ATOM     70  C   UNL A   1      49.804  26.271  27.250  1.00  0.00     0.173 A 
ATOM     71  F   UNL A   1      48.465  27.487  24.094  1.00  0.00    -0.203 F 
ATOM     72  C   UNL A   1      50.604  26.659  24.619  1.00  0.00     0.198 A 
ATOM     73  C   UNL A   1      51.105  25.961  26.860  1.00  0.00     0.198 A 
ATOM     74  F   UNL A   1      49.447  26.064  28.526  1.00  0.00    -0.203 F 
ATOM     75  F   UNL A   1      50.976  26.814  23.341  1.00  0.00    -0.200 F 
ATOM     76  C   UNL A   1      51.501  26.147  25.546  1.00  0.00     0.200 A 
ATOM     77  F   UNL A   1      51.975  25.477  27.759  1.00  0.00    -0.200 F 
ATOM     78  F   UNL A   1      52.747  25.828  25.167  1.00  0.00    -0.200 F 
ENDBRANCH  54  68
BRANCH  55  79
ATOM     79  C   UNL A   1      39.606  28.769  29.437  1.00  0.00     0.064 A 
ATOM     80  C   UNL A   1      39.245  28.471  30.759  1.00  0.00     0.173 A 
ATOM     81  C   UNL A   1      38.631  29.343  28.608  1.00  0.00     0.173 A 
ATOM     82  F   UNL A   1      40.137  27.900  31.582  1.00  0.00    -0.203 F 
ATOM     83  C   UNL A   1      37.957  28.720  31.228  1.00  0.00     0.198 A 
ATOM     84  C   UNL A   1      37.351  29.617  29.087  1.00  0.00     0.198 A 
ATOM     85  F   UNL A   1      38.925  29.650  27.337  1.00  0.00    -0.203 F 
ATOM     86  F   UNL A   1      37.628  28.385  32.483  1.00  0.00    -0.200 F 
ATOM     87  C   UNL A   1      37.013  29.298  30.394  1.00  0.00     0.200 A 
ATOM     88  F   UNL A   1      36.444  30.186  28.280  1.00  0.00    -0.200 F 
ATOM     89  F   UNL A   1      35.775  29.540  30.846  1.00  0.00    -0.200 F 
ENDBRANCH  55  79
BRANCH  67  90
ATOM     90  C   UNL A   1      45.438  32.556  28.941  1.00  0.00     0.064 A 
ATOM     91  C   UNL A   1      46.032  32.937  30.151  1.00  0.00     0.173 A 
ATOM     92  C   UNL A   1      45.201  33.552  27.979  1.00  0.00     0.173 A 
ATOM     93  F   UNL A   1      46.264  32.025  31.107  1.00  0.00    -0.203 F 
ATOM     94  C   UNL A   1      46.366  34.268  30.394  1.00  0.00     0.198 A 
ATOM     95  C   UNL A   1      45.560  34.875  28.215  1.00  0.00     0.198 A 
ATOM     96  F   UNL A   1      44.640  33.235  26.803  1.00  0.00    -0.203 F 
ATOM     97  F   UNL A   1      46.904  34.617  31.571  1.00  0.00    -0.200 F 
ATOM     98  C   UNL A   1      46.139  35.232  29.424  1.00  0.00     0.200 A 
ATOM     99  F   UNL A   1      45.353  35.802  27.271  1.00  0.00    -0.200 F 
ATOM    100  F   UNL A   1      46.475  36.509  29.654  1.00  0.00    -0.200 F 
ENDBRANCH  67  90
ENDBRANCH  41  42
ENDBRANCH  33  36
ENDBRANCH  31  32
ENDBRANCH  30  31
ENDBRANCH  29  30
ENDBRANCH   3  29
TORSDOF 16
ENDMDL
MODEL 3
REMARK VINA RESULT:     -11.7      3.177      8.963
REMARK SMILES O=C(CCC[N@@H+]1CCC[C@]2(CCC(=O)N(CCc3ccccc3)C2)C1)NCCCNC(=O)c1ccc(-c2c3nc(c(-c4c(F)c(F)c(F)c(F)c4F)c4ccc([nH]4)c(-c4c(F)c(F)c(F)c(F)c4F)c4nc(c(-c5c(F)c(F)c(F)c(F)c5F)c5ccc2[nH]5)C=C4)C=C3)cc1
REMARK SMILES IDX 1 1 2 2 26 3 3 5 4 6 5 7 6 8 7 9 25 10 8 12 10 13 9 14 11 15
REMARK SMILES IDX 24 16 12 17 15 18 13 19 14 20 16 21 17 22 18 23 19 24 23 25
REMARK SMILES IDX 20 26 22 27 21 28 27 29 28 30 29 31 30 32 31 33 32 35 33 36
REMARK SMILES IDX 34 37 95 38 35 39 94 40 36 41 37 42 38 43 88 44 39 45 93 46
REMARK SMILES IDX 87 47 89 48 40 49 92 50 86 51 85 52 41 54 73 55 53 56 72 57
REMARK SMILES IDX 54 58 57 59 71 60 90 61 55 62 56 63 70 65 91 66 58 67 42 68
REMARK SMILES IDX 43 69 51 70 44 71 45 72 49 73 52 74 46 75 47 76 50 77 48 78
REMARK SMILES IDX 74 79 75 80 83 81 76 82 77 83 81 84 84 85 78 86 79 87 82 88
REMARK SMILES IDX 80 89 59 90 60 91 68 92 61 93 62 94 66 95 69 96 63 97 64 98
REMARK SMILES IDX 67 99 65 100
REMARK H PARENT 26 4 6 11 30 34 89 53 57 64
REMARK Flexibility Score: inf
ROOT
ATOM      1  O   UNL A   1      35.080  21.946  26.180  1.00  0.00    -0.275 OA
ATOM      2  C   UNL A   1      34.983  20.893  25.563  1.00  0.00     0.220 C 
ATOM      3  N   UNL A   1      36.051  20.192  25.059  1.00  0.00    -0.356 N 
ATOM      4  H   UNL A   1      35.922  19.262  24.765  1.00  0.00     0.163 HD
ENDROOT
BRANCH   2   5
ATOM      5  C   UNL A   1      33.655  20.313  25.141  1.00  0.00     0.106 C 
BRANCH   5   6
ATOM      6  C   UNL A   1      32.919  21.358  24.304  1.00  0.00     0.071 C 
BRANCH   6   7
ATOM      7  C   UNL A   1      31.785  22.115  25.029  1.00  0.00     0.262 C 
BRANCH   7   8
ATOM      8  N   UNL A   1      32.188  23.111  26.032  1.00  0.00    -0.334 N 
ATOM      9  C   UNL A   1      31.038  23.629  26.796  1.00  0.00     0.262 C 
ATOM     10  C   UNL A   1      33.000  24.235  25.543  1.00  0.00     0.271 C 
ATOM     11  H   UNL A   1      32.803  22.573  26.643  1.00  0.00     0.348 HD
ATOM     12  C   UNL A   1      30.210  24.690  26.058  1.00  0.00     0.062 C 
ATOM     13  C   UNL A   1      32.283  25.339  24.699  1.00  0.00     0.038 C 
ATOM     14  C   UNL A   1      31.072  25.841  25.521  1.00  0.00     0.020 C 
ATOM     15  C   UNL A   1      31.822  24.793  23.312  1.00  0.00     0.024 C 
ATOM     16  C   UNL A   1      33.327  26.489  24.501  1.00  0.00     0.132 C 
ATOM     17  C   UNL A   1      31.586  25.863  22.258  1.00  0.00     0.101 C 
ATOM     18  N   UNL A   1      33.093  27.345  23.349  1.00  0.00    -0.342 N 
ATOM     19  C   UNL A   1      32.860  26.652  22.170  1.00  0.00     0.222 C 
ATOM     20  O   UNL A   1      33.681  26.533  21.271  1.00  0.00    -0.275 OA
BRANCH  18  21
ATOM     21  C   UNL A   1      32.518  28.677  23.528  1.00  0.00     0.124 C 
BRANCH  21  22
ATOM     22  C   UNL A   1      31.273  28.723  24.438  1.00  0.00     0.057 C 
BRANCH  22  23
ATOM     23  C   UNL A   1      30.002  29.223  23.785  1.00  0.00    -0.046 A 
ATOM     24  C   UNL A   1      29.018  28.306  23.383  1.00  0.00     0.004 A 
ATOM     25  C   UNL A   1      29.765  30.590  23.593  1.00  0.00     0.004 A 
ATOM     26  C   UNL A   1      27.805  28.747  22.851  1.00  0.00     0.000 A 
ATOM     27  C   UNL A   1      28.550  31.030  23.062  1.00  0.00     0.000 A 
ATOM     28  C   UNL A   1      27.568  30.110  22.698  1.00  0.00     0.000 A 
ENDBRANCH  22  23
ENDBRANCH  21  22
ENDBRANCH  18  21
ENDBRANCH   7   8
ENDBRANCH   6   7
ENDBRANCH   5   6
ENDBRANCH   2   5
BRANCH   3  29
ATOM     29  C   UNL A   1      37.360  20.795  24.951  1.00  0.00     0.117 C 
BRANCH  29  30
ATOM     30  C   UNL A   1      38.470  19.761  24.911  1.00  0.00     0.042 C 
BRANCH  30  31
ATOM     31  C   UNL A   1      39.607  20.025  25.891  1.00  0.00     0.118 C 
BRANCH  31  32
ATOM     32  N   UNL A   1      40.592  18.955  25.951  1.00  0.00    -0.352 N 
ATOM     33  C   UNL A   1      41.954  19.052  26.135  1.00  0.00     0.251 C 
ATOM     34  H   UNL A   1      40.237  18.042  25.847  1.00  0.00     0.163 HD
ATOM     35  O   UNL A   1      42.671  18.062  26.070  1.00  0.00    -0.269 OA
BRANCH  33  36
ATOM     36  C   UNL A   1      42.550  20.385  26.373  1.00  0.00     0.039 A 
ATOM     37  C   UNL A   1      43.023  21.120  25.283  1.00  0.00     0.014 A 
ATOM     38  C   UNL A   1      42.566  20.933  27.658  1.00  0.00     0.014 A 
ATOM     39  C   UNL A   1      43.423  22.446  25.468  1.00  0.00     0.010 A 
ATOM     40  C   UNL A   1      42.890  22.275  27.826  1.00  0.00     0.010 A 
ATOM     41  C   UNL A   1      43.308  23.050  26.731  1.00  0.00    -0.014 A 
BRANCH  41  42
ATOM     42  C   UNL A   1      43.599  24.492  26.940  1.00  0.00     0.031 A 
ATOM     43  C   UNL A   1      44.996  25.009  26.747  1.00  0.00     0.074 A 
ATOM     44  C   UNL A   1      42.635  25.311  27.406  1.00  0.00     0.049 A 
ATOM     45  N   UNL A   1      45.493  26.186  27.033  1.00  0.00    -0.248 NA
ATOM     46  C   UNL A   1      45.973  24.064  26.184  1.00  0.00     0.031 C 
ATOM     47  C   UNL A   1      41.249  24.927  27.670  1.00  0.00     0.029 A 
ATOM     48  N   UNL A   1      42.684  26.638  27.763  1.00  0.00    -0.354 N 
ATOM     49  C   UNL A   1      46.841  26.113  26.711  1.00  0.00     0.074 A 
ATOM     50  C   UNL A   1      47.094  24.766  26.248  1.00  0.00     0.031 C 
ATOM     51  C   UNL A   1      40.577  25.992  28.137  1.00  0.00     0.029 A 
ATOM     52  C   UNL A   1      41.494  27.122  28.250  1.00  0.00     0.049 A 
ATOM     53  H   UNL A   1      43.496  27.189  27.678  1.00  0.00     0.167 HD
ATOM     54  C   UNL A   1      47.778  27.088  26.780  1.00  0.00     0.037 A 
ATOM     55  C   UNL A   1      41.183  28.333  28.750  1.00  0.00     0.037 A 
ATOM     56  C   UNL A   1      47.517  28.437  27.209  1.00  0.00     0.049 A 
ATOM     57  C   UNL A   1      42.244  29.398  28.820  1.00  0.00     0.074 A 
ATOM     58  C   UNL A   1      48.389  29.509  27.258  1.00  0.00     0.029 A 
ATOM     59  N   UNL A   1      46.287  28.897  27.659  1.00  0.00    -0.354 N 
ATOM     60  N   UNL A   1      43.504  29.332  28.468  1.00  0.00    -0.248 NA
ATOM     61  C   UNL A   1      41.839  30.705  29.358  1.00  0.00     0.031 C 
ATOM     62  C   UNL A   1      47.698  30.610  27.777  1.00  0.00     0.029 A 
ATOM     63  C   UNL A   1      46.384  30.235  28.004  1.00  0.00     0.049 A 
ATOM     64  H   UNL A   1      45.470  28.353  27.725  1.00  0.00     0.167 HD
ATOM     65  C   UNL A   1      44.033  30.594  28.705  1.00  0.00     0.074 A 
ATOM     66  C   UNL A   1      42.957  31.407  29.231  1.00  0.00     0.031 C 
ATOM     67  C   UNL A   1      45.297  31.038  28.501  1.00  0.00     0.037 A 
BRANCH  54  68
ATOM     68  C   UNL A   1      49.180  26.732  26.381  1.00  0.00     0.064 A 
ATOM     69  C   UNL A   1      49.636  26.901  25.065  1.00  0.00     0.173 A 
ATOM     70  C   UNL A   1      50.090  26.251  27.334  1.00  0.00     0.173 A 
ATOM     71  F   UNL A   1      48.800  27.345  24.113  1.00  0.00    -0.203 F 
ATOM     72  C   UNL A   1      50.942  26.575  24.711  1.00  0.00     0.198 A 
ATOM     73  C   UNL A   1      51.404  25.955  26.983  1.00  0.00     0.198 A 
ATOM     74  F   UNL A   1      49.708  26.075  28.607  1.00  0.00    -0.203 F 
ATOM     75  F   UNL A   1      51.340  26.698  23.438  1.00  0.00    -0.200 F 
ATOM     76  C   UNL A   1      51.827  26.109  25.673  1.00  0.00     0.200 A 
ATOM     77  F   UNL A   1      52.263  25.515  27.915  1.00  0.00    -0.200 F 
ATOM     78  F   UNL A   1      53.087  25.802  25.331  1.00  0.00    -0.200 F 
ENDBRANCH  54  68
BRANCH  55  79
ATOM     79  C   UNL A   1      39.797  28.613  29.210  1.00  0.00     0.064 A 
ATOM     80  C   UNL A   1      38.844  29.150  28.334  1.00  0.00     0.173 A 
ATOM     81  C   UNL A   1      39.398  28.356  30.530  1.00  0.00     0.173 A 
ATOM     82  F   UNL A   1      39.186  29.434  27.068  1.00  0.00    -0.203 F 
ATOM     83  C   UNL A   1      37.550  29.437  28.763  1.00  0.00     0.198 A 
ATOM     84  C   UNL A   1      38.096  28.618  30.951  1.00  0.00     0.198 A 
ATOM     85  F   UNL A   1      40.270  27.840  31.408  1.00  0.00    -0.203 F 
ATOM     86  F   UNL A   1      36.673  29.991  27.915  1.00  0.00    -0.200 F 
ATOM     87  C   UNL A   1      37.175  29.165  30.070  1.00  0.00     0.200 A 
ATOM     88  F   UNL A   1      37.734  28.343  32.212  1.00  0.00    -0.200 F 
ATOM     89  F   UNL A   1      35.930  29.438  30.482  1.00  0.00    -0.200 F 
ENDBRANCH  55  79
BRANCH  67  90
ATOM     90  C   UNL A   1      45.580  32.482  28.790  1.00  0.00     0.064 A 
ATOM     91  C   UNL A   1      45.368  33.482  27.832  1.00  0.00     0.173 A 
ATOM     92  C   UNL A   1      46.005  32.874  30.070  1.00  0.00     0.173 A 
ATOM     93  F   UNL A   1      44.977  33.157  26.591  1.00  0.00    -0.203 F 
ATOM     94  C   UNL A   1      45.585  34.824  28.141  1.00  0.00     0.198 A 
ATOM     95  C   UNL A   1      46.195  34.216  30.383  1.00  0.00     0.198 A 
ATOM     96  F   UNL A   1      46.215  31.953  31.023  1.00  0.00    -0.203 F 
ATOM     97  F   UNL A   1      45.408  35.762  27.201  1.00  0.00    -0.200 F 
ATOM     98  C   UNL A   1      45.988  35.189  29.416  1.00  0.00     0.200 A 
ATOM     99  F   UNL A   1      46.571  34.568  31.619  1.00  0.00    -0.200 F 
ATOM    100  F   UNL A   1      46.181  36.481  29.715  1.00  0.00    -0.200 F 
ENDBRANCH  67  90
ENDBRANCH  41  42
ENDBRANCH  33  36
ENDBRANCH  31  32
ENDBRANCH  30  31
ENDBRANCH  29  30
ENDBRANCH   3  29
TORSDOF 16
ENDMDL
