MODEL 1
REMARK VINA RESULT:     -12.5      0.000      0.000
REMARK SMILES Cc1cc(C(=O)N2CCC[C@@H]2C)sc1/C=C/C(=O)NCCCNC(=O)c1ccc(-c2c3nc(c(-c4c(F)c(F)c(F)c(F)c4F)c4ccc([nH]4)c(-c4c(F)c(F)c(F)c(F)c4F)c4nc(c(-c5c(F)c(F)c(F)c(F)c5F)c5ccc2[nH]5)C=C4)C=C3)cc1
REMARK SMILES IDX 20 1 19 2 17 3 18 4 16 6 15 7 14 8 1 9 2 10 3 11 4 12 13 13
REMARK SMILES IDX 5 14 6 15 7 16 8 17 11 18 9 19 10 20 12 21 21 22 22 23 23 24
REMARK SMILES IDX 24 25 25 27 26 28 27 29 88 30 28 31 87 32 29 33 30 34 31 35
REMARK SMILES IDX 81 36 32 37 86 38 80 39 82 40 33 41 85 42 79 43 78 44 34 46
REMARK SMILES IDX 66 47 46 48 65 49 47 50 50 51 64 52 83 53 48 54 49 55 63 57
REMARK SMILES IDX 84 58 51 59 35 60 36 61 44 62 37 63 38 64 42 65 45 66 39 67
REMARK SMILES IDX 40 68 43 69 41 70 67 71 68 72 76 73 69 74 70 75 74 76 77 77
REMARK SMILES IDX 71 78 72 79 75 80 73 81 52 82 53 83 61 84 54 85 55 86 59 87
REMARK SMILES IDX 62 88 56 89 57 90 60 91 58 92
REMARK H PARENT 19 5 23 26 82 45 50 56
REMARK Flexibility Score: inf
ROOT
ATOM      1  C   UNL A   1      31.375  30.872  25.906  1.00  0.00     0.118 C 
ENDROOT
BRANCH   1   2
ATOM      2  N   UNL A   1      30.624  30.743  24.670  1.00  0.00    -0.352 N 
ATOM      3  C   UNL A   1      30.492  29.682  23.830  1.00  0.00     0.244 C 
ATOM      4  O   UNL A   1      29.715  29.747  22.881  1.00  0.00    -0.270 OA
ATOM      5  H   UNL A   1      30.135  31.552  24.396  1.00  0.00     0.163 HD
BRANCH   3   6
ATOM      6  C   UNL A   1      31.204  28.419  24.106  1.00  0.00     0.072 C 
ATOM      7  C   UNL A   1      32.466  28.182  23.719  1.00  0.00     0.025 C 
BRANCH   7   8
ATOM      8  C   UNL A   1      33.135  26.949  23.986  1.00  0.00     0.031 A 
ATOM      9  C   UNL A   1      33.640  27.206  26.499  1.00  0.00     0.046 C 
ATOM     10  C   UNL A   1      33.702  26.508  25.177  1.00  0.00    -0.032 A 
ATOM     11  C   UNL A   1      34.343  25.231  25.008  1.00  0.00     0.029 A 
ATOM     12  C   UNL A   1      34.219  24.708  23.734  1.00  0.00     0.093 A 
ATOM     13  S   UNL A   1      33.327  25.772  22.753  1.00  0.00    -0.130 S 
BRANCH  12  14
ATOM     14  C   UNL A   1      34.578  23.352  23.324  1.00  0.00     0.264 C 
ATOM     15  O   UNL A   1      35.426  23.174  22.444  1.00  0.00    -0.268 OA
BRANCH  14  16
ATOM     16  N   UNL A   1      34.042  22.243  23.970  1.00  0.00    -0.335 N 
ATOM     17  C   UNL A   1      32.616  22.007  23.900  1.00  0.00     0.120 C 
ATOM     18  C   UNL A   1      34.690  21.217  24.795  1.00  0.00     0.082 C 
ATOM     19  C   UNL A   1      32.527  20.494  23.976  1.00  0.00     0.024 C 
ATOM     20  C   UNL A   1      33.604  20.144  24.999  1.00  0.00     0.026 C 
ATOM     21  C   UNL A   1      35.155  21.788  26.132  1.00  0.00     0.031 C 
ENDBRANCH  14  16
ENDBRANCH  12  14
ENDBRANCH   7   8
ENDBRANCH   3   6
ENDBRANCH   1   2
BRANCH   1  22
ATOM     22  C   UNL A   1      31.218  32.264  26.512  1.00  0.00     0.042 C 
BRANCH  22  23
ATOM     23  C   UNL A   1      32.515  32.826  27.089  1.00  0.00     0.118 C 
BRANCH  23  24
ATOM     24  N   UNL A   1      32.350  34.183  27.585  1.00  0.00    -0.352 N 
ATOM     25  C   UNL A   1      32.969  34.827  28.626  1.00  0.00     0.251 C 
ATOM     26  H   UNL A   1      31.690  34.725  27.096  1.00  0.00     0.163 HD
ATOM     27  O   UNL A   1      32.529  35.906  29.014  1.00  0.00    -0.269 OA
BRANCH  25  28
ATOM     28  C   UNL A   1      34.153  34.238  29.293  1.00  0.00     0.039 A 
ATOM     29  C   UNL A   1      33.959  33.489  30.457  1.00  0.00     0.014 A 
ATOM     30  C   UNL A   1      35.448  34.471  28.821  1.00  0.00     0.014 A 
ATOM     31  C   UNL A   1      35.055  32.934  31.120  1.00  0.00     0.010 A 
ATOM     32  C   UNL A   1      36.536  33.862  29.446  1.00  0.00     0.010 A 
ATOM     33  C   UNL A   1      36.352  33.096  30.606  1.00  0.00    -0.014 A 
BRANCH  33  34
ATOM     34  C   UNL A   1      37.524  32.478  31.275  1.00  0.00     0.031 A 
ATOM     35  C   UNL A   1      38.282  31.368  30.603  1.00  0.00     0.074 A 
ATOM     36  C   UNL A   1      37.870  32.878  32.514  1.00  0.00     0.049 A 
ATOM     37  N   UNL A   1      39.282  30.654  31.056  1.00  0.00    -0.248 NA
ATOM     38  C   UNL A   1      37.841  30.992  29.250  1.00  0.00     0.031 C 
ATOM     39  C   UNL A   1      37.187  33.916  33.286  1.00  0.00     0.029 A 
ATOM     40  N   UNL A   1      38.874  32.449  33.344  1.00  0.00    -0.354 N 
ATOM     41  C   UNL A   1      39.576  29.737  30.056  1.00  0.00     0.074 A 
ATOM     42  C   UNL A   1      38.622  29.954  28.990  1.00  0.00     0.031 C 
ATOM     43  C   UNL A   1      37.801  34.055  34.473  1.00  0.00     0.029 A 
ATOM     44  C   UNL A   1      38.898  33.095  34.556  1.00  0.00     0.049 A 
ATOM     45  H   UNL A   1      39.517  31.746  33.096  1.00  0.00     0.167 HD
ATOM     46  C   UNL A   1      40.566  28.813  30.020  1.00  0.00     0.037 A 
ATOM     47  C   UNL A   1      39.709  32.927  35.618  1.00  0.00     0.037 A 
ATOM     48  C   UNL A   1      41.532  28.618  31.070  1.00  0.00     0.049 A 
ATOM     49  C   UNL A   1      40.806  31.900  35.550  1.00  0.00     0.074 A 
ATOM     50  C   UNL A   1      42.606  27.746  31.106  1.00  0.00     0.029 A 
ATOM     51  N   UNL A   1      41.541  29.311  32.272  1.00  0.00    -0.354 N 
ATOM     52  N   UNL A   1      41.109  31.078  34.576  1.00  0.00    -0.248 NA
ATOM     53  C   UNL A   1      41.678  31.786  36.727  1.00  0.00     0.031 C 
ATOM     54  C   UNL A   1      43.244  27.886  32.344  1.00  0.00     0.029 A 
ATOM     55  C   UNL A   1      42.593  28.875  33.062  1.00  0.00     0.049 A 
ATOM     56  H   UNL A   1      40.895  30.011  32.526  1.00  0.00     0.167 HD
ATOM     57  C   UNL A   1      42.219  30.366  35.009  1.00  0.00     0.074 A 
ATOM     58  C   UNL A   1      42.545  30.864  36.330  1.00  0.00     0.031 C 
ATOM     59  C   UNL A   1      42.906  29.386  34.371  1.00  0.00     0.037 A 
BRANCH  46  60
ATOM     60  C   UNL A   1      40.657  27.940  28.802  1.00  0.00     0.064 A 
ATOM     61  C   UNL A   1      39.963  26.724  28.717  1.00  0.00     0.173 A 
ATOM     62  C   UNL A   1      41.419  28.339  27.695  1.00  0.00     0.173 A 
ATOM     63  F   UNL A   1      39.229  26.291  29.753  1.00  0.00    -0.203 F 
ATOM     64  C   UNL A   1      40.050  25.927  27.578  1.00  0.00     0.198 A 
ATOM     65  C   UNL A   1      41.482  27.554  26.546  1.00  0.00     0.198 A 
ATOM     66  F   UNL A   1      42.098  29.497  27.721  1.00  0.00    -0.203 F 
ATOM     67  F   UNL A   1      39.416  24.747  27.538  1.00  0.00    -0.200 F 
ATOM     68  C   UNL A   1      40.804  26.345  26.493  1.00  0.00     0.200 A 
ATOM     69  F   UNL A   1      42.202  27.964  25.493  1.00  0.00    -0.200 F 
ATOM     70  F   UNL A   1      40.883  25.579  25.396  1.00  0.00    -0.200 F 
ENDBRANCH  46  60
BRANCH  47  71
ATOM     71  C   UNL A   1      39.527  33.770  36.826  1.00  0.00     0.064 A 
ATOM     72  C   UNL A   1      40.137  35.028  36.921  1.00  0.00     0.173 A 
ATOM     73  C   UNL A   1      38.737  33.343  37.903  1.00  0.00     0.173 A 
ATOM     74  F   UNL A   1      40.918  35.470  35.924  1.00  0.00    -0.203 F 
ATOM     75  C   UNL A   1      39.977  35.822  38.055  1.00  0.00     0.198 A 
ATOM     76  C   UNL A   1      38.556  34.149  39.025  1.00  0.00     0.198 A 
ATOM     77  F   UNL A   1      38.126  32.151  37.857  1.00  0.00    -0.203 F 
ATOM     78  F   UNL A   1      40.602  37.004  38.136  1.00  0.00    -0.200 F 
ATOM     79  C   UNL A   1      39.182  35.384  39.103  1.00  0.00     0.200 A 
ATOM     80  F   UNL A   1      37.776  33.729  40.030  1.00  0.00    -0.200 F 
ATOM     81  F   UNL A   1      39.023  36.150  40.191  1.00  0.00    -0.200 F 
ENDBRANCH  47  71
BRANCH  59  82
ATOM     82  C   UNL A   1      44.095  28.811  35.080  1.00  0.00     0.064 A 
ATOM     83  C   UNL A   1      45.376  29.362  34.931  1.00  0.00     0.173 A 
ATOM     84  C   UNL A   1      43.945  27.717  35.947  1.00  0.00     0.173 A 
ATOM     85  F   UNL A   1      45.573  30.397  34.102  1.00  0.00    -0.203 F 
ATOM     86  C   UNL A   1      46.468  28.824  35.608  1.00  0.00     0.198 A 
ATOM     87  C   UNL A   1      45.034  27.200  36.641  1.00  0.00     0.198 A 
ATOM     88  F   UNL A   1      42.739  27.158  36.127  1.00  0.00    -0.203 F 
ATOM     89  F   UNL A   1      47.691  29.338  35.417  1.00  0.00    -0.200 F 
ATOM     90  C   UNL A   1      46.295  27.748  36.467  1.00  0.00     0.200 A 
ATOM     91  F   UNL A   1      44.864  26.167  37.479  1.00  0.00    -0.200 F 
ATOM     92  F   UNL A   1      47.346  27.236  37.120  1.00  0.00    -0.200 F 
ENDBRANCH  59  82
ENDBRANCH  33  34
ENDBRANCH  25  28
ENDBRANCH  23  24
ENDBRANCH  22  23
ENDBRANCH   1  22
TORSDOF 13
ENDMDL
MODEL 2
REMARK VINA RESULT:     -12.4      0.509      1.820
REMARK SMILES Cc1cc(C(=O)N2CCC[C@@H]2C)sc1/C=C/C(=O)NCCCNC(=O)c1ccc(-c2c3nc(c(-c4c(F)c(F)c(F)c(F)c4F)c4ccc([nH]4)c(-c4c(F)c(F)c(F)c(F)c4F)c4nc(c(-c5c(F)c(F)c(F)c(F)c5F)c5ccc2[nH]5)C=C4)C=C3)cc1
REMARK SMILES IDX 20 1 19 2 17 3 18 4 16 6 15 7 14 8 1 9 2 10 3 11 4 12 13 13
REMARK SMILES IDX 5 14 6 15 7 16 8 17 11 18 9 19 10 20 12 21 21 22 22 23 23 24
REMARK SMILES IDX 24 25 25 27 26 28 27 29 88 30 28 31 87 32 29 33 30 34 31 35
REMARK SMILES IDX 81 36 32 37 86 38 80 39 82 40 33 41 85 42 79 43 78 44 34 46
REMARK SMILES IDX 66 47 46 48 65 49 47 50 50 51 64 52 83 53 48 54 49 55 63 57
REMARK SMILES IDX 84 58 51 59 35 60 36 61 44 62 37 63 38 64 42 65 45 66 39 67
REMARK SMILES IDX 40 68 43 69 41 70 67 71 68 72 76 73 69 74 70 75 74 76 77 77
REMARK SMILES IDX 71 78 72 79 75 80 73 81 52 82 53 83 61 84 54 85 55 86 59 87
REMARK SMILES IDX 62 88 56 89 57 90 60 91 58 92
REMARK H PARENT 19 5 23 26 82 45 50 56
REMARK Flexibility Score: inf
ROOT
ATOM      1  C   UNL A   1      31.358  30.963  25.842  1.00  0.00     0.118 C 
ENDROOT
BRANCH   1   2
ATOM      2  N   UNL A   1      30.504  30.835  24.673  1.00  0.00    -0.352 N 
ATOM      3  C   UNL A   1      30.299  29.775  23.848  1.00  0.00     0.244 C 
ATOM      4  O   UNL A   1      29.445  29.841  22.968  1.00  0.00    -0.270 OA
ATOM      5  H   UNL A   1      29.995  31.645  24.442  1.00  0.00     0.163 HD
BRANCH   3   6
ATOM      6  C   UNL A   1      31.030  28.511  24.062  1.00  0.00     0.072 C 
ATOM      7  C   UNL A   1      32.316  28.333  23.725  1.00  0.00     0.025 C 
BRANCH   7   8
ATOM      8  C   UNL A   1      33.003  27.099  23.931  1.00  0.00     0.031 A 
ATOM      9  C   UNL A   1      33.655  27.315  26.414  1.00  0.00     0.046 C 
ATOM     10  C   UNL A   1      33.641  26.640  25.078  1.00  0.00    -0.032 A 
ATOM     11  C   UNL A   1      34.275  25.368  24.850  1.00  0.00     0.029 A 
ATOM     12  C   UNL A   1      34.078  24.867  23.576  1.00  0.00     0.093 A 
ATOM     13  S   UNL A   1      33.127  25.945  22.668  1.00  0.00    -0.130 S 
BRANCH  12  14
ATOM     14  C   UNL A   1      34.416  23.520  23.123  1.00  0.00     0.264 C 
ATOM     15  O   UNL A   1      34.024  23.120  22.022  1.00  0.00    -0.268 OA
BRANCH  14  16
ATOM     16  N   UNL A   1      35.249  22.698  23.874  1.00  0.00    -0.335 N 
ATOM     17  C   UNL A   1      36.643  22.578  23.504  1.00  0.00     0.120 C 
ATOM     18  C   UNL A   1      34.951  21.842  25.028  1.00  0.00     0.082 C 
ATOM     19  C   UNL A   1      37.318  22.323  24.839  1.00  0.00     0.024 C 
ATOM     20  C   UNL A   1      36.333  21.397  25.544  1.00  0.00     0.026 C 
ATOM     21  C   UNL A   1      34.102  20.639  24.626  1.00  0.00     0.031 C 
ENDBRANCH  14  16
ENDBRANCH  12  14
ENDBRANCH   7   8
ENDBRANCH   3   6
ENDBRANCH   1   2
BRANCH   1  22
ATOM     22  C   UNL A   1      31.214  32.338  26.490  1.00  0.00     0.042 C 
BRANCH  22  23
ATOM     23  C   UNL A   1      32.487  32.816  27.185  1.00  0.00     0.118 C 
BRANCH  23  24
ATOM     24  N   UNL A   1      32.381  34.198  27.626  1.00  0.00    -0.352 N 
ATOM     25  C   UNL A   1      33.036  34.859  28.634  1.00  0.00     0.251 C 
ATOM     26  H   UNL A   1      31.738  34.746  27.120  1.00  0.00     0.163 HD
ATOM     27  O   UNL A   1      32.643  35.970  28.981  1.00  0.00    -0.269 OA
BRANCH  25  28
ATOM     28  C   UNL A   1      34.201  34.251  29.315  1.00  0.00     0.039 A 
ATOM     29  C   UNL A   1      33.976  33.469  30.453  1.00  0.00     0.014 A 
ATOM     30  C   UNL A   1      35.508  34.495  28.885  1.00  0.00     0.014 A 
ATOM     31  C   UNL A   1      35.054  32.894  31.129  1.00  0.00     0.010 A 
ATOM     32  C   UNL A   1      36.579  33.868  29.521  1.00  0.00     0.010 A 
ATOM     33  C   UNL A   1      36.364  33.070  30.654  1.00  0.00    -0.014 A 
BRANCH  33  34
ATOM     34  C   UNL A   1      37.518  32.433  31.336  1.00  0.00     0.031 A 
ATOM     35  C   UNL A   1      38.240  31.284  30.691  1.00  0.00     0.074 A 
ATOM     36  C   UNL A   1      37.877  32.850  32.565  1.00  0.00     0.049 A 
ATOM     37  N   UNL A   1      39.218  30.551  31.159  1.00  0.00    -0.248 NA
ATOM     38  C   UNL A   1      37.786  30.890  29.347  1.00  0.00     0.031 C 
ATOM     39  C   UNL A   1      37.228  33.926  33.314  1.00  0.00     0.029 A 
ATOM     40  N   UNL A   1      38.870  32.410  33.405  1.00  0.00    -0.354 N 
ATOM     41  C   UNL A   1      39.483  29.602  30.180  1.00  0.00     0.074 A 
ATOM     42  C   UNL A   1      38.535  29.823  29.110  1.00  0.00     0.031 C 
ATOM     43  C   UNL A   1      37.848  34.074  34.496  1.00  0.00     0.029 A 
ATOM     44  C   UNL A   1      38.915  33.083  34.601  1.00  0.00     0.049 A 
ATOM     45  H   UNL A   1      39.490  31.683  33.173  1.00  0.00     0.167 HD
ATOM     46  C   UNL A   1      40.445  28.647  30.166  1.00  0.00     0.037 A 
ATOM     47  C   UNL A   1      39.721  32.915  35.666  1.00  0.00     0.037 A 
ATOM     48  C   UNL A   1      41.406  28.448  31.219  1.00  0.00     0.049 A 
ATOM     49  C   UNL A   1      40.787  31.855  35.622  1.00  0.00     0.074 A 
ATOM     50  C   UNL A   1      42.453  27.544  31.274  1.00  0.00     0.029 A 
ATOM     51  N   UNL A   1      41.438  29.169  32.404  1.00  0.00    -0.354 N 
ATOM     52  N   UNL A   1      41.063  31.001  34.666  1.00  0.00    -0.248 NA
ATOM     53  C   UNL A   1      41.657  31.742  36.800  1.00  0.00     0.031 C 
ATOM     54  C   UNL A   1      43.096  27.694  32.509  1.00  0.00     0.029 A 
ATOM     55  C   UNL A   1      42.477  28.719  33.203  1.00  0.00     0.049 A 
ATOM     56  H   UNL A   1      40.814  29.893  32.642  1.00  0.00     0.167 HD
ATOM     57  C   UNL A   1      42.151  30.266  35.116  1.00  0.00     0.074 A 
ATOM     58  C   UNL A   1      42.494  30.784  36.424  1.00  0.00     0.031 C 
ATOM     59  C   UNL A   1      42.807  29.251  34.501  1.00  0.00     0.037 A 
BRANCH  46  60
ATOM     60  C   UNL A   1      40.507  27.744  28.969  1.00  0.00     0.064 A 
ATOM     61  C   UNL A   1      41.360  28.015  27.888  1.00  0.00     0.173 A 
ATOM     62  C   UNL A   1      39.731  26.577  28.915  1.00  0.00     0.173 A 
ATOM     63  F   UNL A   1      42.114  29.124  27.885  1.00  0.00    -0.203 F 
ATOM     64  C   UNL A   1      41.413  27.165  26.786  1.00  0.00     0.198 A 
ATOM     65  C   UNL A   1      39.807  25.714  27.824  1.00  0.00     0.198 A 
ATOM     66  F   UNL A   1      38.903  26.266  29.925  1.00  0.00    -0.203 F 
ATOM     67  F   UNL A   1      42.200  27.470  25.745  1.00  0.00    -0.200 F 
ATOM     68  C   UNL A   1      40.642  26.013  26.758  1.00  0.00     0.200 A 
ATOM     69  F   UNL A   1      39.070  24.595  27.803  1.00  0.00    -0.200 F 
ATOM     70  F   UNL A   1      40.698  25.194  25.699  1.00  0.00    -0.200 F 
ENDBRANCH  46  60
BRANCH  47  71
ATOM     71  C   UNL A   1      39.568  33.793  36.854  1.00  0.00     0.064 A 
ATOM     72  C   UNL A   1      38.777  33.396  37.941  1.00  0.00     0.173 A 
ATOM     73  C   UNL A   1      40.211  35.036  36.932  1.00  0.00     0.173 A 
ATOM     74  F   UNL A   1      38.126  32.224  37.902  1.00  0.00    -0.203 F 
ATOM     75  C   UNL A   1      38.622  34.218  39.055  1.00  0.00     0.198 A 
ATOM     76  C   UNL A   1      40.078  35.845  38.058  1.00  0.00     0.198 A 
ATOM     77  F   UNL A   1      40.985  35.457  35.921  1.00  0.00    -0.203 F 
ATOM     78  F   UNL A   1      37.830  33.832  40.065  1.00  0.00    -0.200 F 
ATOM     79  C   UNL A   1      39.278  35.439  39.116  1.00  0.00     0.200 A 
ATOM     80  F   UNL A   1      40.723  37.017  38.119  1.00  0.00    -0.200 F 
ATOM     81  F   UNL A   1      39.135  36.226  40.191  1.00  0.00    -0.200 F 
ENDBRANCH  47  71
BRANCH  59  82
ATOM     82  C   UNL A   1      43.980  28.656  35.222  1.00  0.00     0.064 A 
ATOM     83  C   UNL A   1      45.269  29.192  35.094  1.00  0.00     0.173 A 
ATOM     84  C   UNL A   1      43.804  27.558  36.079  1.00  0.00     0.173 A 
ATOM     85  F   UNL A   1      45.490  30.231  34.274  1.00  0.00    -0.203 F 
ATOM     86  C   UNL A   1      46.345  28.636  35.782  1.00  0.00     0.198 A 
ATOM     87  C   UNL A   1      44.877  27.023  36.785  1.00  0.00     0.198 A 
ATOM     88  F   UNL A   1      42.588  27.014  36.238  1.00  0.00    -0.203 F 
ATOM     89  F   UNL A   1      47.576  29.137  35.612  1.00  0.00    -0.200 F 
ATOM     90  C   UNL A   1      46.147  27.558  36.631  1.00  0.00     0.200 A 
ATOM     91  F   UNL A   1      44.682  25.987  37.613  1.00  0.00    -0.200 F 
ATOM     92  F   UNL A   1      47.183  27.028  37.295  1.00  0.00    -0.200 F 
ENDBRANCH  59  82
ENDBRANCH  33  34
ENDBRANCH  25  28
ENDBRANCH  23  24
ENDBRANCH  22  23
ENDBRANCH   1  22
TORSDOF 13
ENDMDL
MODEL 3
REMARK VINA RESULT:     -12.4      5.447     11.400
REMARK SMILES Cc1cc(C(=O)N2CCC[C@@H]2C)sc1/C=C/C(=O)NCCCNC(=O)c1ccc(-c2c3nc(c(-c4c(F)c(F)c(F)c(F)c4F)c4ccc([nH]4)c(-c4c(F)c(F)c(F)c(F)c4F)c4nc(c(-c5c(F)c(F)c(F)c(F)c5F)c5ccc2[nH]5)C=C4)C=C3)cc1
REMARK SMILES IDX 20 1 19 2 17 3 18 4 16 6 15 7 14 8 1 9 2 10 3 11 4 12 13 13
REMARK SMILES IDX 5 14 6 15 7 16 8 17 11 18 9 19 10 20 12 21 21 22 22 23 23 24
REMARK SMILES IDX 24 25 25 27 26 28 27 29 88 30 28 31 87 32 29 33 30 34 31 35
REMARK SMILES IDX 81 36 32 37 86 38 80 39 82 40 33 41 85 42 79 43 78 44 34 46
REMARK SMILES IDX 66 47 46 48 65 49 47 50 50 51 64 52 83 53 48 54 49 55 63 57
REMARK SMILES IDX 84 58 51 59 35 60 36 61 44 62 37 63 38 64 42 65 45 66 39 67
REMARK SMILES IDX 40 68 43 69 41 70 67 71 68 72 76 73 69 74 70 75 74 76 77 77
REMARK SMILES IDX 71 78 72 79 75 80 73 81 52 82 53 83 61 84 54 85 55 86 59 87
REMARK SMILES IDX 62 88 56 89 57 90 60 91 58 92
REMARK H PARENT 19 5 23 26 82 45 50 56
REMARK Flexibility Score: inf
ROOT
ATOM      1  C   UNL A   1      36.836  20.029  25.000  1.00  0.00     0.118 C 
ENDROOT
BRANCH   1   2
ATOM      2  N   UNL A   1      35.640  19.210  24.908  1.00  0.00    -0.352 N 
ATOM      3  C   UNL A   1      34.334  19.571  24.809  1.00  0.00     0.244 C 
ATOM      4  O   UNL A   1      33.473  18.712  24.634  1.00  0.00    -0.270 OA
ATOM      5  H   UNL A   1      35.802  18.239  24.921  1.00  0.00     0.163 HD
BRANCH   3   6
ATOM      6  C   UNL A   1      33.952  20.996  24.816  1.00  0.00     0.072 C 
ATOM      7  C   UNL A   1      33.901  21.743  25.929  1.00  0.00     0.025 C 
BRANCH   7   8
ATOM      8  C   UNL A   1      33.520  23.119  25.917  1.00  0.00     0.031 A 
ATOM      9  C   UNL A   1      35.752  24.238  25.284  1.00  0.00     0.046 C 
ATOM     10  C   UNL A   1      34.310  24.240  25.685  1.00  0.00    -0.032 A 
ATOM     11  C   UNL A   1      33.552  25.453  25.832  1.00  0.00     0.029 A 
ATOM     12  C   UNL A   1      32.216  25.245  26.122  1.00  0.00     0.093 A 
ATOM     13  S   UNL A   1      31.894  23.579  26.214  1.00  0.00    -0.130 S 
BRANCH  12  14
ATOM     14  C   UNL A   1      31.169  26.265  26.118  1.00  0.00     0.264 C 
ATOM     15  O   UNL A   1      30.028  25.982  26.499  1.00  0.00    -0.268 OA
BRANCH  14  16
ATOM     16  N   UNL A   1      31.450  27.581  25.772  1.00  0.00    -0.335 N 
ATOM     17  C   UNL A   1      31.489  27.950  24.373  1.00  0.00     0.120 C 
ATOM     18  C   UNL A   1      31.775  28.739  26.614  1.00  0.00     0.082 C 
ATOM     19  C   UNL A   1      31.044  29.400  24.402  1.00  0.00     0.024 C 
ATOM     20  C   UNL A   1      31.731  29.940  25.652  1.00  0.00     0.026 C 
ATOM     21  C   UNL A   1      33.154  28.595  27.252  1.00  0.00     0.031 C 
ENDBRANCH  14  16
ENDBRANCH  12  14
ENDBRANCH   7   8
ENDBRANCH   3   6
ENDBRANCH   1   2
BRANCH   1  22
ATOM     22  C   UNL A   1      38.099  19.173  25.035  1.00  0.00     0.042 C 
BRANCH  22  23
ATOM     23  C   UNL A   1      39.265  19.841  25.758  1.00  0.00     0.118 C 
BRANCH  23  24
ATOM     24  N   UNL A   1      40.389  18.935  25.938  1.00  0.00    -0.352 N 
ATOM     25  C   UNL A   1      41.721  19.200  26.122  1.00  0.00     0.251 C 
ATOM     26  H   UNL A   1      40.154  17.978  25.926  1.00  0.00     0.163 HD
ATOM     27  O   UNL A   1      42.536  18.285  26.037  1.00  0.00    -0.269 OA
BRANCH  25  28
ATOM     28  C   UNL A   1      42.193  20.573  26.411  1.00  0.00     0.039 A 
ATOM     29  C   UNL A   1      42.588  21.383  25.342  1.00  0.00     0.014 A 
ATOM     30  C   UNL A   1      42.311  21.044  27.722  1.00  0.00     0.014 A 
ATOM     31  C   UNL A   1      43.054  22.677  25.582  1.00  0.00     0.010 A 
ATOM     32  C   UNL A   1      42.714  22.358  27.957  1.00  0.00     0.010 A 
ATOM     33  C   UNL A   1      43.098  23.185  26.890  1.00  0.00    -0.014 A 
BRANCH  33  34
ATOM     34  C   UNL A   1      43.551  24.572  27.159  1.00  0.00     0.031 A 
ATOM     35  C   UNL A   1      42.586  25.596  27.687  1.00  0.00     0.074 A 
ATOM     36  C   UNL A   1      44.819  24.924  26.873  1.00  0.00     0.049 A 
ATOM     37  N   UNL A   1      42.772  26.872  27.913  1.00  0.00    -0.248 NA
ATOM     38  C   UNL A   1      41.220  25.129  27.974  1.00  0.00     0.031 C 
ATOM     39  C   UNL A   1      45.838  24.033  26.319  1.00  0.00     0.029 A 
ATOM     40  N   UNL A   1      45.462  26.131  26.997  1.00  0.00    -0.354 N 
ATOM     41  C   UNL A   1      41.549  27.361  28.350  1.00  0.00     0.074 A 
ATOM     42  C   UNL A   1      40.615  26.257  28.317  1.00  0.00     0.031 C 
ATOM     43  C   UNL A   1      46.983  24.718  26.164  1.00  0.00     0.029 A 
ATOM     44  C   UNL A   1      46.769  26.102  26.577  1.00  0.00     0.049 A 
ATOM     45  H   UNL A   1      45.029  26.939  27.353  1.00  0.00     0.167 HD
ATOM     46  C   UNL A   1      41.238  28.614  28.764  1.00  0.00     0.037 A 
ATOM     47  C   UNL A   1      47.690  27.082  26.525  1.00  0.00     0.037 A 
ATOM     48  C   UNL A   1      42.175  29.705  28.823  1.00  0.00     0.049 A 
ATOM     49  C   UNL A   1      47.323  28.462  26.998  1.00  0.00     0.074 A 
ATOM     50  C   UNL A   1      41.972  30.996  29.279  1.00  0.00     0.029 A 
ATOM     51  N   UNL A   1      43.500  29.629  28.416  1.00  0.00    -0.354 N 
ATOM     52  N   UNL A   1      46.178  28.899  27.463  1.00  0.00    -0.248 NA
ATOM     53  C   UNL A   1      48.379  29.482  26.948  1.00  0.00     0.031 C 
ATOM     54  C   UNL A   1      43.164  31.712  29.113  1.00  0.00     0.029 A 
ATOM     55  C   UNL A   1      44.120  30.855  28.595  1.00  0.00     0.049 A 
ATOM     56  H   UNL A   1      43.934  28.823  28.053  1.00  0.00     0.167 HD
ATOM     57  C   UNL A   1      46.380  30.234  27.782  1.00  0.00     0.074 A 
ATOM     58  C   UNL A   1      47.763  30.533  27.472  1.00  0.00     0.031 C 
ATOM     59  C   UNL A   1      45.499  31.133  28.286  1.00  0.00     0.037 A 
BRANCH  46  60
ATOM     60  C   UNL A   1      39.821  28.873  29.188  1.00  0.00     0.064 A 
ATOM     61  C   UNL A   1      38.845  29.290  28.272  1.00  0.00     0.173 A 
ATOM     62  C   UNL A   1      39.427  28.668  30.519  1.00  0.00     0.173 A 
ATOM     63  F   UNL A   1      39.173  29.512  26.989  1.00  0.00    -0.203 F 
ATOM     64  C   UNL A   1      37.532  29.521  28.677  1.00  0.00     0.198 A 
ATOM     65  C   UNL A   1      38.108  28.871  30.915  1.00  0.00     0.198 A 
ATOM     66  F   UNL A   1      40.320  28.262  31.435  1.00  0.00    -0.203 F 
ATOM     67  F   UNL A   1      36.628  29.965  27.793  1.00  0.00    -0.200 F 
ATOM     68  C   UNL A   1      37.164  29.305  29.996  1.00  0.00     0.200 A 
ATOM     69  F   UNL A   1      37.750  28.652  32.188  1.00  0.00    -0.200 F 
ATOM     70  F   UNL A   1      35.899  29.522  30.383  1.00  0.00    -0.200 F 
ENDBRANCH  46  60
BRANCH  47  71
ATOM     71  C   UNL A   1      49.057  26.785  26.028  1.00  0.00     0.064 A 
ATOM     72  C   UNL A   1      50.036  26.268  26.887  1.00  0.00     0.173 A 
ATOM     73  C   UNL A   1      49.411  27.004  24.689  1.00  0.00     0.173 A 
ATOM     74  F   UNL A   1      49.749  26.062  28.180  1.00  0.00    -0.203 F 
ATOM     75  C   UNL A   1      51.323  25.994  26.429  1.00  0.00     0.198 A 
ATOM     76  C   UNL A   1      50.690  26.705  24.226  1.00  0.00     0.198 A 
ATOM     77  F   UNL A   1      48.508  27.491  23.826  1.00  0.00    -0.203 F 
ATOM     78  F   UNL A   1      52.251  25.536  27.279  1.00  0.00    -0.200 F 
ATOM     79  C   UNL A   1      51.647  26.207  25.097  1.00  0.00     0.200 A 
ATOM     80  F   UNL A   1      50.996  26.899  22.935  1.00  0.00    -0.200 F 
ATOM     81  F   UNL A   1      52.883  25.938  24.655  1.00  0.00    -0.200 F 
ENDBRANCH  47  71
BRANCH  59  82
ATOM     82  C   UNL A   1      46.013  32.515  28.561  1.00  0.00     0.064 A 
ATOM     83  C   UNL A   1      46.597  32.849  29.791  1.00  0.00     0.173 A 
ATOM     84  C   UNL A   1      45.951  33.506  27.570  1.00  0.00     0.173 A 
ATOM     85  F   UNL A   1      46.664  31.941  30.776  1.00  0.00    -0.203 F 
ATOM     86  C   UNL A   1      47.081  34.134  30.026  1.00  0.00     0.198 A 
ATOM     87  C   UNL A   1      46.461  34.780  27.799  1.00  0.00     0.198 A 
ATOM     88  F   UNL A   1      45.406  33.233  26.374  1.00  0.00    -0.203 F 
ATOM     89  F   UNL A   1      47.596  34.445  31.224  1.00  0.00    -0.200 F 
ATOM     90  C   UNL A   1      47.019  35.095  29.028  1.00  0.00     0.200 A 
ATOM     91  F   UNL A   1      46.410  35.705  26.830  1.00  0.00    -0.200 F 
ATOM     92  F   UNL A   1      47.491  36.329  29.255  1.00  0.00    -0.200 F 
ENDBRANCH  59  82
ENDBRANCH  33  34
ENDBRANCH  25  28
ENDBRANCH  23  24
ENDBRANCH  22  23
ENDBRANCH   1  22
TORSDOF 13
ENDMDL
