MODEL 1
REMARK VINA RESULT:     -12.3      0.000      0.000
REMARK SMILES CC1(C)C(Nc2cc(C(=O)NCCCNC(=O)c3ccc(-c4c5nc(c(-c6c(F)c(F)c(F)c(F)c6F)c6ccc([nH]6)c(-c6c(F)c(F)c(F)c(F)c6F)c6nc(c(-c7c(F)c(F)c(F)c(F)c7F)c7ccc4[nH]7)C=C6)C=C5)cc3)cc(Cl)n2)C1(C)C
REMARK SMILES IDX 13 1 12 2 11 3 9 4 10 5 8 7 6 8 7 9 84 10 82 11 81 12 83 13
REMARK SMILES IDX 5 14 4 16 1 17 2 18 3 19 85 20 86 21 87 22 14 23 15 24 16 25
REMARK SMILES IDX 17 27 18 28 19 29 80 30 20 31 79 32 21 33 22 34 23 35 73 36
REMARK SMILES IDX 24 37 78 38 72 39 74 40 25 41 77 42 71 43 70 44 26 46 58 47
REMARK SMILES IDX 38 48 57 49 39 50 42 51 56 52 75 53 40 54 41 55 55 57 76 58
REMARK SMILES IDX 43 59 27 60 28 61 36 62 29 63 30 64 34 65 37 66 31 67 32 68
REMARK SMILES IDX 35 69 33 70 59 71 60 72 68 73 61 74 62 75 66 76 69 77 63 78
REMARK SMILES IDX 64 79 67 80 65 81 44 82 45 83 53 84 46 85 47 86 51 87 54 88
REMARK SMILES IDX 48 89 49 90 52 91 50 92
REMARK H PARENT 11 6 5 15 15 26 74 45 42 56
REMARK Flexibility Score: inf
ROOT
ATOM      1  C   UNL A   1      31.403  32.217  26.876  1.00  0.00     0.042 C 
ENDROOT
BRANCH   1   2
ATOM      2  C   UNL A   1      31.636  30.754  26.497  1.00  0.00     0.118 C 
BRANCH   2   3
ATOM      3  N   UNL A   1      32.889  30.267  27.039  1.00  0.00    -0.352 N 
ATOM      4  C   UNL A   1      33.500  29.043  27.071  1.00  0.00     0.251 C 
ATOM      5  O   UNL A   1      34.599  28.992  27.626  1.00  0.00    -0.269 OA
ATOM      6  H   UNL A   1      33.416  30.970  27.483  1.00  0.00     0.163 HD
BRANCH   4   7
ATOM      7  C   UNL A   1      32.950  27.801  26.464  1.00  0.00     0.046 A 
ATOM      8  C   UNL A   1      33.422  25.853  25.114  1.00  0.00     0.128 A 
ATOM      9  C   UNL A   1      33.841  27.044  25.691  1.00  0.00     0.060 A 
ATOM     10  N   UNL A   1      32.153  25.429  25.198  1.00  0.00    -0.219 NA
ATOM     11  C   UNL A   1      31.325  26.148  25.975  1.00  0.00     0.132 A 
ATOM     12  C   UNL A   1      31.671  27.302  26.654  1.00  0.00     0.055 A 
ATOM     13  Cl  UNL A   1      29.747  25.489  26.126  1.00  0.00    -0.062 Cl
BRANCH   8  14
ATOM     14  N   UNL A   1      34.333  24.983  24.502  1.00  0.00    -0.366 N 
ATOM     15  H   UNL A   1      35.024  25.332  23.895  1.00  0.00     0.162 HD
BRANCH  14  16
ATOM     16  C   UNL A   1      34.246  23.542  24.779  1.00  0.00     0.093 C 
ATOM     17  C   UNL A   1      32.653  21.606  24.251  1.00  0.00     0.014 C 
ATOM     18  C   UNL A   1      33.693  22.581  23.740  1.00  0.00    -0.008 C 
ATOM     19  C   UNL A   1      33.346  23.080  22.353  1.00  0.00     0.014 C 
ATOM     20  C   UNL A   1      35.170  22.504  24.185  1.00  0.00    -0.008 C 
ATOM     21  C   UNL A   1      35.623  21.387  25.103  1.00  0.00     0.014 C 
ATOM     22  C   UNL A   1      36.278  22.953  23.260  1.00  0.00     0.014 C 
ENDBRANCH  14  16
ENDBRANCH   8  14
ENDBRANCH   4   7
ENDBRANCH   2   3
ENDBRANCH   1   2
BRANCH   1  23
ATOM     23  C   UNL A   1      32.686  33.054  26.904  1.00  0.00     0.118 C 
BRANCH  23  24
ATOM     24  N   UNL A   1      32.501  34.305  27.626  1.00  0.00    -0.352 N 
ATOM     25  C   UNL A   1      33.046  34.761  28.796  1.00  0.00     0.251 C 
ATOM     26  H   UNL A   1      31.876  34.933  27.196  1.00  0.00     0.163 HD
ATOM     27  O   UNL A   1      32.563  35.762  29.321  1.00  0.00    -0.269 OA
BRANCH  25  28
ATOM     28  C   UNL A   1      34.194  34.086  29.445  1.00  0.00     0.039 A 
ATOM     29  C   UNL A   1      35.484  34.460  29.049  1.00  0.00     0.014 A 
ATOM     30  C   UNL A   1      34.028  33.034  30.351  1.00  0.00     0.014 A 
ATOM     31  C   UNL A   1      36.599  33.805  29.577  1.00  0.00     0.010 A 
ATOM     32  C   UNL A   1      35.145  32.417  30.923  1.00  0.00     0.010 A 
ATOM     33  C   UNL A   1      36.440  32.789  30.534  1.00  0.00    -0.014 A 
BRANCH  33  34
ATOM     34  C   UNL A   1      37.631  32.123  31.122  1.00  0.00     0.031 A 
ATOM     35  C   UNL A   1      38.102  32.467  32.508  1.00  0.00     0.074 A 
ATOM     36  C   UNL A   1      38.303  31.212  30.392  1.00  0.00     0.049 A 
ATOM     37  N   UNL A   1      39.105  31.970  33.188  1.00  0.00    -0.248 NA
ATOM     38  C   UNL A   1      37.362  33.522  33.216  1.00  0.00     0.031 C 
ATOM     39  C   UNL A   1      37.978  30.828  29.018  1.00  0.00     0.029 A 
ATOM     40  N   UNL A   1      39.395  30.441  30.705  1.00  0.00    -0.354 N 
ATOM     41  C   UNL A   1      39.123  32.655  34.396  1.00  0.00     0.074 A 
ATOM     42  C   UNL A   1      38.059  33.635  34.339  1.00  0.00     0.031 C 
ATOM     43  C   UNL A   1      38.831  29.873  28.615  1.00  0.00     0.029 A 
ATOM     44  C   UNL A   1      39.777  29.594  29.693  1.00  0.00     0.049 A 
ATOM     45  H   UNL A   1      39.859  30.490  31.571  1.00  0.00     0.167 HD
ATOM     46  C   UNL A   1      39.939  32.470  35.463  1.00  0.00     0.037 A 
ATOM     47  C   UNL A   1      40.771  28.689  29.643  1.00  0.00     0.037 A 
ATOM     48  C   UNL A   1      40.983  31.480  35.529  1.00  0.00     0.049 A 
ATOM     49  C   UNL A   1      41.641  28.482  30.852  1.00  0.00     0.074 A 
ATOM     50  C   UNL A   1      41.827  31.181  36.585  1.00  0.00     0.029 A 
ATOM     51  N   UNL A   1      41.325  30.624  34.492  1.00  0.00    -0.354 N 
ATOM     52  N   UNL A   1      41.602  29.090  32.012  1.00  0.00    -0.248 NA
ATOM     53  C   UNL A   1      42.683  27.452  30.746  1.00  0.00     0.031 C 
ATOM     54  C   UNL A   1      42.703  30.169  36.176  1.00  0.00     0.029 A 
ATOM     55  C   UNL A   1      42.377  29.807  34.879  1.00  0.00     0.049 A 
ATOM     56  H   UNL A   1      40.886  30.600  33.611  1.00  0.00     0.167 HD
ATOM     57  C   UNL A   1      42.597  28.503  32.782  1.00  0.00     0.074 A 
ATOM     58  C   UNL A   1      43.208  27.476  31.963  1.00  0.00     0.031 C 
ATOM     59  C   UNL A   1      42.974  28.791  34.052  1.00  0.00     0.037 A 
BRANCH  46  60
ATOM     60  C   UNL A   1      39.729  33.358  36.656  1.00  0.00     0.064 A 
ATOM     61  C   UNL A   1      40.409  34.577  36.792  1.00  0.00     0.173 A 
ATOM     62  C   UNL A   1      38.811  33.005  37.656  1.00  0.00     0.173 A 
ATOM     63  F   UNL A   1      41.306  34.956  35.868  1.00  0.00    -0.203 F 
ATOM     64  C   UNL A   1      40.197  35.398  37.896  1.00  0.00     0.198 A 
ATOM     65  C   UNL A   1      38.581  33.841  38.746  1.00  0.00     0.198 A 
ATOM     66  F   UNL A   1      38.128  31.853  37.571  1.00  0.00    -0.203 F 
ATOM     67  F   UNL A   1      40.893  36.537  38.026  1.00  0.00    -0.200 F 
ATOM     68  C   UNL A   1      39.280  35.033  38.869  1.00  0.00     0.200 A 
ATOM     69  F   UNL A   1      37.685  33.493  39.679  1.00  0.00    -0.200 F 
ATOM     70  F   UNL A   1      39.073  35.826  39.930  1.00  0.00    -0.200 F 
ENDBRANCH  46  60
BRANCH  47  71
ATOM     71  C   UNL A   1      40.965  27.874  28.418  1.00  0.00     0.064 A 
ATOM     72  C   UNL A   1      40.294  26.654  28.253  1.00  0.00     0.173 A 
ATOM     73  C   UNL A   1      41.818  28.298  27.388  1.00  0.00     0.173 A 
ATOM     74  F   UNL A   1      39.485  26.200  29.220  1.00  0.00    -0.203 F 
ATOM     75  C   UNL A   1      40.485  25.878  27.111  1.00  0.00     0.198 A 
ATOM     76  C   UNL A   1      41.986  27.533  26.235  1.00  0.00     0.198 A 
ATOM     77  F   UNL A   1      42.477  29.460  27.497  1.00  0.00    -0.203 F 
ATOM     78  F   UNL A   1      39.862  24.698  26.996  1.00  0.00    -0.200 F 
ATOM     79  C   UNL A   1      41.325  26.321  26.101  1.00  0.00     0.200 A 
ATOM     80  F   UNL A   1      42.789  27.971  25.256  1.00  0.00    -0.200 F 
ATOM     81  F   UNL A   1      41.503  25.578  25.001  1.00  0.00    -0.200 F 
ENDBRANCH  47  71
BRANCH  59  82
ATOM     82  C   UNL A   1      44.082  27.965  34.636  1.00  0.00     0.064 A 
ATOM     83  C   UNL A   1      45.424  28.366  34.544  1.00  0.00     0.173 A 
ATOM     84  C   UNL A   1      43.799  26.764  35.302  1.00  0.00     0.173 A 
ATOM     85  F   UNL A   1      45.747  29.499  33.903  1.00  0.00    -0.203 F 
ATOM     86  C   UNL A   1      46.444  27.577  35.069  1.00  0.00     0.198 A 
ATOM     87  C   UNL A   1      44.820  25.991  35.851  1.00  0.00     0.198 A 
ATOM     88  F   UNL A   1      42.532  26.339  35.422  1.00  0.00    -0.203 F 
ATOM     89  F   UNL A   1      47.721  27.952  34.921  1.00  0.00    -0.200 F 
ATOM     90  C   UNL A   1      46.140  26.393  35.725  1.00  0.00     0.200 A 
ATOM     91  F   UNL A   1      44.524  24.852  36.492  1.00  0.00    -0.200 F 
ATOM     92  F   UNL A   1      47.124  25.633  36.226  1.00  0.00    -0.200 F 
ENDBRANCH  59  82
ENDBRANCH  33  34
ENDBRANCH  25  28
ENDBRANCH  23  24
ENDBRANCH   1  23
TORSDOF 12
ENDMDL
MODEL 2
REMARK VINA RESULT:     -12.3      0.149      1.149
REMARK SMILES CC1(C)C(Nc2cc(C(=O)NCCCNC(=O)c3ccc(-c4c5nc(c(-c6c(F)c(F)c(F)c(F)c6F)c6ccc([nH]6)c(-c6c(F)c(F)c(F)c(F)c6F)c6nc(c(-c7c(F)c(F)c(F)c(F)c7F)c7ccc4[nH]7)C=C6)C=C5)cc3)cc(Cl)n2)C1(C)C
REMARK SMILES IDX 13 1 12 2 11 3 9 4 10 5 8 7 6 8 7 9 84 10 82 11 81 12 83 13
REMARK SMILES IDX 5 14 4 16 1 17 2 18 3 19 85 20 86 21 87 22 14 23 15 24 16 25
REMARK SMILES IDX 17 27 18 28 19 29 80 30 20 31 79 32 21 33 22 34 23 35 73 36
REMARK SMILES IDX 24 37 78 38 72 39 74 40 25 41 77 42 71 43 70 44 26 46 58 47
REMARK SMILES IDX 38 48 57 49 39 50 42 51 56 52 75 53 40 54 41 55 55 57 76 58
REMARK SMILES IDX 43 59 27 60 28 61 36 62 29 63 30 64 34 65 37 66 31 67 32 68
REMARK SMILES IDX 35 69 33 70 59 71 60 72 68 73 61 74 62 75 66 76 69 77 63 78
REMARK SMILES IDX 64 79 67 80 65 81 44 82 45 83 53 84 46 85 47 86 51 87 54 88
REMARK SMILES IDX 48 89 49 90 52 91 50 92
REMARK H PARENT 11 6 5 15 15 26 74 45 42 56
REMARK Flexibility Score: inf
ROOT
ATOM      1  C   UNL A   1      31.413  32.167  26.798  1.00  0.00     0.042 C 
ENDROOT
BRANCH   1   2
ATOM      2  C   UNL A   1      31.625  30.681  26.506  1.00  0.00     0.118 C 
BRANCH   2   3
ATOM      3  N   UNL A   1      32.878  30.212  27.066  1.00  0.00    -0.352 N 
ATOM      4  C   UNL A   1      33.510  28.999  27.100  1.00  0.00     0.251 C 
ATOM      5  O   UNL A   1      34.601  28.965  27.673  1.00  0.00    -0.269 OA
ATOM      6  H   UNL A   1      33.385  30.922  27.522  1.00  0.00     0.163 HD
BRANCH   4   7
ATOM      7  C   UNL A   1      32.992  27.752  26.477  1.00  0.00     0.046 A 
ATOM      8  C   UNL A   1      33.521  25.819  25.126  1.00  0.00     0.128 A 
ATOM      9  C   UNL A   1      33.909  27.014  25.717  1.00  0.00     0.060 A 
ATOM     10  N   UNL A   1      32.257  25.374  25.185  1.00  0.00    -0.219 NA
ATOM     11  C   UNL A   1      31.403  26.074  25.951  1.00  0.00     0.132 A 
ATOM     12  C   UNL A   1      31.718  27.231  26.641  1.00  0.00     0.055 A 
ATOM     13  Cl  UNL A   1      29.835  25.389  26.070  1.00  0.00    -0.062 Cl
BRANCH   8  14
ATOM     14  N   UNL A   1      34.456  24.967  24.527  1.00  0.00    -0.366 N 
ATOM     15  H   UNL A   1      35.167  25.334  23.953  1.00  0.00     0.162 HD
BRANCH  14  16
ATOM     16  C   UNL A   1      34.367  23.520  24.765  1.00  0.00     0.093 C 
ATOM     17  C   UNL A   1      32.783  21.598  24.166  1.00  0.00     0.014 C 
ATOM     18  C   UNL A   1      33.830  22.586  23.695  1.00  0.00    -0.008 C 
ATOM     19  C   UNL A   1      33.502  23.119  22.316  1.00  0.00     0.014 C 
ATOM     20  C   UNL A   1      35.300  22.498  24.159  1.00  0.00    -0.008 C 
ATOM     21  C   UNL A   1      35.740  21.359  25.054  1.00  0.00     0.014 C 
ATOM     22  C   UNL A   1      36.420  22.971  23.261  1.00  0.00     0.014 C 
ENDBRANCH  14  16
ENDBRANCH   8  14
ENDBRANCH   4   7
ENDBRANCH   2   3
ENDBRANCH   1   2
BRANCH   1  23
ATOM     23  C   UNL A   1      32.718  32.963  26.906  1.00  0.00     0.118 C 
BRANCH  23  24
ATOM     24  N   UNL A   1      32.529  34.221  27.614  1.00  0.00    -0.352 N 
ATOM     25  C   UNL A   1      33.080  34.696  28.774  1.00  0.00     0.251 C 
ATOM     26  H   UNL A   1      31.893  34.837  27.184  1.00  0.00     0.163 HD
ATOM     27  O   UNL A   1      32.594  35.698  29.292  1.00  0.00    -0.269 OA
BRANCH  25  28
ATOM     28  C   UNL A   1      34.240  34.039  29.420  1.00  0.00     0.039 A 
ATOM     29  C   UNL A   1      35.523  34.421  29.010  1.00  0.00     0.014 A 
ATOM     30  C   UNL A   1      34.093  32.994  30.337  1.00  0.00     0.014 A 
ATOM     31  C   UNL A   1      36.649  33.783  29.535  1.00  0.00     0.010 A 
ATOM     32  C   UNL A   1      35.220  32.394  30.906  1.00  0.00     0.010 A 
ATOM     33  C   UNL A   1      36.508  32.774  30.503  1.00  0.00    -0.014 A 
BRANCH  33  34
ATOM     34  C   UNL A   1      37.711  32.126  31.088  1.00  0.00     0.031 A 
ATOM     35  C   UNL A   1      38.192  32.492  32.465  1.00  0.00     0.074 A 
ATOM     36  C   UNL A   1      38.383  31.212  30.362  1.00  0.00     0.049 A 
ATOM     37  N   UNL A   1      39.206  32.012  33.140  1.00  0.00    -0.248 NA
ATOM     38  C   UNL A   1      37.450  33.549  33.167  1.00  0.00     0.031 C 
ATOM     39  C   UNL A   1      38.048  30.808  28.997  1.00  0.00     0.029 A 
ATOM     40  N   UNL A   1      39.485  30.454  30.674  1.00  0.00    -0.354 N 
ATOM     41  C   UNL A   1      39.230  32.713  34.340  1.00  0.00     0.074 A 
ATOM     42  C   UNL A   1      38.157  33.683  34.280  1.00  0.00     0.031 C 
ATOM     43  C   UNL A   1      38.906  29.855  28.598  1.00  0.00     0.029 A 
ATOM     44  C   UNL A   1      39.864  29.598  29.670  1.00  0.00     0.049 A 
ATOM     45  H   UNL A   1      39.957  30.519  31.536  1.00  0.00     0.167 HD
ATOM     46  C   UNL A   1      40.057  32.549  35.401  1.00  0.00     0.037 A 
ATOM     47  C   UNL A   1      40.865  28.701  29.622  1.00  0.00     0.037 A 
ATOM     48  C   UNL A   1      41.110  31.568  35.469  1.00  0.00     0.049 A 
ATOM     49  C   UNL A   1      41.749  28.517  30.824  1.00  0.00     0.074 A 
ATOM     50  C   UNL A   1      41.968  31.290  36.520  1.00  0.00     0.029 A 
ATOM     51  N   UNL A   1      41.450  30.702  34.439  1.00  0.00    -0.354 N 
ATOM     52  N   UNL A   1      41.717  29.139  31.977  1.00  0.00    -0.248 NA
ATOM     53  C   UNL A   1      42.799  27.495  30.721  1.00  0.00     0.031 C 
ATOM     54  C   UNL A   1      42.848  30.280  36.115  1.00  0.00     0.029 A 
ATOM     55  C   UNL A   1      42.513  29.900  34.826  1.00  0.00     0.049 A 
ATOM     56  H   UNL A   1      41.003  30.664  33.564  1.00  0.00     0.167 HD
ATOM     57  C   UNL A   1      42.724  28.571  32.745  1.00  0.00     0.074 A 
ATOM     58  C   UNL A   1      43.335  27.539  31.932  1.00  0.00     0.031 C 
ATOM     59  C   UNL A   1      43.111  28.878  34.007  1.00  0.00     0.037 A 
BRANCH  46  60
ATOM     60  C   UNL A   1      39.852  33.450  36.585  1.00  0.00     0.064 A 
ATOM     61  C   UNL A   1      40.534  34.670  36.706  1.00  0.00     0.173 A 
ATOM     62  C   UNL A   1      38.935  33.110  37.590  1.00  0.00     0.173 A 
ATOM     63  F   UNL A   1      41.430  35.037  35.776  1.00  0.00    -0.203 F 
ATOM     64  C   UNL A   1      40.326  35.502  37.802  1.00  0.00     0.198 A 
ATOM     65  C   UNL A   1      38.708  33.958  38.672  1.00  0.00     0.198 A 
ATOM     66  F   UNL A   1      38.250  31.958  37.519  1.00  0.00    -0.203 F 
ATOM     67  F   UNL A   1      41.024  36.641  37.918  1.00  0.00    -0.200 F 
ATOM     68  C   UNL A   1      39.410  35.150  38.780  1.00  0.00     0.200 A 
ATOM     69  F   UNL A   1      37.814  33.621  39.610  1.00  0.00    -0.200 F 
ATOM     70  F   UNL A   1      39.206  35.954  39.832  1.00  0.00    -0.200 F 
ENDBRANCH  46  60
BRANCH  47  71
ATOM     71  C   UNL A   1      41.055  27.872  28.405  1.00  0.00     0.064 A 
ATOM     72  C   UNL A   1      40.387  26.648  28.258  1.00  0.00     0.173 A 
ATOM     73  C   UNL A   1      41.900  28.286  27.365  1.00  0.00     0.173 A 
ATOM     74  F   UNL A   1      39.585  26.203  29.236  1.00  0.00    -0.203 F 
ATOM     75  C   UNL A   1      40.573  25.859  27.125  1.00  0.00     0.198 A 
ATOM     76  C   UNL A   1      42.063  27.508  26.220  1.00  0.00     0.198 A 
ATOM     77  F   UNL A   1      42.555  29.452  27.455  1.00  0.00    -0.203 F 
ATOM     78  F   UNL A   1      39.954  24.675  27.028  1.00  0.00    -0.200 F 
ATOM     79  C   UNL A   1      41.406  26.293  26.105  1.00  0.00     0.200 A 
ATOM     80  F   UNL A   1      42.859  27.937  25.231  1.00  0.00    -0.200 F 
ATOM     81  F   UNL A   1      41.579  25.537  25.012  1.00  0.00    -0.200 F 
ENDBRANCH  47  71
BRANCH  59  82
ATOM     82  C   UNL A   1      44.232  28.069  34.590  1.00  0.00     0.064 A 
ATOM     83  C   UNL A   1      43.990  26.872  35.282  1.00  0.00     0.173 A 
ATOM     84  C   UNL A   1      45.562  28.490  34.449  1.00  0.00     0.173 A 
ATOM     85  F   UNL A   1      42.735  26.435  35.457  1.00  0.00    -0.203 F 
ATOM     86  C   UNL A   1      45.039  26.144  35.839  1.00  0.00     0.198 A 
ATOM     87  C   UNL A   1      46.610  27.746  34.984  1.00  0.00     0.198 A 
ATOM     88  F   UNL A   1      45.845  29.625  33.792  1.00  0.00    -0.203 F 
ATOM     89  F   UNL A   1      44.780  25.035  36.544  1.00  0.00    -0.200 F 
ATOM     90  C   UNL A   1      46.347  26.580  35.686  1.00  0.00     0.200 A 
ATOM     91  F   UNL A   1      47.874  28.162  34.827  1.00  0.00    -0.200 F 
ATOM     92  F   UNL A   1      47.354  25.880  36.228  1.00  0.00    -0.200 F 
ENDBRANCH  59  82
ENDBRANCH  33  34
ENDBRANCH  25  28
ENDBRANCH  23  24
ENDBRANCH   1  23
TORSDOF 12
ENDMDL
MODEL 3
REMARK VINA RESULT:     -12.2      4.360      9.174
REMARK SMILES CC1(C)C(Nc2cc(C(=O)NCCCNC(=O)c3ccc(-c4c5nc(c(-c6c(F)c(F)c(F)c(F)c6F)c6ccc([nH]6)c(-c6c(F)c(F)c(F)c(F)c6F)c6nc(c(-c7c(F)c(F)c(F)c(F)c7F)c7ccc4[nH]7)C=C6)C=C5)cc3)cc(Cl)n2)C1(C)C
REMARK SMILES IDX 13 1 12 2 11 3 9 4 10 5 8 7 6 8 7 9 84 10 82 11 81 12 83 13
REMARK SMILES IDX 5 14 4 16 1 17 2 18 3 19 85 20 86 21 87 22 14 23 15 24 16 25
REMARK SMILES IDX 17 27 18 28 19 29 80 30 20 31 79 32 21 33 22 34 23 35 73 36
REMARK SMILES IDX 24 37 78 38 72 39 74 40 25 41 77 42 71 43 70 44 26 46 58 47
REMARK SMILES IDX 38 48 57 49 39 50 42 51 56 52 75 53 40 54 41 55 55 57 76 58
REMARK SMILES IDX 43 59 27 60 28 61 36 62 29 63 30 64 34 65 37 66 31 67 32 68
REMARK SMILES IDX 35 69 33 70 59 71 60 72 68 73 61 74 62 75 66 76 69 77 63 78
REMARK SMILES IDX 64 79 67 80 65 81 44 82 45 83 53 84 46 85 47 86 51 87 54 88
REMARK SMILES IDX 48 89 49 90 52 91 50 92
REMARK H PARENT 11 6 5 15 15 26 74 45 42 56
REMARK Flexibility Score: inf
ROOT
ATOM      1  C   UNL A   1      35.213  23.018  26.409  1.00  0.00     0.042 C 
ENDROOT
BRANCH   1   2
ATOM      2  C   UNL A   1      34.932  21.616  25.867  1.00  0.00     0.118 C 
BRANCH   2   3
ATOM      3  N   UNL A   1      34.274  21.677  24.576  1.00  0.00    -0.352 N 
ATOM      4  C   UNL A   1      33.088  22.199  24.137  1.00  0.00     0.251 C 
ATOM      5  O   UNL A   1      32.845  22.074  22.935  1.00  0.00    -0.269 OA
ATOM      6  H   UNL A   1      34.794  21.250  23.858  1.00  0.00     0.163 HD
BRANCH   4   7
ATOM      7  C   UNL A   1      32.106  22.919  24.992  1.00  0.00     0.046 A 
ATOM      8  C   UNL A   1      31.258  25.071  25.690  1.00  0.00     0.128 A 
ATOM      9  C   UNL A   1      32.159  24.319  24.949  1.00  0.00     0.060 A 
ATOM     10  N   UNL A   1      30.375  24.505  26.526  1.00  0.00    -0.219 NA
ATOM     11  C   UNL A   1      30.314  23.162  26.522  1.00  0.00     0.132 A 
ATOM     12  C   UNL A   1      31.113  22.330  25.760  1.00  0.00     0.055 A 
ATOM     13  Cl  UNL A   1      29.089  22.508  27.531  1.00  0.00    -0.062 Cl
BRANCH   8  14
ATOM     14  N   UNL A   1      31.159  26.458  25.521  1.00  0.00    -0.366 N 
ATOM     15  H   UNL A   1      30.277  26.894  25.495  1.00  0.00     0.162 HD
BRANCH  14  16
ATOM     16  C   UNL A   1      32.386  27.255  25.386  1.00  0.00     0.093 C 
ATOM     17  C   UNL A   1      33.378  28.934  23.725  1.00  0.00     0.014 C 
ATOM     18  C   UNL A   1      32.345  28.654  24.797  1.00  0.00    -0.008 C 
ATOM     19  C   UNL A   1      31.016  29.299  24.462  1.00  0.00     0.014 C 
ATOM     20  C   UNL A   1      32.743  28.426  26.271  1.00  0.00    -0.008 C 
ATOM     21  C   UNL A   1      34.194  28.550  26.687  1.00  0.00     0.014 C 
ATOM     22  C   UNL A   1      31.804  28.810  27.391  1.00  0.00     0.014 C 
ENDBRANCH  14  16
ENDBRANCH   8  14
ENDBRANCH   4   7
ENDBRANCH   2   3
ENDBRANCH   1   2
BRANCH   1  23
ATOM     23  C   UNL A   1      36.523  23.623  25.894  1.00  0.00     0.118 C 
BRANCH  23  24
ATOM     24  N   UNL A   1      37.632  22.686  25.998  1.00  0.00    -0.352 N 
ATOM     25  C   UNL A   1      38.952  22.881  26.304  1.00  0.00     0.251 C 
ATOM     26  H   UNL A   1      37.390  21.749  25.816  1.00  0.00     0.163 HD
ATOM     27  O   UNL A   1      39.745  21.962  26.110  1.00  0.00    -0.269 OA
BRANCH  25  28
ATOM     28  C   UNL A   1      39.451  24.160  26.860  1.00  0.00     0.039 A 
ATOM     29  C   UNL A   1      39.203  24.428  28.211  1.00  0.00     0.014 A 
ATOM     30  C   UNL A   1      40.060  25.135  26.063  1.00  0.00     0.014 A 
ATOM     31  C   UNL A   1      39.589  25.651  28.767  1.00  0.00     0.010 A 
ATOM     32  C   UNL A   1      40.497  26.334  26.632  1.00  0.00     0.010 A 
ATOM     33  C   UNL A   1      40.256  26.608  27.987  1.00  0.00    -0.014 A 
BRANCH  33  34
ATOM     34  C   UNL A   1      40.700  27.890  28.594  1.00  0.00     0.031 A 
ATOM     35  C   UNL A   1      42.146  28.124  28.932  1.00  0.00     0.074 A 
ATOM     36  C   UNL A   1      39.786  28.845  28.855  1.00  0.00     0.049 A 
ATOM     37  N   UNL A   1      42.714  29.188  29.444  1.00  0.00    -0.248 NA
ATOM     38  C   UNL A   1      43.073  27.011  28.685  1.00  0.00     0.031 C 
ATOM     39  C   UNL A   1      38.347  28.721  28.621  1.00  0.00     0.029 A 
ATOM     40  N   UNL A   1      39.932  30.108  29.373  1.00  0.00    -0.354 N 
ATOM     41  C   UNL A   1      44.059  28.871  29.586  1.00  0.00     0.074 A 
ATOM     42  C   UNL A   1      44.214  27.499  29.152  1.00  0.00     0.031 C 
ATOM     43  C   UNL A   1      37.746  29.871  28.964  1.00  0.00     0.029 A 
ATOM     44  C   UNL A   1      38.752  30.804  29.463  1.00  0.00     0.049 A 
ATOM     45  H   UNL A   1      40.800  30.479  29.651  1.00  0.00     0.167 HD
ATOM     46  C   UNL A   1      45.073  29.657  30.021  1.00  0.00     0.037 A 
ATOM     47  C   UNL A   1      38.509  32.056  29.892  1.00  0.00     0.037 A 
ATOM     48  C   UNL A   1      44.923  31.030  30.433  1.00  0.00     0.049 A 
ATOM     49  C   UNL A   1      39.658  32.917  30.339  1.00  0.00     0.074 A 
ATOM     50  C   UNL A   1      45.898  31.924  30.839  1.00  0.00     0.029 A 
ATOM     51  N   UNL A   1      43.713  31.708  30.489  1.00  0.00    -0.354 N 
ATOM     52  N   UNL A   1      40.933  32.626  30.405  1.00  0.00    -0.248 NA
ATOM     53  C   UNL A   1      39.330  34.287  30.759  1.00  0.00     0.031 C 
ATOM     54  C   UNL A   1      45.276  33.132  31.175  1.00  0.00     0.029 A 
ATOM     55  C   UNL A   1      43.917  33.004  30.937  1.00  0.00     0.049 A 
ATOM     56  H   UNL A   1      42.840  31.325  30.247  1.00  0.00     0.167 HD
ATOM     57  C   UNL A   1      41.564  33.779  30.850  1.00  0.00     0.074 A 
ATOM     58  C   UNL A   1      40.532  34.781  31.018  1.00  0.00     0.031 C 
ATOM     59  C   UNL A   1      42.880  33.990  31.100  1.00  0.00     0.037 A 
BRANCH  46  60
ATOM     60  C   UNL A   1      46.447  29.052  30.069  1.00  0.00     0.064 A 
ATOM     61  C   UNL A   1      47.311  29.106  28.965  1.00  0.00     0.173 A 
ATOM     62  C   UNL A   1      46.919  28.445  31.242  1.00  0.00     0.173 A 
ATOM     63  F   UNL A   1      46.904  29.667  27.816  1.00  0.00    -0.203 F 
ATOM     64  C   UNL A   1      48.587  28.552  29.026  1.00  0.00     0.198 A 
ATOM     65  C   UNL A   1      48.206  27.915  31.308  1.00  0.00     0.198 A 
ATOM     66  F   UNL A   1      46.135  28.372  32.329  1.00  0.00    -0.203 F 
ATOM     67  F   UNL A   1      49.378  28.576  27.943  1.00  0.00    -0.200 F 
ATOM     68  C   UNL A   1      49.036  27.963  30.198  1.00  0.00     0.200 A 
ATOM     69  F   UNL A   1      48.642  27.357  32.445  1.00  0.00    -0.200 F 
ATOM     70  F   UNL A   1      50.266  27.434  30.256  1.00  0.00    -0.200 F 
ENDBRANCH  46  60
BRANCH  47  71
ATOM     71  C   UNL A   1      37.123  32.586  29.872  1.00  0.00     0.064 A 
ATOM     72  C   UNL A   1      36.639  33.289  28.760  1.00  0.00     0.173 A 
ATOM     73  C   UNL A   1      36.255  32.399  30.957  1.00  0.00     0.173 A 
ATOM     74  F   UNL A   1      37.439  33.509  27.708  1.00  0.00    -0.203 F 
ATOM     75  C   UNL A   1      35.343  33.802  28.742  1.00  0.00     0.198 A 
ATOM     76  C   UNL A   1      34.951  32.890  30.927  1.00  0.00     0.198 A 
ATOM     77  F   UNL A   1      36.670  31.728  32.041  1.00  0.00    -0.203 F 
ATOM     78  F   UNL A   1      34.919  34.504  27.683  1.00  0.00    -0.200 F 
ATOM     79  C   UNL A   1      34.499  33.597  29.822  1.00  0.00     0.200 A 
ATOM     80  F   UNL A   1      34.134  32.678  31.967  1.00  0.00    -0.200 F 
ATOM     81  F   UNL A   1      33.252  34.084  29.803  1.00  0.00    -0.200 F 
ENDBRANCH  47  71
BRANCH  59  82
ATOM     82  C   UNL A   1      43.274  35.362  31.559  1.00  0.00     0.064 A 
ATOM     83  C   UNL A   1      43.260  35.714  32.918  1.00  0.00     0.173 A 
ATOM     84  C   UNL A   1      43.679  36.334  30.632  1.00  0.00     0.173 A 
ATOM     85  F   UNL A   1      42.866  34.826  33.841  1.00  0.00    -0.203 F 
ATOM     86  C   UNL A   1      43.605  37.000  33.327  1.00  0.00     0.198 A 
ATOM     87  C   UNL A   1      44.049  37.610  31.048  1.00  0.00     0.198 A 
ATOM     88  F   UNL A   1      43.715  36.045  29.323  1.00  0.00    -0.203 F 
ATOM     89  F   UNL A   1      43.530  37.331  34.623  1.00  0.00    -0.200 F 
ATOM     90  C   UNL A   1      44.003  37.944  32.392  1.00  0.00     0.200 A 
ATOM     91  F   UNL A   1      44.443  38.519  30.145  1.00  0.00    -0.200 F 
ATOM     92  F   UNL A   1      44.330  39.182  32.788  1.00  0.00    -0.200 F 
ENDBRANCH  59  82
ENDBRANCH  33  34
ENDBRANCH  25  28
ENDBRANCH  23  24
ENDBRANCH   1  23
TORSDOF 12
ENDMDL
