MODEL 1
REMARK VINA RESULT:     -12.3      0.000      0.000
REMARK SMILES C[C@@H](C(=O)NCCCNC(=O)c1ccc(-c2c3nc(c(-c4c(F)c(F)c(F)c(F)c4F)c4ccc([nH]4)c(-c4c(F)c(F)c(F)c(F)c4F)c4nc(c(-c5c(F)c(F)c(F)c(F)c5F)c5ccc2[nH]5)C=C4)C=C3)cc1)c1ccc(C[C@@H]2CCC[C@@H]2O)cc1
REMARK SMILES IDX 6 1 5 2 3 3 4 4 2 6 1 7 75 8 76 9 87 10 77 11 86 12 78 13
REMARK SMILES IDX 79 14 80 15 81 16 84 17 82 18 83 19 85 20 7 22 8 23 9 24
REMARK SMILES IDX 10 25 11 27 12 28 13 29 74 30 14 31 73 32 15 33 16 34 17 35
REMARK SMILES IDX 67 36 18 37 72 38 66 39 68 40 19 41 71 42 65 43 64 44 20 46
REMARK SMILES IDX 52 47 32 48 51 49 33 50 36 51 50 52 69 53 34 54 35 55 49 57
REMARK SMILES IDX 70 58 37 59 21 60 22 61 30 62 23 63 24 64 28 65 31 66 25 67
REMARK SMILES IDX 26 68 29 69 27 70 53 71 54 72 62 73 55 74 56 75 60 76 63 77
REMARK SMILES IDX 57 78 58 79 61 80 59 81 38 82 39 83 47 84 40 85 41 86 45 87
REMARK SMILES IDX 48 88 42 89 43 90 46 91 44 92
REMARK H PARENT 5 5 85 21 9 26 68 45 36 56
REMARK Flexibility Score: inf
ROOT
ATOM      1  C   UNL A   1      31.233  31.030  26.519  1.00  0.00     0.117 C 
ENDROOT
BRANCH   1   2
ATOM      2  N   UNL A   1      31.817  30.431  25.334  1.00  0.00    -0.356 N 
ATOM      3  C   UNL A   1      32.710  29.406  25.205  1.00  0.00     0.227 C 
ATOM      4  O   UNL A   1      33.226  29.275  24.093  1.00  0.00    -0.274 OA
ATOM      5  H   UNL A   1      31.521  30.829  24.483  1.00  0.00     0.163 HD
BRANCH   3   6
ATOM      6  C   UNL A   1      33.033  28.500  26.411  1.00  0.00     0.105 C 
ATOM      7  C   UNL A   1      34.418  28.909  26.936  1.00  0.00     0.023 C 
BRANCH   6   8
ATOM      8  C   UNL A   1      32.945  26.997  26.113  1.00  0.00    -0.036 A 
ATOM      9  C   UNL A   1      31.762  26.271  26.329  1.00  0.00     0.005 A 
ATOM     10  C   UNL A   1      34.042  26.293  25.593  1.00  0.00     0.005 A 
ATOM     11  C   UNL A   1      31.722  24.883  26.177  1.00  0.00     0.004 A 
ATOM     12  C   UNL A   1      34.011  24.900  25.465  1.00  0.00     0.004 A 
ATOM     13  C   UNL A   1      32.867  24.176  25.812  1.00  0.00    -0.048 A 
BRANCH  13  14
ATOM     14  C   UNL A   1      32.891  22.669  25.837  1.00  0.00     0.041 C 
BRANCH  14  15
ATOM     15  C   UNL A   1      33.552  21.941  24.640  1.00  0.00     0.022 C 
ATOM     16  C   UNL A   1      32.576  21.307  23.642  1.00  0.00     0.007 C 
ATOM     17  C   UNL A   1      34.501  20.778  24.952  1.00  0.00     0.117 C 
ATOM     18  C   UNL A   1      32.512  19.813  23.972  1.00  0.00     0.003 C 
ATOM     19  C   UNL A   1      33.611  19.543  24.996  1.00  0.00     0.032 C 
BRANCH  17  20
ATOM     20  O   UNL A   1      35.248  20.943  26.138  1.00  0.00    -0.393 OA
ATOM     21  H   UNL A   1      36.058  20.412  26.086  1.00  0.00     0.210 HD
ENDBRANCH  17  20
ENDBRANCH  14  15
ENDBRANCH  13  14
ENDBRANCH   6   8
ENDBRANCH   3   6
ENDBRANCH   1   2
BRANCH   1  22
ATOM     22  C   UNL A   1      31.388  32.552  26.516  1.00  0.00     0.042 C 
BRANCH  22  23
ATOM     23  C   UNL A   1      32.603  33.074  27.275  1.00  0.00     0.118 C 
BRANCH  23  24
ATOM     24  N   UNL A   1      32.436  34.445  27.722  1.00  0.00    -0.352 N 
ATOM     25  C   UNL A   1      33.030  35.108  28.763  1.00  0.00     0.251 C 
ATOM     26  H   UNL A   1      31.800  34.980  27.195  1.00  0.00     0.163 HD
ATOM     27  O   UNL A   1      32.612  36.224  29.077  1.00  0.00    -0.269 OA
BRANCH  25  28
ATOM     28  C   UNL A   1      34.150  34.511  29.527  1.00  0.00     0.039 A 
ATOM     29  C   UNL A   1      35.431  34.553  28.966  1.00  0.00     0.014 A 
ATOM     30  C   UNL A   1      33.950  33.846  30.742  1.00  0.00     0.014 A 
ATOM     31  C   UNL A   1      36.507  33.952  29.625  1.00  0.00     0.010 A 
ATOM     32  C   UNL A   1      35.036  33.306  31.433  1.00  0.00     0.010 A 
ATOM     33  C   UNL A   1      36.321  33.331  30.870  1.00  0.00    -0.014 A 
BRANCH  33  34
ATOM     34  C   UNL A   1      37.450  32.655  31.557  1.00  0.00     0.031 A 
ATOM     35  C   UNL A   1      38.169  31.517  30.885  1.00  0.00     0.074 A 
ATOM     36  C   UNL A   1      37.815  33.043  32.793  1.00  0.00     0.049 A 
ATOM     37  N   UNL A   1      39.161  30.785  31.327  1.00  0.00    -0.248 NA
ATOM     38  C   UNL A   1      37.693  31.134  29.547  1.00  0.00     0.031 C 
ATOM     39  C   UNL A   1      37.169  34.098  33.574  1.00  0.00     0.029 A 
ATOM     40  N   UNL A   1      38.818  32.587  33.614  1.00  0.00    -0.354 N 
ATOM     41  C   UNL A   1      39.415  29.850  30.332  1.00  0.00     0.074 A 
ATOM     42  C   UNL A   1      38.441  30.073  29.285  1.00  0.00     0.031 C 
ATOM     43  C   UNL A   1      37.802  34.221  34.752  1.00  0.00     0.029 A 
ATOM     44  C   UNL A   1      38.883  33.243  34.817  1.00  0.00     0.049 A 
ATOM     45  H   UNL A   1      39.431  31.859  33.361  1.00  0.00     0.167 HD
ATOM     46  C   UNL A   1      40.385  28.906  30.282  1.00  0.00     0.037 A 
ATOM     47  C   UNL A   1      39.725  33.076  35.855  1.00  0.00     0.037 A 
ATOM     48  C   UNL A   1      41.374  28.703  31.308  1.00  0.00     0.049 A 
ATOM     49  C   UNL A   1      40.824  32.053  35.758  1.00  0.00     0.074 A 
ATOM     50  C   UNL A   1      42.420  27.797  31.334  1.00  0.00     0.029 A 
ATOM     51  N   UNL A   1      41.440  29.424  32.490  1.00  0.00    -0.354 N 
ATOM     52  N   UNL A   1      41.086  31.211  34.788  1.00  0.00    -0.248 NA
ATOM     53  C   UNL A   1      41.754  31.970  36.892  1.00  0.00     0.031 C 
ATOM     54  C   UNL A   1      43.105  27.955  32.544  1.00  0.00     0.029 A 
ATOM     55  C   UNL A   1      42.508  28.983  33.255  1.00  0.00     0.049 A 
ATOM     56  H   UNL A   1      40.818  30.142  32.749  1.00  0.00     0.167 HD
ATOM     57  C   UNL A   1      42.223  30.518  35.182  1.00  0.00     0.074 A 
ATOM     58  C   UNL A   1      42.609  31.047  36.473  1.00  0.00     0.031 C 
ATOM     59  C   UNL A   1      42.885  29.530  34.531  1.00  0.00     0.037 A 
BRANCH  46  60
ATOM     60  C   UNL A   1      40.427  28.028  29.066  1.00  0.00     0.064 A 
ATOM     61  C   UNL A   1      41.188  28.374  27.939  1.00  0.00     0.173 A 
ATOM     62  C   UNL A   1      39.715  26.820  29.031  1.00  0.00     0.173 A 
ATOM     63  F   UNL A   1      41.876  29.526  27.916  1.00  0.00    -0.203 F 
ATOM     64  C   UNL A   1      41.206  27.560  26.809  1.00  0.00     0.198 A 
ATOM     65  C   UNL A   1      39.759  25.994  27.910  1.00  0.00     0.198 A 
ATOM     66  F   UNL A   1      38.977  26.439  30.085  1.00  0.00    -0.203 F 
ATOM     67  F   UNL A   1      41.898  27.938  25.725  1.00  0.00    -0.200 F 
ATOM     68  C   UNL A   1      40.496  26.369  26.797  1.00  0.00     0.200 A 
ATOM     69  F   UNL A   1      39.081  24.838  27.904  1.00  0.00    -0.200 F 
ATOM     70  F   UNL A   1      40.517  25.586  25.710  1.00  0.00    -0.200 F 
ENDBRANCH  46  60
BRANCH  47  71
ATOM     71  C   UNL A   1      39.587  33.933  37.058  1.00  0.00     0.064 A 
ATOM     72  C   UNL A   1      38.872  33.491  38.180  1.00  0.00     0.173 A 
ATOM     73  C   UNL A   1      40.173  35.205  37.116  1.00  0.00     0.173 A 
ATOM     74  F   UNL A   1      38.278  32.289  38.161  1.00  0.00    -0.203 F 
ATOM     75  C   UNL A   1      38.735  34.295  39.309  1.00  0.00     0.198 A 
ATOM     76  C   UNL A   1      40.056  35.999  38.255  1.00  0.00     0.198 A 
ATOM     77  F   UNL A   1      40.872  35.670  36.071  1.00  0.00    -0.203 F 
ATOM     78  F   UNL A   1      38.016  33.862  40.354  1.00  0.00    -0.200 F 
ATOM     79  C   UNL A   1      39.332  35.546  39.347  1.00  0.00     0.200 A 
ATOM     80  F   UNL A   1      40.644  37.203  38.294  1.00  0.00    -0.200 F 
ATOM     81  F   UNL A   1      39.205  36.317  40.437  1.00  0.00    -0.200 F 
ENDBRANCH  47  71
BRANCH  59  82
ATOM     82  C   UNL A   1      44.117  28.984  35.189  1.00  0.00     0.064 A 
ATOM     83  C   UNL A   1      44.056  27.899  36.076  1.00  0.00     0.173 A 
ATOM     84  C   UNL A   1      45.376  29.531  34.902  1.00  0.00     0.173 A 
ATOM     85  F   UNL A   1      42.874  27.350  36.393  1.00  0.00    -0.203 F 
ATOM     86  C   UNL A   1      45.211  27.398  36.672  1.00  0.00     0.198 A 
ATOM     87  C   UNL A   1      46.530  29.013  35.481  1.00  0.00     0.198 A 
ATOM     88  F   UNL A   1      45.486  30.566  34.057  1.00  0.00    -0.203 F 
ATOM     89  F   UNL A   1      45.126  26.389  37.550  1.00  0.00    -0.200 F 
ATOM     90  C   UNL A   1      46.446  27.951  36.370  1.00  0.00     0.200 A 
ATOM     91  F   UNL A   1      47.725  29.542  35.181  1.00  0.00    -0.200 F 
ATOM     92  F   UNL A   1      47.557  27.466  36.942  1.00  0.00    -0.200 F 
ENDBRANCH  59  82
ENDBRANCH  33  34
ENDBRANCH  25  28
ENDBRANCH  23  24
ENDBRANCH  22  23
ENDBRANCH   1  22
TORSDOF 14
ENDMDL
MODEL 2
REMARK VINA RESULT:     -12.3      0.117      1.615
REMARK SMILES C[C@@H](C(=O)NCCCNC(=O)c1ccc(-c2c3nc(c(-c4c(F)c(F)c(F)c(F)c4F)c4ccc([nH]4)c(-c4c(F)c(F)c(F)c(F)c4F)c4nc(c(-c5c(F)c(F)c(F)c(F)c5F)c5ccc2[nH]5)C=C4)C=C3)cc1)c1ccc(C[C@@H]2CCC[C@@H]2O)cc1
REMARK SMILES IDX 6 1 5 2 3 3 4 4 2 6 1 7 75 8 76 9 87 10 77 11 86 12 78 13
REMARK SMILES IDX 79 14 80 15 81 16 84 17 82 18 83 19 85 20 7 22 8 23 9 24
REMARK SMILES IDX 10 25 11 27 12 28 13 29 74 30 14 31 73 32 15 33 16 34 17 35
REMARK SMILES IDX 67 36 18 37 72 38 66 39 68 40 19 41 71 42 65 43 64 44 20 46
REMARK SMILES IDX 52 47 32 48 51 49 33 50 36 51 50 52 69 53 34 54 35 55 49 57
REMARK SMILES IDX 70 58 37 59 21 60 22 61 30 62 23 63 24 64 28 65 31 66 25 67
REMARK SMILES IDX 26 68 29 69 27 70 53 71 54 72 62 73 55 74 56 75 60 76 63 77
REMARK SMILES IDX 57 78 58 79 61 80 59 81 38 82 39 83 47 84 40 85 41 86 45 87
REMARK SMILES IDX 48 88 42 89 43 90 46 91 44 92
REMARK H PARENT 5 5 85 21 9 26 68 45 36 56
REMARK Flexibility Score: inf
ROOT
ATOM      1  C   UNL A   1      31.244  31.053  26.505  1.00  0.00     0.117 C 
ENDROOT
BRANCH   1   2
ATOM      2  N   UNL A   1      31.823  30.453  25.318  1.00  0.00    -0.356 N 
ATOM      3  C   UNL A   1      32.710  29.423  25.186  1.00  0.00     0.227 C 
ATOM      4  O   UNL A   1      33.224  29.292  24.073  1.00  0.00    -0.274 OA
ATOM      5  H   UNL A   1      31.527  30.854  24.468  1.00  0.00     0.163 HD
BRANCH   3   6
ATOM      6  C   UNL A   1      33.030  28.513  26.390  1.00  0.00     0.105 C 
ATOM      7  C   UNL A   1      34.418  28.914  26.913  1.00  0.00     0.023 C 
BRANCH   6   8
ATOM      8  C   UNL A   1      32.934  27.012  26.089  1.00  0.00    -0.036 A 
ATOM      9  C   UNL A   1      31.746  26.292  26.301  1.00  0.00     0.005 A 
ATOM     10  C   UNL A   1      34.028  26.302  25.571  1.00  0.00     0.005 A 
ATOM     11  C   UNL A   1      31.699  24.905  26.147  1.00  0.00     0.004 A 
ATOM     12  C   UNL A   1      33.989  24.910  25.441  1.00  0.00     0.004 A 
ATOM     13  C   UNL A   1      32.840  24.192  25.783  1.00  0.00    -0.048 A 
BRANCH  13  14
ATOM     14  C   UNL A   1      32.855  22.685  25.807  1.00  0.00     0.041 C 
BRANCH  14  15
ATOM     15  C   UNL A   1      33.529  21.955  24.618  1.00  0.00     0.022 C 
ATOM     16  C   UNL A   1      32.564  21.292  23.627  1.00  0.00     0.007 C 
ATOM     17  C   UNL A   1      34.499  20.813  24.942  1.00  0.00     0.117 C 
ATOM     18  C   UNL A   1      32.528  19.800  23.975  1.00  0.00     0.003 C 
ATOM     19  C   UNL A   1      33.632  19.563  25.002  1.00  0.00     0.032 C 
BRANCH  17  20
ATOM     20  O   UNL A   1      35.243  21.005  26.126  1.00  0.00    -0.393 OA
ATOM     21  H   UNL A   1      34.717  21.520  26.758  1.00  0.00     0.210 HD
ENDBRANCH  17  20
ENDBRANCH  14  15
ENDBRANCH  13  14
ENDBRANCH   6   8
ENDBRANCH   3   6
ENDBRANCH   1   2
BRANCH   1  22
ATOM     22  C   UNL A   1      31.403  32.575  26.502  1.00  0.00     0.042 C 
BRANCH  22  23
ATOM     23  C   UNL A   1      32.626  33.092  27.251  1.00  0.00     0.118 C 
BRANCH  23  24
ATOM     24  N   UNL A   1      32.469  34.464  27.698  1.00  0.00    -0.352 N 
ATOM     25  C   UNL A   1      33.057  35.120  28.747  1.00  0.00     0.251 C 
ATOM     26  H   UNL A   1      31.845  35.007  27.163  1.00  0.00     0.163 HD
ATOM     27  O   UNL A   1      32.647  36.240  29.057  1.00  0.00    -0.269 OA
BRANCH  25  28
ATOM     28  C   UNL A   1      34.161  34.510  29.524  1.00  0.00     0.039 A 
ATOM     29  C   UNL A   1      35.453  34.561  28.991  1.00  0.00     0.014 A 
ATOM     30  C   UNL A   1      33.935  33.825  30.723  1.00  0.00     0.014 A 
ATOM     31  C   UNL A   1      36.515  33.949  29.662  1.00  0.00     0.010 A 
ATOM     32  C   UNL A   1      35.006  33.273  31.427  1.00  0.00     0.010 A 
ATOM     33  C   UNL A   1      36.303  33.307  30.892  1.00  0.00    -0.014 A 
BRANCH  33  34
ATOM     34  C   UNL A   1      37.417  32.619  31.591  1.00  0.00     0.031 A 
ATOM     35  C   UNL A   1      38.123  31.466  30.932  1.00  0.00     0.074 A 
ATOM     36  C   UNL A   1      37.779  33.010  32.828  1.00  0.00     0.049 A 
ATOM     37  N   UNL A   1      39.102  30.723  31.386  1.00  0.00    -0.248 NA
ATOM     38  C   UNL A   1      37.651  31.081  29.594  1.00  0.00     0.031 C 
ATOM     39  C   UNL A   1      37.144  34.081  33.596  1.00  0.00     0.029 A 
ATOM     40  N   UNL A   1      38.770  32.546  33.658  1.00  0.00    -0.354 N 
ATOM     41  C   UNL A   1      39.348  29.778  30.399  1.00  0.00     0.074 A 
ATOM     42  C   UNL A   1      38.385  30.007  29.344  1.00  0.00     0.031 C 
ATOM     43  C   UNL A   1      37.771  34.203  34.777  1.00  0.00     0.029 A 
ATOM     44  C   UNL A   1      38.837  33.209  34.857  1.00  0.00     0.049 A 
ATOM     45  H   UNL A   1      39.375  31.807  33.414  1.00  0.00     0.167 HD
ATOM     46  C   UNL A   1      40.305  28.819  30.362  1.00  0.00     0.037 A 
ATOM     47  C   UNL A   1      39.670  33.036  35.901  1.00  0.00     0.037 A 
ATOM     48  C   UNL A   1      41.284  28.608  31.395  1.00  0.00     0.049 A 
ATOM     49  C   UNL A   1      40.754  31.997  35.818  1.00  0.00     0.074 A 
ATOM     50  C   UNL A   1      42.316  27.688  31.435  1.00  0.00     0.029 A 
ATOM     51  N   UNL A   1      41.353  29.337  32.573  1.00  0.00    -0.354 N 
ATOM     52  N   UNL A   1      41.010  31.144  34.856  1.00  0.00    -0.248 NA
ATOM     53  C   UNL A   1      41.676  31.909  36.959  1.00  0.00     0.031 C 
ATOM     54  C   UNL A   1      42.996  27.843  32.648  1.00  0.00     0.029 A 
ATOM     55  C   UNL A   1      42.409  28.885  33.348  1.00  0.00     0.049 A 
ATOM     56  H   UNL A   1      40.740  30.066  32.823  1.00  0.00     0.167 HD
ATOM     57  C   UNL A   1      42.134  30.438  35.263  1.00  0.00     0.074 A 
ATOM     58  C   UNL A   1      42.519  30.970  36.552  1.00  0.00     0.031 C 
ATOM     59  C   UNL A   1      42.786  29.435  34.623  1.00  0.00     0.037 A 
BRANCH  46  60
ATOM     60  C   UNL A   1      40.342  27.931  29.153  1.00  0.00     0.064 A 
ATOM     61  C   UNL A   1      39.623  26.727  29.106  1.00  0.00     0.173 A 
ATOM     62  C   UNL A   1      41.089  28.293  28.022  1.00  0.00     0.173 A 
ATOM     63  F   UNL A   1      38.903  26.329  30.167  1.00  0.00    -0.203 F 
ATOM     64  C   UNL A   1      39.678  25.901  27.986  1.00  0.00     0.198 A 
ATOM     65  C   UNL A   1      41.119  27.479  26.892  1.00  0.00     0.198 A 
ATOM     66  F   UNL A   1      41.790  29.437  28.012  1.00  0.00    -0.203 F 
ATOM     67  F   UNL A   1      39.025  24.731  27.985  1.00  0.00    -0.200 F 
ATOM     68  C   UNL A   1      40.421  26.280  26.878  1.00  0.00     0.200 A 
ATOM     69  F   UNL A   1      41.829  27.851  25.819  1.00  0.00    -0.200 F 
ATOM     70  F   UNL A   1      40.472  25.486  25.800  1.00  0.00    -0.200 F 
ENDBRANCH  46  60
BRANCH  47  71
ATOM     71  C   UNL A   1      39.537  33.904  37.098  1.00  0.00     0.064 A 
ATOM     72  C   UNL A   1      40.141  35.169  37.142  1.00  0.00     0.173 A 
ATOM     73  C   UNL A   1      38.797  33.494  38.215  1.00  0.00     0.173 A 
ATOM     74  F   UNL A   1      40.875  35.595  36.103  1.00  0.00    -0.203 F 
ATOM     75  C   UNL A   1      40.022  35.984  38.265  1.00  0.00     0.198 A 
ATOM     76  C   UNL A   1      38.660  34.320  39.329  1.00  0.00     0.198 A 
ATOM     77  F   UNL A   1      38.196  32.295  38.219  1.00  0.00    -0.203 F 
ATOM     78  F   UNL A   1      40.640  37.173  38.295  1.00  0.00    -0.200 F 
ATOM     79  C   UNL A   1      39.277  35.561  39.355  1.00  0.00     0.200 A 
ATOM     80  F   UNL A   1      37.928  33.913  40.376  1.00  0.00    -0.200 F 
ATOM     81  F   UNL A   1      39.159  36.348  40.434  1.00  0.00    -0.200 F 
ENDBRANCH  47  71
BRANCH  59  82
ATOM     82  C   UNL A   1      44.005  28.876  35.293  1.00  0.00     0.064 A 
ATOM     83  C   UNL A   1      43.923  27.794  36.183  1.00  0.00     0.173 A 
ATOM     84  C   UNL A   1      45.273  29.406  35.015  1.00  0.00     0.173 A 
ATOM     85  F   UNL A   1      42.731  27.262  36.491  1.00  0.00    -0.203 F 
ATOM     86  C   UNL A   1      45.067  27.282  36.790  1.00  0.00     0.198 A 
ATOM     87  C   UNL A   1      46.416  28.875  35.605  1.00  0.00     0.198 A 
ATOM     88  F   UNL A   1      45.404  30.437  34.167  1.00  0.00    -0.203 F 
ATOM     89  F   UNL A   1      44.962  26.277  37.671  1.00  0.00    -0.200 F 
ATOM     90  C   UNL A   1      46.312  27.818  36.497  1.00  0.00     0.200 A 
ATOM     91  F   UNL A   1      47.620  29.388  35.314  1.00  0.00    -0.200 F 
ATOM     92  F   UNL A   1      47.411  27.320  37.080  1.00  0.00    -0.200 F 
ENDBRANCH  59  82
ENDBRANCH  33  34
ENDBRANCH  25  28
ENDBRANCH  23  24
ENDBRANCH  22  23
ENDBRANCH   1  22
TORSDOF 14
ENDMDL
MODEL 3
REMARK VINA RESULT:     -12.3      5.759     11.333
REMARK SMILES C[C@@H](C(=O)NCCCNC(=O)c1ccc(-c2c3nc(c(-c4c(F)c(F)c(F)c(F)c4F)c4ccc([nH]4)c(-c4c(F)c(F)c(F)c(F)c4F)c4nc(c(-c5c(F)c(F)c(F)c(F)c5F)c5ccc2[nH]5)C=C4)C=C3)cc1)c1ccc(C[C@@H]2CCC[C@@H]2O)cc1
REMARK SMILES IDX 6 1 5 2 3 3 4 4 2 6 1 7 75 8 76 9 87 10 77 11 86 12 78 13
REMARK SMILES IDX 79 14 80 15 81 16 84 17 82 18 83 19 85 20 7 22 8 23 9 24
REMARK SMILES IDX 10 25 11 27 12 28 13 29 74 30 14 31 73 32 15 33 16 34 17 35
REMARK SMILES IDX 67 36 18 37 72 38 66 39 68 40 19 41 71 42 65 43 64 44 20 46
REMARK SMILES IDX 52 47 32 48 51 49 33 50 36 51 50 52 69 53 34 54 35 55 49 57
REMARK SMILES IDX 70 58 37 59 21 60 22 61 30 62 23 63 24 64 28 65 31 66 25 67
REMARK SMILES IDX 26 68 29 69 27 70 53 71 54 72 62 73 55 74 56 75 60 76 63 77
REMARK SMILES IDX 57 78 58 79 61 80 59 81 38 82 39 83 47 84 40 85 41 86 45 87
REMARK SMILES IDX 48 88 42 89 43 90 46 91 44 92
REMARK H PARENT 5 5 85 21 9 26 68 45 36 56
REMARK Flexibility Score: inf
ROOT
ATOM      1  C   UNL A   1      36.775  20.206  25.042  1.00  0.00     0.117 C 
ENDROOT
BRANCH   1   2
ATOM      2  N   UNL A   1      36.982  21.471  25.724  1.00  0.00    -0.356 N 
ATOM      3  C   UNL A   1      36.565  22.731  25.402  1.00  0.00     0.227 C 
ATOM      4  O   UNL A   1      37.099  23.651  26.023  1.00  0.00    -0.274 OA
ATOM      5  H   UNL A   1      37.508  21.410  26.554  1.00  0.00     0.163 HD
BRANCH   3   6
ATOM      6  C   UNL A   1      35.495  22.941  24.310  1.00  0.00     0.105 C 
ATOM      7  C   UNL A   1      36.233  23.128  22.975  1.00  0.00     0.023 C 
BRANCH   6   8
ATOM      8  C   UNL A   1      34.516  24.086  24.598  1.00  0.00    -0.036 A 
ATOM      9  C   UNL A   1      33.937  24.259  25.866  1.00  0.00     0.005 A 
ATOM     10  C   UNL A   1      34.175  25.019  23.607  1.00  0.00     0.005 A 
ATOM     11  C   UNL A   1      32.952  25.223  26.090  1.00  0.00     0.004 A 
ATOM     12  C   UNL A   1      33.170  25.968  23.823  1.00  0.00     0.004 A 
ATOM     13  C   UNL A   1      32.508  26.040  25.051  1.00  0.00    -0.048 A 
BRANCH  13  14
ATOM     14  C   UNL A   1      31.314  26.943  25.228  1.00  0.00     0.041 C 
BRANCH  14  15
ATOM     15  C   UNL A   1      31.578  28.408  25.654  1.00  0.00     0.022 C 
ATOM     16  C   UNL A   1      32.815  29.060  25.023  1.00  0.00     0.007 C 
ATOM     17  C   UNL A   1      31.789  28.688  27.147  1.00  0.00     0.117 C 
ATOM     18  C   UNL A   1      33.931  28.998  26.070  1.00  0.00     0.003 C 
ATOM     19  C   UNL A   1      33.286  28.529  27.371  1.00  0.00     0.032 C 
BRANCH  17  20
ATOM     20  O   UNL A   1      31.028  27.862  28.002  1.00  0.00    -0.393 OA
ATOM     21  H   UNL A   1      30.517  27.231  27.471  1.00  0.00     0.210 HD
ENDBRANCH  17  20
ENDBRANCH  14  15
ENDBRANCH  13  14
ENDBRANCH   6   8
ENDBRANCH   3   6
ENDBRANCH   1   2
BRANCH   1  22
ATOM     22  C   UNL A   1      38.063  19.382  24.981  1.00  0.00     0.042 C 
BRANCH  22  23
ATOM     23  C   UNL A   1      39.234  19.967  25.764  1.00  0.00     0.118 C 
BRANCH  23  24
ATOM     24  N   UNL A   1      40.313  19.013  25.949  1.00  0.00    -0.352 N 
ATOM     25  C   UNL A   1      41.655  19.227  26.122  1.00  0.00     0.251 C 
ATOM     26  H   UNL A   1      40.037  18.068  25.953  1.00  0.00     0.163 HD
ATOM     27  O   UNL A   1      42.424  18.265  26.086  1.00  0.00    -0.269 OA
BRANCH  25  28
ATOM     28  C   UNL A   1      42.203  20.587  26.338  1.00  0.00     0.039 A 
ATOM     29  C   UNL A   1      42.299  21.062  27.650  1.00  0.00     0.014 A 
ATOM     30  C   UNL A   1      42.551  21.425  25.273  1.00  0.00     0.014 A 
ATOM     31  C   UNL A   1      42.757  22.359  27.895  1.00  0.00     0.010 A 
ATOM     32  C   UNL A   1      43.073  22.695  25.522  1.00  0.00     0.010 A 
ATOM     33  C   UNL A   1      43.157  23.185  26.834  1.00  0.00    -0.014 A 
BRANCH  33  34
ATOM     34  C   UNL A   1      43.606  24.578  27.083  1.00  0.00     0.031 A 
ATOM     35  C   UNL A   1      42.632  25.604  27.595  1.00  0.00     0.074 A 
ATOM     36  C   UNL A   1      44.880  24.931  26.826  1.00  0.00     0.049 A 
ATOM     37  N   UNL A   1      42.823  26.873  27.854  1.00  0.00    -0.248 NA
ATOM     38  C   UNL A   1      41.253  25.148  27.824  1.00  0.00     0.031 C 
ATOM     39  C   UNL A   1      45.909  24.045  26.282  1.00  0.00     0.029 A 
ATOM     40  N   UNL A   1      45.524  26.134  26.984  1.00  0.00    -0.354 N 
ATOM     41  C   UNL A   1      41.590  27.367  28.258  1.00  0.00     0.074 A 
ATOM     42  C   UNL A   1      40.646  26.275  28.163  1.00  0.00     0.031 C 
ATOM     43  C   UNL A   1      47.059  24.730  26.168  1.00  0.00     0.029 A 
ATOM     44  C   UNL A   1      46.844  26.103  26.612  1.00  0.00     0.049 A 
ATOM     45  H   UNL A   1      45.079  26.940  27.333  1.00  0.00     0.167 HD
ATOM     46  C   UNL A   1      41.275  28.611  28.692  1.00  0.00     0.037 A 
ATOM     47  C   UNL A   1      47.776  27.075  26.631  1.00  0.00     0.037 A 
ATOM     48  C   UNL A   1      42.218  29.691  28.817  1.00  0.00     0.049 A 
ATOM     49  C   UNL A   1      47.415  28.435  27.161  1.00  0.00     0.074 A 
ATOM     50  C   UNL A   1      42.004  30.977  29.282  1.00  0.00     0.029 A 
ATOM     51  N   UNL A   1      43.560  29.605  28.479  1.00  0.00    -0.354 N 
ATOM     52  N   UNL A   1      46.257  28.875  27.591  1.00  0.00    -0.248 NA
ATOM     53  C   UNL A   1      48.495  29.430  27.225  1.00  0.00     0.031 C 
ATOM     54  C   UNL A   1      43.214  31.677  29.202  1.00  0.00     0.029 A 
ATOM     55  C   UNL A   1      44.188  30.817  28.723  1.00  0.00     0.049 A 
ATOM     56  H   UNL A   1      44.001  28.803  28.118  1.00  0.00     0.167 HD
ATOM     57  C   UNL A   1      46.474  30.184  27.999  1.00  0.00     0.074 A 
ATOM     58  C   UNL A   1      47.877  30.464  27.779  1.00  0.00     0.031 C 
ATOM     59  C   UNL A   1      45.587  31.074  28.510  1.00  0.00     0.037 A 
BRANCH  46  60
ATOM     60  C   UNL A   1      39.846  28.864  29.075  1.00  0.00     0.064 A 
ATOM     61  C   UNL A   1      38.906  29.319  28.137  1.00  0.00     0.173 A 
ATOM     62  C   UNL A   1      39.405  28.635  30.387  1.00  0.00     0.173 A 
ATOM     63  F   UNL A   1      39.280  29.566  26.872  1.00  0.00    -0.203 F 
ATOM     64  C   UNL A   1      37.587  29.567  28.507  1.00  0.00     0.198 A 
ATOM     65  C   UNL A   1      38.078  28.857  30.746  1.00  0.00     0.198 A 
ATOM     66  F   UNL A   1      40.262  28.194  31.321  1.00  0.00    -0.203 F 
ATOM     67  F   UNL A   1      36.721  30.051  27.606  1.00  0.00    -0.200 F 
ATOM     68  C   UNL A   1      37.173  29.332  29.809  1.00  0.00     0.200 A 
ATOM     69  F   UNL A   1      37.677  28.619  32.002  1.00  0.00    -0.200 F 
ATOM     70  F   UNL A   1      35.902  29.569  30.163  1.00  0.00    -0.200 F 
ENDBRANCH  46  60
BRANCH  47  71
ATOM     71  C   UNL A   1      49.157  26.777  26.174  1.00  0.00     0.064 A 
ATOM     72  C   UNL A   1      49.534  26.982  24.839  1.00  0.00     0.173 A 
ATOM     73  C   UNL A   1      50.128  26.293  27.061  1.00  0.00     0.173 A 
ATOM     74  F   UNL A   1      48.632  27.426  23.951  1.00  0.00    -0.203 F 
ATOM     75  C   UNL A   1      50.826  26.698  24.405  1.00  0.00     0.198 A 
ATOM     76  C   UNL A   1      51.427  26.031  26.631  1.00  0.00     0.198 A 
ATOM     77  F   UNL A   1      49.817  26.086  28.349  1.00  0.00    -0.203 F 
ATOM     78  F   UNL A   1      51.150  26.868  23.116  1.00  0.00    -0.200 F 
ATOM     79  C   UNL A   1      51.773  26.229  25.303  1.00  0.00     0.200 A 
ATOM     80  F   UNL A   1      52.343  25.590  27.504  1.00  0.00    -0.200 F 
ATOM     81  F   UNL A   1      53.019  25.962  24.886  1.00  0.00    -0.200 F 
ENDBRANCH  47  71
BRANCH  59  82
ATOM     82  C   UNL A   1      46.118  32.421  28.899  1.00  0.00     0.064 A 
ATOM     83  C   UNL A   1      46.105  33.502  28.004  1.00  0.00     0.173 A 
ATOM     84  C   UNL A   1      46.613  32.641  30.192  1.00  0.00     0.173 A 
ATOM     85  F   UNL A   1      45.655  33.336  26.752  1.00  0.00    -0.203 F 
ATOM     86  C   UNL A   1      46.594  34.749  28.385  1.00  0.00     0.198 A 
ATOM     87  C   UNL A   1      47.078  33.895  30.576  1.00  0.00     0.198 A 
ATOM     88  F   UNL A   1      46.641  31.641  31.085  1.00  0.00    -0.203 F 
ATOM     89  F   UNL A   1      46.613  35.756  27.501  1.00  0.00    -0.200 F 
ATOM     90  C   UNL A   1      47.074  34.946  29.671  1.00  0.00     0.200 A 
ATOM     91  F   UNL A   1      47.534  34.088  31.823  1.00  0.00    -0.200 F 
ATOM     92  F   UNL A   1      47.541  36.148  30.036  1.00  0.00    -0.200 F 
ENDBRANCH  59  82
ENDBRANCH  33  34
ENDBRANCH  25  28
ENDBRANCH  23  24
ENDBRANCH  22  23
ENDBRANCH   1  22
TORSDOF 14
ENDMDL
