MODEL 1
REMARK VINA RESULT:     -10.2      0.000      0.000
REMARK SMILES CC#CC[C@H](C(=O)NCCCNC(=O)c1ccc(-c2c3nc(c(-c4c(F)c(F)c(F)c(F)c4F)c4ccc([nH]4)c(-c4c(F)c(F)c(F)c(F)c4F)c4nc(c(-c5c(F)c(F)c(F)c(F)c5F)c5ccc2[nH]5)C=C4)C=C3)cc1)c1cccc(Br)c1
REMARK SMILES IDX 10 1 9 2 8 3 6 4 7 5 5 7 4 8 3 9 1 10 2 11 78 12 79 13 84 14
REMARK SMILES IDX 80 15 82 16 81 17 83 18 11 19 12 20 13 21 14 23 15 24 16 25
REMARK SMILES IDX 77 26 17 27 76 28 18 29 19 30 20 31 70 32 21 33 75 34 69 35
REMARK SMILES IDX 71 36 22 37 74 38 68 39 67 40 23 42 55 43 35 44 54 45 36 46
REMARK SMILES IDX 39 47 53 48 72 49 37 50 38 51 52 53 73 54 40 55 24 56 25 57
REMARK SMILES IDX 33 58 26 59 27 60 31 61 34 62 28 63 29 64 32 65 30 66 56 67
REMARK SMILES IDX 57 68 65 69 58 70 59 71 63 72 66 73 60 74 61 75 64 76 62 77
REMARK SMILES IDX 41 78 42 79 50 80 43 81 44 82 48 83 51 84 45 85 46 86 49 87
REMARK SMILES IDX 47 88
REMARK H PARENT 8 6 12 22 71 41 39 52
REMARK Flexibility Score: inf
ROOT
ATOM      1  C   UNL A   1      34.433  33.475  29.837  1.00  0.00     0.042 C 
ENDROOT
BRANCH   1   2
ATOM      2  C   UNL A   1      34.787  32.409  30.863  1.00  0.00     0.117 C 
BRANCH   2   3
ATOM      3  N   UNL A   1      34.420  32.820  32.205  1.00  0.00    -0.355 N 
ATOM      4  C   UNL A   1      35.203  33.137  33.276  1.00  0.00     0.228 C 
ATOM      5  O   UNL A   1      34.625  33.455  34.318  1.00  0.00    -0.274 OA
ATOM      6  H   UNL A   1      33.451  32.879  32.370  1.00  0.00     0.163 HD
BRANCH   4   7
ATOM      7  C   UNL A   1      36.727  33.152  33.134  1.00  0.00     0.120 C 
BRANCH   7   8
ATOM      8  C   UNL A   1      37.154  34.577  32.751  1.00  0.00     0.107 C 
BRANCH   8   9
ATOM      9  C   UNL A   1      38.093  34.581  31.556  1.00  0.00    -0.102 C 
ATOM     10  C   UNL A   1      39.837  34.589  29.335  1.00  0.00     0.107 C 
ATOM     11  C   UNL A   1      38.899  34.584  30.531  1.00  0.00    -0.107 C 
ENDBRANCH   8   9
ENDBRANCH   7   8
BRANCH   7  12
ATOM     12  C   UNL A   1      37.439  32.643  34.386  1.00  0.00    -0.034 A 
ATOM     13  C   UNL A   1      37.886  31.310  34.436  1.00  0.00     0.004 A 
ATOM     14  C   UNL A   1      37.665  33.464  35.503  1.00  0.00     0.020 A 
ATOM     15  C   UNL A   1      38.529  30.811  35.571  1.00  0.00     0.001 A 
ATOM     16  C   UNL A   1      38.302  32.957  36.637  1.00  0.00     0.018 A 
ATOM     17  C   UNL A   1      38.735  31.633  36.676  1.00  0.00     0.016 A 
ATOM     18  Br  UNL A   1      38.572  34.071  38.141  1.00  0.00    -0.051 Br
ENDBRANCH   7  12
ENDBRANCH   4   7
ENDBRANCH   2   3
ENDBRANCH   1   2
BRANCH   1  19
ATOM     19  C   UNL A   1      34.839  33.111  28.413  1.00  0.00     0.118 C 
BRANCH  19  20
ATOM     20  N   UNL A   1      34.045  32.019  27.865  1.00  0.00    -0.352 N 
ATOM     21  C   UNL A   1      34.387  30.714  27.621  1.00  0.00     0.251 C 
ATOM     22  H   UNL A   1      33.119  32.255  27.633  1.00  0.00     0.163 HD
ATOM     23  O   UNL A   1      33.623  29.994  26.980  1.00  0.00    -0.269 OA
BRANCH  21  24
ATOM     24  C   UNL A   1      35.673  30.172  28.103  1.00  0.00     0.039 A 
ATOM     25  C   UNL A   1      36.780  30.210  27.250  1.00  0.00     0.014 A 
ATOM     26  C   UNL A   1      35.789  29.607  29.375  1.00  0.00     0.014 A 
ATOM     27  C   UNL A   1      38.017  29.742  27.698  1.00  0.00     0.010 A 
ATOM     28  C   UNL A   1      37.036  29.211  29.848  1.00  0.00     0.010 A 
ATOM     29  C   UNL A   1      38.162  29.272  29.014  1.00  0.00    -0.014 A 
BRANCH  29  30
ATOM     30  C   UNL A   1      39.484  28.845  29.536  1.00  0.00     0.031 A 
ATOM     31  C   UNL A   1      40.207  29.692  30.545  1.00  0.00     0.074 A 
ATOM     32  C   UNL A   1      40.062  27.731  29.049  1.00  0.00     0.049 A 
ATOM     33  N   UNL A   1      41.402  29.532  31.058  1.00  0.00    -0.248 NA
ATOM     34  C   UNL A   1      39.508  30.895  31.023  1.00  0.00     0.031 C 
ATOM     35  C   UNL A   1      39.481  26.852  28.033  1.00  0.00     0.029 A 
ATOM     36  N   UNL A   1      41.276  27.155  29.332  1.00  0.00    -0.354 N 
ATOM     37  C   UNL A   1      41.601  30.617  31.900  1.00  0.00     0.074 A 
ATOM     38  C   UNL A   1      40.426  31.455  31.795  1.00  0.00     0.031 C 
ATOM     39  C   UNL A   1      40.329  25.839  27.792  1.00  0.00     0.029 A 
ATOM     40  C   UNL A   1      41.527  26.017  28.606  1.00  0.00     0.049 A 
ATOM     41  H   UNL A   1      41.906  27.523  29.993  1.00  0.00     0.167 HD
ATOM     42  C   UNL A   1      42.659  30.878  32.704  1.00  0.00     0.037 A 
ATOM     43  C   UNL A   1      42.607  25.213  28.592  1.00  0.00     0.037 A 
ATOM     44  C   UNL A   1      43.813  30.027  32.828  1.00  0.00     0.049 A 
ATOM     45  C   UNL A   1      43.767  25.526  29.496  1.00  0.00     0.074 A 
ATOM     46  C   UNL A   1      44.907  30.172  33.662  1.00  0.00     0.029 A 
ATOM     47  N   UNL A   1      44.021  28.869  32.092  1.00  0.00    -0.354 N 
ATOM     48  N   UNL A   1      43.916  26.520  30.338  1.00  0.00    -0.248 NA
ATOM     49  C   UNL A   1      44.909  24.601  29.453  1.00  0.00     0.031 C 
ATOM     50  C   UNL A   1      45.798  29.126  33.403  1.00  0.00     0.029 A 
ATOM     51  C   UNL A   1      45.237  28.301  32.441  1.00  0.00     0.049 A 
ATOM     52  H   UNL A   1      43.398  28.505  31.423  1.00  0.00     0.167 HD
ATOM     53  C   UNL A   1      45.150  26.326  30.943  1.00  0.00     0.074 A 
ATOM     54  C   UNL A   1      45.704  25.111  30.383  1.00  0.00     0.031 C 
ATOM     55  C   UNL A   1      45.769  27.086  31.879  1.00  0.00     0.037 A 
BRANCH  42  56
ATOM     56  C   UNL A   1      42.615  32.136  33.521  1.00  0.00     0.064 A 
ATOM     57  C   UNL A   1      42.948  33.384  32.970  1.00  0.00     0.173 A 
ATOM     58  C   UNL A   1      42.200  32.101  34.861  1.00  0.00     0.173 A 
ATOM     59  F   UNL A   1      43.362  33.470  31.697  1.00  0.00    -0.203 F 
ATOM     60  C   UNL A   1      42.890  34.545  33.737  1.00  0.00     0.198 A 
ATOM     61  C   UNL A   1      42.116  33.268  35.616  1.00  0.00     0.198 A 
ATOM     62  F   UNL A   1      41.865  30.936  35.435  1.00  0.00    -0.203 F 
ATOM     63  F   UNL A   1      43.257  35.717  33.202  1.00  0.00    -0.200 F 
ATOM     64  C   UNL A   1      42.468  34.487  35.056  1.00  0.00     0.200 A 
ATOM     65  F   UNL A   1      41.695  33.213  36.887  1.00  0.00    -0.200 F 
ATOM     66  F   UNL A   1      42.407  35.607  35.791  1.00  0.00    -0.200 F 
ENDBRANCH  42  56
BRANCH  43  67
ATOM     67  C   UNL A   1      42.631  24.019  27.708  1.00  0.00     0.064 A 
ATOM     68  C   UNL A   1      42.271  22.756  28.198  1.00  0.00     0.173 A 
ATOM     69  C   UNL A   1      43.014  24.113  26.363  1.00  0.00     0.173 A 
ATOM     70  F   UNL A   1      41.916  22.614  29.484  1.00  0.00    -0.203 F 
ATOM     71  C   UNL A   1      42.314  21.629  27.381  1.00  0.00     0.198 A 
ATOM     72  C   UNL A   1      43.030  22.990  25.539  1.00  0.00     0.198 A 
ATOM     73  F   UNL A   1      43.361  25.300  25.844  1.00  0.00    -0.203 F 
ATOM     74  F   UNL A   1      42.007  20.425  27.886  1.00  0.00    -0.200 F 
ATOM     75  C   UNL A   1      42.687  21.747  26.050  1.00  0.00     0.200 A 
ATOM     76  F   UNL A   1      43.378  23.111  24.251  1.00  0.00    -0.200 F 
ATOM     77  F   UNL A   1      42.724  20.663  25.265  1.00  0.00    -0.200 F 
ENDBRANCH  43  67
BRANCH  55  78
ATOM     78  C   UNL A   1      47.099  26.608  32.383  1.00  0.00     0.064 A 
ATOM     79  C   UNL A   1      48.303  27.074  31.836  1.00  0.00     0.173 A 
ATOM     80  C   UNL A   1      47.168  25.702  33.452  1.00  0.00     0.173 A 
ATOM     81  F   UNL A   1      48.289  27.928  30.801  1.00  0.00    -0.203 F 
ATOM     82  C   UNL A   1      49.529  26.631  32.325  1.00  0.00     0.198 A 
ATOM     83  C   UNL A   1      48.396  25.284  33.957  1.00  0.00     0.198 A 
ATOM     84  F   UNL A   1      46.045  25.231  34.013  1.00  0.00    -0.203 F 
ATOM     85  F   UNL A   1      50.668  27.054  31.758  1.00  0.00    -0.200 F 
ATOM     86  C   UNL A   1      49.574  25.743  33.390  1.00  0.00     0.200 A 
ATOM     87  F   UNL A   1      48.438  24.436  34.994  1.00  0.00    -0.200 F 
ATOM     88  F   UNL A   1      50.756  25.324  33.864  1.00  0.00    -0.200 F 
ENDBRANCH  55  78
ENDBRANCH  29  30
ENDBRANCH  21  24
ENDBRANCH  19  20
ENDBRANCH   1  19
TORSDOF 13
ENDMDL
MODEL 2
REMARK VINA RESULT:     -10.2      5.760     10.019
REMARK SMILES CC#CC[C@H](C(=O)NCCCNC(=O)c1ccc(-c2c3nc(c(-c4c(F)c(F)c(F)c(F)c4F)c4ccc([nH]4)c(-c4c(F)c(F)c(F)c(F)c4F)c4nc(c(-c5c(F)c(F)c(F)c(F)c5F)c5ccc2[nH]5)C=C4)C=C3)cc1)c1cccc(Br)c1
REMARK SMILES IDX 10 1 9 2 8 3 6 4 7 5 5 7 4 8 3 9 1 10 2 11 78 12 79 13 84 14
REMARK SMILES IDX 80 15 82 16 81 17 83 18 11 19 12 20 13 21 14 23 15 24 16 25
REMARK SMILES IDX 77 26 17 27 76 28 18 29 19 30 20 31 70 32 21 33 75 34 69 35
REMARK SMILES IDX 71 36 22 37 74 38 68 39 67 40 23 42 55 43 35 44 54 45 36 46
REMARK SMILES IDX 39 47 53 48 72 49 37 50 38 51 52 53 73 54 40 55 24 56 25 57
REMARK SMILES IDX 33 58 26 59 27 60 31 61 34 62 28 63 29 64 32 65 30 66 56 67
REMARK SMILES IDX 57 68 65 69 58 70 59 71 63 72 66 73 60 74 61 75 64 76 62 77
REMARK SMILES IDX 41 78 42 79 50 80 43 81 44 82 48 83 51 84 45 85 46 86 49 87
REMARK SMILES IDX 47 88
REMARK H PARENT 8 6 12 22 71 41 39 52
REMARK Flexibility Score: inf
ROOT
ATOM      1  C   UNL A   1      37.829  19.806  24.942  1.00  0.00     0.042 C 
ENDROOT
BRANCH   1   2
ATOM      2  C   UNL A   1      36.737  20.858  24.816  1.00  0.00     0.117 C 
BRANCH   2   3
ATOM      3  N   UNL A   1      35.994  21.003  26.054  1.00  0.00    -0.355 N 
ATOM      4  C   UNL A   1      34.760  21.536  26.285  1.00  0.00     0.228 C 
ATOM      5  O   UNL A   1      34.361  21.539  27.452  1.00  0.00    -0.274 OA
ATOM      6  H   UNL A   1      36.455  20.663  26.856  1.00  0.00     0.163 HD
BRANCH   4   7
ATOM      7  C   UNL A   1      33.909  22.037  25.115  1.00  0.00     0.120 C 
BRANCH   7   8
ATOM      8  C   UNL A   1      32.704  21.097  24.968  1.00  0.00     0.107 C 
BRANCH   8   9
ATOM      9  C   UNL A   1      33.117  19.732  24.442  1.00  0.00    -0.102 C 
ATOM     10  C   UNL A   1      33.885  17.196  23.464  1.00  0.00     0.107 C 
ATOM     11  C   UNL A   1      33.471  18.561  23.991  1.00  0.00    -0.107 C 
ENDBRANCH   8   9
ENDBRANCH   7   8
BRANCH   7  12
ATOM     12  C   UNL A   1      33.497  23.499  25.273  1.00  0.00    -0.034 A 
ATOM     13  C   UNL A   1      34.485  24.500  25.297  1.00  0.00     0.004 A 
ATOM     14  C   UNL A   1      32.153  23.887  25.398  1.00  0.00     0.020 A 
ATOM     15  C   UNL A   1      34.141  25.845  25.453  1.00  0.00     0.001 A 
ATOM     16  C   UNL A   1      31.816  25.232  25.560  1.00  0.00     0.018 A 
ATOM     17  C   UNL A   1      32.805  26.213  25.588  1.00  0.00     0.016 A 
ATOM     18  Br  UNL A   1      30.002  25.730  25.754  1.00  0.00    -0.051 Br
ENDBRANCH   7  12
ENDBRANCH   4   7
ENDBRANCH   2   3
ENDBRANCH   1   2
BRANCH   1  19
ATOM     19  C   UNL A   1      39.029  20.267  25.762  1.00  0.00     0.118 C 
BRANCH  19  20
ATOM     20  N   UNL A   1      40.064  19.247  25.867  1.00  0.00    -0.352 N 
ATOM     21  C   UNL A   1      41.415  19.374  26.058  1.00  0.00     0.251 C 
ATOM     22  H   UNL A   1      39.742  18.321  25.788  1.00  0.00     0.163 HD
ATOM     23  O   UNL A   1      42.143  18.391  25.933  1.00  0.00    -0.269 OA
BRANCH  21  24
ATOM     24  C   UNL A   1      42.005  20.686  26.392  1.00  0.00     0.039 A 
ATOM     25  C   UNL A   1      42.297  21.576  25.354  1.00  0.00     0.014 A 
ATOM     26  C   UNL A   1      42.296  21.034  27.713  1.00  0.00     0.014 A 
ATOM     27  C   UNL A   1      42.817  22.838  25.647  1.00  0.00     0.010 A 
ATOM     28  C   UNL A   1      42.742  22.318  28.011  1.00  0.00     0.010 A 
ATOM     29  C   UNL A   1      43.008  23.232  26.981  1.00  0.00    -0.014 A 
BRANCH  29  30
ATOM     30  C   UNL A   1      43.483  24.597  27.319  1.00  0.00     0.031 A 
ATOM     31  C   UNL A   1      42.528  25.612  27.880  1.00  0.00     0.074 A 
ATOM     32  C   UNL A   1      44.759  24.940  27.055  1.00  0.00     0.049 A 
ATOM     33  N   UNL A   1      42.732  26.875  28.160  1.00  0.00    -0.248 NA
ATOM     34  C   UNL A   1      41.153  25.157  28.135  1.00  0.00     0.031 C 
ATOM     35  C   UNL A   1      45.768  24.058  26.469  1.00  0.00     0.029 A 
ATOM     36  N   UNL A   1      45.420  26.130  27.233  1.00  0.00    -0.354 N 
ATOM     37  C   UNL A   1      41.512  27.365  28.605  1.00  0.00     0.074 A 
ATOM     38  C   UNL A   1      40.560  26.279  28.513  1.00  0.00     0.031 C 
ATOM     39  C   UNL A   1      46.924  24.729  26.352  1.00  0.00     0.029 A 
ATOM     40  C   UNL A   1      46.730  26.098  26.820  1.00  0.00     0.049 A 
ATOM     41  H   UNL A   1      44.996  26.929  27.620  1.00  0.00     0.167 HD
ATOM     42  C   UNL A   1      41.218  28.604  29.068  1.00  0.00     0.037 A 
ATOM     43  C   UNL A   1      47.664  27.067  26.810  1.00  0.00     0.037 A 
ATOM     44  C   UNL A   1      42.174  29.674  29.186  1.00  0.00     0.049 A 
ATOM     45  C   UNL A   1      47.311  28.433  27.331  1.00  0.00     0.074 A 
ATOM     46  C   UNL A   1      41.990  30.944  29.702  1.00  0.00     0.029 A 
ATOM     47  N   UNL A   1      43.498  29.596  28.778  1.00  0.00    -0.354 N 
ATOM     48  N   UNL A   1      46.171  28.866  27.812  1.00  0.00    -0.248 NA
ATOM     49  C   UNL A   1      48.378  29.444  27.315  1.00  0.00     0.031 C 
ATOM     50  C   UNL A   1      43.190  31.650  29.569  1.00  0.00     0.029 A 
ATOM     51  C   UNL A   1      44.136  30.804  29.013  1.00  0.00     0.049 A 
ATOM     52  H   UNL A   1      43.922  28.801  28.380  1.00  0.00     0.167 HD
ATOM     53  C   UNL A   1      46.389  30.187  28.180  1.00  0.00     0.074 A 
ATOM     54  C   UNL A   1      47.775  30.480  27.881  1.00  0.00     0.031 C 
ATOM     55  C   UNL A   1      45.520  31.076  28.718  1.00  0.00     0.037 A 
BRANCH  42  56
ATOM     56  C   UNL A   1      39.803  28.869  29.491  1.00  0.00     0.064 A 
ATOM     57  C   UNL A   1      38.848  29.369  28.592  1.00  0.00     0.173 A 
ATOM     58  C   UNL A   1      39.385  28.584  30.800  1.00  0.00     0.173 A 
ATOM     59  F   UNL A   1      39.198  29.669  27.333  1.00  0.00    -0.203 F 
ATOM     60  C   UNL A   1      37.535  29.599  28.996  1.00  0.00     0.198 A 
ATOM     61  C   UNL A   1      38.065  28.787  31.191  1.00  0.00     0.198 A 
ATOM     62  F   UNL A   1      40.257  28.099  31.697  1.00  0.00    -0.203 F 
ATOM     63  F   UNL A   1      36.653  30.120  28.132  1.00  0.00    -0.200 F 
ATOM     64  C   UNL A   1      37.143  29.300  30.292  1.00  0.00     0.200 A 
ATOM     65  F   UNL A   1      37.684  28.486  32.440  1.00  0.00    -0.200 F 
ATOM     66  F   UNL A   1      35.876  29.515  30.676  1.00  0.00    -0.200 F 
ENDBRANCH  42  56
BRANCH  43  67
ATOM     67  C   UNL A   1      49.032  26.773  26.311  1.00  0.00     0.064 A 
ATOM     68  C   UNL A   1      49.380  27.029  24.978  1.00  0.00     0.173 A 
ATOM     69  C   UNL A   1      50.014  26.230  27.150  1.00  0.00     0.173 A 
ATOM     70  F   UNL A   1      48.467  27.529  24.132  1.00  0.00    -0.203 F 
ATOM     71  C   UNL A   1      50.654  26.733  24.498  1.00  0.00     0.198 A 
ATOM     72  C   UNL A   1      51.297  25.960  26.676  1.00  0.00     0.198 A 
ATOM     73  F   UNL A   1      49.733  25.973  28.436  1.00  0.00    -0.203 F 
ATOM     74  F   UNL A   1      50.948  26.946  23.207  1.00  0.00    -0.200 F 
ATOM     75  C   UNL A   1      51.613  26.205  25.349  1.00  0.00     0.200 A 
ATOM     76  F   UNL A   1      52.225  25.463  27.506  1.00  0.00    -0.200 F 
ATOM     77  F   UNL A   1      52.839  25.925  24.887  1.00  0.00    -0.200 F 
ENDBRANCH  43  67
BRANCH  55  78
ATOM     78  C   UNL A   1      46.049  32.440  29.050  1.00  0.00     0.064 A 
ATOM     79  C   UNL A   1      45.980  33.500  28.135  1.00  0.00     0.173 A 
ATOM     80  C   UNL A   1      46.597  32.698  30.316  1.00  0.00     0.173 A 
ATOM     81  F   UNL A   1      45.480  33.299  26.906  1.00  0.00    -0.203 F 
ATOM     82  C   UNL A   1      46.463  34.763  28.465  1.00  0.00     0.198 A 
ATOM     83  C   UNL A   1      47.053  33.969  30.653  1.00  0.00     0.198 A 
ATOM     84  F   UNL A   1      46.681  31.719  31.230  1.00  0.00    -0.203 F 
ATOM     85  F   UNL A   1      46.429  35.750  27.559  1.00  0.00    -0.200 F 
ATOM     86  C   UNL A   1      46.991  34.998  29.727  1.00  0.00     0.200 A 
ATOM     87  F   UNL A   1      47.551  34.199  31.876  1.00  0.00    -0.200 F 
ATOM     88  F   UNL A   1      47.449  36.217  30.045  1.00  0.00    -0.200 F 
ENDBRANCH  55  78
ENDBRANCH  29  30
ENDBRANCH  21  24
ENDBRANCH  19  20
ENDBRANCH   1  19
TORSDOF 13
ENDMDL
MODEL 3
REMARK VINA RESULT:     -10.2      3.852     10.025
REMARK SMILES CC#CC[C@H](C(=O)NCCCNC(=O)c1ccc(-c2c3nc(c(-c4c(F)c(F)c(F)c(F)c4F)c4ccc([nH]4)c(-c4c(F)c(F)c(F)c(F)c4F)c4nc(c(-c5c(F)c(F)c(F)c(F)c5F)c5ccc2[nH]5)C=C4)C=C3)cc1)c1cccc(Br)c1
REMARK SMILES IDX 10 1 9 2 8 3 6 4 7 5 5 7 4 8 3 9 1 10 2 11 78 12 79 13 84 14
REMARK SMILES IDX 80 15 82 16 81 17 83 18 11 19 12 20 13 21 14 23 15 24 16 25
REMARK SMILES IDX 77 26 17 27 76 28 18 29 19 30 20 31 70 32 21 33 75 34 69 35
REMARK SMILES IDX 71 36 22 37 74 38 68 39 67 40 23 42 55 43 35 44 54 45 36 46
REMARK SMILES IDX 39 47 53 48 72 49 37 50 38 51 52 53 73 54 40 55 24 56 25 57
REMARK SMILES IDX 33 58 26 59 27 60 31 61 34 62 28 63 29 64 32 65 30 66 56 67
REMARK SMILES IDX 57 68 65 69 58 70 59 71 63 72 66 73 60 74 61 75 64 76 62 77
REMARK SMILES IDX 41 78 42 79 50 80 43 81 44 82 48 83 51 84 45 85 46 86 49 87
REMARK SMILES IDX 47 88
REMARK H PARENT 8 6 12 22 71 41 39 52
REMARK Flexibility Score: inf
ROOT
ATOM      1  C   UNL A   1      31.416  32.145  26.636  1.00  0.00     0.042 C 
ENDROOT
BRANCH   1   2
ATOM      2  C   UNL A   1      31.669  30.749  26.084  1.00  0.00     0.117 C 
BRANCH   2   3
ATOM      3  N   UNL A   1      32.911  30.195  26.590  1.00  0.00    -0.355 N 
ATOM      4  C   UNL A   1      33.550  29.032  26.277  1.00  0.00     0.228 C 
ATOM      5  O   UNL A   1      34.607  28.796  26.867  1.00  0.00    -0.274 OA
ATOM      6  H   UNL A   1      33.365  30.747  27.267  1.00  0.00     0.163 HD
BRANCH   4   7
ATOM      7  C   UNL A   1      32.986  28.115  25.188  1.00  0.00     0.120 C 
BRANCH   7   8
ATOM      8  C   UNL A   1      33.789  28.357  23.902  1.00  0.00     0.107 C 
BRANCH   8   9
ATOM      9  C   UNL A   1      33.388  27.390  22.798  1.00  0.00    -0.102 C 
ATOM     10  C   UNL A   1      32.644  25.596  20.749  1.00  0.00     0.107 C 
ATOM     11  C   UNL A   1      33.044  26.562  21.853  1.00  0.00    -0.107 C 
ENDBRANCH   8   9
ENDBRANCH   7   8
BRANCH   7  12
ATOM     12  C   UNL A   1      32.974  26.646  25.605  1.00  0.00    -0.034 A 
ATOM     13  C   UNL A   1      31.784  26.072  26.090  1.00  0.00     0.004 A 
ATOM     14  C   UNL A   1      34.119  25.837  25.523  1.00  0.00     0.020 A 
ATOM     15  C   UNL A   1      31.744  24.735  26.491  1.00  0.00     0.001 A 
ATOM     16  C   UNL A   1      34.073  24.503  25.933  1.00  0.00     0.018 A 
ATOM     17  C   UNL A   1      32.890  23.948  26.416  1.00  0.00     0.016 A 
ATOM     18  Br  UNL A   1      35.633  23.438  25.841  1.00  0.00    -0.051 Br
ENDBRANCH   7  12
ENDBRANCH   4   7
ENDBRANCH   2   3
ENDBRANCH   1   2
BRANCH   1  19
ATOM     19  C   UNL A   1      32.667  32.815  27.195  1.00  0.00     0.118 C 
BRANCH  19  20
ATOM     20  N   UNL A   1      32.426  34.188  27.620  1.00  0.00    -0.352 N 
ATOM     21  C   UNL A   1      33.004  34.916  28.628  1.00  0.00     0.251 C 
ATOM     22  H   UNL A   1      31.740  34.668  27.103  1.00  0.00     0.163 HD
ATOM     23  O   UNL A   1      32.527  36.004  28.944  1.00  0.00    -0.269 OA
BRANCH  21  24
ATOM     24  C   UNL A   1      34.181  34.393  29.351  1.00  0.00     0.039 A 
ATOM     25  C   UNL A   1      33.982  33.706  30.551  1.00  0.00     0.014 A 
ATOM     26  C   UNL A   1      35.476  34.598  28.868  1.00  0.00     0.014 A 
ATOM     27  C   UNL A   1      35.076  33.167  31.232  1.00  0.00     0.010 A 
ATOM     28  C   UNL A   1      36.557  33.996  29.504  1.00  0.00     0.010 A 
ATOM     29  C   UNL A   1      36.369  33.276  30.693  1.00  0.00    -0.014 A 
BRANCH  29  30
ATOM     30  C   UNL A   1      37.534  32.642  31.358  1.00  0.00     0.031 A 
ATOM     31  C   UNL A   1      38.260  31.509  30.690  1.00  0.00     0.074 A 
ATOM     32  C   UNL A   1      37.894  33.042  32.593  1.00  0.00     0.049 A 
ATOM     33  N   UNL A   1      39.245  30.774  31.143  1.00  0.00    -0.248 NA
ATOM     34  C   UNL A   1      37.802  31.131  29.344  1.00  0.00     0.031 C 
ATOM     35  C   UNL A   1      37.238  34.099  33.363  1.00  0.00     0.029 A 
ATOM     36  N   UNL A   1      38.891  32.595  33.423  1.00  0.00    -0.354 N 
ATOM     37  C   UNL A   1      39.509  29.842  30.150  1.00  0.00     0.074 A 
ATOM     38  C   UNL A   1      38.552  30.070  29.088  1.00  0.00     0.031 C 
ATOM     39  C   UNL A   1      37.861  34.232  34.545  1.00  0.00     0.029 A 
ATOM     40  C   UNL A   1      38.934  33.247  34.631  1.00  0.00     0.049 A 
ATOM     41  H   UNL A   1      39.516  31.876  33.176  1.00  0.00     0.167 HD
ATOM     42  C   UNL A   1      40.478  28.895  30.116  1.00  0.00     0.037 A 
ATOM     43  C   UNL A   1      39.742  33.063  35.692  1.00  0.00     0.037 A 
ATOM     44  C   UNL A   1      41.447  28.690  31.160  1.00  0.00     0.049 A 
ATOM     45  C   UNL A   1      40.809  32.006  35.628  1.00  0.00     0.074 A 
ATOM     46  C   UNL A   1      42.506  27.800  31.193  1.00  0.00     0.029 A 
ATOM     47  N   UNL A   1      41.473  29.386  32.360  1.00  0.00    -0.354 N 
ATOM     48  N   UNL A   1      41.093  31.174  34.655  1.00  0.00    -0.248 NA
ATOM     49  C   UNL A   1      41.675  31.866  36.808  1.00  0.00     0.031 C 
ATOM     50  C   UNL A   1      43.149  27.927  32.429  1.00  0.00     0.029 A 
ATOM     51  C   UNL A   1      42.519  28.931  33.148  1.00  0.00     0.049 A 
ATOM     52  H   UNL A   1      40.842  30.098  32.614  1.00  0.00     0.167 HD
ATOM     53  C   UNL A   1      42.182  30.434  35.092  1.00  0.00     0.074 A 
ATOM     54  C   UNL A   1      42.519  30.924  36.412  1.00  0.00     0.031 C 
ATOM     55  C   UNL A   1      42.845  29.437  34.457  1.00  0.00     0.037 A 
BRANCH  42  56
ATOM     56  C   UNL A   1      40.542  28.010  28.906  1.00  0.00     0.064 A 
ATOM     57  C   UNL A   1      39.812  26.814  28.829  1.00  0.00     0.173 A 
ATOM     58  C   UNL A   1      41.313  28.380  27.793  1.00  0.00     0.173 A 
ATOM     59  F   UNL A   1      39.069  26.409  29.869  1.00  0.00    -0.203 F 
ATOM     60  C   UNL A   1      39.872  26.009  27.694  1.00  0.00     0.198 A 
ATOM     61  C   UNL A   1      41.347  27.588  26.649  1.00  0.00     0.198 A 
ATOM     62  F   UNL A   1      42.026  29.517  27.812  1.00  0.00    -0.203 F 
ATOM     63  F   UNL A   1      39.202  24.849  27.663  1.00  0.00    -0.200 F 
ATOM     64  C   UNL A   1      40.633  26.400  26.603  1.00  0.00     0.200 A 
ATOM     65  F   UNL A   1      42.073  27.973  25.590  1.00  0.00    -0.200 F 
ATOM     66  F   UNL A   1      40.683  25.627  25.509  1.00  0.00    -0.200 F 
ENDBRANCH  42  56
BRANCH  43  67
ATOM     67  C   UNL A   1      39.588  33.918  36.898  1.00  0.00     0.064 A 
ATOM     68  C   UNL A   1      38.820  33.489  37.988  1.00  0.00     0.173 A 
ATOM     69  C   UNL A   1      40.200  35.176  36.983  1.00  0.00     0.173 A 
ATOM     70  F   UNL A   1      38.199  32.301  37.944  1.00  0.00    -0.203 F 
ATOM     71  C   UNL A   1      38.653  34.295  39.112  1.00  0.00     0.198 A 
ATOM     72  C   UNL A   1      40.055  35.970  38.119  1.00  0.00     0.198 A 
ATOM     73  F   UNL A   1      40.951  35.630  35.969  1.00  0.00    -0.203 F 
ATOM     74  F   UNL A   1      37.877  33.880  40.123  1.00  0.00    -0.200 F 
ATOM     75  C   UNL A   1      39.276  35.533  39.179  1.00  0.00     0.200 A 
ATOM     76  F   UNL A   1      40.670  37.159  38.186  1.00  0.00    -0.200 F 
ATOM     77  F   UNL A   1      39.117  36.306  40.261  1.00  0.00    -0.200 F 
ENDBRANCH  43  67
BRANCH  55  78
ATOM     78  C   UNL A   1      44.022  28.833  35.165  1.00  0.00     0.064 A 
ATOM     79  C   UNL A   1      43.883  27.722  36.009  1.00  0.00     0.173 A 
ATOM     80  C   UNL A   1      45.310  29.350  34.965  1.00  0.00     0.173 A 
ATOM     81  F   UNL A   1      42.668  27.201  36.244  1.00  0.00    -0.203 F 
ATOM     82  C   UNL A   1      44.988  27.165  36.646  1.00  0.00     0.198 A 
ATOM     83  C   UNL A   1      46.417  28.774  35.582  1.00  0.00     0.198 A 
ATOM     84  F   UNL A   1      45.498  30.409  34.163  1.00  0.00    -0.203 F 
ATOM     85  F   UNL A   1      44.826  26.131  37.484  1.00  0.00    -0.200 F 
ATOM     86  C   UNL A   1      46.255  27.686  36.426  1.00  0.00     0.200 A 
ATOM     87  F   UNL A   1      47.642  29.270  35.358  1.00  0.00    -0.200 F 
ATOM     88  F   UNL A   1      47.319  27.144  37.036  1.00  0.00    -0.200 F 
ENDBRANCH  55  78
ENDBRANCH  29  30
ENDBRANCH  21  24
ENDBRANCH  19  20
ENDBRANCH   1  19
TORSDOF 13
ENDMDL
