MODEL 1
REMARK VINA RESULT:     -10.8      0.000      0.000
REMARK SMILES C[C@H]1[C@@H](C(=O)NCCCNC(=O)c2ccc(-c3c4nc(c(-c5c(F)c(F)c(F)c(F)c5F)c5ccc([nH]5)c(-c5c(F)c(F)c(F)c(F)c5F)c5nc(c(-c6c(F)c(F)c(F)c(F)c6F)c6ccc3[nH]6)C=C5)C=C4)cc2)CCN1C(=O)c1cncc(O)c1
REMARK SMILES IDX 7 1 6 2 4 3 5 4 3 6 1 7 2 8 78 9 76 10 77 11 79 12 80 13
REMARK SMILES IDX 81 14 82 15 87 16 83 17 85 18 84 19 86 20 8 22 9 23 10 24
REMARK SMILES IDX 11 25 12 27 13 28 14 29 75 30 15 31 74 32 16 33 17 34 18 35
REMARK SMILES IDX 68 36 19 37 73 38 67 39 69 40 20 41 72 42 66 43 65 44 21 46
REMARK SMILES IDX 53 47 33 48 52 49 34 50 37 51 51 52 70 53 35 54 36 55 50 57
REMARK SMILES IDX 71 58 38 59 22 60 23 61 31 62 24 63 25 64 29 65 32 66 26 67
REMARK SMILES IDX 27 68 30 69 28 70 54 71 55 72 63 73 56 74 57 75 61 76 64 77
REMARK SMILES IDX 58 78 59 79 62 80 60 81 39 82 40 83 48 84 41 85 42 86 46 87
REMARK SMILES IDX 49 88 43 89 44 90 47 91 45 92
REMARK H PARENT 6 5 86 21 10 26 69 45 37 56
REMARK Flexibility Score: inf
ROOT
ATOM      1  C   UNL A   1      33.988  35.164  29.436  1.00  0.00     0.117 C 
ENDROOT
BRANCH   1   2
ATOM      2  N   UNL A   1      33.632  34.245  30.509  1.00  0.00    -0.356 N 
ATOM      3  C   UNL A   1      34.095  34.076  31.780  1.00  0.00     0.225 C 
ATOM      4  O   UNL A   1      33.653  33.094  32.381  1.00  0.00    -0.275 OA
ATOM      5  H   UNL A   1      32.911  33.620  30.267  1.00  0.00     0.163 HD
BRANCH   3   6
ATOM      6  C   UNL A   1      35.025  35.087  32.466  1.00  0.00     0.102 C 
ATOM      7  C   UNL A   1      37.060  33.702  31.639  1.00  0.00     0.032 C 
ATOM      8  C   UNL A   1      36.549  34.802  32.541  1.00  0.00     0.094 C 
ATOM      9  N   UNL A   1      36.846  34.488  33.944  1.00  0.00    -0.335 N 
ATOM     10  C   UNL A   1      34.648  35.242  33.963  1.00  0.00     0.037 C 
ATOM     11  C   UNL A   1      35.617  34.320  34.689  1.00  0.00     0.121 C 
BRANCH   9  12
ATOM     12  C   UNL A   1      38.091  34.291  34.532  1.00  0.00     0.255 C 
ATOM     13  O   UNL A   1      38.915  35.184  34.703  1.00  0.00    -0.269 OA
BRANCH  12  14
ATOM     14  C   UNL A   1      38.422  32.937  35.025  1.00  0.00     0.062 A 
ATOM     15  C   UNL A   1      38.588  32.745  36.393  1.00  0.00     0.125 A 
ATOM     16  C   UNL A   1      38.428  31.824  34.182  1.00  0.00     0.063 A 
ATOM     17  N   UNL A   1      38.664  31.520  36.971  1.00  0.00    -0.260 NA
ATOM     18  C   UNL A   1      38.503  30.562  34.755  1.00  0.00     0.134 A 
ATOM     19  C   UNL A   1      38.604  30.454  36.135  1.00  0.00     0.157 A 
BRANCH  18  20
ATOM     20  O   UNL A   1      38.443  29.430  34.002  1.00  0.00    -0.506 OA
ATOM     21  H   UNL A   1      39.163  28.830  33.999  1.00  0.00     0.293 HD
ENDBRANCH  18  20
ENDBRANCH  12  14
ENDBRANCH   9  12
ENDBRANCH   3   6
ENDBRANCH   1   2
BRANCH   1  22
ATOM     22  C   UNL A   1      34.001  34.453  28.073  1.00  0.00     0.042 C 
BRANCH  22  23
ATOM     23  C   UNL A   1      34.853  33.193  28.005  1.00  0.00     0.118 C 
BRANCH  23  24
ATOM     24  N   UNL A   1      34.036  32.012  27.818  1.00  0.00    -0.352 N 
ATOM     25  C   UNL A   1      34.380  30.688  27.693  1.00  0.00     0.251 C 
ATOM     26  H   UNL A   1      33.069  32.188  27.771  1.00  0.00     0.163 HD
ATOM     27  O   UNL A   1      33.536  29.911  27.250  1.00  0.00    -0.269 OA
BRANCH  25  28
ATOM     28  C   UNL A   1      35.720  30.158  28.069  1.00  0.00     0.039 A 
ATOM     29  C   UNL A   1      35.903  29.701  29.382  1.00  0.00     0.014 A 
ATOM     30  C   UNL A   1      36.825  30.203  27.215  1.00  0.00     0.014 A 
ATOM     31  C   UNL A   1      37.165  29.288  29.825  1.00  0.00     0.010 A 
ATOM     32  C   UNL A   1      38.066  29.703  27.628  1.00  0.00     0.010 A 
ATOM     33  C   UNL A   1      38.261  29.271  28.948  1.00  0.00    -0.014 A 
BRANCH  33  34
ATOM     34  C   UNL A   1      39.614  28.861  29.418  1.00  0.00     0.031 A 
ATOM     35  C   UNL A   1      40.374  29.715  30.402  1.00  0.00     0.074 A 
ATOM     36  C   UNL A   1      40.181  27.733  28.945  1.00  0.00     0.049 A 
ATOM     37  N   UNL A   1      41.571  29.538  30.907  1.00  0.00    -0.248 NA
ATOM     38  C   UNL A   1      39.712  30.946  30.861  1.00  0.00     0.031 C 
ATOM     39  C   UNL A   1      39.581  26.841  27.952  1.00  0.00     0.029 A 
ATOM     40  N   UNL A   1      41.389  27.146  29.231  1.00  0.00    -0.354 N 
ATOM     41  C   UNL A   1      41.808  30.638  31.724  1.00  0.00     0.074 A 
ATOM     42  C   UNL A   1      40.656  31.505  31.603  1.00  0.00     0.031 C 
ATOM     43  C   UNL A   1      40.411  25.809  27.731  1.00  0.00     0.029 A 
ATOM     44  C   UNL A   1      41.613  25.980  28.541  1.00  0.00     0.049 A 
ATOM     45  H   UNL A   1      42.034  27.527  29.871  1.00  0.00     0.167 HD
ATOM     46  C   UNL A   1      42.871  30.892  32.524  1.00  0.00     0.037 A 
ATOM     47  C   UNL A   1      42.669  25.143  28.558  1.00  0.00     0.037 A 
ATOM     48  C   UNL A   1      44.006  30.017  32.670  1.00  0.00     0.049 A 
ATOM     49  C   UNL A   1      43.830  25.436  29.468  1.00  0.00     0.074 A 
ATOM     50  C   UNL A   1      45.108  30.160  33.496  1.00  0.00     0.029 A 
ATOM     51  N   UNL A   1      44.182  28.831  31.972  1.00  0.00    -0.354 N 
ATOM     52  N   UNL A   1      44.010  26.447  30.282  1.00  0.00    -0.248 NA
ATOM     53  C   UNL A   1      44.931  24.462  29.469  1.00  0.00     0.031 C 
ATOM     54  C   UNL A   1      45.969  29.081  33.270  1.00  0.00     0.029 A 
ATOM     55  C   UNL A   1      45.383  28.241  32.337  1.00  0.00     0.049 A 
ATOM     56  H   UNL A   1      43.549  28.464  31.314  1.00  0.00     0.167 HD
ATOM     57  C   UNL A   1      45.231  26.224  30.905  1.00  0.00     0.074 A 
ATOM     58  C   UNL A   1      45.738  24.968  30.391  1.00  0.00     0.031 C 
ATOM     59  C   UNL A   1      45.875  26.992  31.817  1.00  0.00     0.037 A 
BRANCH  46  60
ATOM     60  C   UNL A   1      42.855  32.171  33.315  1.00  0.00     0.064 A 
ATOM     61  C   UNL A   1      43.374  33.365  32.791  1.00  0.00     0.173 A 
ATOM     62  C   UNL A   1      42.285  32.212  34.596  1.00  0.00     0.173 A 
ATOM     63  F   UNL A   1      43.939  33.378  31.574  1.00  0.00    -0.203 F 
ATOM     64  C   UNL A   1      43.357  34.542  33.533  1.00  0.00     0.198 A 
ATOM     65  C   UNL A   1      42.241  33.399  35.324  1.00  0.00     0.198 A 
ATOM     66  F   UNL A   1      41.765  31.103  35.143  1.00  0.00    -0.203 F 
ATOM     67  F   UNL A   1      43.909  35.656  33.033  1.00  0.00    -0.200 F 
ATOM     68  C   UNL A   1      42.784  34.560  34.797  1.00  0.00     0.200 A 
ATOM     69  F   UNL A   1      41.676  33.418  36.539  1.00  0.00    -0.200 F 
ATOM     70  F   UNL A   1      42.765  35.696  35.509  1.00  0.00    -0.200 F 
ENDBRANCH  46  60
BRANCH  47  71
ATOM     71  C   UNL A   1      42.660  23.928  27.701  1.00  0.00     0.064 A 
ATOM     72  C   UNL A   1      42.260  22.687  28.214  1.00  0.00     0.173 A 
ATOM     73  C   UNL A   1      43.047  23.984  26.355  1.00  0.00     0.173 A 
ATOM     74  F   UNL A   1      41.903  22.579  29.502  1.00  0.00    -0.203 F 
ATOM     75  C   UNL A   1      42.263  21.544  27.417  1.00  0.00     0.198 A 
ATOM     76  C   UNL A   1      43.023  22.847  25.551  1.00  0.00     0.198 A 
ATOM     77  F   UNL A   1      43.436  25.149  25.816  1.00  0.00    -0.203 F 
ATOM     78  F   UNL A   1      41.917  20.362  27.944  1.00  0.00    -0.200 F 
ATOM     79  C   UNL A   1      42.638  21.626  26.085  1.00  0.00     0.200 A 
ATOM     80  F   UNL A   1      43.376  22.932  24.261  1.00  0.00    -0.200 F 
ATOM     81  F   UNL A   1      42.636  20.528  25.317  1.00  0.00    -0.200 F 
ENDBRANCH  47  71
BRANCH  59  82
ATOM     82  C   UNL A   1      47.190  26.483  32.335  1.00  0.00     0.064 A 
ATOM     83  C   UNL A   1      47.259  25.606  33.429  1.00  0.00     0.173 A 
ATOM     84  C   UNL A   1      48.392  26.857  31.715  1.00  0.00     0.173 A 
ATOM     85  F   UNL A   1      46.139  25.230  34.064  1.00  0.00    -0.203 F 
ATOM     86  C   UNL A   1      48.486  25.147  33.900  1.00  0.00     0.198 A 
ATOM     87  C   UNL A   1      49.614  26.372  32.172  1.00  0.00     0.198 A 
ATOM     88  F   UNL A   1      48.380  27.687  30.662  1.00  0.00    -0.203 F 
ATOM     89  F   UNL A   1      48.531  24.351  34.978  1.00  0.00    -0.200 F 
ATOM     90  C   UNL A   1      49.661  25.525  33.270  1.00  0.00     0.200 A 
ATOM     91  F   UNL A   1      50.749  26.729  31.553  1.00  0.00    -0.200 F 
ATOM     92  F   UNL A   1      50.841  25.081  33.723  1.00  0.00    -0.200 F 
ENDBRANCH  59  82
ENDBRANCH  33  34
ENDBRANCH  25  28
ENDBRANCH  23  24
ENDBRANCH  22  23
ENDBRANCH   1  22
TORSDOF 13
ENDMDL
MODEL 2
REMARK VINA RESULT:     -10.8      4.401      7.555
REMARK SMILES C[C@H]1[C@@H](C(=O)NCCCNC(=O)c2ccc(-c3c4nc(c(-c5c(F)c(F)c(F)c(F)c5F)c5ccc([nH]5)c(-c5c(F)c(F)c(F)c(F)c5F)c5nc(c(-c6c(F)c(F)c(F)c(F)c6F)c6ccc3[nH]6)C=C5)C=C4)cc2)CCN1C(=O)c1cncc(O)c1
REMARK SMILES IDX 7 1 6 2 4 3 5 4 3 6 1 7 2 8 78 9 76 10 77 11 79 12 80 13
REMARK SMILES IDX 81 14 82 15 87 16 83 17 85 18 84 19 86 20 8 22 9 23 10 24
REMARK SMILES IDX 11 25 12 27 13 28 14 29 75 30 15 31 74 32 16 33 17 34 18 35
REMARK SMILES IDX 68 36 19 37 73 38 67 39 69 40 20 41 72 42 66 43 65 44 21 46
REMARK SMILES IDX 53 47 33 48 52 49 34 50 37 51 51 52 70 53 35 54 36 55 50 57
REMARK SMILES IDX 71 58 38 59 22 60 23 61 31 62 24 63 25 64 29 65 32 66 26 67
REMARK SMILES IDX 27 68 30 69 28 70 54 71 55 72 63 73 56 74 57 75 61 76 64 77
REMARK SMILES IDX 58 78 59 79 62 80 60 81 39 82 40 83 48 84 41 85 42 86 46 87
REMARK SMILES IDX 49 88 43 89 44 90 47 91 45 92
REMARK H PARENT 6 5 86 21 10 26 69 45 37 56
REMARK Flexibility Score: inf
ROOT
ATOM      1  C   UNL A   1      32.912  28.945  22.914  1.00  0.00     0.117 C 
ENDROOT
BRANCH   1   2
ATOM      2  N   UNL A   1      33.281  27.745  22.176  1.00  0.00    -0.356 N 
ATOM      3  C   UNL A   1      33.074  26.415  22.398  1.00  0.00     0.225 C 
ATOM      4  O   UNL A   1      33.653  25.649  21.625  1.00  0.00    -0.275 OA
ATOM      5  H   UNL A   1      33.782  27.931  21.349  1.00  0.00     0.163 HD
BRANCH   3   6
ATOM      6  C   UNL A   1      32.106  25.895  23.471  1.00  0.00     0.102 C 
ATOM      7  C   UNL A   1      34.148  25.365  24.985  1.00  0.00     0.032 C 
ATOM      8  C   UNL A   1      32.667  25.193  24.737  1.00  0.00     0.094 C 
ATOM      9  N   UNL A   1      32.335  23.770  24.606  1.00  0.00    -0.335 N 
ATOM     10  C   UNL A   1      31.175  24.805  22.879  1.00  0.00     0.037 C 
ATOM     11  C   UNL A   1      31.837  23.494  23.276  1.00  0.00     0.121 C 
BRANCH   9  12
ATOM     12  C   UNL A   1      32.512  22.759  25.545  1.00  0.00     0.255 C 
ATOM     13  O   UNL A   1      32.250  22.881  26.738  1.00  0.00    -0.269 OA
BRANCH  12  14
ATOM     14  C   UNL A   1      32.999  21.446  25.072  1.00  0.00     0.062 A 
ATOM     15  C   UNL A   1      34.365  21.269  24.875  1.00  0.00     0.125 A 
ATOM     16  C   UNL A   1      32.153  20.340  24.961  1.00  0.00     0.063 A 
ATOM     17  N   UNL A   1      34.939  20.057  24.669  1.00  0.00    -0.260 NA
ATOM     18  C   UNL A   1      32.722  19.092  24.752  1.00  0.00     0.134 A 
ATOM     19  C   UNL A   1      34.102  18.992  24.627  1.00  0.00     0.157 A 
BRANCH  18  20
ATOM     20  O   UNL A   1      31.967  17.960  24.703  1.00  0.00    -0.506 OA
ATOM     21  H   UNL A   1      32.324  17.174  24.337  1.00  0.00     0.293 HD
ENDBRANCH  18  20
ENDBRANCH  12  14
ENDBRANCH   9  12
ENDBRANCH   3   6
ENDBRANCH   1   2
BRANCH   1  22
ATOM     22  C   UNL A   1      33.706  29.061  24.225  1.00  0.00     0.042 C 
BRANCH  22  23
ATOM     23  C   UNL A   1      32.865  29.097  25.493  1.00  0.00     0.118 C 
BRANCH  23  24
ATOM     24  N   UNL A   1      32.613  30.458  25.922  1.00  0.00    -0.352 N 
ATOM     25  C   UNL A   1      33.204  31.218  26.901  1.00  0.00     0.251 C 
ATOM     26  H   UNL A   1      31.895  30.915  25.428  1.00  0.00     0.163 HD
ATOM     27  O   UNL A   1      32.621  32.237  27.272  1.00  0.00    -0.269 OA
BRANCH  25  28
ATOM     28  C   UNL A   1      34.508  30.867  27.527  1.00  0.00     0.039 A 
ATOM     29  C   UNL A   1      34.680  29.559  28.001  1.00  0.00     0.014 A 
ATOM     30  C   UNL A   1      35.517  31.804  27.767  1.00  0.00     0.014 A 
ATOM     31  C   UNL A   1      35.843  29.196  28.691  1.00  0.00     0.010 A 
ATOM     32  C   UNL A   1      36.718  31.419  28.373  1.00  0.00     0.010 A 
ATOM     33  C   UNL A   1      36.884  30.119  28.873  1.00  0.00    -0.014 A 
BRANCH  33  34
ATOM     34  C   UNL A   1      38.113  29.752  29.632  1.00  0.00     0.031 A 
ATOM     35  C   UNL A   1      38.351  30.300  31.016  1.00  0.00     0.074 A 
ATOM     36  C   UNL A   1      39.035  28.943  29.073  1.00  0.00     0.049 A 
ATOM     37  N   UNL A   1      39.370  30.115  31.821  1.00  0.00    -0.248 NA
ATOM     38  C   UNL A   1      37.320  31.197  31.561  1.00  0.00     0.031 C 
ATOM     39  C   UNL A   1      38.957  28.382  27.723  1.00  0.00     0.029 A 
ATOM     40  N   UNL A   1      40.220  28.455  29.567  1.00  0.00    -0.354 N 
ATOM     41  C   UNL A   1      39.108  30.882  32.951  1.00  0.00     0.074 A 
ATOM     42  C   UNL A   1      37.865  31.580  32.705  1.00  0.00     0.031 C 
ATOM     43  C   UNL A   1      40.033  27.608  27.506  1.00  0.00     0.029 A 
ATOM     44  C   UNL A   1      40.892  27.642  28.687  1.00  0.00     0.049 A 
ATOM     45  H   UNL A   1      40.556  28.669  30.468  1.00  0.00     0.167 HD
ATOM     46  C   UNL A   1      39.820  30.978  34.100  1.00  0.00     0.037 A 
ATOM     47  C   UNL A   1      42.067  26.996  28.816  1.00  0.00     0.037 A 
ATOM     48  C   UNL A   1      41.043  30.262  34.360  1.00  0.00     0.049 A 
ATOM     49  C   UNL A   1      42.831  27.102  30.107  1.00  0.00     0.074 A 
ATOM     50  C   UNL A   1      41.810  30.250  35.513  1.00  0.00     0.029 A 
ATOM     51  N   UNL A   1      41.676  29.427  33.451  1.00  0.00    -0.354 N 
ATOM     52  N   UNL A   1      42.538  27.780  31.190  1.00  0.00    -0.248 NA
ATOM     53  C   UNL A   1      44.085  26.340  30.198  1.00  0.00     0.031 C 
ATOM     54  C   UNL A   1      42.928  29.439  35.288  1.00  0.00     0.029 A 
ATOM     55  C   UNL A   1      42.834  28.908  34.012  1.00  0.00     0.049 A 
ATOM     56  H   UNL A   1      41.353  29.233  32.542  1.00  0.00     0.167 HD
ATOM     57  C   UNL A   1      43.557  27.515  32.094  1.00  0.00     0.074 A 
ATOM     58  C   UNL A   1      44.465  26.593  31.442  1.00  0.00     0.031 C 
ATOM     59  C   UNL A   1      43.728  27.993  33.351  1.00  0.00     0.037 A 
BRANCH  46  60
ATOM     60  C   UNL A   1      39.289  31.887  35.172  1.00  0.00     0.064 A 
ATOM     61  C   UNL A   1      39.560  33.264  35.168  1.00  0.00     0.173 A 
ATOM     62  C   UNL A   1      38.473  31.385  36.197  1.00  0.00     0.173 A 
ATOM     63  F   UNL A   1      40.342  33.795  34.216  1.00  0.00    -0.203 F 
ATOM     64  C   UNL A   1      39.065  34.097  36.168  1.00  0.00     0.198 A 
ATOM     65  C   UNL A   1      37.954  32.225  37.179  1.00  0.00     0.198 A 
ATOM     66  F   UNL A   1      38.174  30.078  36.245  1.00  0.00    -0.203 F 
ATOM     67  F   UNL A   1      39.384  35.399  36.173  1.00  0.00    -0.200 F 
ATOM     68  C   UNL A   1      38.257  33.578  37.169  1.00  0.00     0.200 A 
ATOM     69  F   UNL A   1      37.162  31.725  38.138  1.00  0.00    -0.200 F 
ATOM     70  F   UNL A   1      37.778  34.382  38.130  1.00  0.00    -0.200 F 
ENDBRANCH  46  60
BRANCH  47  71
ATOM     71  C   UNL A   1      42.578  26.165  27.694  1.00  0.00     0.064 A 
ATOM     72  C   UNL A   1      42.140  24.846  27.515  1.00  0.00     0.173 A 
ATOM     73  C   UNL A   1      43.511  26.673  26.778  1.00  0.00     0.173 A 
ATOM     74  F   UNL A   1      41.266  24.309  28.379  1.00  0.00    -0.203 F 
ATOM     75  C   UNL A   1      42.627  24.061  26.473  1.00  0.00     0.198 A 
ATOM     76  C   UNL A   1      43.976  25.897  25.719  1.00  0.00     0.198 A 
ATOM     77  F   UNL A   1      43.959  27.931  26.905  1.00  0.00    -0.203 F 
ATOM     78  F   UNL A   1      42.224  22.789  26.350  1.00  0.00    -0.200 F 
ATOM     79  C   UNL A   1      43.540  24.589  25.572  1.00  0.00     0.200 A 
ATOM     80  F   UNL A   1      44.849  26.414  24.844  1.00  0.00    -0.200 F 
ATOM     81  F   UNL A   1      44.004  23.835  24.566  1.00  0.00    -0.200 F 
ENDBRANCH  47  71
BRANCH  59  82
ATOM     82  C   UNL A   1      44.930  27.511  34.111  1.00  0.00     0.064 A 
ATOM     83  C   UNL A   1      46.148  28.209  34.079  1.00  0.00     0.173 A 
ATOM     84  C   UNL A   1      44.856  26.354  34.900  1.00  0.00     0.173 A 
ATOM     85  F   UNL A   1      46.273  29.313  33.329  1.00  0.00    -0.203 F 
ATOM     86  C   UNL A   1      47.255  27.746  34.786  1.00  0.00     0.198 A 
ATOM     87  C   UNL A   1      45.957  25.911  35.628  1.00  0.00     0.198 A 
ATOM     88  F   UNL A   1      43.713  25.654  34.971  1.00  0.00    -0.203 F 
ATOM     89  F   UNL A   1      48.422  28.400  34.699  1.00  0.00    -0.200 F 
ATOM     90  C   UNL A   1      47.158  26.603  35.563  1.00  0.00     0.200 A 
ATOM     91  F   UNL A   1      45.858  24.812  36.389  1.00  0.00    -0.200 F 
ATOM     92  F   UNL A   1      48.224  26.160  36.244  1.00  0.00    -0.200 F 
ENDBRANCH  59  82
ENDBRANCH  33  34
ENDBRANCH  25  28
ENDBRANCH  23  24
ENDBRANCH  22  23
ENDBRANCH   1  22
TORSDOF 13
ENDMDL
MODEL 3
REMARK VINA RESULT:     -10.8      3.870     10.495
REMARK SMILES C[C@H]1[C@@H](C(=O)NCCCNC(=O)c2ccc(-c3c4nc(c(-c5c(F)c(F)c(F)c(F)c5F)c5ccc([nH]5)c(-c5c(F)c(F)c(F)c(F)c5F)c5nc(c(-c6c(F)c(F)c(F)c(F)c6F)c6ccc3[nH]6)C=C5)C=C4)cc2)CCN1C(=O)c1cncc(O)c1
REMARK SMILES IDX 7 1 6 2 4 3 5 4 3 6 1 7 2 8 78 9 76 10 77 11 79 12 80 13
REMARK SMILES IDX 81 14 82 15 87 16 83 17 85 18 84 19 86 20 8 22 9 23 10 24
REMARK SMILES IDX 11 25 12 27 13 28 14 29 75 30 15 31 74 32 16 33 17 34 18 35
REMARK SMILES IDX 68 36 19 37 73 38 67 39 69 40 20 41 72 42 66 43 65 44 21 46
REMARK SMILES IDX 53 47 33 48 52 49 34 50 37 51 51 52 70 53 35 54 36 55 50 57
REMARK SMILES IDX 71 58 38 59 22 60 23 61 31 62 24 63 25 64 29 65 32 66 26 67
REMARK SMILES IDX 27 68 30 69 28 70 54 71 55 72 63 73 56 74 57 75 61 76 64 77
REMARK SMILES IDX 58 78 59 79 62 80 60 81 39 82 40 83 48 84 41 85 42 86 46 87
REMARK SMILES IDX 49 88 43 89 44 90 47 91 45 92
REMARK H PARENT 6 5 86 21 10 26 69 45 37 56
REMARK Flexibility Score: inf
ROOT
ATOM      1  C   UNL A   1      42.676  22.126  27.363  1.00  0.00     0.117 C 
ENDROOT
BRANCH   1   2
ATOM      2  N   UNL A   1      44.060  22.080  26.909  1.00  0.00    -0.356 N 
ATOM      3  C   UNL A   1      45.017  23.038  26.746  1.00  0.00     0.225 C 
ATOM      4  O   UNL A   1      46.059  22.662  26.203  1.00  0.00    -0.275 OA
ATOM      5  H   UNL A   1      44.366  21.175  26.672  1.00  0.00     0.163 HD
BRANCH   3   6
ATOM      6  C   UNL A   1      44.864  24.466  27.290  1.00  0.00     0.102 C 
ATOM      7  C   UNL A   1      43.883  25.181  24.994  1.00  0.00     0.032 C 
ATOM      8  C   UNL A   1      44.439  25.611  26.333  1.00  0.00     0.094 C 
ATOM      9  N   UNL A   1      45.624  26.456  26.143  1.00  0.00    -0.335 N 
ATOM     10  C   UNL A   1      46.217  24.985  27.841  1.00  0.00     0.037 C 
ATOM     11  C   UNL A   1      46.793  25.809  26.699  1.00  0.00     0.121 C 
BRANCH   9  12
ATOM     12  C   UNL A   1      45.709  27.673  25.475  1.00  0.00     0.255 C 
ATOM     13  O   UNL A   1      45.889  27.778  24.266  1.00  0.00    -0.269 OA
BRANCH  12  14
ATOM     14  C   UNL A   1      45.524  28.913  26.259  1.00  0.00     0.062 A 
ATOM     15  C   UNL A   1      46.459  29.935  26.127  1.00  0.00     0.125 A 
ATOM     16  C   UNL A   1      44.370  29.148  27.009  1.00  0.00     0.063 A 
ATOM     17  N   UNL A   1      46.270  31.187  26.613  1.00  0.00    -0.260 NA
ATOM     18  C   UNL A   1      44.158  30.424  27.513  1.00  0.00     0.134 A 
ATOM     19  C   UNL A   1      45.113  31.406  27.284  1.00  0.00     0.157 A 
BRANCH  18  20
ATOM     20  O   UNL A   1      43.024  30.745  28.193  1.00  0.00    -0.506 OA
ATOM     21  H   UNL A   1      42.285  30.167  28.174  1.00  0.00     0.293 HD
ENDBRANCH  18  20
ENDBRANCH  12  14
ENDBRANCH   9  12
ENDBRANCH   3   6
ENDBRANCH   1   2
BRANCH   1  22
ATOM     22  C   UNL A   1      41.698  21.945  26.190  1.00  0.00     0.042 C 
BRANCH  22  23
ATOM     23  C   UNL A   1      40.312  21.447  26.572  1.00  0.00     0.118 C 
BRANCH  23  24
ATOM     24  N   UNL A   1      39.286  22.061  25.754  1.00  0.00    -0.352 N 
ATOM     25  C   UNL A   1      38.685  23.294  25.834  1.00  0.00     0.251 C 
ATOM     26  H   UNL A   1      38.962  21.497  25.014  1.00  0.00     0.163 HD
ATOM     27  O   UNL A   1      37.640  23.469  25.210  1.00  0.00    -0.269 OA
BRANCH  25  28
ATOM     28  C   UNL A   1      39.242  24.417  26.637  1.00  0.00     0.039 A 
ATOM     29  C   UNL A   1      38.864  24.514  27.984  1.00  0.00     0.014 A 
ATOM     30  C   UNL A   1      40.022  25.437  26.086  1.00  0.00     0.014 A 
ATOM     31  C   UNL A   1      39.271  25.604  28.763  1.00  0.00     0.010 A 
ATOM     32  C   UNL A   1      40.506  26.477  26.887  1.00  0.00     0.010 A 
ATOM     33  C   UNL A   1      40.110  26.594  28.227  1.00  0.00    -0.014 A 
BRANCH  33  34
ATOM     34  C   UNL A   1      40.523  27.773  29.039  1.00  0.00     0.031 A 
ATOM     35  C   UNL A   1      41.915  27.859  29.611  1.00  0.00     0.074 A 
ATOM     36  C   UNL A   1      39.643  28.763  29.287  1.00  0.00     0.049 A 
ATOM     37  N   UNL A   1      42.451  28.791  30.362  1.00  0.00    -0.248 NA
ATOM     38  C   UNL A   1      42.821  26.735  29.325  1.00  0.00     0.031 C 
ATOM     39  C   UNL A   1      38.250  28.785  28.839  1.00  0.00     0.029 A 
ATOM     40  N   UNL A   1      39.787  29.939  29.982  1.00  0.00    -0.354 N 
ATOM     41  C   UNL A   1      43.741  28.358  30.648  1.00  0.00     0.074 A 
ATOM     42  C   UNL A   1      43.889  27.054  30.039  1.00  0.00     0.031 C 
ATOM     43  C   UNL A   1      37.675  29.928  29.248  1.00  0.00     0.029 A 
ATOM     44  C   UNL A   1      38.647  30.705  30.013  1.00  0.00     0.049 A 
ATOM     45  H   UNL A   1      40.628  30.207  30.418  1.00  0.00     0.167 HD
ATOM     46  C   UNL A   1      44.723  28.996  31.329  1.00  0.00     0.037 A 
ATOM     47  C   UNL A   1      38.409  31.898  30.591  1.00  0.00     0.037 A 
ATOM     48  C   UNL A   1      44.589  30.307  31.911  1.00  0.00     0.049 A 
ATOM     49  C   UNL A   1      39.520  32.596  31.327  1.00  0.00     0.074 A 
ATOM     50  C   UNL A   1      45.542  31.061  32.573  1.00  0.00     0.029 A 
ATOM     51  N   UNL A   1      43.424  31.060  31.896  1.00  0.00    -0.354 N 
ATOM     52  N   UNL A   1      40.754  32.202  31.533  1.00  0.00    -0.248 NA
ATOM     53  C   UNL A   1      39.208  33.913  31.900  1.00  0.00     0.031 C 
ATOM     54  C   UNL A   1      44.944  32.254  32.994  1.00  0.00     0.029 A 
ATOM     55  C   UNL A   1      43.631  32.264  32.553  1.00  0.00     0.049 A 
ATOM     56  H   UNL A   1      42.576  30.781  31.482  1.00  0.00     0.167 HD
ATOM     57  C   UNL A   1      41.368  33.226  32.241  1.00  0.00     0.074 A 
ATOM     58  C   UNL A   1      40.378  34.271  32.409  1.00  0.00     0.031 C 
ATOM     59  C   UNL A   1      42.637  33.293  32.713  1.00  0.00     0.037 A 
BRANCH  46  60
ATOM     60  C   UNL A   1      46.039  28.285  31.477  1.00  0.00     0.064 A 
ATOM     61  C   UNL A   1      46.299  27.440  32.567  1.00  0.00     0.173 A 
ATOM     62  C   UNL A   1      47.040  28.424  30.503  1.00  0.00     0.173 A 
ATOM     63  F   UNL A   1      45.380  27.280  33.531  1.00  0.00    -0.203 F 
ATOM     64  C   UNL A   1      47.524  26.790  32.695  1.00  0.00     0.198 A 
ATOM     65  C   UNL A   1      48.252  27.747  30.619  1.00  0.00     0.198 A 
ATOM     66  F   UNL A   1      46.842  29.211  29.436  1.00  0.00    -0.203 F 
ATOM     67  F   UNL A   1      47.768  26.032  33.774  1.00  0.00    -0.200 F 
ATOM     68  C   UNL A   1      48.497  26.939  31.718  1.00  0.00     0.200 A 
ATOM     69  F   UNL A   1      49.187  27.881  29.667  1.00  0.00    -0.200 F 
ATOM     70  F   UNL A   1      49.674  26.309  31.841  1.00  0.00    -0.200 F 
ENDBRANCH  46  60
BRANCH  47  71
ATOM     71  C   UNL A   1      37.065  32.521  30.471  1.00  0.00     0.064 A 
ATOM     72  C   UNL A   1      36.107  32.371  31.484  1.00  0.00     0.173 A 
ATOM     73  C   UNL A   1      36.713  33.281  29.347  1.00  0.00     0.173 A 
ATOM     74  F   UNL A   1      36.391  31.633  32.567  1.00  0.00    -0.203 F 
ATOM     75  C   UNL A   1      34.843  32.942  31.369  1.00  0.00     0.198 A 
ATOM     76  C   UNL A   1      35.458  33.876  29.245  1.00  0.00     0.198 A 
ATOM     77  F   UNL A   1      37.595  33.458  28.352  1.00  0.00    -0.203 F 
ATOM     78  F   UNL A   1      33.931  32.747  32.331  1.00  0.00    -0.200 F 
ATOM     79  C   UNL A   1      34.521  33.700  30.253  1.00  0.00     0.200 A 
ATOM     80  F   UNL A   1      35.154  34.618  28.171  1.00  0.00    -0.200 F 
ATOM     81  F   UNL A   1      33.306  34.255  30.145  1.00  0.00    -0.200 F 
ENDBRANCH  47  71
BRANCH  59  82
ATOM     82  C   UNL A   1      43.034  34.548  33.436  1.00  0.00     0.064 A 
ATOM     83  C   UNL A   1      42.982  34.637  34.836  1.00  0.00     0.173 A 
ATOM     84  C   UNL A   1      43.495  35.665  32.723  1.00  0.00     0.173 A 
ATOM     85  F   UNL A   1      42.535  33.602  35.562  1.00  0.00    -0.203 F 
ATOM     86  C   UNL A   1      43.348  35.810  35.492  1.00  0.00     0.198 A 
ATOM     87  C   UNL A   1      43.888  36.825  33.385  1.00  0.00     0.198 A 
ATOM     88  F   UNL A   1      43.571  35.630  31.385  1.00  0.00    -0.203 F 
ATOM     89  F   UNL A   1      43.241  35.889  36.826  1.00  0.00    -0.200 F 
ATOM     90  C   UNL A   1      43.806  36.900  34.768  1.00  0.00     0.200 A 
ATOM     91  F   UNL A   1      44.343  37.874  32.684  1.00  0.00    -0.200 F 
ATOM     92  F   UNL A   1      44.161  38.026  35.401  1.00  0.00    -0.200 F 
ENDBRANCH  59  82
ENDBRANCH  33  34
ENDBRANCH  25  28
ENDBRANCH  23  24
ENDBRANCH  22  23
ENDBRANCH   1  22
TORSDOF 13
ENDMDL
