MODEL 1
REMARK VINA RESULT:     -10.2      0.000      0.000
REMARK SMILES C=CCN(CC(=O)NCCCNC(=O)c1ccc(-c2c3nc(c(-c4c(F)c(F)c(F)c(F)c4F)c4ccc([nH]4)c(-c4c(F)c(F)c(F)c(F)c4F)c4nc(c(-c5c(F)c(F)c(F)c(F)c5F)c5ccc2[nH]5)C=C4)C=C3)cc1)C(=O)NC
REMARK SMILES IDX 9 1 8 2 6 3 7 4 5 6 4 7 3 8 2 9 1 10 78 11 79 12 80 13 81 14
REMARK SMILES IDX 10 16 11 17 12 18 13 19 14 21 15 22 16 23 77 24 17 25 76 26
REMARK SMILES IDX 18 27 19 28 20 29 70 30 21 31 75 32 69 33 71 34 22 35 74 36
REMARK SMILES IDX 68 37 67 38 23 40 55 41 35 42 54 43 36 44 39 45 53 46 72 47
REMARK SMILES IDX 37 48 38 49 52 51 73 52 40 53 24 54 25 55 33 56 26 57 27 58
REMARK SMILES IDX 31 59 34 60 28 61 29 62 32 63 30 64 56 65 57 66 65 67 58 68
REMARK SMILES IDX 59 69 63 70 66 71 60 72 61 73 64 74 62 75 41 76 42 77 50 78
REMARK SMILES IDX 43 79 44 80 48 81 51 82 45 83 46 84 49 85 47 86
REMARK H PARENT 8 5 80 15 12 20 71 39 39 50
REMARK Flexibility Score: inf
ROOT
ATOM      1  C   UNL A   1      31.201  30.656  25.577  1.00  0.00     0.117 C 
ENDROOT
BRANCH   1   2
ATOM      2  N   UNL A   1      30.421  30.579  24.361  1.00  0.00    -0.354 N 
ATOM      3  C   UNL A   1      30.264  29.535  23.497  1.00  0.00     0.239 C 
ATOM      4  O   UNL A   1      29.322  29.599  22.701  1.00  0.00    -0.273 OA
ATOM      5  H   UNL A   1      29.931  31.398  24.123  1.00  0.00     0.163 HD
BRANCH   3   6
ATOM      6  C   UNL A   1      31.126  28.266  23.593  1.00  0.00     0.221 C 
BRANCH   6   7
ATOM      7  N   UNL A   1      30.550  27.188  24.398  1.00  0.00    -0.312 N 
BRANCH   7   8
ATOM      8  C   UNL A   1      31.028  27.066  25.775  1.00  0.00     0.149 C 
BRANCH   8   9
ATOM      9  C   UNL A   1      32.456  26.605  25.808  1.00  0.00    -0.013 C 
ATOM     10  C   UNL A   1      33.405  27.215  26.534  1.00  0.00     0.006 C 
ENDBRANCH   8   9
ENDBRANCH   7   8
BRANCH   7  11
ATOM     11  C   UNL A   1      29.610  26.280  23.992  1.00  0.00     0.317 C 
ATOM     12  O   UNL A   1      28.410  26.571  23.945  1.00  0.00    -0.249 OA
ATOM     13  N   UNL A   1      29.896  25.015  23.641  1.00  0.00    -0.341 N 
ATOM     14  C   UNL A   1      31.080  24.212  23.441  1.00  0.00     0.144 C 
ATOM     15  H   UNL A   1      29.076  24.495  23.477  1.00  0.00     0.165 HD
ENDBRANCH   7  11
ENDBRANCH   6   7
ENDBRANCH   3   6
ENDBRANCH   1   2
BRANCH   1  16
ATOM     16  C   UNL A   1      31.141  32.024  26.249  1.00  0.00     0.042 C 
BRANCH  16  17
ATOM     17  C   UNL A   1      32.428  32.443  26.952  1.00  0.00     0.118 C 
BRANCH  17  18
ATOM     18  N   UNL A   1      32.382  33.809  27.453  1.00  0.00    -0.352 N 
ATOM     19  C   UNL A   1      33.113  34.441  28.422  1.00  0.00     0.251 C 
ATOM     20  H   UNL A   1      31.705  34.377  27.019  1.00  0.00     0.163 HD
ATOM     21  O   UNL A   1      32.761  35.560  28.798  1.00  0.00    -0.269 OA
BRANCH  19  22
ATOM     22  C   UNL A   1      34.308  33.816  29.033  1.00  0.00     0.039 A 
ATOM     23  C   UNL A   1      34.117  32.823  30.001  1.00  0.00     0.014 A 
ATOM     24  C   UNL A   1      35.603  34.241  28.729  1.00  0.00     0.014 A 
ATOM     25  C   UNL A   1      35.217  32.232  30.627  1.00  0.00     0.010 A 
ATOM     26  C   UNL A   1      36.703  33.600  29.297  1.00  0.00     0.010 A 
ATOM     27  C   UNL A   1      36.522  32.599  30.262  1.00  0.00    -0.014 A 
BRANCH  27  28
ATOM     28  C   UNL A   1      37.701  31.955  30.898  1.00  0.00     0.031 A 
ATOM     29  C   UNL A   1      38.139  32.364  32.277  1.00  0.00     0.074 A 
ATOM     30  C   UNL A   1      38.403  31.031  30.215  1.00  0.00     0.049 A 
ATOM     31  N   UNL A   1      39.161  31.944  32.981  1.00  0.00    -0.248 NA
ATOM     32  C   UNL A   1      37.339  33.402  32.945  1.00  0.00     0.031 C 
ATOM     33  C   UNL A   1      38.111  30.587  28.851  1.00  0.00     0.029 A 
ATOM     34  N   UNL A   1      39.514  30.307  30.571  1.00  0.00    -0.354 N 
ATOM     35  C   UNL A   1      39.135  32.676  34.162  1.00  0.00     0.074 A 
ATOM     36  C   UNL A   1      38.027  33.601  34.061  1.00  0.00     0.031 C 
ATOM     37  C   UNL A   1      39.003  29.649  28.495  1.00  0.00     0.029 A 
ATOM     38  C   UNL A   1      39.947  29.448  29.590  1.00  0.00     0.049 A 
ATOM     39  H   UNL A   1      39.956  30.394  31.446  1.00  0.00     0.167 HD
ATOM     40  C   UNL A   1      39.947  32.570  35.241  1.00  0.00     0.037 A 
ATOM     41  C   UNL A   1      40.989  28.597  29.577  1.00  0.00     0.037 A 
ATOM     42  C   UNL A   1      41.029  31.628  35.353  1.00  0.00     0.049 A 
ATOM     43  C   UNL A   1      41.864  28.486  30.796  1.00  0.00     0.074 A 
ATOM     44  C   UNL A   1      41.868  31.398  36.430  1.00  0.00     0.029 A 
ATOM     45  N   UNL A   1      41.422  30.756  34.348  1.00  0.00    -0.354 N 
ATOM     46  N   UNL A   1      41.786  29.132  31.934  1.00  0.00    -0.248 NA
ATOM     47  C   UNL A   1      42.967  27.517  30.732  1.00  0.00     0.031 C 
ATOM     48  C   UNL A   1      42.793  30.415  36.063  1.00  0.00     0.029 A 
ATOM     49  C   UNL A   1      42.503  29.999  34.774  1.00  0.00     0.049 A 
ATOM     50  H   UNL A   1      40.996  30.684  33.464  1.00  0.00     0.167 HD
ATOM     51  C   UNL A   1      42.810  28.634  32.727  1.00  0.00     0.074 A 
ATOM     52  C   UNL A   1      43.484  27.616  31.948  1.00  0.00     0.031 C 
ATOM     53  C   UNL A   1      43.160  28.988  33.988  1.00  0.00     0.037 A 
BRANCH  40  54
ATOM     54  C   UNL A   1      39.690  33.496  36.395  1.00  0.00     0.064 A 
ATOM     55  C   UNL A   1      40.276  34.769  36.461  1.00  0.00     0.173 A 
ATOM     56  C   UNL A   1      38.818  33.121  37.429  1.00  0.00     0.173 A 
ATOM     57  F   UNL A   1      41.124  35.172  35.503  1.00  0.00    -0.203 F 
ATOM     58  C   UNL A   1      40.024  35.620  37.535  1.00  0.00     0.198 A 
ATOM     59  C   UNL A   1      38.545  33.985  38.486  1.00  0.00     0.198 A 
ATOM     60  F   UNL A   1      38.225  31.918  37.411  1.00  0.00    -0.203 F 
ATOM     61  F   UNL A   1      40.634  36.811  37.602  1.00  0.00    -0.200 F 
ATOM     62  C   UNL A   1      39.153  35.231  38.542  1.00  0.00     0.200 A 
ATOM     63  F   UNL A   1      37.695  33.613  39.452  1.00  0.00    -0.200 F 
ATOM     64  F   UNL A   1      38.908  36.052  39.571  1.00  0.00    -0.200 F 
ENDBRANCH  40  54
BRANCH  41  65
ATOM     65  C   UNL A   1      41.242  27.755  28.380  1.00  0.00     0.064 A 
ATOM     66  C   UNL A   1      42.071  28.211  27.345  1.00  0.00     0.173 A 
ATOM     67  C   UNL A   1      40.664  26.485  28.244  1.00  0.00     0.173 A 
ATOM     68  F   UNL A   1      42.629  29.428  27.421  1.00  0.00    -0.203 F 
ATOM     69  C   UNL A   1      42.296  27.436  26.209  1.00  0.00     0.198 A 
ATOM     70  C   UNL A   1      40.912  25.700  27.120  1.00  0.00     0.198 A 
ATOM     71  F   UNL A   1      39.868  26.002  29.209  1.00  0.00    -0.203 F 
ATOM     72  F   UNL A   1      43.057  27.913  25.215  1.00  0.00    -0.200 F 
ATOM     73  C   UNL A   1      41.721  26.178  26.101  1.00  0.00     0.200 A 
ATOM     74  F   UNL A   1      40.365  24.480  27.024  1.00  0.00    -0.200 F 
ATOM     75  F   UNL A   1      41.942  25.432  25.011  1.00  0.00    -0.200 F 
ENDBRANCH  41  65
BRANCH  53  76
ATOM     76  C   UNL A   1      44.307  28.249  34.612  1.00  0.00     0.064 A 
ATOM     77  C   UNL A   1      45.621  28.734  34.537  1.00  0.00     0.173 A 
ATOM     78  C   UNL A   1      44.085  27.056  35.316  1.00  0.00     0.173 A 
ATOM     79  F   UNL A   1      45.888  29.862  33.862  1.00  0.00    -0.203 F 
ATOM     80  C   UNL A   1      46.675  28.035  35.122  1.00  0.00     0.198 A 
ATOM     81  C   UNL A   1      45.136  26.376  35.924  1.00  0.00     0.198 A 
ATOM     82  F   UNL A   1      42.845  26.553  35.422  1.00  0.00    -0.203 F 
ATOM     83  F   UNL A   1      47.929  28.492  34.996  1.00  0.00    -0.200 F 
ATOM     84  C   UNL A   1      46.431  26.862  35.819  1.00  0.00     0.200 A 
ATOM     85  F   UNL A   1      44.898  25.248  36.607  1.00  0.00    -0.200 F 
ATOM     86  F   UNL A   1      47.446  26.194  36.384  1.00  0.00    -0.200 F 
ENDBRANCH  53  76
ENDBRANCH  27  28
ENDBRANCH  19  22
ENDBRANCH  17  18
ENDBRANCH  16  17
ENDBRANCH   1  16
TORSDOF 14
ENDMDL
MODEL 2
REMARK VINA RESULT:     -10.1      5.477     10.909
REMARK SMILES C=CCN(CC(=O)NCCCNC(=O)c1ccc(-c2c3nc(c(-c4c(F)c(F)c(F)c(F)c4F)c4ccc([nH]4)c(-c4c(F)c(F)c(F)c(F)c4F)c4nc(c(-c5c(F)c(F)c(F)c(F)c5F)c5ccc2[nH]5)C=C4)C=C3)cc1)C(=O)NC
REMARK SMILES IDX 9 1 8 2 6 3 7 4 5 6 4 7 3 8 2 9 1 10 78 11 79 12 80 13 81 14
REMARK SMILES IDX 10 16 11 17 12 18 13 19 14 21 15 22 16 23 77 24 17 25 76 26
REMARK SMILES IDX 18 27 19 28 20 29 70 30 21 31 75 32 69 33 71 34 22 35 74 36
REMARK SMILES IDX 68 37 67 38 23 40 55 41 35 42 54 43 36 44 39 45 53 46 72 47
REMARK SMILES IDX 37 48 38 49 52 51 73 52 40 53 24 54 25 55 33 56 26 57 27 58
REMARK SMILES IDX 31 59 34 60 28 61 29 62 32 63 30 64 56 65 57 66 65 67 58 68
REMARK SMILES IDX 59 69 63 70 66 71 60 72 61 73 64 74 62 75 41 76 42 77 50 78
REMARK SMILES IDX 43 79 44 80 48 81 51 82 45 83 46 84 49 85 47 86
REMARK H PARENT 8 5 80 15 12 20 71 39 39 50
REMARK Flexibility Score: inf
ROOT
ATOM      1  C   UNL A   1      42.509  21.497  25.749  1.00  0.00     0.117 C 
ENDROOT
BRANCH   1   2
ATOM      2  N   UNL A   1      43.813  20.890  25.598  1.00  0.00    -0.354 N 
ATOM      3  C   UNL A   1      45.015  21.474  25.324  1.00  0.00     0.239 C 
ATOM      4  O   UNL A   1      46.030  20.803  25.541  1.00  0.00    -0.273 OA
ATOM      5  H   UNL A   1      43.837  19.913  25.711  1.00  0.00     0.163 HD
BRANCH   3   6
ATOM      6  C   UNL A   1      45.123  22.946  24.899  1.00  0.00     0.221 C 
BRANCH   6   7
ATOM      7  N   UNL A   1      45.145  23.908  26.004  1.00  0.00    -0.312 N 
BRANCH   7   8
ATOM      8  C   UNL A   1      44.130  24.961  25.981  1.00  0.00     0.149 C 
BRANCH   8   9
ATOM      9  C   UNL A   1      44.678  26.220  25.375  1.00  0.00    -0.013 C 
ATOM     10  C   UNL A   1      44.011  27.383  25.376  1.00  0.00     0.006 C 
ENDBRANCH   8   9
ENDBRANCH   7   8
BRANCH   7  11
ATOM     11  C   UNL A   1      46.021  23.921  27.054  1.00  0.00     0.317 C 
ATOM     12  O   UNL A   1      47.234  24.079  26.882  1.00  0.00    -0.249 OA
ATOM     13  N   UNL A   1      45.654  23.743  28.335  1.00  0.00    -0.341 N 
ATOM     14  C   UNL A   1      44.421  23.609  29.076  1.00  0.00     0.144 C 
ATOM     15  H   UNL A   1      46.438  23.687  28.928  1.00  0.00     0.165 HD
ENDBRANCH   7  11
ENDBRANCH   6   7
ENDBRANCH   3   6
ENDBRANCH   1   2
BRANCH   1  16
ATOM     16  C   UNL A   1      42.162  21.837  27.195  1.00  0.00     0.042 C 
BRANCH  16  17
ATOM     17  C   UNL A   1      40.771  21.392  27.635  1.00  0.00     0.118 C 
BRANCH  17  18
ATOM     18  N   UNL A   1      39.742  21.691  26.650  1.00  0.00    -0.352 N 
ATOM     19  C   UNL A   1      39.095  22.859  26.346  1.00  0.00     0.251 C 
ATOM     20  H   UNL A   1      39.462  20.918  26.108  1.00  0.00     0.163 HD
ATOM     21  O   UNL A   1      38.122  22.820  25.590  1.00  0.00    -0.269 OA
BRANCH  19  22
ATOM     22  C   UNL A   1      39.526  24.160  26.904  1.00  0.00     0.039 A 
ATOM     23  C   UNL A   1      39.187  24.461  28.229  1.00  0.00     0.014 A 
ATOM     24  C   UNL A   1      40.184  25.117  26.127  1.00  0.00     0.014 A 
ATOM     25  C   UNL A   1      39.545  25.692  28.783  1.00  0.00     0.010 A 
ATOM     26  C   UNL A   1      40.607  26.315  26.701  1.00  0.00     0.010 A 
ATOM     27  C   UNL A   1      40.280  26.621  28.030  1.00  0.00    -0.014 A 
BRANCH  27  28
ATOM     28  C   UNL A   1      40.694  27.922  28.618  1.00  0.00     0.031 A 
ATOM     29  C   UNL A   1      42.128  28.158  29.008  1.00  0.00     0.074 A 
ATOM     30  C   UNL A   1      39.770  28.875  28.844  1.00  0.00     0.049 A 
ATOM     31  N   UNL A   1      42.673  29.210  29.567  1.00  0.00    -0.248 NA
ATOM     32  C   UNL A   1      43.071  27.056  28.760  1.00  0.00     0.031 C 
ATOM     33  C   UNL A   1      38.340  28.748  28.559  1.00  0.00     0.029 A 
ATOM     34  N   UNL A   1      39.894  30.135  29.373  1.00  0.00    -0.354 N 
ATOM     35  C   UNL A   1      44.012  28.890  29.751  1.00  0.00     0.074 A 
ATOM     36  C   UNL A   1      44.189  27.530  29.291  1.00  0.00     0.031 C 
ATOM     37  C   UNL A   1      37.723  29.892  28.893  1.00  0.00     0.029 A 
ATOM     38  C   UNL A   1      38.706  30.821  29.443  1.00  0.00     0.049 A 
ATOM     39  H   UNL A   1      40.753  30.512  29.672  1.00  0.00     0.167 HD
ATOM     40  C   UNL A   1      45.008  29.668  30.239  1.00  0.00     0.037 A 
ATOM     41  C   UNL A   1      38.441  32.059  29.901  1.00  0.00     0.037 A 
ATOM     42  C   UNL A   1      44.837  31.032  30.667  1.00  0.00     0.049 A 
ATOM     43  C   UNL A   1      39.569  32.908  30.420  1.00  0.00     0.074 A 
ATOM     44  C   UNL A   1      45.795  31.924  31.115  1.00  0.00     0.029 A 
ATOM     45  N   UNL A   1      43.623  31.701  30.700  1.00  0.00    -0.354 N 
ATOM     46  N   UNL A   1      40.844  32.621  30.522  1.00  0.00    -0.248 NA
ATOM     47  C   UNL A   1      39.221  34.261  30.876  1.00  0.00     0.031 C 
ATOM     48  C   UNL A   1      45.156  33.120  31.456  1.00  0.00     0.029 A 
ATOM     49  C   UNL A   1      43.805  32.990  31.177  1.00  0.00     0.049 A 
ATOM     50  H   UNL A   1      42.759  31.318  30.424  1.00  0.00     0.167 HD
ATOM     51  C   UNL A   1      41.452  33.759  31.031  1.00  0.00     0.074 A 
ATOM     52  C   UNL A   1      40.410  34.751  31.198  1.00  0.00     0.031 C 
ATOM     53  C   UNL A   1      42.757  33.966  31.333  1.00  0.00     0.037 A 
BRANCH  40  54
ATOM     54  C   UNL A   1      46.379  29.063  30.328  1.00  0.00     0.064 A 
ATOM     55  C   UNL A   1      46.822  28.412  31.490  1.00  0.00     0.173 A 
ATOM     56  C   UNL A   1      47.249  29.102  29.227  1.00  0.00     0.173 A 
ATOM     57  F   UNL A   1      46.033  28.355  32.574  1.00  0.00    -0.203 F 
ATOM     58  C   UNL A   1      48.094  27.849  31.557  1.00  0.00     0.198 A 
ATOM     59  C   UNL A   1      48.509  28.513  29.287  1.00  0.00     0.198 A 
ATOM     60  F   UNL A   1      46.873  29.705  28.090  1.00  0.00    -0.203 F 
ATOM     61  F   UNL A   1      48.513  27.276  32.693  1.00  0.00    -0.200 F 
ATOM     62  C   UNL A   1      48.934  27.894  30.454  1.00  0.00     0.200 A 
ATOM     63  F   UNL A   1      49.315  28.546  28.218  1.00  0.00    -0.200 F 
ATOM     64  F   UNL A   1      50.156  27.348  30.518  1.00  0.00    -0.200 F 
ENDBRANCH  40  54
BRANCH  41  65
ATOM     65  C   UNL A   1      37.052  32.582  29.856  1.00  0.00     0.064 A 
ATOM     66  C   UNL A   1      36.584  33.280  28.734  1.00  0.00     0.173 A 
ATOM     67  C   UNL A   1      36.167  32.398  30.927  1.00  0.00     0.173 A 
ATOM     68  F   UNL A   1      37.401  33.499  27.693  1.00  0.00    -0.203 F 
ATOM     69  C   UNL A   1      35.289  33.792  28.693  1.00  0.00     0.198 A 
ATOM     70  C   UNL A   1      34.863  32.887  30.874  1.00  0.00     0.198 A 
ATOM     71  F   UNL A   1      36.565  31.733  32.021  1.00  0.00    -0.203 F 
ATOM     72  F   UNL A   1      34.881  34.493  27.626  1.00  0.00    -0.200 F 
ATOM     73  C   UNL A   1      34.427  33.589  29.761  1.00  0.00     0.200 A 
ATOM     74  F   UNL A   1      34.030  32.679  31.902  1.00  0.00    -0.200 F 
ATOM     75  F   UNL A   1      33.181  34.078  29.719  1.00  0.00    -0.200 F 
ENDBRANCH  41  65
BRANCH  53  76
ATOM     76  C   UNL A   1      43.134  35.323  31.849  1.00  0.00     0.064 A 
ATOM     77  C   UNL A   1      43.625  36.323  30.997  1.00  0.00     0.173 A 
ATOM     78  C   UNL A   1      42.977  35.635  33.208  1.00  0.00     0.173 A 
ATOM     79  F   UNL A   1      43.808  36.069  29.692  1.00  0.00    -0.203 F 
ATOM     80  C   UNL A   1      43.970  37.578  31.493  1.00  0.00     0.198 A 
ATOM     81  C   UNL A   1      43.295  36.900  33.694  1.00  0.00     0.198 A 
ATOM     82  F   UNL A   1      42.506  34.715  34.063  1.00  0.00    -0.203 F 
ATOM     83  F   UNL A   1      44.483  38.503  30.669  1.00  0.00    -0.200 F 
ATOM     84  C   UNL A   1      43.800  37.867  32.838  1.00  0.00     0.200 A 
ATOM     85  F   UNL A   1      43.119  37.181  34.993  1.00  0.00    -0.200 F 
ATOM     86  F   UNL A   1      44.129  39.076  33.312  1.00  0.00    -0.200 F 
ENDBRANCH  53  76
ENDBRANCH  27  28
ENDBRANCH  19  22
ENDBRANCH  17  18
ENDBRANCH  16  17
ENDBRANCH   1  16
TORSDOF 14
ENDMDL
MODEL 3
REMARK VINA RESULT:     -10.1      5.452     10.894
REMARK SMILES C=CCN(CC(=O)NCCCNC(=O)c1ccc(-c2c3nc(c(-c4c(F)c(F)c(F)c(F)c4F)c4ccc([nH]4)c(-c4c(F)c(F)c(F)c(F)c4F)c4nc(c(-c5c(F)c(F)c(F)c(F)c5F)c5ccc2[nH]5)C=C4)C=C3)cc1)C(=O)NC
REMARK SMILES IDX 9 1 8 2 6 3 7 4 5 6 4 7 3 8 2 9 1 10 78 11 79 12 80 13 81 14
REMARK SMILES IDX 10 16 11 17 12 18 13 19 14 21 15 22 16 23 77 24 17 25 76 26
REMARK SMILES IDX 18 27 19 28 20 29 70 30 21 31 75 32 69 33 71 34 22 35 74 36
REMARK SMILES IDX 68 37 67 38 23 40 55 41 35 42 54 43 36 44 39 45 53 46 72 47
REMARK SMILES IDX 37 48 38 49 52 51 73 52 40 53 24 54 25 55 33 56 26 57 27 58
REMARK SMILES IDX 31 59 34 60 28 61 29 62 32 63 30 64 56 65 57 66 65 67 58 68
REMARK SMILES IDX 59 69 63 70 66 71 60 72 61 73 64 74 62 75 41 76 42 77 50 78
REMARK SMILES IDX 43 79 44 80 48 81 51 82 45 83 46 84 49 85 47 86
REMARK H PARENT 8 5 80 15 12 20 71 39 39 50
REMARK Flexibility Score: inf
ROOT
ATOM      1  C   UNL A   1      42.951  19.952  26.213  1.00  0.00     0.117 C 
ENDROOT
BRANCH   1   2
ATOM      2  N   UNL A   1      43.421  20.592  25.003  1.00  0.00    -0.354 N 
ATOM      3  C   UNL A   1      44.469  21.446  24.825  1.00  0.00     0.239 C 
ATOM      4  O   UNL A   1      44.862  21.622  23.667  1.00  0.00    -0.273 OA
ATOM      5  H   UNL A   1      42.910  20.379  24.190  1.00  0.00     0.163 HD
BRANCH   3   6
ATOM      6  C   UNL A   1      45.228  22.056  26.014  1.00  0.00     0.221 C 
BRANCH   6   7
ATOM      7  N   UNL A   1      44.528  23.144  26.701  1.00  0.00    -0.312 N 
BRANCH   7   8
ATOM      8  C   UNL A   1      43.912  24.167  25.856  1.00  0.00     0.149 C 
BRANCH   8   9
ATOM      9  C   UNL A   1      44.955  25.063  25.254  1.00  0.00    -0.013 C 
ATOM     10  C   UNL A   1      44.929  26.399  25.374  1.00  0.00     0.006 C 
ENDBRANCH   8   9
ENDBRANCH   7   8
BRANCH   7  11
ATOM     11  C   UNL A   1      44.393  23.300  28.053  1.00  0.00     0.317 C 
ATOM     12  O   UNL A   1      43.487  22.742  28.680  1.00  0.00    -0.249 OA
ATOM     13  N   UNL A   1      45.197  24.077  28.799  1.00  0.00    -0.341 N 
ATOM     14  C   UNL A   1      46.402  24.849  28.606  1.00  0.00     0.144 C 
ATOM     15  H   UNL A   1      44.877  24.136  29.728  1.00  0.00     0.165 HD
ENDBRANCH   7  11
ENDBRANCH   6   7
ENDBRANCH   3   6
ENDBRANCH   1   2
BRANCH   1  16
ATOM     16  C   UNL A   1      41.583  20.449  26.670  1.00  0.00     0.042 C 
BRANCH  16  17
ATOM     17  C   UNL A   1      41.194  21.822  26.133  1.00  0.00     0.118 C 
BRANCH  17  18
ATOM     18  N   UNL A   1      39.762  21.957  25.906  1.00  0.00    -0.352 N 
ATOM     19  C   UNL A   1      38.880  22.941  26.264  1.00  0.00     0.251 C 
ATOM     20  H   UNL A   1      39.359  21.210  25.408  1.00  0.00     0.163 HD
ATOM     21  O   UNL A   1      37.674  22.740  26.116  1.00  0.00    -0.269 OA
BRANCH  19  22
ATOM     22  C   UNL A   1      39.335  24.232  26.827  1.00  0.00     0.039 A 
ATOM     23  C   UNL A   1      39.010  24.529  28.156  1.00  0.00     0.014 A 
ATOM     24  C   UNL A   1      40.001  25.184  26.052  1.00  0.00     0.014 A 
ATOM     25  C   UNL A   1      39.390  25.751  28.716  1.00  0.00     0.010 A 
ATOM     26  C   UNL A   1      40.446  26.373  26.631  1.00  0.00     0.010 A 
ATOM     27  C   UNL A   1      40.133  26.675  27.964  1.00  0.00    -0.014 A 
BRANCH  27  28
ATOM     28  C   UNL A   1      40.570  27.965  28.558  1.00  0.00     0.031 A 
ATOM     29  C   UNL A   1      42.010  28.178  28.937  1.00  0.00     0.074 A 
ATOM     30  C   UNL A   1      39.661  28.929  28.798  1.00  0.00     0.049 A 
ATOM     31  N   UNL A   1      42.574  29.218  29.500  1.00  0.00    -0.248 NA
ATOM     32  C   UNL A   1      42.935  27.065  28.674  1.00  0.00     0.031 C 
ATOM     33  C   UNL A   1      38.227  28.825  28.524  1.00  0.00     0.029 A 
ATOM     34  N   UNL A   1      39.808  30.184  29.334  1.00  0.00    -0.354 N 
ATOM     35  C   UNL A   1      43.910  28.878  29.671  1.00  0.00     0.074 A 
ATOM     36  C   UNL A   1      44.064  27.518  29.199  1.00  0.00     0.031 C 
ATOM     37  C   UNL A   1      37.630  29.975  28.871  1.00  0.00     0.029 A 
ATOM     38  C   UNL A   1      38.630  30.886  29.419  1.00  0.00     0.049 A 
ATOM     39  H   UNL A   1      40.674  30.546  29.629  1.00  0.00     0.167 HD
ATOM     40  C   UNL A   1      44.921  29.638  30.156  1.00  0.00     0.037 A 
ATOM     41  C   UNL A   1      38.387  32.124  29.887  1.00  0.00     0.037 A 
ATOM     42  C   UNL A   1      44.773  31.001  30.594  1.00  0.00     0.049 A 
ATOM     43  C   UNL A   1      39.531  32.954  30.403  1.00  0.00     0.074 A 
ATOM     44  C   UNL A   1      45.748  31.877  31.041  1.00  0.00     0.029 A 
ATOM     45  N   UNL A   1      43.569  31.687  30.642  1.00  0.00    -0.354 N 
ATOM     46  N   UNL A   1      40.802  32.648  30.493  1.00  0.00    -0.248 NA
ATOM     47  C   UNL A   1      39.205  34.308  30.872  1.00  0.00     0.031 C 
ATOM     48  C   UNL A   1      45.128  33.080  31.395  1.00  0.00     0.029 A 
ATOM     49  C   UNL A   1      43.773  32.970  31.126  1.00  0.00     0.049 A 
ATOM     50  H   UNL A   1      42.697  31.319  30.370  1.00  0.00     0.167 HD
ATOM     51  C   UNL A   1      41.430  33.774  31.005  1.00  0.00     0.074 A 
ATOM     52  C   UNL A   1      40.404  34.779  31.187  1.00  0.00     0.031 C 
ATOM     53  C   UNL A   1      42.741  33.959  31.298  1.00  0.00     0.037 A 
BRANCH  40  54
ATOM     54  C   UNL A   1      46.284  29.013  30.230  1.00  0.00     0.064 A 
ATOM     55  C   UNL A   1      47.183  29.078  29.154  1.00  0.00     0.173 A 
ATOM     56  C   UNL A   1      46.711  28.371  31.403  1.00  0.00     0.173 A 
ATOM     57  F   UNL A   1      46.820  29.671  28.007  1.00  0.00    -0.203 F 
ATOM     58  C   UNL A   1      48.447  28.498  29.239  1.00  0.00     0.198 A 
ATOM     59  C   UNL A   1      47.986  27.818  31.495  1.00  0.00     0.198 A 
ATOM     60  F   UNL A   1      45.895  28.287  32.464  1.00  0.00    -0.203 F 
ATOM     61  F   UNL A   1      49.269  28.530  28.181  1.00  0.00    -0.200 F 
ATOM     62  C   UNL A   1      48.849  27.875  30.410  1.00  0.00     0.200 A 
ATOM     63  F   UNL A   1      48.379  27.228  32.631  1.00  0.00    -0.200 F 
ATOM     64  F   UNL A   1      50.067  27.323  30.492  1.00  0.00    -0.200 F 
ENDBRANCH  40  54
BRANCH  41  65
ATOM     65  C   UNL A   1      37.004  32.668  29.857  1.00  0.00     0.064 A 
ATOM     66  C   UNL A   1      36.150  32.514  30.958  1.00  0.00     0.173 A 
ATOM     67  C   UNL A   1      36.511  33.348  28.736  1.00  0.00     0.173 A 
ATOM     68  F   UNL A   1      36.570  31.852  32.045  1.00  0.00    -0.203 F 
ATOM     69  C   UNL A   1      34.845  33.003  30.929  1.00  0.00     0.198 A 
ATOM     70  C   UNL A   1      35.215  33.861  28.719  1.00  0.00     0.198 A 
ATOM     71  F   UNL A   1      37.292  33.526  27.660  1.00  0.00    -0.203 F 
ATOM     72  F   UNL A   1      34.034  32.804  31.977  1.00  0.00    -0.200 F 
ATOM     73  C   UNL A   1      34.381  33.681  29.812  1.00  0.00     0.200 A 
ATOM     74  F   UNL A   1      34.774  34.526  27.643  1.00  0.00    -0.200 F 
ATOM     75  F   UNL A   1      33.129  34.155  29.787  1.00  0.00    -0.200 F 
ENDBRANCH  41  65
BRANCH  53  76
ATOM     76  C   UNL A   1      43.141  35.308  31.820  1.00  0.00     0.064 A 
ATOM     77  C   UNL A   1      43.118  35.601  33.191  1.00  0.00     0.173 A 
ATOM     78  C   UNL A   1      43.579  36.309  30.940  1.00  0.00     0.173 A 
ATOM     79  F   UNL A   1      42.693  34.683  34.072  1.00  0.00    -0.203 F 
ATOM     80  C   UNL A   1      43.493  36.859  33.659  1.00  0.00     0.198 A 
ATOM     81  C   UNL A   1      43.981  37.554  31.413  1.00  0.00     0.198 A 
ATOM     82  F   UNL A   1      43.625  36.076  29.619  1.00  0.00    -0.203 F 
ATOM     83  F   UNL A   1      43.416  37.133  34.969  1.00  0.00    -0.200 F 
ATOM     84  C   UNL A   1      43.929  37.831  32.772  1.00  0.00     0.200 A 
ATOM     85  F   UNL A   1      44.412  38.489  30.556  1.00  0.00    -0.200 F 
ATOM     86  F   UNL A   1      44.292  39.038  33.225  1.00  0.00    -0.200 F 
ENDBRANCH  53  76
ENDBRANCH  27  28
ENDBRANCH  19  22
ENDBRANCH  17  18
ENDBRANCH  16  17
ENDBRANCH   1  16
TORSDOF 14
ENDMDL
