MODEL 1
REMARK VINA RESULT:     -13.3      0.000      0.000
REMARK SMILES NS(=O)(=O)c1ccc(-n2ccnc2-c2ccc(O)c(C(=O)NCCCNC(=O)c3ccc(-c4c5nc(c(-c6c(F)c(F)c(F)c(F)c6F)c6ccc([nH]6)c(-c6c(F)c(F)c(F)c(F)c6F)c6nc(c(-c7c(F)c(F)c(F)c(F)c7F)c7ccc4[nH]7)C=C6)C=C5)cc3)c2)cc1
REMARK SMILES IDX 23 1 22 2 20 3 21 4 19 6 14 7 15 8 92 9 16 10 17 11 13 12
REMARK SMILES IDX 9 13 10 14 11 15 12 16 8 17 5 18 6 19 94 20 7 21 93 22 2 23
REMARK SMILES IDX 3 24 4 25 1 26 18 29 24 31 25 32 26 33 27 34 28 36 29 37
REMARK SMILES IDX 30 38 91 39 31 40 90 41 32 42 33 43 34 44 84 45 35 46 89 47
REMARK SMILES IDX 83 48 85 49 36 50 88 51 82 52 81 53 37 55 69 56 49 57 68 58
REMARK SMILES IDX 50 59 53 60 67 61 86 62 51 63 52 64 66 66 87 67 54 68 38 69
REMARK SMILES IDX 39 70 47 71 40 72 41 73 45 74 48 75 42 76 43 77 46 78 44 79
REMARK SMILES IDX 70 80 71 81 79 82 72 83 73 84 77 85 80 86 74 87 75 88 78 89
REMARK SMILES IDX 76 90 55 91 56 92 64 93 57 94 58 95 62 96 65 97 59 98 60 99
REMARK SMILES IDX 63 100 61 101
REMARK H PARENT 22 5 1 27 1 28 18 30 26 35 85 54 53 65
REMARK Flexibility Score: inf
ROOT
ATOM      1  C   UNL A   1      36.944  23.385  26.160  1.00  0.00     0.118 C 
ENDROOT
BRANCH   1   2
ATOM      2  N   UNL A   1      36.856  21.953  25.918  1.00  0.00    -0.352 N 
ATOM      3  C   UNL A   1      35.926  21.160  25.287  1.00  0.00     0.255 C 
ATOM      4  O   UNL A   1      36.230  19.975  25.119  1.00  0.00    -0.269 OA
ATOM      5  H   UNL A   1      37.619  21.448  26.281  1.00  0.00     0.163 HD
BRANCH   3   6
ATOM      6  C   UNL A   1      34.601  21.622  24.771  1.00  0.00     0.082 A 
ATOM      7  C   UNL A   1      33.217  22.987  23.272  1.00  0.00     0.019 A 
ATOM      8  C   UNL A   1      32.060  22.422  23.798  1.00  0.00     0.016 A 
ATOM      9  C   UNL A   1      34.460  22.630  23.820  1.00  0.00     0.029 A 
ATOM     10  C   UNL A   1      32.161  21.460  24.805  1.00  0.00     0.048 A 
ATOM     11  C   UNL A   1      33.416  21.051  25.270  1.00  0.00     0.128 A 
BRANCH   7  12
ATOM     12  C   UNL A   1      33.188  23.977  22.187  1.00  0.00     0.144 A 
ATOM     13  N   UNL A   1      32.771  25.305  22.337  1.00  0.00    -0.300 N 
ATOM     14  C   UNL A   1      32.460  25.756  21.074  1.00  0.00     0.113 A 
ATOM     15  C   UNL A   1      32.866  24.764  20.216  1.00  0.00     0.132 A 
ATOM     16  N   UNL A   1      33.335  23.681  20.908  1.00  0.00    -0.236 NA
BRANCH  13  17
ATOM     17  C   UNL A   1      32.604  26.039  23.544  1.00  0.00     0.047 A 
ATOM     18  C   UNL A   1      32.305  27.632  25.817  1.00  0.00     0.082 A 
ATOM     19  C   UNL A   1      31.186  27.305  25.046  1.00  0.00     0.024 A 
ATOM     20  C   UNL A   1      33.571  27.149  25.472  1.00  0.00     0.024 A 
ATOM     21  C   UNL A   1      31.335  26.515  23.904  1.00  0.00     0.028 A 
ATOM     22  C   UNL A   1      33.718  26.328  24.347  1.00  0.00     0.028 A 
BRANCH  18  23
ATOM     23  S   UNL A   1      32.071  28.692  27.217  1.00  0.00     0.238 S 
ATOM     24  O   UNL A   1      31.327  27.974  28.211  1.00  0.00    -0.207 OA
ATOM     25  O   UNL A   1      31.685  30.002  26.725  1.00  0.00    -0.207 OA
BRANCH  23  26
ATOM     26  N   UNL A   1      33.616  28.910  27.848  1.00  0.00    -0.225 NA
ATOM     27  H   UNL A   1      33.605  28.706  28.847  1.00  0.00     0.137 HD
ATOM     28  H   UNL A   1      33.909  29.876  27.701  1.00  0.00     0.137 HD
ENDBRANCH  23  26
ENDBRANCH  18  23
ENDBRANCH  13  17
ENDBRANCH   7  12
BRANCH  11  29
ATOM     29  O   UNL A   1      33.399  20.080  26.238  1.00  0.00    -0.507 OA
ATOM     30  H   UNL A   1      32.652  19.522  26.329  1.00  0.00     0.293 HD
ENDBRANCH  11  29
ENDBRANCH   3   6
ENDBRANCH   1   2
BRANCH   1  31
ATOM     31  C   UNL A   1      38.370  23.931  25.995  1.00  0.00     0.042 C 
BRANCH  31  32
ATOM     32  C   UNL A   1      39.317  23.389  27.056  1.00  0.00     0.118 C 
BRANCH  32  33
ATOM     33  N   UNL A   1      40.562  22.882  26.475  1.00  0.00    -0.352 N 
ATOM     34  C   UNL A   1      41.673  23.584  26.055  1.00  0.00     0.251 C 
ATOM     35  H   UNL A   1      40.615  21.904  26.371  1.00  0.00     0.163 HD
ATOM     36  O   UNL A   1      42.482  23.071  25.291  1.00  0.00    -0.269 OA
BRANCH  34  37
ATOM     37  C   UNL A   1      41.865  24.966  26.526  1.00  0.00     0.039 A 
ATOM     38  C   UNL A   1      41.363  26.047  25.801  1.00  0.00     0.014 A 
ATOM     39  C   UNL A   1      42.514  25.161  27.742  1.00  0.00     0.014 A 
ATOM     40  C   UNL A   1      41.433  27.315  26.368  1.00  0.00     0.010 A 
ATOM     41  C   UNL A   1      42.426  26.376  28.373  1.00  0.00     0.010 A 
ATOM     42  C   UNL A   1      41.925  27.468  27.678  1.00  0.00    -0.014 A 
BRANCH  42  43
ATOM     43  C   UNL A   1      41.746  28.733  28.386  1.00  0.00     0.031 A 
ATOM     44  C   UNL A   1      42.827  29.709  28.093  1.00  0.00     0.074 A 
ATOM     45  C   UNL A   1      40.639  29.066  29.087  1.00  0.00     0.049 A 
ATOM     46  N   UNL A   1      43.787  30.051  28.885  1.00  0.00    -0.248 NA
ATOM     47  C   UNL A   1      42.985  30.216  26.719  1.00  0.00     0.031 C 
ATOM     48  C   UNL A   1      39.385  28.311  29.198  1.00  0.00     0.029 A 
ATOM     49  N   UNL A   1      40.357  30.207  29.783  1.00  0.00    -0.354 N 
ATOM     50  C   UNL A   1      44.517  31.014  28.197  1.00  0.00     0.074 A 
ATOM     51  C   UNL A   1      44.123  30.910  26.819  1.00  0.00     0.031 C 
ATOM     52  C   UNL A   1      38.414  29.107  29.696  1.00  0.00     0.029 A 
ATOM     53  C   UNL A   1      39.011  30.361  30.109  1.00  0.00     0.049 A 
ATOM     54  H   UNL A   1      41.047  30.865  30.034  1.00  0.00     0.167 HD
ATOM     55  C   UNL A   1      45.106  32.026  28.892  1.00  0.00     0.037 A 
ATOM     56  C   UNL A   1      38.425  31.445  30.679  1.00  0.00     0.037 A 
ATOM     57  C   UNL A   1      45.142  31.706  30.301  1.00  0.00     0.049 A 
ATOM     58  C   UNL A   1      39.494  32.193  31.375  1.00  0.00     0.074 A 
ATOM     59  C   UNL A   1      45.763  30.771  31.100  1.00  0.00     0.029 A 
ATOM     60  N   UNL A   1      44.062  32.180  30.996  1.00  0.00    -0.354 N 
ATOM     61  N   UNL A   1      40.113  31.748  32.432  1.00  0.00    -0.248 NA
ATOM     62  C   UNL A   1      40.145  33.298  30.685  1.00  0.00     0.031 C 
ATOM     63  C   UNL A   1      44.867  30.533  32.189  1.00  0.00     0.029 A 
ATOM     64  C   UNL A   1      43.765  31.377  32.057  1.00  0.00     0.049 A 
ATOM     65  H   UNL A   1      43.565  32.997  30.760  1.00  0.00     0.167 HD
ATOM     66  C   UNL A   1      41.415  32.179  32.264  1.00  0.00     0.074 A 
ATOM     67  C   UNL A   1      41.331  33.268  31.298  1.00  0.00     0.031 C 
ATOM     68  C   UNL A   1      42.454  31.391  32.670  1.00  0.00     0.037 A 
BRANCH  55  69
ATOM     69  C   UNL A   1      45.110  33.478  28.442  1.00  0.00     0.064 A 
ATOM     70  C   UNL A   1      46.337  34.179  28.440  1.00  0.00     0.173 A 
ATOM     71  C   UNL A   1      43.956  34.289  28.364  1.00  0.00     0.173 A 
ATOM     72  F   UNL A   1      47.499  33.516  28.546  1.00  0.00    -0.203 F 
ATOM     73  C   UNL A   1      46.394  35.576  28.445  1.00  0.00     0.198 A 
ATOM     74  C   UNL A   1      44.019  35.680  28.317  1.00  0.00     0.198 A 
ATOM     75  F   UNL A   1      42.720  33.790  28.457  1.00  0.00    -0.203 F 
ATOM     76  F   UNL A   1      47.574  36.194  28.583  1.00  0.00    -0.200 F 
ATOM     77  C   UNL A   1      45.234  36.326  28.388  1.00  0.00     0.200 A 
ATOM     78  F   UNL A   1      42.880  36.389  28.296  1.00  0.00    -0.200 F 
ATOM     79  F   UNL A   1      45.279  37.662  28.458  1.00  0.00    -0.200 F 
ENDBRANCH  55  69
BRANCH  56  80
ATOM     80  C   UNL A   1      37.066  32.009  30.489  1.00  0.00     0.064 A 
ATOM     81  C   UNL A   1      36.092  31.905  31.497  1.00  0.00     0.173 A 
ATOM     82  C   UNL A   1      36.795  32.925  29.455  1.00  0.00     0.173 A 
ATOM     83  F   UNL A   1      36.282  31.082  32.539  1.00  0.00    -0.203 F 
ATOM     84  C   UNL A   1      34.945  32.707  31.501  1.00  0.00     0.198 A 
ATOM     85  C   UNL A   1      35.648  33.722  29.456  1.00  0.00     0.198 A 
ATOM     86  F   UNL A   1      37.688  33.140  28.477  1.00  0.00    -0.203 F 
ATOM     87  F   UNL A   1      34.081  32.635  32.524  1.00  0.00    -0.200 F 
ATOM     88  C   UNL A   1      34.733  33.626  30.489  1.00  0.00     0.200 A 
ATOM     89  F   UNL A   1      35.470  34.632  28.489  1.00  0.00    -0.200 F 
ATOM     90  F   UNL A   1      33.675  34.449  30.531  1.00  0.00    -0.200 F 
ENDBRANCH  56  80
BRANCH  68  91
ATOM     91  C   UNL A   1      42.172  30.371  33.730  1.00  0.00     0.064 A 
ATOM     92  C   UNL A   1      41.744  29.053  33.493  1.00  0.00     0.173 A 
ATOM     93  C   UNL A   1      42.429  30.739  35.059  1.00  0.00     0.173 A 
ATOM     94  F   UNL A   1      41.556  28.599  32.247  1.00  0.00    -0.203 F 
ATOM     95  C   UNL A   1      41.543  28.165  34.549  1.00  0.00     0.198 A 
ATOM     96  C   UNL A   1      42.266  29.838  36.104  1.00  0.00     0.198 A 
ATOM     97  F   UNL A   1      42.877  31.973  35.338  1.00  0.00    -0.203 F 
ATOM     98  F   UNL A   1      41.111  26.918  34.304  1.00  0.00    -0.200 F 
ATOM     99  C   UNL A   1      41.811  28.555  35.851  1.00  0.00     0.200 A 
ATOM    100  F   UNL A   1      42.571  30.210  37.355  1.00  0.00    -0.200 F 
ATOM    101  F   UNL A   1      41.651  27.690  36.861  1.00  0.00    -0.200 F 
ENDBRANCH  68  91
ENDBRANCH  42  43
ENDBRANCH  34  37
ENDBRANCH  32  33
ENDBRANCH  31  32
ENDBRANCH   1  31
TORSDOF 15
ENDMDL
MODEL 2
REMARK VINA RESULT:     -13.2      3.455      8.957
REMARK SMILES NS(=O)(=O)c1ccc(-n2ccnc2-c2ccc(O)c(C(=O)NCCCNC(=O)c3ccc(-c4c5nc(c(-c6c(F)c(F)c(F)c(F)c6F)c6ccc([nH]6)c(-c6c(F)c(F)c(F)c(F)c6F)c6nc(c(-c7c(F)c(F)c(F)c(F)c7F)c7ccc4[nH]7)C=C6)C=C5)cc3)c2)cc1
REMARK SMILES IDX 23 1 22 2 20 3 21 4 19 6 14 7 15 8 92 9 16 10 17 11 13 12
REMARK SMILES IDX 9 13 10 14 11 15 12 16 8 17 5 18 6 19 94 20 7 21 93 22 2 23
REMARK SMILES IDX 3 24 4 25 1 26 18 29 24 31 25 32 26 33 27 34 28 36 29 37
REMARK SMILES IDX 30 38 91 39 31 40 90 41 32 42 33 43 34 44 84 45 35 46 89 47
REMARK SMILES IDX 83 48 85 49 36 50 88 51 82 52 81 53 37 55 69 56 49 57 68 58
REMARK SMILES IDX 50 59 53 60 67 61 86 62 51 63 52 64 66 66 87 67 54 68 38 69
REMARK SMILES IDX 39 70 47 71 40 72 41 73 45 74 48 75 42 76 43 77 46 78 44 79
REMARK SMILES IDX 70 80 71 81 79 82 72 83 73 84 77 85 80 86 74 87 75 88 78 89
REMARK SMILES IDX 76 90 55 91 56 92 64 93 57 94 58 95 62 96 65 97 59 98 60 99
REMARK SMILES IDX 63 100 61 101
REMARK H PARENT 22 5 1 27 1 28 18 30 26 35 85 54 53 65
REMARK Flexibility Score: inf
ROOT
ATOM      1  C   UNL A   1      34.148  29.152  26.249  1.00  0.00     0.118 C 
ENDROOT
BRANCH   1   2
ATOM      2  N   UNL A   1      33.033  30.014  25.889  1.00  0.00    -0.352 N 
ATOM      3  C   UNL A   1      31.802  29.776  25.321  1.00  0.00     0.255 C 
ATOM      4  O   UNL A   1      31.014  30.725  25.287  1.00  0.00    -0.269 OA
ATOM      5  H   UNL A   1      33.192  30.964  26.092  1.00  0.00     0.163 HD
BRANCH   3   6
ATOM      6  C   UNL A   1      31.341  28.464  24.774  1.00  0.00     0.082 A 
ATOM      7  C   UNL A   1      30.658  26.121  25.050  1.00  0.00     0.019 A 
ATOM      8  C   UNL A   1      30.417  26.013  23.683  1.00  0.00     0.016 A 
ATOM      9  C   UNL A   1      31.185  27.321  25.556  1.00  0.00     0.029 A 
ATOM     10  C   UNL A   1      30.632  27.119  22.858  1.00  0.00     0.048 A 
ATOM     11  C   UNL A   1      31.068  28.333  23.400  1.00  0.00     0.128 A 
BRANCH   7  12
ATOM     12  C   UNL A   1      30.419  25.012  25.982  1.00  0.00     0.144 A 
ATOM     13  N   UNL A   1      31.201  23.853  26.053  1.00  0.00    -0.300 N 
ATOM     14  C   UNL A   1      30.428  22.905  26.684  1.00  0.00     0.113 A 
ATOM     15  C   UNL A   1      29.309  23.569  27.120  1.00  0.00     0.132 A 
ATOM     16  N   UNL A   1      29.321  24.873  26.704  1.00  0.00    -0.236 NA
BRANCH  13  17
ATOM     17  C   UNL A   1      32.499  23.638  25.509  1.00  0.00     0.047 A 
ATOM     18  C   UNL A   1      35.062  23.076  24.558  1.00  0.00     0.082 A 
ATOM     19  C   UNL A   1      33.950  22.499  23.939  1.00  0.00     0.024 A 
ATOM     20  C   UNL A   1      34.901  23.951  25.638  1.00  0.00     0.024 A 
ATOM     21  C   UNL A   1      32.667  22.773  24.419  1.00  0.00     0.028 A 
ATOM     22  C   UNL A   1      33.614  24.254  26.099  1.00  0.00     0.028 A 
BRANCH  18  23
ATOM     23  S   UNL A   1      36.670  22.642  23.954  1.00  0.00     0.238 S 
ATOM     24  O   UNL A   1      36.757  23.031  22.576  1.00  0.00    -0.207 OA
ATOM     25  O   UNL A   1      36.978  21.305  24.425  1.00  0.00    -0.207 OA
BRANCH  23  26
ATOM     26  N   UNL A   1      37.726  23.647  24.796  1.00  0.00    -0.225 NA
ATOM     27  H   UNL A   1      37.315  23.890  25.697  1.00  0.00     0.137 HD
ATOM     28  H   UNL A   1      37.889  24.497  24.256  1.00  0.00     0.137 HD
ENDBRANCH  23  26
ENDBRANCH  18  23
ENDBRANCH  13  17
ENDBRANCH   7  12
BRANCH  11  29
ATOM     29  O   UNL A   1      31.218  29.360  22.504  1.00  0.00    -0.507 OA
ATOM     30  H   UNL A   1      30.965  30.230  22.741  1.00  0.00     0.293 HD
ENDBRANCH  11  29
ENDBRANCH   3   6
ENDBRANCH   1   2
BRANCH   1  31
ATOM     31  C   UNL A   1      34.709  29.456  27.645  1.00  0.00     0.042 C 
BRANCH  31  32
ATOM     32  C   UNL A   1      35.513  30.746  27.671  1.00  0.00     0.118 C 
BRANCH  32  33
ATOM     33  N   UNL A   1      35.112  31.624  28.774  1.00  0.00    -0.352 N 
ATOM     34  C   UNL A   1      35.516  31.601  30.092  1.00  0.00     0.251 C 
ATOM     35  H   UNL A   1      34.464  32.328  28.541  1.00  0.00     0.163 HD
ATOM     36  O   UNL A   1      34.853  32.163  30.956  1.00  0.00    -0.269 OA
BRANCH  34  37
ATOM     37  C   UNL A   1      36.748  30.880  30.449  1.00  0.00     0.039 A 
ATOM     38  C   UNL A   1      36.716  29.524  30.780  1.00  0.00     0.014 A 
ATOM     39  C   UNL A   1      37.954  31.573  30.396  1.00  0.00     0.014 A 
ATOM     40  C   UNL A   1      37.922  28.855  30.953  1.00  0.00     0.010 A 
ATOM     41  C   UNL A   1      39.138  30.879  30.394  1.00  0.00     0.010 A 
ATOM     42  C   UNL A   1      39.135  29.529  30.713  1.00  0.00    -0.014 A 
BRANCH  42  43
ATOM     43  C   UNL A   1      40.385  28.779  30.616  1.00  0.00     0.031 A 
ATOM     44  C   UNL A   1      41.051  28.607  31.932  1.00  0.00     0.074 A 
ATOM     45  C   UNL A   1      40.812  28.146  29.500  1.00  0.00     0.049 A 
ATOM     46  N   UNL A   1      42.110  29.221  32.343  1.00  0.00    -0.248 NA
ATOM     47  C   UNL A   1      40.376  27.827  32.984  1.00  0.00     0.031 C 
ATOM     48  C   UNL A   1      40.096  27.989  28.228  1.00  0.00     0.029 A 
ATOM     49  N   UNL A   1      41.948  27.419  29.288  1.00  0.00    -0.354 N 
ATOM     50  C   UNL A   1      42.379  28.706  33.605  1.00  0.00     0.074 A 
ATOM     51  C   UNL A   1      41.180  28.037  34.031  1.00  0.00     0.031 C 
ATOM     52  C   UNL A   1      40.689  27.031  27.484  1.00  0.00     0.029 A 
ATOM     53  C   UNL A   1      41.922  26.636  28.137  1.00  0.00     0.049 A 
ATOM     54  H   UNL A   1      42.722  27.447  29.898  1.00  0.00     0.167 HD
ATOM     55  C   UNL A   1      43.673  28.585  34.013  1.00  0.00     0.037 A 
ATOM     56  C   UNL A   1      42.847  25.723  27.745  1.00  0.00     0.037 A 
ATOM     57  C   UNL A   1      44.539  29.358  33.154  1.00  0.00     0.049 A 
ATOM     58  C   UNL A   1      44.111  26.075  28.428  1.00  0.00     0.074 A 
ATOM     59  C   UNL A   1      44.736  30.691  32.867  1.00  0.00     0.029 A 
ATOM     60  N   UNL A   1      45.055  28.639  32.110  1.00  0.00    -0.354 N 
ATOM     61  N   UNL A   1      44.797  27.152  28.164  1.00  0.00    -0.248 NA
ATOM     62  C   UNL A   1      44.443  25.411  29.681  1.00  0.00     0.031 C 
ATOM     63  C   UNL A   1      45.161  30.737  31.503  1.00  0.00     0.029 A 
ATOM     64  C   UNL A   1      45.278  29.433  31.023  1.00  0.00     0.049 A 
ATOM     65  H   UNL A   1      45.241  27.672  32.139  1.00  0.00     0.167 HD
ATOM     66  C   UNL A   1      45.286  27.548  29.394  1.00  0.00     0.074 A 
ATOM     67  C   UNL A   1      45.203  26.359  30.234  1.00  0.00     0.031 C 
ATOM     68  C   UNL A   1      45.390  28.876  29.692  1.00  0.00     0.037 A 
BRANCH  55  69
ATOM     69  C   UNL A   1      44.220  27.379  34.759  1.00  0.00     0.064 A 
ATOM     70  C   UNL A   1      44.001  26.094  34.214  1.00  0.00     0.173 A 
ATOM     71  C   UNL A   1      44.616  27.395  36.115  1.00  0.00     0.173 A 
ATOM     72  F   UNL A   1      43.588  25.955  32.944  1.00  0.00    -0.203 F 
ATOM     73  C   UNL A   1      44.090  24.933  34.989  1.00  0.00     0.198 A 
ATOM     74  C   UNL A   1      44.753  26.232  36.870  1.00  0.00     0.198 A 
ATOM     75  F   UNL A   1      44.763  28.529  36.807  1.00  0.00    -0.203 F 
ATOM     76  F   UNL A   1      43.739  23.752  34.463  1.00  0.00    -0.200 F 
ATOM     77  C   UNL A   1      44.461  25.004  36.319  1.00  0.00     0.200 A 
ATOM     78  F   UNL A   1      45.082  26.327  38.168  1.00  0.00    -0.200 F 
ATOM     79  F   UNL A   1      44.485  23.904  37.082  1.00  0.00    -0.200 F 
ENDBRANCH  55  69
BRANCH  56  80
ATOM     80  C   UNL A   1      42.681  24.447  27.008  1.00  0.00     0.064 A 
ATOM     81  C   UNL A   1      43.159  24.303  25.693  1.00  0.00     0.173 A 
ATOM     82  C   UNL A   1      42.336  23.258  27.677  1.00  0.00     0.173 A 
ATOM     83  F   UNL A   1      43.543  25.380  24.991  1.00  0.00    -0.203 F 
ATOM     84  C   UNL A   1      43.334  23.045  25.105  1.00  0.00     0.198 A 
ATOM     85  C   UNL A   1      42.506  22.003  27.088  1.00  0.00     0.198 A 
ATOM     86  F   UNL A   1      41.925  23.284  28.954  1.00  0.00    -0.203 F 
ATOM     87  F   UNL A   1      43.871  22.947  23.880  1.00  0.00    -0.200 F 
ATOM     88  C   UNL A   1      43.023  21.896  25.810  1.00  0.00     0.200 A 
ATOM     89  F   UNL A   1      42.233  20.896  27.793  1.00  0.00    -0.200 F 
ATOM     90  F   UNL A   1      43.262  20.689  25.278  1.00  0.00    -0.200 F 
ENDBRANCH  56  80
BRANCH  68  91
ATOM     91  C   UNL A   1      45.484  29.836  28.545  1.00  0.00     0.064 A 
ATOM     92  C   UNL A   1      44.390  30.414  27.881  1.00  0.00     0.173 A 
ATOM     93  C   UNL A   1      46.768  30.244  28.155  1.00  0.00     0.173 A 
ATOM     94  F   UNL A   1      43.131  30.140  28.247  1.00  0.00    -0.203 F 
ATOM     95  C   UNL A   1      44.582  31.327  26.844  1.00  0.00     0.198 A 
ATOM     96  C   UNL A   1      46.955  31.184  27.149  1.00  0.00     0.198 A 
ATOM     97  F   UNL A   1      47.849  29.752  28.783  1.00  0.00    -0.203 F 
ATOM     98  F   UNL A   1      43.525  31.851  26.205  1.00  0.00    -0.200 F 
ATOM     99  C   UNL A   1      45.863  31.716  26.485  1.00  0.00     0.200 A 
ATOM    100  F   UNL A   1      48.195  31.588  26.839  1.00  0.00    -0.200 F 
ATOM    101  F   UNL A   1      46.046  32.619  25.512  1.00  0.00    -0.200 F 
ENDBRANCH  68  91
ENDBRANCH  42  43
ENDBRANCH  34  37
ENDBRANCH  32  33
ENDBRANCH  31  32
ENDBRANCH   1  31
TORSDOF 15
ENDMDL
MODEL 3
REMARK VINA RESULT:     -12.4      3.129      8.481
REMARK SMILES NS(=O)(=O)c1ccc(-n2ccnc2-c2ccc(O)c(C(=O)NCCCNC(=O)c3ccc(-c4c5nc(c(-c6c(F)c(F)c(F)c(F)c6F)c6ccc([nH]6)c(-c6c(F)c(F)c(F)c(F)c6F)c6nc(c(-c7c(F)c(F)c(F)c(F)c7F)c7ccc4[nH]7)C=C6)C=C5)cc3)c2)cc1
REMARK SMILES IDX 23 1 22 2 20 3 21 4 19 6 14 7 15 8 92 9 16 10 17 11 13 12
REMARK SMILES IDX 9 13 10 14 11 15 12 16 8 17 5 18 6 19 94 20 7 21 93 22 2 23
REMARK SMILES IDX 3 24 4 25 1 26 18 29 24 31 25 32 26 33 27 34 28 36 29 37
REMARK SMILES IDX 30 38 91 39 31 40 90 41 32 42 33 43 34 44 84 45 35 46 89 47
REMARK SMILES IDX 83 48 85 49 36 50 88 51 82 52 81 53 37 55 69 56 49 57 68 58
REMARK SMILES IDX 50 59 53 60 67 61 86 62 51 63 52 64 66 66 87 67 54 68 38 69
REMARK SMILES IDX 39 70 47 71 40 72 41 73 45 74 48 75 42 76 43 77 46 78 44 79
REMARK SMILES IDX 70 80 71 81 79 82 72 83 73 84 77 85 80 86 74 87 75 88 78 89
REMARK SMILES IDX 76 90 55 91 56 92 64 93 57 94 58 95 62 96 65 97 59 98 60 99
REMARK SMILES IDX 63 100 61 101
REMARK H PARENT 22 5 1 27 1 28 18 30 26 35 85 54 53 65
REMARK Flexibility Score: inf
ROOT
ATOM      1  C   UNL A   1      33.309  29.368  25.463  1.00  0.00     0.118 C 
ENDROOT
BRANCH   1   2
ATOM      2  N   UNL A   1      32.083  29.914  24.902  1.00  0.00    -0.352 N 
ATOM      3  C   UNL A   1      30.962  29.340  24.349  1.00  0.00     0.255 C 
ATOM      4  O   UNL A   1      30.016  30.094  24.101  1.00  0.00    -0.269 OA
ATOM      5  H   UNL A   1      32.049  30.898  24.920  1.00  0.00     0.163 HD
BRANCH   3   6
ATOM      6  C   UNL A   1      30.791  27.884  24.054  1.00  0.00     0.082 A 
ATOM      7  C   UNL A   1      30.531  25.547  24.759  1.00  0.00     0.019 A 
ATOM      8  C   UNL A   1      30.416  25.142  23.433  1.00  0.00     0.016 A 
ATOM      9  C   UNL A   1      30.790  26.899  25.039  1.00  0.00     0.029 A 
ATOM     10  C   UNL A   1      30.485  26.095  22.415  1.00  0.00     0.048 A 
ATOM     11  C   UNL A   1      30.649  27.450  22.723  1.00  0.00     0.128 A 
BRANCH   7  12
ATOM     12  C   UNL A   1      30.431  24.606  25.882  1.00  0.00     0.144 A 
ATOM     13  N   UNL A   1      31.329  23.559  26.121  1.00  0.00    -0.300 N 
ATOM     14  C   UNL A   1      30.673  22.670  26.943  1.00  0.00     0.113 A 
ATOM     15  C   UNL A   1      29.504  23.291  27.304  1.00  0.00     0.132 A 
ATOM     16  N   UNL A   1      29.372  24.494  26.665  1.00  0.00    -0.236 NA
BRANCH  13  17
ATOM     17  C   UNL A   1      32.627  23.375  25.568  1.00  0.00     0.047 A 
ATOM     18  C   UNL A   1      35.214  22.913  24.628  1.00  0.00     0.082 A 
ATOM     19  C   UNL A   1      34.175  22.056  24.252  1.00  0.00     0.024 A 
ATOM     20  C   UNL A   1      34.965  24.013  25.454  1.00  0.00     0.024 A 
ATOM     21  C   UNL A   1      32.881  22.281  24.728  1.00  0.00     0.028 A 
ATOM     22  C   UNL A   1      33.662  24.261  25.904  1.00  0.00     0.028 A 
BRANCH  18  23
ATOM     23  S   UNL A   1      36.848  22.543  24.051  1.00  0.00     0.238 S 
ATOM     24  O   UNL A   1      36.948  22.951  22.680  1.00  0.00    -0.207 OA
ATOM     25  O   UNL A   1      37.194  21.211  24.513  1.00  0.00    -0.207 OA
BRANCH  23  26
ATOM     26  N   UNL A   1      37.850  23.574  24.925  1.00  0.00    -0.225 NA
ATOM     27  H   UNL A   1      37.572  23.565  25.906  1.00  0.00     0.137 HD
ATOM     28  H   UNL A   1      37.767  24.522  24.557  1.00  0.00     0.137 HD
ENDBRANCH  23  26
ENDBRANCH  18  23
ENDBRANCH  13  17
ENDBRANCH   7  12
BRANCH  11  29
ATOM     29  O   UNL A   1      30.675  28.301  21.648  1.00  0.00    -0.507 OA
ATOM     30  H   UNL A   1      30.223  29.121  21.690  1.00  0.00     0.293 HD
ENDBRANCH  11  29
ENDBRANCH   3   6
ENDBRANCH   1   2
BRANCH   1  31
ATOM     31  C   UNL A   1      33.083  28.648  26.800  1.00  0.00     0.042 C 
BRANCH  31  32
ATOM     32  C   UNL A   1      33.703  29.399  27.968  1.00  0.00     0.118 C 
BRANCH  32  33
ATOM     33  N   UNL A   1      33.618  30.852  27.796  1.00  0.00    -0.352 N 
ATOM     34  C   UNL A   1      34.575  31.813  28.048  1.00  0.00     0.251 C 
ATOM     35  H   UNL A   1      32.759  31.189  27.452  1.00  0.00     0.163 HD
ATOM     36  O   UNL A   1      34.256  32.989  28.181  1.00  0.00    -0.269 OA
BRANCH  34  37
ATOM     37  C   UNL A   1      35.984  31.404  28.168  1.00  0.00     0.039 A 
ATOM     38  C   UNL A   1      36.900  32.185  28.875  1.00  0.00     0.014 A 
ATOM     39  C   UNL A   1      36.366  30.190  27.604  1.00  0.00     0.014 A 
ATOM     40  C   UNL A   1      38.176  31.676  29.092  1.00  0.00     0.010 A 
ATOM     41  C   UNL A   1      37.559  29.617  27.966  1.00  0.00     0.010 A 
ATOM     42  C   UNL A   1      38.486  30.369  28.674  1.00  0.00    -0.014 A 
BRANCH  42  43
ATOM     43  C   UNL A   1      39.712  29.722  29.137  1.00  0.00     0.031 A 
ATOM     44  C   UNL A   1      39.865  29.779  30.613  1.00  0.00     0.074 A 
ATOM     45  C   UNL A   1      40.533  28.989  28.352  1.00  0.00     0.049 A 
ATOM     46  N   UNL A   1      40.684  30.529  31.272  1.00  0.00    -0.248 NA
ATOM     47  C   UNL A   1      38.883  29.087  31.466  1.00  0.00     0.031 C 
ATOM     48  C   UNL A   1      40.329  28.609  26.949  1.00  0.00     0.029 A 
ATOM     49  N   UNL A   1      41.693  28.341  28.665  1.00  0.00    -0.354 N 
ATOM     50  C   UNL A   1      40.497  30.207  32.611  1.00  0.00     0.074 A 
ATOM     51  C   UNL A   1      39.249  29.498  32.684  1.00  0.00     0.031 C 
ATOM     52  C   UNL A   1      41.182  27.616  26.615  1.00  0.00     0.029 A 
ATOM     53  C   UNL A   1      42.109  27.416  27.711  1.00  0.00     0.049 A 
ATOM     54  H   UNL A   1      42.194  28.513  29.497  1.00  0.00     0.167 HD
ATOM     55  C   UNL A   1      41.561  30.250  33.461  1.00  0.00     0.037 A 
ATOM     56  C   UNL A   1      43.144  26.543  27.812  1.00  0.00     0.037 A 
ATOM     57  C   UNL A   1      42.652  30.977  32.854  1.00  0.00     0.049 A 
ATOM     58  C   UNL A   1      44.064  27.086  28.833  1.00  0.00     0.074 A 
ATOM     59  C   UNL A   1      42.894  32.273  32.456  1.00  0.00     0.029 A 
ATOM     60  N   UNL A   1      43.533  30.175  32.179  1.00  0.00    -0.354 N 
ATOM     61  N   UNL A   1      44.762  28.175  28.668  1.00  0.00    -0.248 NA
ATOM     62  C   UNL A   1      43.945  26.621  30.208  1.00  0.00     0.031 C 
ATOM     63  C   UNL A   1      43.780  32.179  31.339  1.00  0.00     0.029 A 
ATOM     64  C   UNL A   1      44.106  30.839  31.134  1.00  0.00     0.049 A 
ATOM     65  H   UNL A   1      43.728  29.240  32.418  1.00  0.00     0.167 HD
ATOM     66  C   UNL A   1      44.762  28.767  29.916  1.00  0.00     0.074 A 
ATOM     67  C   UNL A   1      44.422  27.694  30.843  1.00  0.00     0.031 C 
ATOM     68  C   UNL A   1      44.708  30.126  30.028  1.00  0.00     0.037 A 
BRANCH  55  69
ATOM     69  C   UNL A   1      41.843  29.201  34.525  1.00  0.00     0.064 A 
ATOM     70  C   UNL A   1      42.506  29.602  35.705  1.00  0.00     0.173 A 
ATOM     71  C   UNL A   1      41.821  27.809  34.293  1.00  0.00     0.173 A 
ATOM     72  F   UNL A   1      42.621  30.904  36.013  1.00  0.00    -0.203 F 
ATOM     73  C   UNL A   1      43.163  28.688  36.536  1.00  0.00     0.198 A 
ATOM     74  C   UNL A   1      42.433  26.895  35.150  1.00  0.00     0.198 A 
ATOM     75  F   UNL A   1      41.324  27.274  33.172  1.00  0.00    -0.203 F 
ATOM     76  F   UNL A   1      43.894  29.130  37.567  1.00  0.00    -0.200 F 
ATOM     77  C   UNL A   1      43.130  27.335  36.254  1.00  0.00     0.200 A 
ATOM     78  F   UNL A   1      42.417  25.591  34.839  1.00  0.00    -0.200 F 
ATOM     79  F   UNL A   1      43.810  26.463  37.007  1.00  0.00    -0.200 F 
ENDBRANCH  55  69
BRANCH  56  80
ATOM     80  C   UNL A   1      43.297  25.172  27.265  1.00  0.00     0.064 A 
ATOM     81  C   UNL A   1      42.656  24.076  27.870  1.00  0.00     0.173 A 
ATOM     82  C   UNL A   1      43.812  24.956  25.973  1.00  0.00     0.173 A 
ATOM     83  F   UNL A   1      42.107  24.201  29.087  1.00  0.00    -0.203 F 
ATOM     84  C   UNL A   1      42.492  22.857  27.202  1.00  0.00     0.198 A 
ATOM     85  C   UNL A   1      43.652  23.738  25.309  1.00  0.00     0.198 A 
ATOM     86  F   UNL A   1      44.389  25.955  25.289  1.00  0.00    -0.203 F 
ATOM     87  F   UNL A   1      41.803  21.864  27.782  1.00  0.00    -0.200 F 
ATOM     88  C   UNL A   1      42.975  22.696  25.916  1.00  0.00     0.200 A 
ATOM     89  F   UNL A   1      44.094  23.605  24.051  1.00  0.00    -0.200 F 
ATOM     90  F   UNL A   1      42.751  21.557  25.245  1.00  0.00    -0.200 F 
ENDBRANCH  56  80
BRANCH  68  91
ATOM     91  C   UNL A   1      45.177  30.934  28.855  1.00  0.00     0.064 A 
ATOM     92  C   UNL A   1      44.366  31.365  27.793  1.00  0.00     0.173 A 
ATOM     93  C   UNL A   1      46.515  31.354  28.862  1.00  0.00     0.173 A 
ATOM     94  F   UNL A   1      43.059  31.076  27.755  1.00  0.00    -0.203 F 
ATOM     95  C   UNL A   1      44.890  32.146  26.762  1.00  0.00     0.198 A 
ATOM     96  C   UNL A   1      47.023  32.166  27.855  1.00  0.00     0.198 A 
ATOM     97  F   UNL A   1      47.324  31.004  29.874  1.00  0.00    -0.203 F 
ATOM     98  F   UNL A   1      44.106  32.528  25.743  1.00  0.00    -0.200 F 
ATOM     99  C   UNL A   1      46.215  32.551  26.799  1.00  0.00     0.200 A 
ATOM    100  F   UNL A   1      48.293  32.591  27.921  1.00  0.00    -0.200 F 
ATOM    101  F   UNL A   1      46.709  33.330  25.827  1.00  0.00    -0.200 F 
ENDBRANCH  68  91
ENDBRANCH  42  43
ENDBRANCH  34  37
ENDBRANCH  32  33
ENDBRANCH  31  32
ENDBRANCH   1  31
TORSDOF 15
ENDMDL
