MODEL 1
REMARK VINA RESULT:     -11.4      0.000      0.000
REMARK SMILES CC[C@](C)(Nc1ncnc(OC)c1[N+](=O)[O-])C(=O)NCCCNC(=O)c1ccc(-c2c3nc(c(-c4c(F)c(F)c(F)c(F)c4F)c4ccc([nH]4)c(-c4c(F)c(F)c(F)c(F)c4F)c4nc(c(-c5c(F)c(F)c(F)c(F)c5F)c5ccc2[nH]5)C=C4)C=C3)cc1
REMARK SMILES IDX 20 1 19 2 17 3 18 4 3 6 4 7 2 8 1 9 5 10 6 12 7 13 13 14
REMARK SMILES IDX 8 15 10 16 9 17 14 18 15 19 16 20 11 21 12 22 21 23 22 24
REMARK SMILES IDX 23 25 24 26 25 28 26 29 27 30 88 31 28 32 87 33 29 34 30 35
REMARK SMILES IDX 31 36 81 37 32 38 86 39 80 40 82 41 33 42 85 43 79 44 78 45
REMARK SMILES IDX 34 47 66 48 46 49 65 50 47 51 50 52 64 53 83 54 48 55 49 56
REMARK SMILES IDX 63 58 84 59 51 60 35 61 36 62 44 63 37 64 38 65 42 66 45 67
REMARK SMILES IDX 39 68 40 69 43 70 41 71 67 72 68 73 76 74 69 75 70 76 74 77
REMARK SMILES IDX 77 78 71 79 72 80 75 81 73 82 52 83 53 84 61 85 54 86 55 87
REMARK SMILES IDX 59 88 62 89 56 90 57 91 60 92 58 93
REMARK H PARENT 19 5 5 11 23 27 82 46 50 57
REMARK Flexibility Score: inf
ROOT
ATOM      1  C   UNL A   1      31.347  30.772  26.158  1.00  0.00     0.117 C 
ENDROOT
BRANCH   1   2
ATOM      2  N   UNL A   1      32.319  30.332  25.170  1.00  0.00    -0.354 N 
ATOM      3  C   UNL A   1      32.797  29.114  24.774  1.00  0.00     0.245 C 
ATOM      4  O   UNL A   1      33.223  29.059  23.614  1.00  0.00    -0.272 OA
ATOM      5  H   UNL A   1      32.724  31.080  24.676  1.00  0.00     0.163 HD
BRANCH   3   6
ATOM      6  C   UNL A   1      32.882  27.866  25.697  1.00  0.00     0.115 C 
ATOM      7  C   UNL A   1      31.498  27.203  25.887  1.00  0.00     0.045 C 
BRANCH   6   8
ATOM      8  C   UNL A   1      33.402  28.292  27.102  1.00  0.00     0.035 C 
ATOM      9  C   UNL A   1      34.736  29.037  27.097  1.00  0.00     0.007 C 
ENDBRANCH   6   8
BRANCH   6  10
ATOM     10  N   UNL A   1      33.787  26.836  25.160  1.00  0.00    -0.350 N 
ATOM     11  H   UNL A   1      34.697  27.186  25.024  1.00  0.00     0.163 HD
BRANCH  10  12
ATOM     12  C   UNL A   1      33.693  25.528  24.803  1.00  0.00     0.213 A 
ATOM     13  N   UNL A   1      34.008  24.771  25.880  1.00  0.00    -0.212 NA
ATOM     14  C   UNL A   1      33.408  24.895  23.607  1.00  0.00     0.372 A 
ATOM     15  C   UNL A   1      34.046  23.437  25.747  1.00  0.00     0.228 A 
ATOM     16  C   UNL A   1      33.547  23.516  23.535  1.00  0.00     0.299 A 
ATOM     17  N   UNL A   1      33.865  22.771  24.608  1.00  0.00    -0.196 NA
BRANCH  14  18
ATOM     18  N   UNL A   1      32.902  25.563  22.458  1.00  0.00     0.072 N 
ATOM     19  O   UNL A   1      31.673  25.622  22.339  1.00  0.00    -0.258 OA
ATOM     20  O   UNL A   1      33.729  25.943  21.617  1.00  0.00    -0.258 OA
ENDBRANCH  14  18
BRANCH  16  21
ATOM     21  O   UNL A   1      33.262  22.741  22.444  1.00  0.00    -0.476 OA
ATOM     22  C   UNL A   1      32.270  21.734  22.631  1.00  0.00     0.280 C 
ENDBRANCH  16  21
ENDBRANCH  10  12
ENDBRANCH   6  10
ENDBRANCH   3   6
ENDBRANCH   1   2
BRANCH   1  23
ATOM     23  C   UNL A   1      31.274  32.258  26.518  1.00  0.00     0.042 C 
BRANCH  23  24
ATOM     24  C   UNL A   1      32.477  32.905  27.215  1.00  0.00     0.118 C 
BRANCH  24  25
ATOM     25  N   UNL A   1      32.258  34.258  27.697  1.00  0.00    -0.352 N 
ATOM     26  C   UNL A   1      32.972  34.988  28.619  1.00  0.00     0.251 C 
ATOM     27  H   UNL A   1      31.483  34.721  27.306  1.00  0.00     0.163 HD
ATOM     28  O   UNL A   1      32.618  36.128  28.904  1.00  0.00    -0.269 OA
BRANCH  26  29
ATOM     29  C   UNL A   1      34.161  34.419  29.298  1.00  0.00     0.039 A 
ATOM     30  C   UNL A   1      34.003  33.810  30.546  1.00  0.00     0.014 A 
ATOM     31  C   UNL A   1      35.441  34.565  28.762  1.00  0.00     0.014 A 
ATOM     32  C   UNL A   1      35.115  33.292  31.221  1.00  0.00     0.010 A 
ATOM     33  C   UNL A   1      36.550  34.021  29.420  1.00  0.00     0.010 A 
ATOM     34  C   UNL A   1      36.399  33.366  30.652  1.00  0.00    -0.014 A 
BRANCH  34  35
ATOM     35  C   UNL A   1      37.565  32.700  31.299  1.00  0.00     0.031 A 
ATOM     36  C   UNL A   1      38.271  31.539  30.650  1.00  0.00     0.074 A 
ATOM     37  C   UNL A   1      37.954  33.108  32.523  1.00  0.00     0.049 A 
ATOM     38  N   UNL A   1      39.265  30.816  31.106  1.00  0.00    -0.248 NA
ATOM     39  C   UNL A   1      37.789  31.129  29.325  1.00  0.00     0.031 C 
ATOM     40  C   UNL A   1      37.336  34.197  33.280  1.00  0.00     0.029 A 
ATOM     41  N   UNL A   1      38.947  32.648  33.354  1.00  0.00    -0.354 N 
ATOM     42  C   UNL A   1      39.527  29.864  30.128  1.00  0.00     0.074 A 
ATOM     43  C   UNL A   1      38.560  30.079  29.070  1.00  0.00     0.031 C 
ATOM     44  C   UNL A   1      37.966  34.326  34.457  1.00  0.00     0.029 A 
ATOM     45  C   UNL A   1      39.007  33.307  34.558  1.00  0.00     0.049 A 
ATOM     46  H   UNL A   1      39.558  31.916  33.109  1.00  0.00     0.167 HD
ATOM     47  C   UNL A   1      40.490  28.909  30.109  1.00  0.00     0.037 A 
ATOM     48  C   UNL A   1      39.798  33.108  35.631  1.00  0.00     0.037 A 
ATOM     49  C   UNL A   1      41.456  28.698  31.159  1.00  0.00     0.049 A 
ATOM     50  C   UNL A   1      40.840  32.023  35.596  1.00  0.00     0.074 A 
ATOM     51  C   UNL A   1      42.503  27.791  31.198  1.00  0.00     0.029 A 
ATOM     52  N   UNL A   1      41.489  29.392  32.359  1.00  0.00    -0.354 N 
ATOM     53  N   UNL A   1      41.122  31.181  34.634  1.00  0.00    -0.248 NA
ATOM     54  C   UNL A   1      41.677  31.865  36.795  1.00  0.00     0.031 C 
ATOM     55  C   UNL A   1      43.136  27.901  32.442  1.00  0.00     0.029 A 
ATOM     56  C   UNL A   1      42.520  28.915  33.156  1.00  0.00     0.049 A 
ATOM     57  H   UNL A   1      40.871  30.117  32.608  1.00  0.00     0.167 HD
ATOM     58  C   UNL A   1      42.187  30.417  35.095  1.00  0.00     0.074 A 
ATOM     59  C   UNL A   1      42.505  30.900  36.422  1.00  0.00     0.031 C 
ATOM     60  C   UNL A   1      42.842  29.409  34.469  1.00  0.00     0.037 A 
BRANCH  47  61
ATOM     61  C   UNL A   1      40.557  28.004  28.911  1.00  0.00     0.064 A 
ATOM     62  C   UNL A   1      39.818  26.813  28.849  1.00  0.00     0.173 A 
ATOM     63  C   UNL A   1      41.313  28.363  27.784  1.00  0.00     0.173 A 
ATOM     64  F   UNL A   1      39.078  26.422  29.897  1.00  0.00    -0.203 F 
ATOM     65  C   UNL A   1      39.856  26.002  27.716  1.00  0.00     0.198 A 
ATOM     66  C   UNL A   1      41.326  27.566  26.643  1.00  0.00     0.198 A 
ATOM     67  F   UNL A   1      42.026  29.500  27.782  1.00  0.00    -0.203 F 
ATOM     68  F   UNL A   1      39.174  24.849  27.697  1.00  0.00    -0.200 F 
ATOM     69  C   UNL A   1      40.604  26.383  26.612  1.00  0.00     0.200 A 
ATOM     70  F   UNL A   1      42.034  27.944  25.569  1.00  0.00    -0.200 F 
ATOM     71  F   UNL A   1      40.631  25.607  25.519  1.00  0.00    -0.200 F 
ENDBRANCH  47  61
BRANCH  48  72
ATOM     72  C   UNL A   1      39.643  33.972  36.830  1.00  0.00     0.064 A 
ATOM     73  C   UNL A   1      38.868  33.555  37.921  1.00  0.00     0.173 A 
ATOM     74  C   UNL A   1      40.268  35.225  36.913  1.00  0.00     0.173 A 
ATOM     75  F   UNL A   1      38.235  32.374  37.880  1.00  0.00    -0.203 F 
ATOM     76  C   UNL A   1      38.709  34.367  39.042  1.00  0.00     0.198 A 
ATOM     77  C   UNL A   1      40.132  36.023  38.046  1.00  0.00     0.198 A 
ATOM     78  F   UNL A   1      41.025  35.667  35.898  1.00  0.00    -0.203 F 
ATOM     79  F   UNL A   1      37.928  33.963  40.054  1.00  0.00    -0.200 F 
ATOM     80  C   UNL A   1      39.347  35.597  39.107  1.00  0.00     0.200 A 
ATOM     81  F   UNL A   1      40.764  37.203  38.111  1.00  0.00    -0.200 F 
ATOM     82  F   UNL A   1      39.201  36.374  40.188  1.00  0.00    -0.200 F 
ENDBRANCH  48  72
BRANCH  60  83
ATOM     83  C   UNL A   1      44.003  28.783  35.187  1.00  0.00     0.064 A 
ATOM     84  C   UNL A   1      45.313  29.257  35.028  1.00  0.00     0.173 A 
ATOM     85  C   UNL A   1      43.791  27.730  36.091  1.00  0.00     0.173 A 
ATOM     86  F   UNL A   1      45.571  30.250  34.163  1.00  0.00    -0.203 F 
ATOM     87  C   UNL A   1      46.370  28.690  35.736  1.00  0.00     0.198 A 
ATOM     88  C   UNL A   1      44.846  27.185  36.817  1.00  0.00     0.198 A 
ATOM     89  F   UNL A   1      42.556  27.241  36.283  1.00  0.00    -0.203 F 
ATOM     90  F   UNL A   1      47.620  29.134  35.541  1.00  0.00    -0.200 F 
ATOM     91  C   UNL A   1      46.134  27.662  36.637  1.00  0.00     0.200 A 
ATOM     92  F   UNL A   1      44.614  26.199  37.697  1.00  0.00    -0.200 F 
ATOM     93  F   UNL A   1      47.151  27.127  37.327  1.00  0.00    -0.200 F 
ENDBRANCH  60  83
ENDBRANCH  34  35
ENDBRANCH  26  29
ENDBRANCH  24  25
ENDBRANCH  23  24
ENDBRANCH   1  23
TORSDOF 15
ENDMDL
MODEL 2
REMARK VINA RESULT:     -11.4      5.573     11.094
REMARK SMILES CC[C@](C)(Nc1ncnc(OC)c1[N+](=O)[O-])C(=O)NCCCNC(=O)c1ccc(-c2c3nc(c(-c4c(F)c(F)c(F)c(F)c4F)c4ccc([nH]4)c(-c4c(F)c(F)c(F)c(F)c4F)c4nc(c(-c5c(F)c(F)c(F)c(F)c5F)c5ccc2[nH]5)C=C4)C=C3)cc1
REMARK SMILES IDX 20 1 19 2 17 3 18 4 3 6 4 7 2 8 1 9 5 10 6 12 7 13 13 14
REMARK SMILES IDX 8 15 10 16 9 17 14 18 15 19 16 20 11 21 12 22 21 23 22 24
REMARK SMILES IDX 23 25 24 26 25 28 26 29 27 30 88 31 28 32 87 33 29 34 30 35
REMARK SMILES IDX 31 36 81 37 32 38 86 39 80 40 82 41 33 42 85 43 79 44 78 45
REMARK SMILES IDX 34 47 66 48 46 49 65 50 47 51 50 52 64 53 83 54 48 55 49 56
REMARK SMILES IDX 63 58 84 59 51 60 35 61 36 62 44 63 37 64 38 65 42 66 45 67
REMARK SMILES IDX 39 68 40 69 43 70 41 71 67 72 68 73 76 74 69 75 70 76 74 77
REMARK SMILES IDX 77 78 71 79 72 80 75 81 73 82 52 83 53 84 61 85 54 86 55 87
REMARK SMILES IDX 59 88 62 89 56 90 57 91 60 92 58 93
REMARK H PARENT 19 5 5 11 23 27 82 46 50 57
REMARK Flexibility Score: inf
ROOT
ATOM      1  C   UNL A   1      36.512  20.748  25.070  1.00  0.00     0.117 C 
ENDROOT
BRANCH   1   2
ATOM      2  N   UNL A   1      35.192  20.147  24.967  1.00  0.00    -0.354 N 
ATOM      3  C   UNL A   1      33.914  20.614  25.100  1.00  0.00     0.245 C 
ATOM      4  O   UNL A   1      33.048  19.986  24.478  1.00  0.00    -0.272 OA
ATOM      5  H   UNL A   1      35.226  19.187  24.755  1.00  0.00     0.163 HD
BRANCH   3   6
ATOM      6  C   UNL A   1      33.510  21.810  26.006  1.00  0.00     0.115 C 
ATOM      7  C   UNL A   1      33.736  21.493  27.503  1.00  0.00     0.045 C 
BRANCH   6   8
ATOM      8  C   UNL A   1      31.998  22.127  25.809  1.00  0.00     0.035 C 
ATOM      9  C   UNL A   1      31.359  22.948  26.927  1.00  0.00     0.007 C 
ENDBRANCH   6   8
BRANCH   6  10
ATOM     10  N   UNL A   1      34.283  23.027  25.700  1.00  0.00    -0.350 N 
ATOM     11  H   UNL A   1      35.125  23.061  26.209  1.00  0.00     0.163 HD
BRANCH  10  12
ATOM     12  C   UNL A   1      34.135  24.114  24.898  1.00  0.00     0.213 A 
ATOM     13  N   UNL A   1      34.033  25.210  25.685  1.00  0.00    -0.212 NA
ATOM     14  C   UNL A   1      34.023  24.268  23.528  1.00  0.00     0.372 A 
ATOM     15  C   UNL A   1      33.815  26.403  25.112  1.00  0.00     0.228 A 
ATOM     16  C   UNL A   1      33.719  25.525  23.023  1.00  0.00     0.299 A 
ATOM     17  N   UNL A   1      33.614  26.608  23.812  1.00  0.00    -0.196 NA
BRANCH  14  18
ATOM     18  N   UNL A   1      34.280  23.230  22.591  1.00  0.00     0.072 N 
ATOM     19  O   UNL A   1      33.302  22.624  22.140  1.00  0.00    -0.258 OA
ATOM     20  O   UNL A   1      35.468  22.945  22.378  1.00  0.00    -0.258 OA
ENDBRANCH  14  18
BRANCH  16  21
ATOM     21  O   UNL A   1      33.620  25.848  21.697  1.00  0.00    -0.476 OA
ATOM     22  C   UNL A   1      32.298  25.928  21.168  1.00  0.00     0.280 C 
ENDBRANCH  16  21
ENDBRANCH  10  12
ENDBRANCH   6  10
ENDBRANCH   3   6
ENDBRANCH   1   2
BRANCH   1  23
ATOM     23  C   UNL A   1      37.747  19.849  24.976  1.00  0.00     0.042 C 
BRANCH  23  24
ATOM     24  C   UNL A   1      38.930  20.126  25.912  1.00  0.00     0.118 C 
BRANCH  24  25
ATOM     25  N   UNL A   1      40.022  19.172  25.825  1.00  0.00    -0.352 N 
ATOM     26  C   UNL A   1      41.373  19.365  26.003  1.00  0.00     0.251 C 
ATOM     27  H   UNL A   1      39.757  18.250  25.607  1.00  0.00     0.163 HD
ATOM     28  O   UNL A   1      42.148  18.422  25.876  1.00  0.00    -0.269 OA
BRANCH  26  29
ATOM     29  C   UNL A   1      41.923  20.702  26.328  1.00  0.00     0.039 A 
ATOM     30  C   UNL A   1      42.255  21.571  25.285  1.00  0.00     0.014 A 
ATOM     31  C   UNL A   1      42.205  21.070  27.645  1.00  0.00     0.014 A 
ATOM     32  C   UNL A   1      42.805  22.829  25.567  1.00  0.00     0.010 A 
ATOM     33  C   UNL A   1      42.726  22.337  27.930  1.00  0.00     0.010 A 
ATOM     34  C   UNL A   1      43.019  23.238  26.895  1.00  0.00    -0.014 A 
BRANCH  34  35
ATOM     35  C   UNL A   1      43.477  24.622  27.208  1.00  0.00     0.031 A 
ATOM     36  C   UNL A   1      42.533  25.662  27.749  1.00  0.00     0.074 A 
ATOM     37  C   UNL A   1      44.753  24.964  26.937  1.00  0.00     0.049 A 
ATOM     38  N   UNL A   1      42.761  26.924  28.022  1.00  0.00    -0.248 NA
ATOM     39  C   UNL A   1      41.152  25.232  28.006  1.00  0.00     0.031 C 
ATOM     40  C   UNL A   1      45.762  24.066  26.378  1.00  0.00     0.029 A 
ATOM     41  N   UNL A   1      45.414  26.161  27.079  1.00  0.00    -0.354 N 
ATOM     42  C   UNL A   1      41.555  27.441  28.478  1.00  0.00     0.074 A 
ATOM     43  C   UNL A   1      40.588  26.363  28.409  1.00  0.00     0.031 C 
ATOM     44  C   UNL A   1      46.915  24.737  26.231  1.00  0.00     0.029 A 
ATOM     45  C   UNL A   1      46.718  26.124  26.648  1.00  0.00     0.049 A 
ATOM     46  H   UNL A   1      44.993  26.968  27.454  1.00  0.00     0.167 HD
ATOM     47  C   UNL A   1      41.282  28.693  28.923  1.00  0.00     0.037 A 
ATOM     48  C   UNL A   1      47.650  27.094  26.579  1.00  0.00     0.037 A 
ATOM     49  C   UNL A   1      42.244  29.765  28.997  1.00  0.00     0.049 A 
ATOM     50  C   UNL A   1      47.313  28.482  27.053  1.00  0.00     0.074 A 
ATOM     51  C   UNL A   1      42.069  31.049  29.488  1.00  0.00     0.029 A 
ATOM     52  N   UNL A   1      43.557  29.684  28.559  1.00  0.00    -0.354 N 
ATOM     53  N   UNL A   1      46.190  28.936  27.550  1.00  0.00    -0.248 NA
ATOM     54  C   UNL A   1      48.378  29.493  26.961  1.00  0.00     0.031 C 
ATOM     55  C   UNL A   1      43.260  31.759  29.299  1.00  0.00     0.029 A 
ATOM     56  C   UNL A   1      44.195  30.902  28.743  1.00  0.00     0.049 A 
ATOM     57  H   UNL A   1      43.975  28.880  28.174  1.00  0.00     0.167 HD
ATOM     58  C   UNL A   1      46.420  30.270  27.860  1.00  0.00     0.074 A 
ATOM     59  C   UNL A   1      47.793  30.553  27.501  1.00  0.00     0.031 C 
ATOM     60  C   UNL A   1      45.567  31.175  28.398  1.00  0.00     0.037 A 
BRANCH  47  61
ATOM     61  C   UNL A   1      39.877  28.988  29.370  1.00  0.00     0.064 A 
ATOM     62  C   UNL A   1      38.893  29.414  28.465  1.00  0.00     0.173 A 
ATOM     63  C   UNL A   1      39.491  28.778  30.703  1.00  0.00     0.173 A 
ATOM     64  F   UNL A   1      39.207  29.630  27.178  1.00  0.00    -0.203 F 
ATOM     65  C   UNL A   1      37.584  29.645  28.883  1.00  0.00     0.198 A 
ATOM     66  C   UNL A   1      38.176  28.982  31.112  1.00  0.00     0.198 A 
ATOM     67  F   UNL A   1      40.388  28.355  31.608  1.00  0.00    -0.203 F 
ATOM     68  F   UNL A   1      36.672  30.090  28.008  1.00  0.00    -0.200 F 
ATOM     69  C   UNL A   1      37.225  29.422  30.204  1.00  0.00     0.200 A 
ATOM     70  F   UNL A   1      37.826  28.748  32.384  1.00  0.00    -0.200 F 
ATOM     71  F   UNL A   1      35.963  29.635  30.603  1.00  0.00    -0.200 F 
ENDBRANCH  47  61
BRANCH  48  72
ATOM     72  C   UNL A   1      49.003  26.781  26.052  1.00  0.00     0.064 A 
ATOM     73  C   UNL A   1      49.992  26.238  26.884  1.00  0.00     0.173 A 
ATOM     74  C   UNL A   1      49.334  27.011  24.708  1.00  0.00     0.173 A 
ATOM     75  F   UNL A   1      49.728  26.019  28.180  1.00  0.00    -0.203 F 
ATOM     76  C   UNL A   1      51.266  25.955  26.397  1.00  0.00     0.198 A 
ATOM     77  C   UNL A   1      50.599  26.701  24.216  1.00  0.00     0.198 A 
ATOM     78  F   UNL A   1      48.422  27.524  23.870  1.00  0.00    -0.203 F 
ATOM     79  F   UNL A   1      52.206  25.476  27.224  1.00  0.00    -0.200 F 
ATOM     80  C   UNL A   1      51.567  26.180  25.062  1.00  0.00     0.200 A 
ATOM     81  F   UNL A   1      50.880  26.904  22.921  1.00  0.00    -0.200 F 
ATOM     82  F   UNL A   1      52.789  25.900  24.592  1.00  0.00    -0.200 F 
ENDBRANCH  48  72
BRANCH  60  83
ATOM     83  C   UNL A   1      46.098  32.550  28.680  1.00  0.00     0.064 A 
ATOM     84  C   UNL A   1      46.708  32.872  29.901  1.00  0.00     0.173 A 
ATOM     85  C   UNL A   1      46.047  33.545  27.689  1.00  0.00     0.173 A 
ATOM     86  F   UNL A   1      46.766  31.963  30.886  1.00  0.00    -0.203 F 
ATOM     87  C   UNL A   1      47.234  34.142  30.125  1.00  0.00     0.198 A 
ATOM     88  C   UNL A   1      46.599  34.804  27.908  1.00  0.00     0.198 A 
ATOM     89  F   UNL A   1      45.478  33.288  26.502  1.00  0.00    -0.203 F 
ATOM     90  F   UNL A   1      47.779  34.439  31.313  1.00  0.00    -0.200 F 
ATOM     91  C   UNL A   1      47.188  35.103  29.126  1.00  0.00     0.200 A 
ATOM     92  F   UNL A   1      46.564  35.728  26.936  1.00  0.00    -0.200 F 
ATOM     93  F   UNL A   1      47.707  36.320  29.340  1.00  0.00    -0.200 F 
ENDBRANCH  60  83
ENDBRANCH  34  35
ENDBRANCH  26  29
ENDBRANCH  24  25
ENDBRANCH  23  24
ENDBRANCH   1  23
TORSDOF 15
ENDMDL
MODEL 3
REMARK VINA RESULT:     -11.4      0.556      1.470
REMARK SMILES CC[C@](C)(Nc1ncnc(OC)c1[N+](=O)[O-])C(=O)NCCCNC(=O)c1ccc(-c2c3nc(c(-c4c(F)c(F)c(F)c(F)c4F)c4ccc([nH]4)c(-c4c(F)c(F)c(F)c(F)c4F)c4nc(c(-c5c(F)c(F)c(F)c(F)c5F)c5ccc2[nH]5)C=C4)C=C3)cc1
REMARK SMILES IDX 20 1 19 2 17 3 18 4 3 6 4 7 2 8 1 9 5 10 6 12 7 13 13 14
REMARK SMILES IDX 8 15 10 16 9 17 14 18 15 19 16 20 11 21 12 22 21 23 22 24
REMARK SMILES IDX 23 25 24 26 25 28 26 29 27 30 88 31 28 32 87 33 29 34 30 35
REMARK SMILES IDX 31 36 81 37 32 38 86 39 80 40 82 41 33 42 85 43 79 44 78 45
REMARK SMILES IDX 34 47 66 48 46 49 65 50 47 51 50 52 64 53 83 54 48 55 49 56
REMARK SMILES IDX 63 58 84 59 51 60 35 61 36 62 44 63 37 64 38 65 42 66 45 67
REMARK SMILES IDX 39 68 40 69 43 70 41 71 67 72 68 73 76 74 69 75 70 76 74 77
REMARK SMILES IDX 77 78 71 79 72 80 75 81 73 82 52 83 53 84 61 85 54 86 55 87
REMARK SMILES IDX 59 88 62 89 56 90 57 91 60 92 58 93
REMARK H PARENT 19 5 5 11 23 27 82 46 50 57
REMARK Flexibility Score: inf
ROOT
ATOM      1  C   UNL A   1      31.403  30.826  26.010  1.00  0.00     0.117 C 
ENDROOT
BRANCH   1   2
ATOM      2  N   UNL A   1      32.496  30.015  26.520  1.00  0.00    -0.354 N 
ATOM      3  C   UNL A   1      33.333  29.083  25.971  1.00  0.00     0.245 C 
ATOM      4  O   UNL A   1      34.433  28.960  26.526  1.00  0.00    -0.272 OA
ATOM      5  H   UNL A   1      32.674  30.171  27.475  1.00  0.00     0.163 HD
BRANCH   3   6
ATOM      6  C   UNL A   1      32.957  28.168  24.772  1.00  0.00     0.115 C 
ATOM      7  C   UNL A   1      32.999  28.939  23.433  1.00  0.00     0.045 C 
BRANCH   6   8
ATOM      8  C   UNL A   1      31.509  27.627  24.965  1.00  0.00     0.035 C 
ATOM      9  C   UNL A   1      30.526  28.006  23.860  1.00  0.00     0.007 C 
ENDBRANCH   6   8
BRANCH   6  10
ATOM     10  N   UNL A   1      33.868  27.018  24.640  1.00  0.00    -0.350 N 
ATOM     11  H   UNL A   1      34.811  27.291  24.715  1.00  0.00     0.163 HD
BRANCH  10  12
ATOM     12  C   UNL A   1      33.747  25.680  24.441  1.00  0.00     0.213 A 
ATOM     13  N   UNL A   1      34.089  25.048  25.588  1.00  0.00    -0.212 NA
ATOM     14  C   UNL A   1      33.414  24.916  23.337  1.00  0.00     0.372 A 
ATOM     15  C   UNL A   1      34.106  23.707  25.610  1.00  0.00     0.228 A 
ATOM     16  C   UNL A   1      33.534  23.536  23.422  1.00  0.00     0.299 A 
ATOM     17  N   UNL A   1      33.879  22.916  24.563  1.00  0.00    -0.196 NA
BRANCH  14  18
ATOM     18  N   UNL A   1      32.876  25.455  22.135  1.00  0.00     0.072 N 
ATOM     19  O   UNL A   1      33.653  26.070  21.397  1.00  0.00    -0.258 OA
ATOM     20  O   UNL A   1      31.651  25.354  21.972  1.00  0.00    -0.258 OA
ENDBRANCH  14  18
BRANCH  16  21
ATOM     21  O   UNL A   1      33.202  22.645  22.438  1.00  0.00    -0.476 OA
ATOM     22  C   UNL A   1      32.159  21.724  22.751  1.00  0.00     0.280 C 
ENDBRANCH  16  21
ENDBRANCH  10  12
ENDBRANCH   6  10
ENDBRANCH   3   6
ENDBRANCH   1   2
BRANCH   1  23
ATOM     23  C   UNL A   1      31.257  32.268  26.501  1.00  0.00     0.042 C 
BRANCH  23  24
ATOM     24  C   UNL A   1      32.475  32.958  27.128  1.00  0.00     0.118 C 
BRANCH  24  25
ATOM     25  N   UNL A   1      32.225  34.283  27.667  1.00  0.00    -0.352 N 
ATOM     26  C   UNL A   1      32.905  34.979  28.640  1.00  0.00     0.251 C 
ATOM     27  H   UNL A   1      31.454  34.755  27.278  1.00  0.00     0.163 HD
ATOM     28  O   UNL A   1      32.528  36.100  28.968  1.00  0.00    -0.269 OA
BRANCH  26  29
ATOM     29  C   UNL A   1      34.083  34.394  29.323  1.00  0.00     0.039 A 
ATOM     30  C   UNL A   1      33.907  33.765  30.559  1.00  0.00     0.014 A 
ATOM     31  C   UNL A   1      35.370  34.543  28.805  1.00  0.00     0.014 A 
ATOM     32  C   UNL A   1      35.010  33.231  31.238  1.00  0.00     0.010 A 
ATOM     33  C   UNL A   1      36.469  33.983  29.467  1.00  0.00     0.010 A 
ATOM     34  C   UNL A   1      36.300  33.308  30.685  1.00  0.00    -0.014 A 
BRANCH  34  35
ATOM     35  C   UNL A   1      37.457  32.627  31.335  1.00  0.00     0.031 A 
ATOM     36  C   UNL A   1      38.145  31.454  30.690  1.00  0.00     0.074 A 
ATOM     37  C   UNL A   1      37.850  33.033  32.559  1.00  0.00     0.049 A 
ATOM     38  N   UNL A   1      39.129  30.718  31.147  1.00  0.00    -0.248 NA
ATOM     39  C   UNL A   1      37.658  31.048  29.364  1.00  0.00     0.031 C 
ATOM     40  C   UNL A   1      37.248  34.132  33.312  1.00  0.00     0.029 A 
ATOM     41  N   UNL A   1      38.837  32.559  33.391  1.00  0.00    -0.354 N 
ATOM     42  C   UNL A   1      39.377  29.760  30.172  1.00  0.00     0.074 A 
ATOM     43  C   UNL A   1      38.414  29.986  29.113  1.00  0.00     0.031 C 
ATOM     44  C   UNL A   1      37.879  34.255  34.490  1.00  0.00     0.029 A 
ATOM     45  C   UNL A   1      38.905  33.220  34.593  1.00  0.00     0.049 A 
ATOM     46  H   UNL A   1      39.437  31.818  33.148  1.00  0.00     0.167 HD
ATOM     47  C   UNL A   1      40.326  28.790  30.156  1.00  0.00     0.037 A 
ATOM     48  C   UNL A   1      39.693  33.013  35.667  1.00  0.00     0.037 A 
ATOM     49  C   UNL A   1      41.288  28.567  31.207  1.00  0.00     0.049 A 
ATOM     50  C   UNL A   1      40.718  31.912  35.635  1.00  0.00     0.074 A 
ATOM     51  C   UNL A   1      42.321  27.645  31.249  1.00  0.00     0.029 A 
ATOM     52  N   UNL A   1      41.330  29.264  32.406  1.00  0.00    -0.354 N 
ATOM     53  N   UNL A   1      40.989  31.063  34.676  1.00  0.00    -0.248 NA
ATOM     54  C   UNL A   1      41.552  31.745  36.835  1.00  0.00     0.031 C 
ATOM     55  C   UNL A   1      42.954  27.748  32.493  1.00  0.00     0.029 A 
ATOM     56  C   UNL A   1      42.353  28.774  33.204  1.00  0.00     0.049 A 
ATOM     57  H   UNL A   1      40.723  29.999  32.652  1.00  0.00     0.167 HD
ATOM     58  C   UNL A   1      42.042  30.285  35.140  1.00  0.00     0.074 A 
ATOM     59  C   UNL A   1      42.366  30.766  36.465  1.00  0.00     0.031 C 
ATOM     60  C   UNL A   1      42.682  29.266  34.517  1.00  0.00     0.037 A 
BRANCH  47  61
ATOM     61  C   UNL A   1      40.379  27.881  28.960  1.00  0.00     0.064 A 
ATOM     62  C   UNL A   1      41.182  28.176  27.848  1.00  0.00     0.173 A 
ATOM     63  C   UNL A   1      39.674  26.667  28.953  1.00  0.00     0.173 A 
ATOM     64  F   UNL A   1      41.877  29.323  27.803  1.00  0.00    -0.203 F 
ATOM     65  C   UNL A   1      41.255  27.306  26.762  1.00  0.00     0.198 A 
ATOM     66  C   UNL A   1      39.771  25.786  27.879  1.00  0.00     0.198 A 
ATOM     67  F   UNL A   1      38.903  26.327  29.997  1.00  0.00    -0.203 F 
ATOM     68  F   UNL A   1      41.996  27.629  25.695  1.00  0.00    -0.200 F 
ATOM     69  C   UNL A   1      40.555  26.108  26.782  1.00  0.00     0.200 A 
ATOM     70  F   UNL A   1      39.109  24.620  27.908  1.00  0.00    -0.200 F 
ATOM     71  F   UNL A   1      40.634  25.266  25.742  1.00  0.00    -0.200 F 
ENDBRANCH  47  61
BRANCH  48  72
ATOM     72  C   UNL A   1      39.550  33.881  36.864  1.00  0.00     0.064 A 
ATOM     73  C   UNL A   1      38.766  33.479  37.955  1.00  0.00     0.173 A 
ATOM     74  C   UNL A   1      40.195  35.124  36.946  1.00  0.00     0.173 A 
ATOM     75  F   UNL A   1      38.114  32.309  37.915  1.00  0.00    -0.203 F 
ATOM     76  C   UNL A   1      38.619  34.297  39.074  1.00  0.00     0.198 A 
ATOM     77  C   UNL A   1      40.070  35.927  38.077  1.00  0.00     0.198 A 
ATOM     78  F   UNL A   1      40.960  35.552  35.931  1.00  0.00    -0.203 F 
ATOM     79  F   UNL A   1      37.830  33.907  40.085  1.00  0.00    -0.200 F 
ATOM     80  C   UNL A   1      39.276  35.516  39.137  1.00  0.00     0.200 A 
ATOM     81  F   UNL A   1      40.721  37.097  38.140  1.00  0.00    -0.200 F 
ATOM     82  F   UNL A   1      39.141  36.298  40.216  1.00  0.00    -0.200 F 
ENDBRANCH  48  72
BRANCH  60  83
ATOM     83  C   UNL A   1      43.833  28.625  35.236  1.00  0.00     0.064 A 
ATOM     84  C   UNL A   1      45.145  29.101  35.105  1.00  0.00     0.173 A 
ATOM     85  C   UNL A   1      43.609  27.552  36.115  1.00  0.00     0.173 A 
ATOM     86  F   UNL A   1      45.415  30.112  34.266  1.00  0.00    -0.203 F 
ATOM     87  C   UNL A   1      46.192  28.519  35.816  1.00  0.00     0.198 A 
ATOM     88  C   UNL A   1      44.654  26.991  36.844  1.00  0.00     0.198 A 
ATOM     89  F   UNL A   1      42.372  27.060  36.279  1.00  0.00    -0.203 F 
ATOM     90  F   UNL A   1      47.445  28.967  35.647  1.00  0.00    -0.200 F 
ATOM     91  C   UNL A   1      45.944  27.472  36.691  1.00  0.00     0.200 A 
ATOM     92  F   UNL A   1      44.410  25.987  37.698  1.00  0.00    -0.200 F 
ATOM     93  F   UNL A   1      46.952  26.922  37.384  1.00  0.00    -0.200 F 
ENDBRANCH  60  83
ENDBRANCH  34  35
ENDBRANCH  26  29
ENDBRANCH  24  25
ENDBRANCH  23  24
ENDBRANCH   1  23
TORSDOF 15
ENDMDL
