MODEL 1
REMARK VINA RESULT:     -13.3      0.000      0.000
REMARK SMILES Cc1cc(O[C@@H](C)C(=O)NCCC(=O)NCCCNC(=O)c2ccc(-c3c4nc(c(-c5c(F)c(F)c(F)c(F)c5F)c5ccc([nH]5)c(-c5c(F)c(F)c(F)c(F)c5F)c5nc(c(-c6c(F)c(F)c(F)c(F)c6F)c6ccc3[nH]6)C=C5)C=C4)cc2)c2c3c(c(=O)oc2c1)CCCC3
REMARK SMILES IDX 13 1 14 2 15 3 12 5 11 6 10 7 8 8 9 9 6 11 7 12 5 13 4 14
REMARK SMILES IDX 1 15 2 16 3 17 92 18 91 19 85 20 90 21 86 22 88 23 87 24
REMARK SMILES IDX 96 25 89 26 93 27 95 28 94 29 16 30 17 31 18 32 19 33 20 34
REMARK SMILES IDX 21 36 22 37 23 38 84 39 24 40 83 41 25 42 26 43 27 44 77 45
REMARK SMILES IDX 28 46 82 47 76 48 78 49 29 50 81 51 75 52 74 53 30 55 62 56
REMARK SMILES IDX 42 57 61 58 43 59 46 60 60 61 79 62 44 63 45 64 59 66 80 67
REMARK SMILES IDX 47 68 31 69 32 70 40 71 33 72 34 73 38 74 41 75 35 76 36 77
REMARK SMILES IDX 39 78 37 79 63 80 64 81 72 82 65 83 66 84 70 85 73 86 67 87
REMARK SMILES IDX 68 88 71 89 69 90 48 91 49 92 57 93 50 94 51 95 55 96 58 97
REMARK SMILES IDX 52 98 53 99 56 100 54 101
REMARK H PARENT 15 4 10 10 19 35 78 54 46 65
REMARK Flexibility Score: inf
ROOT
ATOM      1  C   UNL A   1      33.297  26.186  21.947  1.00  0.00     0.221 C 
ATOM      2  O   UNL A   1      33.104  25.636  20.865  1.00  0.00    -0.275 OA
ATOM      3  N   UNL A   1      33.449  27.536  21.985  1.00  0.00    -0.356 N 
ATOM      4  H   UNL A   1      33.189  28.026  21.171  1.00  0.00     0.163 HD
ENDROOT
BRANCH   1   5
ATOM      5  C   UNL A   1      33.367  25.397  23.232  1.00  0.00     0.121 C 
BRANCH   5   6
ATOM      6  C   UNL A   1      32.009  24.869  23.687  1.00  0.00     0.126 C 
BRANCH   6   7
ATOM      7  N   UNL A   1      31.829  24.972  25.125  1.00  0.00    -0.352 N 
ATOM      8  C   UNL A   1      31.923  24.099  26.152  1.00  0.00     0.260 C 
ATOM      9  O   UNL A   1      31.334  24.461  27.183  1.00  0.00    -0.271 OA
ATOM     10  H   UNL A   1      31.582  25.880  25.417  1.00  0.00     0.163 HD
BRANCH   8  11
ATOM     11  C   UNL A   1      32.824  22.834  26.182  1.00  0.00     0.258 C 
ATOM     12  C   UNL A   1      33.160  22.471  27.627  1.00  0.00     0.064 C 
BRANCH  11  13
ATOM     13  O   UNL A   1      33.790  22.415  25.240  1.00  0.00    -0.480 OA
BRANCH  13  14
ATOM     14  C   UNL A   1      34.117  21.134  24.939  1.00  0.00     0.132 A 
ATOM     15  C   UNL A   1      32.371  17.887  24.019  1.00  0.00     0.044 C 
ATOM     16  C   UNL A   1      33.475  18.882  24.242  1.00  0.00    -0.044 A 
ATOM     17  C   UNL A   1      33.181  20.243  24.402  1.00  0.00     0.050 A 
ATOM     18  C   UNL A   1      34.773  18.452  24.487  1.00  0.00     0.051 A 
ATOM     19  C   UNL A   1      35.745  19.381  24.866  1.00  0.00     0.142 A 
ATOM     20  C   UNL A   1      35.464  20.731  25.107  1.00  0.00     0.063 A 
ATOM     21  O   UNL A   1      37.038  18.848  25.001  1.00  0.00    -0.422 OA
ATOM     22  C   UNL A   1      36.609  21.603  25.492  1.00  0.00    -0.023 A 
ATOM     23  C   UNL A   1      38.131  19.659  25.215  1.00  0.00     0.339 A 
ATOM     24  C   UNL A   1      37.857  21.087  25.504  1.00  0.00     0.042 A 
ATOM     25  C   UNL A   1      36.387  23.068  25.814  1.00  0.00     0.037 C 
ATOM     26  O   UNL A   1      39.271  19.208  25.192  1.00  0.00    -0.246 OA
ATOM     27  C   UNL A   1      39.094  21.896  25.806  1.00  0.00     0.043 C 
ATOM     28  C   UNL A   1      37.649  23.935  25.801  1.00  0.00     0.005 C 
ATOM     29  C   UNL A   1      38.814  23.236  26.475  1.00  0.00     0.005 C 
ENDBRANCH  13  14
ENDBRANCH  11  13
ENDBRANCH   8  11
ENDBRANCH   6   7
ENDBRANCH   5   6
ENDBRANCH   1   5
BRANCH   3  30
ATOM     30  C   UNL A   1      33.948  28.340  23.082  1.00  0.00     0.117 C 
BRANCH  30  31
ATOM     31  C   UNL A   1      32.785  28.958  23.842  1.00  0.00     0.042 C 
BRANCH  31  32
ATOM     32  C   UNL A   1      33.070  29.146  25.317  1.00  0.00     0.118 C 
BRANCH  32  33
ATOM     33  N   UNL A   1      32.651  30.453  25.791  1.00  0.00    -0.352 N 
ATOM     34  C   UNL A   1      33.109  31.195  26.853  1.00  0.00     0.251 C 
ATOM     35  H   UNL A   1      31.929  30.872  25.270  1.00  0.00     0.163 HD
ATOM     36  O   UNL A   1      32.453  32.145  27.260  1.00  0.00    -0.269 OA
BRANCH  34  37
ATOM     37  C   UNL A   1      34.378  30.826  27.518  1.00  0.00     0.039 A 
ATOM     38  C   UNL A   1      34.602  29.517  27.938  1.00  0.00     0.014 A 
ATOM     39  C   UNL A   1      35.358  31.799  27.729  1.00  0.00     0.014 A 
ATOM     40  C   UNL A   1      35.678  29.233  28.763  1.00  0.00     0.010 A 
ATOM     41  C   UNL A   1      36.525  31.468  28.424  1.00  0.00     0.010 A 
ATOM     42  C   UNL A   1      36.673  30.194  28.993  1.00  0.00    -0.014 A 
BRANCH  42  43
ATOM     43  C   UNL A   1      37.862  29.820  29.804  1.00  0.00     0.031 A 
ATOM     44  C   UNL A   1      38.949  28.952  29.232  1.00  0.00     0.074 A 
ATOM     45  C   UNL A   1      37.983  30.322  31.051  1.00  0.00     0.049 A 
ATOM     46  N   UNL A   1      40.048  28.525  29.803  1.00  0.00    -0.248 NA
ATOM     47  C   UNL A   1      38.783  28.492  27.844  1.00  0.00     0.031 C 
ATOM     48  C   UNL A   1      36.999  31.185  31.710  1.00  0.00     0.029 A 
ATOM     49  N   UNL A   1      38.993  30.215  31.974  1.00  0.00    -0.354 N 
ATOM     50  C   UNL A   1      40.685  27.731  28.859  1.00  0.00     0.074 A 
ATOM     51  C   UNL A   1      39.838  27.703  27.688  1.00  0.00     0.031 C 
ATOM     52  C   UNL A   1      37.485  31.593  32.889  1.00  0.00     0.029 A 
ATOM     53  C   UNL A   1      38.768  30.941  33.119  1.00  0.00     0.049 A 
ATOM     54  H   UNL A   1      39.799  29.670  31.829  1.00  0.00     0.167 HD
ATOM     55  C   UNL A   1      41.878  27.098  28.959  1.00  0.00     0.037 A 
ATOM     56  C   UNL A   1      39.498  31.052  34.244  1.00  0.00     0.037 A 
ATOM     57  C   UNL A   1      42.730  27.158  30.119  1.00  0.00     0.049 A 
ATOM     58  C   UNL A   1      40.787  30.293  34.347  1.00  0.00     0.074 A 
ATOM     59  C   UNL A   1      43.968  26.569  30.308  1.00  0.00     0.029 A 
ATOM     60  N   UNL A   1      42.434  27.851  31.284  1.00  0.00    -0.354 N 
ATOM     61  N   UNL A   1      41.380  29.550  33.444  1.00  0.00    -0.248 NA
ATOM     62  C   UNL A   1      41.502  30.371  35.627  1.00  0.00     0.031 C 
ATOM     63  C   UNL A   1      44.397  26.860  31.605  1.00  0.00     0.029 A 
ATOM     64  C   UNL A   1      43.454  27.680  32.206  1.00  0.00     0.049 A 
ATOM     65  H   UNL A   1      41.621  28.385  31.433  1.00  0.00     0.167 HD
ATOM     66  C   UNL A   1      42.542  29.082  34.039  1.00  0.00     0.074 A 
ATOM     67  C   UNL A   1      42.583  29.646  35.373  1.00  0.00     0.031 C 
ATOM     68  C   UNL A   1      43.484  28.253  33.529  1.00  0.00     0.037 A 
BRANCH  55  69
ATOM     69  C   UNL A   1      42.343  26.278  27.789  1.00  0.00     0.064 A 
ATOM     70  C   UNL A   1      43.210  26.802  26.819  1.00  0.00     0.173 A 
ATOM     71  C   UNL A   1      41.979  24.926  27.680  1.00  0.00     0.173 A 
ATOM     72  F   UNL A   1      43.582  28.090  26.871  1.00  0.00    -0.203 F 
ATOM     73  C   UNL A   1      43.683  26.010  25.776  1.00  0.00     0.198 A 
ATOM     74  C   UNL A   1      42.479  24.128  26.654  1.00  0.00     0.198 A 
ATOM     75  F   UNL A   1      41.160  24.371  28.584  1.00  0.00    -0.203 F 
ATOM     76  F   UNL A   1      44.484  26.542  24.842  1.00  0.00    -0.200 F 
ATOM     77  C   UNL A   1      43.327  24.671  25.700  1.00  0.00     0.200 A 
ATOM     78  F   UNL A   1      42.147  22.831  26.592  1.00  0.00    -0.200 F 
ATOM     79  F   UNL A   1      43.800  23.905  24.708  1.00  0.00    -0.200 F 
ENDBRANCH  55  69
BRANCH  56  80
ATOM     80  C   UNL A   1      39.010  31.913  35.355  1.00  0.00     0.064 A 
ATOM     81  C   UNL A   1      38.248  31.374  36.399  1.00  0.00     0.173 A 
ATOM     82  C   UNL A   1      39.327  33.278  35.416  1.00  0.00     0.173 A 
ATOM     83  F   UNL A   1      37.905  30.078  36.380  1.00  0.00    -0.203 F 
ATOM     84  C   UNL A   1      37.818  32.170  37.460  1.00  0.00     0.198 A 
ATOM     85  C   UNL A   1      38.926  34.065  36.493  1.00  0.00     0.198 A 
ATOM     86  F   UNL A   1      40.058  33.843  34.444  1.00  0.00    -0.203 F 
ATOM     87  F   UNL A   1      37.064  31.636  38.431  1.00  0.00    -0.200 F 
ATOM     88  C   UNL A   1      38.167  33.511  37.512  1.00  0.00     0.200 A 
ATOM     89  F   UNL A   1      39.286  35.355  36.548  1.00  0.00    -0.200 F 
ATOM     90  F   UNL A   1      37.770  34.270  38.542  1.00  0.00    -0.200 F 
ENDBRANCH  56  80
BRANCH  68  91
ATOM     91  C   UNL A   1      44.654  27.910  34.402  1.00  0.00     0.064 A 
ATOM     92  C   UNL A   1      45.787  28.733  34.461  1.00  0.00     0.173 A 
ATOM     93  C   UNL A   1      44.603  26.796  35.253  1.00  0.00     0.173 A 
ATOM     94  F   UNL A   1      45.888  29.801  33.655  1.00  0.00    -0.203 F 
ATOM     95  C   UNL A   1      46.832  28.448  35.335  1.00  0.00     0.198 A 
ATOM     96  C   UNL A   1      45.636  26.532  36.148  1.00  0.00     0.198 A 
ATOM     97  F   UNL A   1      43.538  25.981  35.239  1.00  0.00    -0.203 F 
ATOM     98  F   UNL A   1      47.920  29.230  35.352  1.00  0.00    -0.200 F 
ATOM     99  C   UNL A   1      46.749  27.357  36.186  1.00  0.00     0.200 A 
ATOM    100  F   UNL A   1      45.546  25.488  36.983  1.00  0.00    -0.200 F 
ATOM    101  F   UNL A   1      47.746  27.098  37.044  1.00  0.00    -0.200 F 
ENDBRANCH  68  91
ENDBRANCH  42  43
ENDBRANCH  34  37
ENDBRANCH  32  33
ENDBRANCH  31  32
ENDBRANCH  30  31
ENDBRANCH   3  30
TORSDOF 15
ENDMDL
MODEL 2
REMARK VINA RESULT:     -12.9      1.705      7.694
REMARK SMILES Cc1cc(O[C@@H](C)C(=O)NCCC(=O)NCCCNC(=O)c2ccc(-c3c4nc(c(-c5c(F)c(F)c(F)c(F)c5F)c5ccc([nH]5)c(-c5c(F)c(F)c(F)c(F)c5F)c5nc(c(-c6c(F)c(F)c(F)c(F)c6F)c6ccc3[nH]6)C=C5)C=C4)cc2)c2c3c(c(=O)oc2c1)CCCC3
REMARK SMILES IDX 13 1 14 2 15 3 12 5 11 6 10 7 8 8 9 9 6 11 7 12 5 13 4 14
REMARK SMILES IDX 1 15 2 16 3 17 92 18 91 19 85 20 90 21 86 22 88 23 87 24
REMARK SMILES IDX 96 25 89 26 93 27 95 28 94 29 16 30 17 31 18 32 19 33 20 34
REMARK SMILES IDX 21 36 22 37 23 38 84 39 24 40 83 41 25 42 26 43 27 44 77 45
REMARK SMILES IDX 28 46 82 47 76 48 78 49 29 50 81 51 75 52 74 53 30 55 62 56
REMARK SMILES IDX 42 57 61 58 43 59 46 60 60 61 79 62 44 63 45 64 59 66 80 67
REMARK SMILES IDX 47 68 31 69 32 70 40 71 33 72 34 73 38 74 41 75 35 76 36 77
REMARK SMILES IDX 39 78 37 79 63 80 64 81 72 82 65 83 66 84 70 85 73 86 67 87
REMARK SMILES IDX 68 88 71 89 69 90 48 91 49 92 57 93 50 94 51 95 55 96 58 97
REMARK SMILES IDX 52 98 53 99 56 100 54 101
REMARK H PARENT 15 4 10 10 19 35 78 54 46 65
REMARK Flexibility Score: inf
ROOT
ATOM      1  C   UNL A   1      30.365  29.095  23.092  1.00  0.00     0.221 C 
ATOM      2  O   UNL A   1      30.204  29.291  21.889  1.00  0.00    -0.275 OA
ATOM      3  N   UNL A   1      30.637  30.152  23.903  1.00  0.00    -0.356 N 
ATOM      4  H   UNL A   1      30.485  31.045  23.518  1.00  0.00     0.163 HD
ENDROOT
BRANCH   1   5
ATOM      5  C   UNL A   1      30.266  27.713  23.687  1.00  0.00     0.121 C 
BRANCH   5   6
ATOM      6  C   UNL A   1      31.282  26.734  23.105  1.00  0.00     0.126 C 
BRANCH   6   7
ATOM      7  N   UNL A   1      32.634  27.266  23.116  1.00  0.00    -0.352 N 
ATOM      8  C   UNL A   1      33.488  27.649  24.089  1.00  0.00     0.260 C 
ATOM      9  O   UNL A   1      34.399  28.397  23.701  1.00  0.00    -0.271 OA
ATOM     10  H   UNL A   1      33.011  27.372  22.212  1.00  0.00     0.163 HD
BRANCH   8  11
ATOM     11  C   UNL A   1      33.509  27.098  25.542  1.00  0.00     0.258 C 
ATOM     12  C   UNL A   1      34.031  28.170  26.496  1.00  0.00     0.064 C 
BRANCH  11  13
ATOM     13  O   UNL A   1      33.732  25.774  25.981  1.00  0.00    -0.480 OA
BRANCH  13  14
ATOM     14  C   UNL A   1      32.820  24.772  26.011  1.00  0.00     0.132 A 
ATOM     15  C   UNL A   1      29.153  24.279  26.873  1.00  0.00     0.044 C 
ATOM     16  C   UNL A   1      30.532  23.986  26.354  1.00  0.00    -0.044 A 
ATOM     17  C   UNL A   1      31.452  25.026  26.162  1.00  0.00     0.050 A 
ATOM     18  C   UNL A   1      30.980  22.676  26.240  1.00  0.00     0.051 A 
ATOM     19  C   UNL A   1      32.319  22.432  25.926  1.00  0.00     0.142 A 
ATOM     20  C   UNL A   1      33.276  23.447  25.804  1.00  0.00     0.063 A 
ATOM     21  O   UNL A   1      32.638  21.076  25.752  1.00  0.00    -0.422 OA
ATOM     22  C   UNL A   1      34.663  23.032  25.451  1.00  0.00    -0.023 A 
ATOM     23  C   UNL A   1      33.874  20.681  25.286  1.00  0.00     0.339 A 
ATOM     24  C   UNL A   1      34.913  21.733  25.179  1.00  0.00     0.042 A 
ATOM     25  C   UNL A   1      35.771  24.061  25.342  1.00  0.00     0.037 C 
ATOM     26  O   UNL A   1      34.101  19.510  25.002  1.00  0.00    -0.246 OA
ATOM     27  C   UNL A   1      36.261  21.215  24.740  1.00  0.00     0.043 C 
ATOM     28  C   UNL A   1      37.025  23.590  24.600  1.00  0.00     0.005 C 
ATOM     29  C   UNL A   1      37.412  22.179  24.997  1.00  0.00     0.005 C 
ENDBRANCH  13  14
ENDBRANCH  11  13
ENDBRANCH   8  11
ENDBRANCH   6   7
ENDBRANCH   5   6
ENDBRANCH   1   5
BRANCH   3  30
ATOM     30  C   UNL A   1      31.125  30.118  25.267  1.00  0.00     0.117 C 
BRANCH  30  31
ATOM     31  C   UNL A   1      31.022  31.503  25.887  1.00  0.00     0.042 C 
BRANCH  31  32
ATOM     32  C   UNL A   1      32.201  31.847  26.774  1.00  0.00     0.118 C 
BRANCH  32  33
ATOM     33  N   UNL A   1      32.231  33.257  27.117  1.00  0.00    -0.352 N 
ATOM     34  C   UNL A   1      33.037  33.933  28.002  1.00  0.00     0.251 C 
ATOM     35  H   UNL A   1      31.573  33.815  26.643  1.00  0.00     0.163 HD
ATOM     36  O   UNL A   1      32.735  35.064  28.359  1.00  0.00    -0.269 OA
BRANCH  34  37
ATOM     37  C   UNL A   1      34.250  33.280  28.541  1.00  0.00     0.039 A 
ATOM     38  C   UNL A   1      34.196  31.977  29.029  1.00  0.00     0.014 A 
ATOM     39  C   UNL A   1      35.460  33.978  28.563  1.00  0.00     0.014 A 
ATOM     40  C   UNL A   1      35.266  31.462  29.742  1.00  0.00     0.010 A 
ATOM     41  C   UNL A   1      36.589  33.390  29.141  1.00  0.00     0.010 A 
ATOM     42  C   UNL A   1      36.489  32.146  29.782  1.00  0.00    -0.014 A 
BRANCH  42  43
ATOM     43  C   UNL A   1      37.644  31.515  30.475  1.00  0.00     0.031 A 
ATOM     44  C   UNL A   1      37.924  31.793  31.927  1.00  0.00     0.074 A 
ATOM     45  C   UNL A   1      38.411  30.637  29.796  1.00  0.00     0.049 A 
ATOM     46  N   UNL A   1      38.890  31.333  32.682  1.00  0.00    -0.248 NA
ATOM     47  C   UNL A   1      37.009  32.711  32.625  1.00  0.00     0.031 C 
ATOM     48  C   UNL A   1      38.230  30.278  28.386  1.00  0.00     0.029 A 
ATOM     49  N   UNL A   1      39.468  29.860  30.197  1.00  0.00    -0.354 N 
ATOM     50  C   UNL A   1      38.716  31.924  33.926  1.00  0.00     0.074 A 
ATOM     51  C   UNL A   1      37.572  32.802  33.822  1.00  0.00     0.031 C 
ATOM     52  C   UNL A   1      39.085  29.299  28.064  1.00  0.00     0.029 A 
ATOM     53  C   UNL A   1      39.944  29.030  29.210  1.00  0.00     0.049 A 
ATOM     54  H   UNL A   1      39.847  29.893  31.104  1.00  0.00     0.167 HD
ATOM     55  C   UNL A   1      39.438  31.733  35.057  1.00  0.00     0.037 A 
ATOM     56  C   UNL A   1      40.976  28.166  29.214  1.00  0.00     0.037 A 
ATOM     57  C   UNL A   1      40.556  30.832  35.160  1.00  0.00     0.049 A 
ATOM     58  C   UNL A   1      41.792  28.020  30.464  1.00  0.00     0.074 A 
ATOM     59  C   UNL A   1      41.337  30.553  36.267  1.00  0.00     0.029 A 
ATOM     60  N   UNL A   1      41.049  30.060  34.117  1.00  0.00    -0.354 N 
ATOM     61  N   UNL A   1      41.612  28.581  31.635  1.00  0.00    -0.248 NA
ATOM     62  C   UNL A   1      42.963  27.137  30.392  1.00  0.00     0.031 C 
ATOM     63  C   UNL A   1      42.335  29.654  35.883  1.00  0.00     0.029 A 
ATOM     64  C   UNL A   1      42.141  29.325  34.550  1.00  0.00     0.049 A 
ATOM     65  H   UNL A   1      40.677  30.036  33.206  1.00  0.00     0.167 HD
ATOM     66  C   UNL A   1      42.637  28.111  32.443  1.00  0.00     0.074 A 
ATOM     67  C   UNL A   1      43.420  27.199  31.635  1.00  0.00     0.031 C 
ATOM     68  C   UNL A   1      42.908  28.417  33.735  1.00  0.00     0.037 A 
BRANCH  55  69
ATOM     69  C   UNL A   1      39.052  32.514  36.281  1.00  0.00     0.064 A 
ATOM     70  C   UNL A   1      38.207  31.976  37.263  1.00  0.00     0.173 A 
ATOM     71  C   UNL A   1      39.597  33.788  36.513  1.00  0.00     0.173 A 
ATOM     72  F   UNL A   1      37.652  30.767  37.089  1.00  0.00    -0.203 F 
ATOM     73  C   UNL A   1      37.911  32.687  38.424  1.00  0.00     0.198 A 
ATOM     74  C   UNL A   1      39.324  34.483  37.688  1.00  0.00     0.198 A 
ATOM     75  F   UNL A   1      40.417  34.347  35.611  1.00  0.00    -0.203 F 
ATOM     76  F   UNL A   1      37.075  32.166  39.332  1.00  0.00    -0.200 F 
ATOM     77  C   UNL A   1      38.478  33.935  38.641  1.00  0.00     0.200 A 
ATOM     78  F   UNL A   1      39.886  35.680  37.903  1.00  0.00    -0.200 F 
ATOM     79  F   UNL A   1      38.208  34.608  39.767  1.00  0.00    -0.200 F 
ENDBRANCH  55  69
BRANCH  56  80
ATOM     80  C   UNL A   1      41.287  27.387  27.986  1.00  0.00     0.064 A 
ATOM     81  C   UNL A   1      42.172  27.888  27.022  1.00  0.00     0.173 A 
ATOM     82  C   UNL A   1      40.738  26.114  27.768  1.00  0.00     0.173 A 
ATOM     83  F   UNL A   1      42.711  29.106  27.175  1.00  0.00    -0.203 F 
ATOM     84  C   UNL A   1      42.493  27.146  25.886  1.00  0.00     0.198 A 
ATOM     85  C   UNL A   1      41.086  25.360  26.651  1.00  0.00     0.198 A 
ATOM     86  F   UNL A   1      39.889  25.586  28.662  1.00  0.00    -0.203 F 
ATOM     87  F   UNL A   1      43.318  27.661  24.965  1.00  0.00    -0.200 F 
ATOM     88  C   UNL A   1      41.959  25.879  25.707  1.00  0.00     0.200 A 
ATOM     89  F   UNL A   1      40.584  24.127  26.495  1.00  0.00    -0.200 F 
ATOM     90  F   UNL A   1      42.284  25.158  24.625  1.00  0.00    -0.200 F 
ENDBRANCH  56  80
BRANCH  68  91
ATOM     91  C   UNL A   1      44.092  27.751  34.372  1.00  0.00     0.064 A 
ATOM     92  C   UNL A   1      43.986  26.485  34.965  1.00  0.00     0.173 A 
ATOM     93  C   UNL A   1      45.360  28.346  34.310  1.00  0.00     0.173 A 
ATOM     94  F   UNL A   1      42.791  25.883  35.062  1.00  0.00    -0.203 F 
ATOM     95  C   UNL A   1      45.107  25.843  35.481  1.00  0.00     0.198 A 
ATOM     96  C   UNL A   1      46.485  27.687  34.798  1.00  0.00     0.198 A 
ATOM     97  F   UNL A   1      45.515  29.554  33.747  1.00  0.00    -0.203 F 
ATOM     98  F   UNL A   1      44.979  24.647  36.071  1.00  0.00    -0.200 F 
ATOM     99  C   UNL A   1      46.357  26.438  35.385  1.00  0.00     0.200 A 
ATOM    100  F   UNL A   1      47.693  28.255  34.688  1.00  0.00    -0.200 F 
ATOM    101  F   UNL A   1      47.439  25.806  35.860  1.00  0.00    -0.200 F 
ENDBRANCH  68  91
ENDBRANCH  42  43
ENDBRANCH  34  37
ENDBRANCH  32  33
ENDBRANCH  31  32
ENDBRANCH  30  31
ENDBRANCH   3  30
TORSDOF 15
ENDMDL
MODEL 3
REMARK VINA RESULT:     -12.9      2.551      7.445
REMARK SMILES Cc1cc(O[C@@H](C)C(=O)NCCC(=O)NCCCNC(=O)c2ccc(-c3c4nc(c(-c5c(F)c(F)c(F)c(F)c5F)c5ccc([nH]5)c(-c5c(F)c(F)c(F)c(F)c5F)c5nc(c(-c6c(F)c(F)c(F)c(F)c6F)c6ccc3[nH]6)C=C5)C=C4)cc2)c2c3c(c(=O)oc2c1)CCCC3
REMARK SMILES IDX 13 1 14 2 15 3 12 5 11 6 10 7 8 8 9 9 6 11 7 12 5 13 4 14
REMARK SMILES IDX 1 15 2 16 3 17 92 18 91 19 85 20 90 21 86 22 88 23 87 24
REMARK SMILES IDX 96 25 89 26 93 27 95 28 94 29 16 30 17 31 18 32 19 33 20 34
REMARK SMILES IDX 21 36 22 37 23 38 84 39 24 40 83 41 25 42 26 43 27 44 77 45
REMARK SMILES IDX 28 46 82 47 76 48 78 49 29 50 81 51 75 52 74 53 30 55 62 56
REMARK SMILES IDX 42 57 61 58 43 59 46 60 60 61 79 62 44 63 45 64 59 66 80 67
REMARK SMILES IDX 47 68 31 69 32 70 40 71 33 72 34 73 38 74 41 75 35 76 36 77
REMARK SMILES IDX 39 78 37 79 63 80 64 81 72 82 65 83 66 84 70 85 73 86 67 87
REMARK SMILES IDX 68 88 71 89 69 90 48 91 49 92 57 93 50 94 51 95 55 96 58 97
REMARK SMILES IDX 52 98 53 99 56 100 54 101
REMARK H PARENT 15 4 10 10 19 35 78 54 46 65
REMARK Flexibility Score: inf
ROOT
ATOM      1  C   UNL A   1      32.275  25.667  22.470  1.00  0.00     0.221 C 
ATOM      2  O   UNL A   1      31.776  26.017  21.402  1.00  0.00    -0.275 OA
ATOM      3  N   UNL A   1      32.847  26.603  23.271  1.00  0.00    -0.356 N 
ATOM      4  H   UNL A   1      32.648  27.543  23.053  1.00  0.00     0.163 HD
ENDROOT
BRANCH   1   5
ATOM      5  C   UNL A   1      32.265  24.223  22.908  1.00  0.00     0.121 C 
BRANCH   5   6
ATOM      6  C   UNL A   1      31.003  23.836  23.674  1.00  0.00     0.126 C 
BRANCH   6   7
ATOM      7  N   UNL A   1      31.047  24.260  25.064  1.00  0.00    -0.352 N 
ATOM      8  C   UNL A   1      31.480  23.690  26.210  1.00  0.00     0.260 C 
ATOM      9  O   UNL A   1      31.010  24.198  27.240  1.00  0.00    -0.271 OA
ATOM     10  H   UNL A   1      30.678  25.163  25.201  1.00  0.00     0.163 HD
BRANCH   8  11
ATOM     11  C   UNL A   1      32.603  22.623  26.320  1.00  0.00     0.258 C 
ATOM     12  C   UNL A   1      33.072  22.511  27.769  1.00  0.00     0.064 C 
BRANCH  11  13
ATOM     13  O   UNL A   1      33.584  22.272  25.366  1.00  0.00    -0.480 OA
BRANCH  13  14
ATOM     14  C   UNL A   1      33.956  21.015  25.019  1.00  0.00     0.132 A 
ATOM     15  C   UNL A   1      32.322  17.724  24.053  1.00  0.00     0.044 C 
ATOM     16  C   UNL A   1      33.389  18.757  24.276  1.00  0.00    -0.044 A 
ATOM     17  C   UNL A   1      33.043  20.100  24.482  1.00  0.00     0.050 A 
ATOM     18  C   UNL A   1      34.710  18.376  24.473  1.00  0.00     0.051 A 
ATOM     19  C   UNL A   1      35.653  19.335  24.853  1.00  0.00     0.142 A 
ATOM     20  C   UNL A   1      35.322  20.665  25.140  1.00  0.00     0.063 A 
ATOM     21  O   UNL A   1      36.969  18.853  24.939  1.00  0.00    -0.422 OA
ATOM     22  C   UNL A   1      36.440  21.574  25.519  1.00  0.00    -0.023 A 
ATOM     23  C   UNL A   1      38.034  19.704  25.147  1.00  0.00     0.339 A 
ATOM     24  C   UNL A   1      37.708  21.111  25.484  1.00  0.00     0.042 A 
ATOM     25  C   UNL A   1      36.167  23.019  25.889  1.00  0.00     0.037 C 
ATOM     26  O   UNL A   1      39.191  19.302  25.080  1.00  0.00    -0.246 OA
ATOM     27  C   UNL A   1      38.919  21.963  25.776  1.00  0.00     0.043 C 
ATOM     28  C   UNL A   1      37.391  23.938  25.868  1.00  0.00     0.005 C 
ATOM     29  C   UNL A   1      38.602  23.271  26.491  1.00  0.00     0.005 C 
ENDBRANCH  13  14
ENDBRANCH  11  13
ENDBRANCH   8  11
ENDBRANCH   6   7
ENDBRANCH   5   6
ENDBRANCH   1   5
BRANCH   3  30
ATOM     30  C   UNL A   1      33.717  26.382  24.409  1.00  0.00     0.117 C 
BRANCH  30  31
ATOM     31  C   UNL A   1      33.218  27.181  25.603  1.00  0.00     0.042 C 
BRANCH  31  32
ATOM     32  C   UNL A   1      34.315  27.962  26.297  1.00  0.00     0.118 C 
BRANCH  32  33
ATOM     33  N   UNL A   1      33.869  29.281  26.707  1.00  0.00    -0.352 N 
ATOM     34  C   UNL A   1      34.427  30.164  27.600  1.00  0.00     0.251 C 
ATOM     35  H   UNL A   1      33.038  29.591  26.279  1.00  0.00     0.163 HD
ATOM     36  O   UNL A   1      33.768  31.106  28.019  1.00  0.00    -0.269 OA
BRANCH  34  37
ATOM     37  C   UNL A   1      35.814  29.957  28.072  1.00  0.00     0.039 A 
ATOM     38  C   UNL A   1      36.895  30.271  27.253  1.00  0.00     0.014 A 
ATOM     39  C   UNL A   1      36.041  29.440  29.350  1.00  0.00     0.014 A 
ATOM     40  C   UNL A   1      38.170  29.858  27.604  1.00  0.00     0.010 A 
ATOM     41  C   UNL A   1      37.348  29.174  29.768  1.00  0.00     0.010 A 
ATOM     42  C   UNL A   1      38.422  29.332  28.879  1.00  0.00    -0.014 A 
BRANCH  42  43
ATOM     43  C   UNL A   1      39.819  28.990  29.254  1.00  0.00     0.031 A 
ATOM     44  C   UNL A   1      40.596  29.847  30.216  1.00  0.00     0.074 A 
ATOM     45  C   UNL A   1      40.368  27.860  28.762  1.00  0.00     0.049 A 
ATOM     46  N   UNL A   1      41.825  29.698  30.645  1.00  0.00    -0.248 NA
ATOM     47  C   UNL A   1      39.914  31.030  30.765  1.00  0.00     0.031 C 
ATOM     48  C   UNL A   1      39.708  26.942  27.829  1.00  0.00     0.029 A 
ATOM     49  N   UNL A   1      41.582  27.267  28.998  1.00  0.00    -0.354 N 
ATOM     50  C   UNL A   1      42.069  30.775  31.486  1.00  0.00     0.074 A 
ATOM     51  C   UNL A   1      40.876  31.593  31.485  1.00  0.00     0.031 C 
ATOM     52  C   UNL A   1      40.486  25.869  27.637  1.00  0.00     0.029 A 
ATOM     53  C   UNL A   1      41.742  26.066  28.348  1.00  0.00     0.049 A 
ATOM     54  H   UNL A   1      42.272  27.664  29.577  1.00  0.00     0.167 HD
ATOM     55  C   UNL A   1      43.184  31.045  32.206  1.00  0.00     0.037 A 
ATOM     56  C   UNL A   1      42.793  25.226  28.305  1.00  0.00     0.037 A 
ATOM     57  C   UNL A   1      44.355  30.208  32.226  1.00  0.00     0.049 A 
ATOM     58  C   UNL A   1      44.035  25.581  29.067  1.00  0.00     0.074 A 
ATOM     59  C   UNL A   1      45.527  30.384  32.941  1.00  0.00     0.029 A 
ATOM     60  N   UNL A   1      44.502  29.034  31.500  1.00  0.00    -0.354 N 
ATOM     61  N   UNL A   1      44.249  26.601  29.863  1.00  0.00    -0.248 NA
ATOM     62  C   UNL A   1      45.185  24.683  28.916  1.00  0.00     0.031 C 
ATOM     63  C   UNL A   1      46.402  29.348  32.608  1.00  0.00     0.029 A 
ATOM     64  C   UNL A   1      45.756  28.491  31.730  1.00  0.00     0.049 A 
ATOM     65  H   UNL A   1      43.817  28.644  30.911  1.00  0.00     0.167 HD
ATOM     66  C   UNL A   1      45.552  26.462  30.316  1.00  0.00     0.074 A 
ATOM     67  C   UNL A   1      46.071  25.244  29.727  1.00  0.00     0.031 C 
ATOM     68  C   UNL A   1      46.256  27.275  31.140  1.00  0.00     0.037 A 
BRANCH  55  69
ATOM     69  C   UNL A   1      43.204  32.298  33.035  1.00  0.00     0.064 A 
ATOM     70  C   UNL A   1      43.639  33.523  32.508  1.00  0.00     0.173 A 
ATOM     71  C   UNL A   1      42.707  32.290  34.348  1.00  0.00     0.173 A 
ATOM     72  F   UNL A   1      44.130  33.586  31.261  1.00  0.00    -0.203 F 
ATOM     73  C   UNL A   1      43.590  34.690  33.268  1.00  0.00     0.198 A 
ATOM     74  C   UNL A   1      42.630  33.463  35.095  1.00  0.00     0.198 A 
ATOM     75  F   UNL A   1      42.270  31.148  34.899  1.00  0.00    -0.203 F 
ATOM     76  F   UNL A   1      44.042  35.842  32.754  1.00  0.00    -0.200 F 
ATOM     77  C   UNL A   1      43.075  34.661  34.557  1.00  0.00     0.200 A 
ATOM     78  F   UNL A   1      42.117  33.436  36.333  1.00  0.00    -0.200 F 
ATOM     79  F   UNL A   1      43.010  35.787  35.278  1.00  0.00    -0.200 F 
ENDBRANCH  55  69
BRANCH  56  80
ATOM     80  C   UNL A   1      42.702  23.977  27.502  1.00  0.00     0.064 A 
ATOM     81  C   UNL A   1      43.097  23.957  26.158  1.00  0.00     0.173 A 
ATOM     82  C   UNL A   1      42.258  22.773  28.069  1.00  0.00     0.173 A 
ATOM     83  F   UNL A   1      43.514  25.085  25.565  1.00  0.00    -0.203 F 
ATOM     84  C   UNL A   1      43.046  22.781  25.412  1.00  0.00     0.198 A 
ATOM     85  C   UNL A   1      42.241  21.592  27.333  1.00  0.00     0.198 A 
ATOM     86  F   UNL A   1      41.873  22.736  29.354  1.00  0.00    -0.203 F 
ATOM     87  F   UNL A   1      43.400  22.796  24.119  1.00  0.00    -0.200 F 
ATOM     88  C   UNL A   1      42.630  21.598  26.002  1.00  0.00     0.200 A 
ATOM     89  F   UNL A   1      41.858  20.447  27.916  1.00  0.00    -0.200 F 
ATOM     90  F   UNL A   1      42.600  20.463  25.289  1.00  0.00    -0.200 F 
ENDBRANCH  56  80
BRANCH  68  91
ATOM     91  C   UNL A   1      47.664  26.876  31.472  1.00  0.00     0.064 A 
ATOM     92  C   UNL A   1      47.942  25.980  32.513  1.00  0.00     0.173 A 
ATOM     93  C   UNL A   1      48.734  27.326  30.685  1.00  0.00     0.173 A 
ATOM     94  F   UNL A   1      46.953  25.534  33.303  1.00  0.00    -0.203 F 
ATOM     95  C   UNL A   1      49.244  25.554  32.761  1.00  0.00     0.198 A 
ATOM     96  C   UNL A   1      50.031  26.873  30.915  1.00  0.00     0.198 A 
ATOM     97  F   UNL A   1      48.519  28.179  29.673  1.00  0.00    -0.203 F 
ATOM     98  F   UNL A   1      49.491  24.722  33.781  1.00  0.00    -0.200 F 
ATOM     99  C   UNL A   1      50.284  25.991  31.954  1.00  0.00     0.200 A 
ATOM    100  F   UNL A   1      51.031  27.282  30.123  1.00  0.00    -0.200 F 
ATOM    101  F   UNL A   1      51.533  25.561  32.178  1.00  0.00    -0.200 F 
ENDBRANCH  68  91
ENDBRANCH  42  43
ENDBRANCH  34  37
ENDBRANCH  32  33
ENDBRANCH  31  32
ENDBRANCH  30  31
ENDBRANCH   3  30
TORSDOF 15
ENDMDL
