MODEL 1
REMARK VINA RESULT:     -13.5      0.000      0.000
REMARK SMILES NS(=O)(=O)c1ccc(-n2nc(C(F)(F)F)cc2-c2ccc(CC(=O)NCCCNC(=O)c3ccc(-c4c5nc(c(-c6c(F)c(F)c(F)c(F)c6F)c6ccc([nH]6)c(-c6c(F)c(F)c(F)c(F)c6F)c6nc(c(-c7c(F)c(F)c(F)c(F)c7F)c7ccc4[nH]7)C=C6)C=C5)cc3)cc2)cc1
REMARK SMILES IDX 23 1 24 2 25 3 22 5 21 6 18 7 19 8 96 9 20 10 95 11 17 12
REMARK SMILES IDX 9 13 10 14 11 15 16 16 8 17 5 18 6 19 98 20 7 21 97 22 2 23
REMARK SMILES IDX 3 24 4 25 1 26 12 29 13 30 14 31 15 32 26 33 27 34 28 35
REMARK SMILES IDX 29 36 30 37 31 39 32 40 33 41 94 42 34 43 93 44 35 45 36 46
REMARK SMILES IDX 37 47 87 48 38 49 92 50 86 51 88 52 39 53 91 54 85 55 84 56
REMARK SMILES IDX 40 58 72 59 52 60 71 61 53 62 56 63 70 64 89 65 54 66 55 67
REMARK SMILES IDX 69 69 90 70 57 71 41 72 42 73 50 74 43 75 44 76 48 77 51 78
REMARK SMILES IDX 45 79 46 80 49 81 47 82 73 83 74 84 82 85 75 86 76 87 80 88
REMARK SMILES IDX 83 89 77 90 78 91 81 92 79 93 58 94 59 95 67 96 60 97 61 98
REMARK SMILES IDX 65 99 68 100 62 101 63 102 66 103 64 104
REMARK H PARENT 25 4 1 27 1 28 29 38 88 57 56 68
REMARK Flexibility Score: inf
ROOT
ATOM      1  C   UNL A   1      33.853  22.942  23.311  1.00  0.00     0.224 C 
ATOM      2  O   UNL A   1      33.943  23.079  22.089  1.00  0.00    -0.275 OA
ATOM      3  N   UNL A   1      34.888  22.347  23.977  1.00  0.00    -0.356 N 
ATOM      4  H   UNL A   1      35.644  22.062  23.415  1.00  0.00     0.163 HD
ENDROOT
BRANCH   1   5
ATOM      5  C   UNL A   1      32.641  23.447  24.077  1.00  0.00     0.135 C 
BRANCH   5   6
ATOM      6  C   UNL A   1      32.845  24.803  24.708  1.00  0.00    -0.039 A 
ATOM      7  C   UNL A   1      33.145  27.373  25.838  1.00  0.00     0.000 A 
ATOM      8  C   UNL A   1      33.860  27.005  24.689  1.00  0.00     0.010 A 
ATOM      9  C   UNL A   1      32.307  26.426  26.436  1.00  0.00     0.010 A 
ATOM     10  C   UNL A   1      33.702  25.738  24.119  1.00  0.00     0.005 A 
ATOM     11  C   UNL A   1      32.172  25.149  25.887  1.00  0.00     0.005 A 
BRANCH   7  12
ATOM     12  C   UNL A   1      33.309  28.696  26.450  1.00  0.00     0.075 A 
ATOM     13  N   UNL A   1      32.618  29.856  26.119  1.00  0.00    -0.233 N 
ATOM     14  N   UNL A   1      33.188  30.963  26.656  1.00  0.00    -0.163 NA
ATOM     15  C   UNL A   1      34.142  30.501  27.482  1.00  0.00     0.167 A 
ATOM     16  C   UNL A   1      34.256  29.094  27.375  1.00  0.00     0.064 A 
BRANCH  13  17
ATOM     17  C   UNL A   1      31.473  29.993  25.296  1.00  0.00     0.065 A 
ATOM     18  C   UNL A   1      29.395  30.423  23.524  1.00  0.00     0.082 A 
ATOM     19  C   UNL A   1      30.097  29.215  23.475  1.00  0.00     0.024 A 
ATOM     20  C   UNL A   1      29.687  31.397  24.480  1.00  0.00     0.024 A 
ATOM     21  C   UNL A   1      31.149  29.001  24.361  1.00  0.00     0.030 A 
ATOM     22  C   UNL A   1      30.713  31.167  25.393  1.00  0.00     0.030 A 
BRANCH  18  23
ATOM     23  S   UNL A   1      28.131  30.726  22.332  1.00  0.00     0.238 S 
ATOM     24  O   UNL A   1      28.568  30.235  21.056  1.00  0.00    -0.207 OA
ATOM     25  O   UNL A   1      27.605  32.064  22.520  1.00  0.00    -0.207 OA
BRANCH  23  26
ATOM     26  N   UNL A   1      26.947  29.673  22.878  1.00  0.00    -0.225 NA
ATOM     27  H   UNL A   1      27.165  29.380  23.830  1.00  0.00     0.137 HD
ATOM     28  H   UNL A   1      26.912  28.855  22.270  1.00  0.00     0.137 HD
ENDBRANCH  23  26
ENDBRANCH  18  23
ENDBRANCH  13  17
BRANCH  15  29
ATOM     29  C   UNL A   1      34.971  31.400  28.357  1.00  0.00     0.435 C 
ATOM     30  F   UNL A   1      35.643  30.726  29.326  1.00  0.00    -0.164 F 
ATOM     31  F   UNL A   1      35.893  32.097  27.641  1.00  0.00    -0.164 F 
ATOM     32  F   UNL A   1      34.202  32.328  28.994  1.00  0.00    -0.164 F 
ENDBRANCH  15  29
ENDBRANCH   7  12
ENDBRANCH   5   6
ENDBRANCH   1   5
BRANCH   3  33
ATOM     33  C   UNL A   1      35.029  22.075  25.398  1.00  0.00     0.117 C 
BRANCH  33  34
ATOM     34  C   UNL A   1      35.693  23.222  26.169  1.00  0.00     0.042 C 
BRANCH  34  35
ATOM     35  C   UNL A   1      37.095  23.541  25.675  1.00  0.00     0.118 C 
BRANCH  35  36
ATOM     36  N   UNL A   1      38.019  22.414  25.812  1.00  0.00    -0.352 N 
ATOM     37  C   UNL A   1      39.297  22.401  26.340  1.00  0.00     0.251 C 
ATOM     38  H   UNL A   1      37.685  21.547  25.484  1.00  0.00     0.163 HD
ATOM     39  O   UNL A   1      40.063  21.475  26.103  1.00  0.00    -0.269 OA
BRANCH  37  40
ATOM     40  C   UNL A   1      39.736  23.533  27.172  1.00  0.00     0.039 A 
ATOM     41  C   UNL A   1      40.919  23.479  27.915  1.00  0.00     0.014 A 
ATOM     42  C   UNL A   1      38.970  24.689  27.154  1.00  0.00     0.014 A 
ATOM     43  C   UNL A   1      41.363  24.627  28.572  1.00  0.00     0.010 A 
ATOM     44  C   UNL A   1      39.514  25.859  27.621  1.00  0.00     0.010 A 
ATOM     45  C   UNL A   1      40.668  25.833  28.405  1.00  0.00    -0.014 A 
BRANCH  45  46
ATOM     46  C   UNL A   1      41.152  27.094  28.985  1.00  0.00     0.031 A 
ATOM     47  C   UNL A   1      42.391  27.706  28.389  1.00  0.00     0.074 A 
ATOM     48  C   UNL A   1      40.386  27.793  29.856  1.00  0.00     0.049 A 
ATOM     49  N   UNL A   1      43.372  28.301  28.994  1.00  0.00    -0.248 NA
ATOM     50  C   UNL A   1      42.578  27.630  26.928  1.00  0.00     0.031 C 
ATOM     51  C   UNL A   1      39.041  27.470  30.362  1.00  0.00     0.029 A 
ATOM     52  N   UNL A   1      40.599  29.033  30.377  1.00  0.00    -0.354 N 
ATOM     53  C   UNL A   1      44.215  28.798  27.999  1.00  0.00     0.074 A 
ATOM     54  C   UNL A   1      43.707  28.317  26.747  1.00  0.00     0.031 C 
ATOM     55  C   UNL A   1      38.471  28.575  30.885  1.00  0.00     0.029 A 
ATOM     56  C   UNL A   1      39.469  29.621  30.932  1.00  0.00     0.049 A 
ATOM     57  H   UNL A   1      41.478  29.475  30.363  1.00  0.00     0.167 HD
ATOM     58  C   UNL A   1      45.219  29.681  28.255  1.00  0.00     0.037 A 
ATOM     59  C   UNL A   1      39.344  30.889  31.391  1.00  0.00     0.037 A 
ATOM     60  C   UNL A   1      45.701  29.537  29.598  1.00  0.00     0.049 A 
ATOM     61  C   UNL A   1      40.711  31.396  31.644  1.00  0.00     0.074 A 
ATOM     62  C   UNL A   1      46.255  28.480  30.292  1.00  0.00     0.029 A 
ATOM     63  N   UNL A   1      45.319  30.440  30.556  1.00  0.00    -0.354 N 
ATOM     64  N   UNL A   1      41.494  30.943  32.583  1.00  0.00    -0.248 NA
ATOM     65  C   UNL A   1      41.369  32.115  30.566  1.00  0.00     0.031 C 
ATOM     66  C   UNL A   1      45.667  28.554  31.587  1.00  0.00     0.029 A 
ATOM     67  C   UNL A   1      44.860  29.694  31.612  1.00  0.00     0.049 A 
ATOM     68  H   UNL A   1      45.363  31.422  30.499  1.00  0.00     0.167 HD
ATOM     69  C   UNL A   1      42.756  30.941  32.012  1.00  0.00     0.074 A 
ATOM     70  C   UNL A   1      42.634  31.761  30.809  1.00  0.00     0.031 C 
ATOM     71  C   UNL A   1      43.716  30.057  32.412  1.00  0.00     0.037 A 
BRANCH  58  72
ATOM     72  C   UNL A   1      45.554  30.865  27.385  1.00  0.00     0.064 A 
ATOM     73  C   UNL A   1      46.899  31.133  27.058  1.00  0.00     0.173 A 
ATOM     74  C   UNL A   1      44.645  31.916  27.137  1.00  0.00     0.173 A 
ATOM     75  F   UNL A   1      47.845  30.199  27.242  1.00  0.00    -0.203 F 
ATOM     76  C   UNL A   1      47.317  32.392  26.619  1.00  0.00     0.198 A 
ATOM     77  C   UNL A   1      45.062  33.162  26.668  1.00  0.00     0.198 A 
ATOM     78  F   UNL A   1      43.341  31.801  27.417  1.00  0.00    -0.203 F 
ATOM     79  F   UNL A   1      48.621  32.634  26.431  1.00  0.00    -0.200 F 
ATOM     80  C   UNL A   1      46.400  33.413  26.443  1.00  0.00     0.200 A 
ATOM     81  F   UNL A   1      44.158  34.137  26.499  1.00  0.00    -0.200 F 
ATOM     82  F   UNL A   1      46.806  34.640  26.092  1.00  0.00    -0.200 F 
ENDBRANCH  58  72
BRANCH  59  83
ATOM     83  C   UNL A   1      38.145  31.754  31.411  1.00  0.00     0.064 A 
ATOM     84  C   UNL A   1      37.399  31.930  32.585  1.00  0.00     0.173 A 
ATOM     85  C   UNL A   1      37.859  32.631  30.347  1.00  0.00     0.173 A 
ATOM     86  F   UNL A   1      37.635  31.159  33.657  1.00  0.00    -0.203 F 
ATOM     87  C   UNL A   1      36.441  32.943  32.700  1.00  0.00     0.198 A 
ATOM     88  C   UNL A   1      36.898  33.637  30.459  1.00  0.00     0.198 A 
ATOM     89  F   UNL A   1      38.569  32.587  29.210  1.00  0.00    -0.203 F 
ATOM     90  F   UNL A   1      35.792  33.120  33.858  1.00  0.00    -0.200 F 
ATOM     91  C   UNL A   1      36.200  33.802  31.641  1.00  0.00     0.200 A 
ATOM     92  F   UNL A   1      36.695  34.482  29.437  1.00  0.00    -0.200 F 
ATOM     93  F   UNL A   1      35.327  34.810  31.771  1.00  0.00    -0.200 F 
ENDBRANCH  59  83
BRANCH  71  94
ATOM     94  C   UNL A   1      43.450  29.207  33.626  1.00  0.00     0.064 A 
ATOM     95  C   UNL A   1      42.877  27.923  33.576  1.00  0.00     0.173 A 
ATOM     96  C   UNL A   1      43.957  29.631  34.861  1.00  0.00     0.173 A 
ATOM     97  F   UNL A   1      42.470  27.392  32.419  1.00  0.00    -0.203 F 
ATOM     98  C   UNL A   1      42.778  27.124  34.713  1.00  0.00     0.198 A 
ATOM     99  C   UNL A   1      43.893  28.815  35.989  1.00  0.00     0.198 A 
ATOM    100  F   UNL A   1      44.575  30.818  34.963  1.00  0.00    -0.203 F 
ATOM    101  F   UNL A   1      42.222  25.906  34.632  1.00  0.00    -0.200 F 
ATOM    102  C   UNL A   1      43.295  27.568  35.917  1.00  0.00     0.200 A 
ATOM    103  F   UNL A   1      44.445  29.225  37.139  1.00  0.00    -0.200 F 
ATOM    104  F   UNL A   1      43.244  26.780  37.001  1.00  0.00    -0.200 F 
ENDBRANCH  71  94
ENDBRANCH  45  46
ENDBRANCH  37  40
ENDBRANCH  35  36
ENDBRANCH  34  35
ENDBRANCH  33  34
ENDBRANCH   3  33
TORSDOF 16
ENDMDL
MODEL 2
REMARK VINA RESULT:     -13.4      2.662      3.674
REMARK SMILES NS(=O)(=O)c1ccc(-n2nc(C(F)(F)F)cc2-c2ccc(CC(=O)NCCCNC(=O)c3ccc(-c4c5nc(c(-c6c(F)c(F)c(F)c(F)c6F)c6ccc([nH]6)c(-c6c(F)c(F)c(F)c(F)c6F)c6nc(c(-c7c(F)c(F)c(F)c(F)c7F)c7ccc4[nH]7)C=C6)C=C5)cc3)cc2)cc1
REMARK SMILES IDX 23 1 24 2 25 3 22 5 21 6 18 7 19 8 96 9 20 10 95 11 17 12
REMARK SMILES IDX 9 13 10 14 11 15 16 16 8 17 5 18 6 19 98 20 7 21 97 22 2 23
REMARK SMILES IDX 3 24 4 25 1 26 12 29 13 30 14 31 15 32 26 33 27 34 28 35
REMARK SMILES IDX 29 36 30 37 31 39 32 40 33 41 94 42 34 43 93 44 35 45 36 46
REMARK SMILES IDX 37 47 87 48 38 49 92 50 86 51 88 52 39 53 91 54 85 55 84 56
REMARK SMILES IDX 40 58 72 59 52 60 71 61 53 62 56 63 70 64 89 65 54 66 55 67
REMARK SMILES IDX 69 69 90 70 57 71 41 72 42 73 50 74 43 75 44 76 48 77 51 78
REMARK SMILES IDX 45 79 46 80 49 81 47 82 73 83 74 84 82 85 75 86 76 87 80 88
REMARK SMILES IDX 83 89 77 90 78 91 81 92 79 93 58 94 59 95 67 96 60 97 61 98
REMARK SMILES IDX 65 99 68 100 62 101 63 102 66 103 64 104
REMARK H PARENT 25 4 1 27 1 28 29 38 88 57 56 68
REMARK Flexibility Score: inf
ROOT
ATOM      1  C   UNL A   1      33.238  22.578  27.285  1.00  0.00     0.224 C 
ATOM      2  O   UNL A   1      32.671  22.726  28.370  1.00  0.00    -0.275 OA
ATOM      3  N   UNL A   1      34.598  22.448  27.275  1.00  0.00    -0.356 N 
ATOM      4  H   UNL A   1      35.033  22.487  28.157  1.00  0.00     0.163 HD
ENDROOT
BRANCH   1   5
ATOM      5  C   UNL A   1      32.453  22.507  25.985  1.00  0.00     0.135 C 
BRANCH   5   6
ATOM      6  C   UNL A   1      31.966  23.850  25.499  1.00  0.00    -0.039 A 
ATOM      7  C   UNL A   1      31.138  26.406  24.630  1.00  0.00     0.000 A 
ATOM      8  C   UNL A   1      30.663  25.868  25.836  1.00  0.00     0.010 A 
ATOM      9  C   UNL A   1      32.001  25.633  23.847  1.00  0.00     0.010 A 
ATOM     10  C   UNL A   1      31.083  24.610  26.275  1.00  0.00     0.005 A 
ATOM     11  C   UNL A   1      32.397  24.362  24.268  1.00  0.00     0.005 A 
BRANCH   7  12
ATOM     12  C   UNL A   1      30.698  27.722  24.154  1.00  0.00     0.075 A 
ATOM     13  N   UNL A   1      31.116  28.961  24.628  1.00  0.00    -0.233 N 
ATOM     14  N   UNL A   1      30.326  29.971  24.190  1.00  0.00    -0.163 NA
ATOM     15  C   UNL A   1      29.504  29.409  23.288  1.00  0.00     0.167 A 
ATOM     16  C   UNL A   1      29.697  28.007  23.243  1.00  0.00     0.064 A 
BRANCH  13  17
ATOM     17  C   UNL A   1      32.194  29.249  25.501  1.00  0.00     0.065 A 
ATOM     18  C   UNL A   1      34.411  29.955  26.994  1.00  0.00     0.082 A 
ATOM     19  C   UNL A   1      33.206  30.637  27.193  1.00  0.00     0.024 A 
ATOM     20  C   UNL A   1      34.507  28.894  26.094  1.00  0.00     0.024 A 
ATOM     21  C   UNL A   1      32.092  30.287  26.437  1.00  0.00     0.030 A 
ATOM     22  C   UNL A   1      33.382  28.517  25.364  1.00  0.00     0.030 A 
BRANCH  18  23
ATOM     23  S   UNL A   1      35.842  30.473  27.885  1.00  0.00     0.238 S 
ATOM     24  O   UNL A   1      35.784  31.895  28.073  1.00  0.00    -0.207 OA
ATOM     25  O   UNL A   1      37.009  29.799  27.350  1.00  0.00    -0.207 OA
BRANCH  23  26
ATOM     26  N   UNL A   1      35.535  29.772  29.377  1.00  0.00    -0.225 NA
ATOM     27  H   UNL A   1      34.561  29.933  29.633  1.00  0.00     0.137 HD
ATOM     28  H   UNL A   1      36.145  30.188  30.080  1.00  0.00     0.137 HD
ENDBRANCH  23  26
ENDBRANCH  18  23
ENDBRANCH  13  17
BRANCH  15  29
ATOM     29  C   UNL A   1      28.510  30.198  22.482  1.00  0.00     0.435 C 
ATOM     30  F   UNL A   1      29.070  31.249  21.828  1.00  0.00    -0.164 F 
ATOM     31  F   UNL A   1      27.888  29.430  21.548  1.00  0.00    -0.164 F 
ATOM     32  F   UNL A   1      27.525  30.714  23.270  1.00  0.00    -0.164 F 
ENDBRANCH  15  29
ENDBRANCH   7  12
ENDBRANCH   5   6
ENDBRANCH   1   5
BRANCH   3  33
ATOM     33  C   UNL A   1      35.494  22.261  26.145  1.00  0.00     0.117 C 
BRANCH  33  34
ATOM     34  C   UNL A   1      35.945  23.580  25.508  1.00  0.00     0.042 C 
BRANCH  34  35
ATOM     35  C   UNL A   1      37.455  23.696  25.378  1.00  0.00     0.118 C 
BRANCH  35  36
ATOM     36  N   UNL A   1      38.171  22.608  26.048  1.00  0.00    -0.352 N 
ATOM     37  C   UNL A   1      39.331  22.667  26.796  1.00  0.00     0.251 C 
ATOM     38  H   UNL A   1      37.771  21.713  25.952  1.00  0.00     0.163 HD
ATOM     39  O   UNL A   1      39.982  21.655  27.024  1.00  0.00    -0.269 OA
BRANCH  37  40
ATOM     40  C   UNL A   1      39.791  23.974  27.296  1.00  0.00     0.039 A 
ATOM     41  C   UNL A   1      38.961  25.098  27.275  1.00  0.00     0.014 A 
ATOM     42  C   UNL A   1      41.061  24.048  27.849  1.00  0.00     0.014 A 
ATOM     43  C   UNL A   1      39.392  26.274  27.890  1.00  0.00     0.010 A 
ATOM     44  C   UNL A   1      41.389  25.130  28.627  1.00  0.00     0.010 A 
ATOM     45  C   UNL A   1      40.605  26.284  28.592  1.00  0.00    -0.014 A 
BRANCH  45  46
ATOM     46  C   UNL A   1      41.055  27.462  29.347  1.00  0.00     0.031 A 
ATOM     47  C   UNL A   1      42.296  28.165  28.869  1.00  0.00     0.074 A 
ATOM     48  C   UNL A   1      40.257  28.028  30.284  1.00  0.00     0.049 A 
ATOM     49  N   UNL A   1      43.253  28.688  29.572  1.00  0.00    -0.248 NA
ATOM     50  C   UNL A   1      42.518  28.287  27.416  1.00  0.00     0.031 C 
ATOM     51  C   UNL A   1      38.906  27.622  30.710  1.00  0.00     0.029 A 
ATOM     52  N   UNL A   1      40.437  29.190  30.971  1.00  0.00    -0.354 N 
ATOM     53  C   UNL A   1      44.110  29.324  28.672  1.00  0.00     0.074 A 
ATOM     54  C   UNL A   1      43.639  29.007  27.355  1.00  0.00     0.031 C 
ATOM     55  C   UNL A   1      38.306  28.640  31.361  1.00  0.00     0.029 A 
ATOM     56  C   UNL A   1      39.285  29.684  31.571  1.00  0.00     0.049 A 
ATOM     57  H   UNL A   1      41.310  29.642  31.037  1.00  0.00     0.167 HD
ATOM     58  C   UNL A   1      45.093  30.179  29.069  1.00  0.00     0.037 A 
ATOM     59  C   UNL A   1      39.129  30.877  32.191  1.00  0.00     0.037 A 
ATOM     60  C   UNL A   1      45.546  29.864  30.391  1.00  0.00     0.049 A 
ATOM     61  C   UNL A   1      40.481  31.365  32.543  1.00  0.00     0.074 A 
ATOM     62  C   UNL A   1      46.103  28.731  30.952  1.00  0.00     0.029 A 
ATOM     63  N   UNL A   1      45.127  30.625  31.451  1.00  0.00    -0.354 N 
ATOM     64  N   UNL A   1      41.250  30.801  33.432  1.00  0.00    -0.248 NA
ATOM     65  C   UNL A   1      41.151  32.230  31.587  1.00  0.00     0.031 C 
ATOM     66  C   UNL A   1      45.484  28.624  32.231  1.00  0.00     0.029 A 
ATOM     67  C   UNL A   1      44.658  29.739  32.388  1.00  0.00     0.049 A 
ATOM     68  H   UNL A   1      45.157  31.606  31.527  1.00  0.00     0.167 HD
ATOM     69  C   UNL A   1      42.525  30.893  32.898  1.00  0.00     0.074 A 
ATOM     70  C   UNL A   1      42.416  31.864  31.812  1.00  0.00     0.031 C 
ATOM     71  C   UNL A   1      43.490  29.976  33.200  1.00  0.00     0.037 A 
BRANCH  58  72
ATOM     72  C   UNL A   1      45.427  31.473  28.372  1.00  0.00     0.064 A 
ATOM     73  C   UNL A   1      44.398  32.385  28.060  1.00  0.00     0.173 A 
ATOM     74  C   UNL A   1      46.657  31.695  27.718  1.00  0.00     0.173 A 
ATOM     75  F   UNL A   1      43.190  32.273  28.635  1.00  0.00    -0.203 F 
ATOM     76  C   UNL A   1      44.557  33.376  27.088  1.00  0.00     0.198 A 
ATOM     77  C   UNL A   1      46.822  32.706  26.770  1.00  0.00     0.198 A 
ATOM     78  F   UNL A   1      47.714  30.894  27.910  1.00  0.00    -0.203 F 
ATOM     79  F   UNL A   1      43.515  34.145  26.743  1.00  0.00    -0.200 F 
ATOM     80  C   UNL A   1      45.764  33.523  26.429  1.00  0.00     0.200 A 
ATOM     81  F   UNL A   1      48.001  32.837  26.146  1.00  0.00    -0.200 F 
ATOM     82  F   UNL A   1      45.897  34.423  25.446  1.00  0.00    -0.200 F 
ENDBRANCH  58  72
BRANCH  59  83
ATOM     83  C   UNL A   1      37.915  31.715  32.296  1.00  0.00     0.064 A 
ATOM     84  C   UNL A   1      37.336  31.996  33.542  1.00  0.00     0.173 A 
ATOM     85  C   UNL A   1      37.453  32.472  31.202  1.00  0.00     0.173 A 
ATOM     86  F   UNL A   1      37.746  31.345  34.640  1.00  0.00    -0.203 F 
ATOM     87  C   UNL A   1      36.369  32.996  33.691  1.00  0.00     0.198 A 
ATOM     88  C   UNL A   1      36.483  33.465  31.351  1.00  0.00     0.198 A 
ATOM     89  F   UNL A   1      37.997  32.325  29.986  1.00  0.00    -0.203 F 
ATOM     90  F   UNL A   1      35.883  33.279  34.908  1.00  0.00    -0.200 F 
ATOM     91  C   UNL A   1      35.952  33.737  32.597  1.00  0.00     0.200 A 
ATOM     92  F   UNL A   1      36.110  34.195  30.289  1.00  0.00    -0.200 F 
ATOM     93  F   UNL A   1      35.071  34.735  32.751  1.00  0.00    -0.200 F 
ENDBRANCH  59  83
BRANCH  71  94
ATOM     94  C   UNL A   1      43.210  28.969  34.283  1.00  0.00     0.064 A 
ATOM     95  C   UNL A   1      42.570  27.736  34.063  1.00  0.00     0.173 A 
ATOM     96  C   UNL A   1      43.771  29.178  35.550  1.00  0.00     0.173 A 
ATOM     97  F   UNL A   1      42.107  27.403  32.854  1.00  0.00    -0.203 F 
ATOM     98  C   UNL A   1      42.458  26.782  35.072  1.00  0.00     0.198 A 
ATOM     99  C   UNL A   1      43.693  28.207  36.547  1.00  0.00     0.198 A 
ATOM    100  F   UNL A   1      44.452  30.306  35.806  1.00  0.00    -0.203 F 
ATOM    101  F   UNL A   1      41.837  25.617  34.831  1.00  0.00    -0.200 F 
ATOM    102  C   UNL A   1      43.028  27.015  36.311  1.00  0.00     0.200 A 
ATOM    103  F   UNL A   1      44.294  28.414  37.725  1.00  0.00    -0.200 F 
ATOM    104  F   UNL A   1      42.964  26.078  37.268  1.00  0.00    -0.200 F 
ENDBRANCH  71  94
ENDBRANCH  45  46
ENDBRANCH  37  40
ENDBRANCH  35  36
ENDBRANCH  34  35
ENDBRANCH  33  34
ENDBRANCH   3  33
TORSDOF 16
ENDMDL
MODEL 3
REMARK VINA RESULT:     -13.3      3.605      5.561
REMARK SMILES NS(=O)(=O)c1ccc(-n2nc(C(F)(F)F)cc2-c2ccc(CC(=O)NCCCNC(=O)c3ccc(-c4c5nc(c(-c6c(F)c(F)c(F)c(F)c6F)c6ccc([nH]6)c(-c6c(F)c(F)c(F)c(F)c6F)c6nc(c(-c7c(F)c(F)c(F)c(F)c7F)c7ccc4[nH]7)C=C6)C=C5)cc3)cc2)cc1
REMARK SMILES IDX 23 1 24 2 25 3 22 5 21 6 18 7 19 8 96 9 20 10 95 11 17 12
REMARK SMILES IDX 9 13 10 14 11 15 16 16 8 17 5 18 6 19 98 20 7 21 97 22 2 23
REMARK SMILES IDX 3 24 4 25 1 26 12 29 13 30 14 31 15 32 26 33 27 34 28 35
REMARK SMILES IDX 29 36 30 37 31 39 32 40 33 41 94 42 34 43 93 44 35 45 36 46
REMARK SMILES IDX 37 47 87 48 38 49 92 50 86 51 88 52 39 53 91 54 85 55 84 56
REMARK SMILES IDX 40 58 72 59 52 60 71 61 53 62 56 63 70 64 89 65 54 66 55 67
REMARK SMILES IDX 69 69 90 70 57 71 41 72 42 73 50 74 43 75 44 76 48 77 51 78
REMARK SMILES IDX 45 79 46 80 49 81 47 82 73 83 74 84 82 85 75 86 76 87 80 88
REMARK SMILES IDX 83 89 77 90 78 91 81 92 79 93 58 94 59 95 67 96 60 97 61 98
REMARK SMILES IDX 65 99 68 100 62 101 63 102 66 103 64 104
REMARK H PARENT 25 4 1 27 1 28 29 38 88 57 56 68
REMARK Flexibility Score: inf
ROOT
ATOM      1  C   UNL A   1      38.905  21.468  25.944  1.00  0.00     0.224 C 
ATOM      2  O   UNL A   1      38.107  20.747  25.340  1.00  0.00    -0.275 OA
ATOM      3  N   UNL A   1      39.954  20.876  26.590  1.00  0.00    -0.356 N 
ATOM      4  H   UNL A   1      39.993  19.895  26.524  1.00  0.00     0.163 HD
ENDROOT
BRANCH   1   5
ATOM      5  C   UNL A   1      38.755  22.980  25.953  1.00  0.00     0.135 C 
BRANCH   5   6
ATOM      6  C   UNL A   1      37.398  23.457  25.496  1.00  0.00    -0.039 A 
ATOM      7  C   UNL A   1      34.821  24.259  24.668  1.00  0.00     0.000 A 
ATOM      8  C   UNL A   1      35.732  23.714  23.752  1.00  0.00     0.010 A 
ATOM      9  C   UNL A   1      35.229  24.433  25.994  1.00  0.00     0.010 A 
ATOM     10  C   UNL A   1      37.004  23.303  24.162  1.00  0.00     0.005 A 
ATOM     11  C   UNL A   1      36.510  24.053  26.400  1.00  0.00     0.005 A 
BRANCH   7  12
ATOM     12  C   UNL A   1      33.487  24.703  24.248  1.00  0.00     0.075 A 
ATOM     13  N   UNL A   1      32.454  23.900  23.776  1.00  0.00    -0.233 N 
ATOM     14  N   UNL A   1      31.461  24.625  23.206  1.00  0.00    -0.163 NA
ATOM     15  C   UNL A   1      31.765  25.907  23.470  1.00  0.00     0.167 A 
ATOM     16  C   UNL A   1      33.026  25.999  24.108  1.00  0.00     0.064 A 
BRANCH  13  17
ATOM     17  C   UNL A   1      32.361  22.487  23.795  1.00  0.00     0.065 A 
ATOM     18  C   UNL A   1      32.446  19.724  23.752  1.00  0.00     0.082 A 
ATOM     19  C   UNL A   1      32.519  20.392  24.979  1.00  0.00     0.024 A 
ATOM     20  C   UNL A   1      32.282  20.418  22.553  1.00  0.00     0.024 A 
ATOM     21  C   UNL A   1      32.483  21.783  25.001  1.00  0.00     0.030 A 
ATOM     22  C   UNL A   1      32.208  21.808  22.577  1.00  0.00     0.030 A 
BRANCH  18  23
ATOM     23  S   UNL A   1      32.593  17.967  23.727  1.00  0.00     0.238 S 
ATOM     24  O   UNL A   1      31.751  17.415  24.750  1.00  0.00    -0.207 OA
ATOM     25  O   UNL A   1      33.990  17.605  23.581  1.00  0.00    -0.207 OA
BRANCH  23  26
ATOM     26  N   UNL A   1      31.862  17.626  22.259  1.00  0.00    -0.225 NA
ATOM     27  H   UNL A   1      30.937  18.056  22.232  1.00  0.00     0.137 HD
ATOM     28  H   UNL A   1      31.770  16.616  22.149  1.00  0.00     0.137 HD
ENDBRANCH  23  26
ENDBRANCH  18  23
ENDBRANCH  13  17
BRANCH  15  29
ATOM     29  C   UNL A   1      30.872  27.055  23.090  1.00  0.00     0.435 C 
ATOM     30  F   UNL A   1      31.309  28.250  23.567  1.00  0.00    -0.164 F 
ATOM     31  F   UNL A   1      30.754  27.182  21.740  1.00  0.00    -0.164 F 
ATOM     32  F   UNL A   1      29.608  26.886  23.569  1.00  0.00    -0.164 F 
ENDBRANCH  15  29
ENDBRANCH   7  12
ENDBRANCH   5   6
ENDBRANCH   1   5
BRANCH   3  33
ATOM     33  C   UNL A   1      41.023  21.493  27.360  1.00  0.00     0.117 C 
BRANCH  33  34
ATOM     34  C   UNL A   1      42.414  20.965  26.992  1.00  0.00     0.042 C 
BRANCH  34  35
ATOM     35  C   UNL A   1      42.480  20.378  25.592  1.00  0.00     0.118 C 
BRANCH  35  36
ATOM     36  N   UNL A   1      43.848  20.084  25.159  1.00  0.00    -0.352 N 
ATOM     37  C   UNL A   1      44.879  20.965  24.892  1.00  0.00     0.251 C 
ATOM     38  H   UNL A   1      44.062  19.130  25.043  1.00  0.00     0.163 HD
ATOM     39  O   UNL A   1      45.854  20.609  24.242  1.00  0.00    -0.269 OA
BRANCH  37  40
ATOM     40  C   UNL A   1      44.777  22.351  25.379  1.00  0.00     0.039 A 
ATOM     41  C   UNL A   1      43.884  23.263  24.807  1.00  0.00     0.014 A 
ATOM     42  C   UNL A   1      45.552  22.716  26.468  1.00  0.00     0.014 A 
ATOM     43  C   UNL A   1      43.723  24.517  25.396  1.00  0.00     0.010 A 
ATOM     44  C   UNL A   1      45.239  23.859  27.160  1.00  0.00     0.010 A 
ATOM     45  C   UNL A   1      44.387  24.810  26.595  1.00  0.00    -0.014 A 
BRANCH  45  46
ATOM     46  C   UNL A   1      44.170  26.074  27.313  1.00  0.00     0.031 A 
ATOM     47  C   UNL A   1      45.095  27.219  27.005  1.00  0.00     0.074 A 
ATOM     48  C   UNL A   1      43.044  26.271  28.040  1.00  0.00     0.049 A 
ATOM     49  N   UNL A   1      45.604  28.092  27.819  1.00  0.00    -0.248 NA
ATOM     50  C   UNL A   1      45.533  27.412  25.609  1.00  0.00     0.031 C 
ATOM     51  C   UNL A   1      41.912  25.352  28.252  1.00  0.00     0.029 A 
ATOM     52  N   UNL A   1      42.606  27.410  28.644  1.00  0.00    -0.354 N 
ATOM     53  C   UNL A   1      46.296  29.016  27.035  1.00  0.00     0.074 A 
ATOM     54  C   UNL A   1      46.261  28.526  25.688  1.00  0.00     0.031 C 
ATOM     55  C   UNL A   1      40.840  26.040  28.695  1.00  0.00     0.029 A 
ATOM     56  C   UNL A   1      41.259  27.394  28.985  1.00  0.00     0.049 A 
ATOM     57  H   UNL A   1      43.193  28.179  28.826  1.00  0.00     0.167 HD
ATOM     58  C   UNL A   1      46.756  30.201  27.525  1.00  0.00     0.037 A 
ATOM     59  C   UNL A   1      40.519  28.423  29.462  1.00  0.00     0.037 A 
ATOM     60  C   UNL A   1      47.026  30.107  28.929  1.00  0.00     0.049 A 
ATOM     61  C   UNL A   1      41.466  29.423  30.005  1.00  0.00     0.074 A 
ATOM     62  C   UNL A   1      47.865  29.303  29.676  1.00  0.00     0.029 A 
ATOM     63  N   UNL A   1      46.137  30.638  29.828  1.00  0.00    -0.354 N 
ATOM     64  N   UNL A   1      42.203  29.228  31.063  1.00  0.00    -0.248 NA
ATOM     65  C   UNL A   1      41.910  30.480  29.113  1.00  0.00     0.031 C 
ATOM     66  C   UNL A   1      47.101  28.962  30.828  1.00  0.00     0.029 A 
ATOM     67  C   UNL A   1      45.885  29.643  30.738  1.00  0.00     0.049 A 
ATOM     68  H   UNL A   1      45.757  31.546  29.821  1.00  0.00     0.167 HD
ATOM     69  C   UNL A   1      43.414  29.829  30.758  1.00  0.00     0.074 A 
ATOM     70  C   UNL A   1      43.143  30.664  29.590  1.00  0.00     0.031 C 
ATOM     71  C   UNL A   1      44.584  29.388  31.306  1.00  0.00     0.037 A 
BRANCH  58  72
ATOM     72  C   UNL A   1      46.677  31.514  26.789  1.00  0.00     0.064 A 
ATOM     73  C   UNL A   1      47.814  32.346  26.723  1.00  0.00     0.173 A 
ATOM     74  C   UNL A   1      45.455  32.123  26.436  1.00  0.00     0.173 A 
ATOM     75  F   UNL A   1      49.030  31.866  27.025  1.00  0.00    -0.203 F 
ATOM     76  C   UNL A   1      47.717  33.709  26.430  1.00  0.00     0.198 A 
ATOM     77  C   UNL A   1      45.366  33.478  26.113  1.00  0.00     0.198 A 
ATOM     78  F   UNL A   1      44.296  31.452  26.472  1.00  0.00    -0.203 F 
ATOM     79  F   UNL A   1      48.808  34.484  26.491  1.00  0.00    -0.200 F 
ATOM     80  C   UNL A   1      46.489  34.278  26.145  1.00  0.00     0.200 A 
ATOM     81  F   UNL A   1      44.168  34.011  25.835  1.00  0.00    -0.200 F 
ATOM     82  F   UNL A   1      46.382  35.597  25.935  1.00  0.00    -0.200 F 
ENDBRANCH  58  72
BRANCH  59  83
ATOM     83  C   UNL A   1      39.078  28.694  29.276  1.00  0.00     0.064 A 
ATOM     84  C   UNL A   1      38.209  28.775  30.374  1.00  0.00     0.173 A 
ATOM     85  C   UNL A   1      38.571  29.138  28.039  1.00  0.00     0.173 A 
ATOM     86  F   UNL A   1      38.627  28.406  31.594  1.00  0.00    -0.203 F 
ATOM     87  C   UNL A   1      36.917  29.296  30.249  1.00  0.00     0.198 A 
ATOM     88  C   UNL A   1      37.279  29.651  27.913  1.00  0.00     0.198 A 
ATOM     89  F   UNL A   1      39.349  29.165  26.947  1.00  0.00    -0.203 F 
ATOM     90  F   UNL A   1      36.138  29.415  31.332  1.00  0.00    -0.200 F 
ATOM     91  C   UNL A   1      36.458  29.744  29.021  1.00  0.00     0.200 A 
ATOM     92  F   UNL A   1      36.856  30.109  26.725  1.00  0.00    -0.200 F 
ATOM     93  F   UNL A   1      35.243  30.299  28.914  1.00  0.00    -0.200 F 
ENDBRANCH  59  83
BRANCH  71  94
ATOM     94  C   UNL A   1      44.521  28.361  32.405  1.00  0.00     0.064 A 
ATOM     95  C   UNL A   1      44.292  28.671  33.758  1.00  0.00     0.173 A 
ATOM     96  C   UNL A   1      44.509  27.005  32.052  1.00  0.00     0.173 A 
ATOM     97  F   UNL A   1      44.174  29.938  34.166  1.00  0.00    -0.203 F 
ATOM     98  C   UNL A   1      44.106  27.675  34.713  1.00  0.00     0.198 A 
ATOM     99  C   UNL A   1      44.284  26.010  33.002  1.00  0.00     0.198 A 
ATOM    100  F   UNL A   1      44.655  26.644  30.767  1.00  0.00    -0.203 F 
ATOM    101  F   UNL A   1      43.896  28.004  35.996  1.00  0.00    -0.200 F 
ATOM    102  C   UNL A   1      44.093  26.345  34.332  1.00  0.00     0.200 A 
ATOM    103  F   UNL A   1      44.215  24.729  32.619  1.00  0.00    -0.200 F 
ATOM    104  F   UNL A   1      43.866  25.386  35.242  1.00  0.00    -0.200 F 
ENDBRANCH  71  94
ENDBRANCH  45  46
ENDBRANCH  37  40
ENDBRANCH  35  36
ENDBRANCH  34  35
ENDBRANCH  33  34
ENDBRANCH   3  33
TORSDOF 16
ENDMDL
