MODEL 1
REMARK VINA RESULT:     -10.7      0.000      0.000
REMARK SMILES C=CCC(=O)N[C@@](C)(CC)C(=O)NCCCNC(=O)c1ccc(-c2c3nc(c(-c4c(F)c(F)c(F)c(F)c4F)c4ccc([nH]4)c(-c4c(F)c(F)c(F)c(F)c4F)c4nc(c(-c5c(F)c(F)c(F)c(F)c5F)c5ccc2[nH]5)C=C4)C=C3)cc1
REMARK SMILES IDX 14 1 13 2 11 3 12 4 7 6 8 7 6 8 4 9 5 10 3 12 2 13 1 14 9 15
REMARK SMILES IDX 10 16 15 17 16 18 17 19 18 20 19 22 20 23 21 24 82 25 22 26
REMARK SMILES IDX 81 27 23 28 24 29 25 30 75 31 26 32 80 33 74 34 76 35 27 36
REMARK SMILES IDX 79 37 73 38 72 39 28 41 60 42 40 43 59 44 41 45 44 46 58 47
REMARK SMILES IDX 77 48 42 49 43 50 57 52 78 53 45 54 29 55 30 56 38 57 31 58
REMARK SMILES IDX 32 59 36 60 39 61 33 62 34 63 37 64 35 65 61 66 62 67 70 68
REMARK SMILES IDX 63 69 64 70 68 71 71 72 65 73 66 74 69 75 67 76 46 77 47 78
REMARK SMILES IDX 55 79 48 80 49 81 53 82 56 83 50 84 51 85 54 86 52 87
REMARK H PARENT 13 5 6 11 17 21 76 40 44 51
REMARK Flexibility Score: inf
ROOT
ATOM      1  C   UNL A   1      34.799  23.403  24.409  1.00  0.00     0.117 C 
ENDROOT
BRANCH   1   2
ATOM      2  N   UNL A   1      35.008  21.998  24.113  1.00  0.00    -0.354 N 
ATOM      3  C   UNL A   1      34.867  20.920  24.938  1.00  0.00     0.245 C 
ATOM      4  O   UNL A   1      35.805  20.118  24.928  1.00  0.00    -0.272 OA
ATOM      5  H   UNL A   1      35.289  21.794  23.193  1.00  0.00     0.163 HD
BRANCH   3   6
ATOM      6  C   UNL A   1      33.630  20.752  25.870  1.00  0.00     0.116 C 
ATOM      7  C   UNL A   1      32.355  21.394  25.285  1.00  0.00     0.045 C 
BRANCH   6   8
ATOM      8  N   UNL A   1      33.291  19.325  26.138  1.00  0.00    -0.342 N 
ATOM      9  C   UNL A   1      32.773  18.359  25.328  1.00  0.00     0.224 C 
ATOM     10  O   UNL A   1      31.972  17.573  25.842  1.00  0.00    -0.275 OA
ATOM     11  H   UNL A   1      33.474  19.029  27.058  1.00  0.00     0.164 HD
BRANCH   9  12
ATOM     12  C   UNL A   1      33.225  18.166  23.884  1.00  0.00     0.126 C 
BRANCH  12  13
ATOM     13  C   UNL A   1      33.829  16.828  23.581  1.00  0.00    -0.025 C 
ATOM     14  C   UNL A   1      34.779  16.257  24.336  1.00  0.00     0.004 C 
ENDBRANCH  12  13
ENDBRANCH   9  12
ENDBRANCH   6   8
BRANCH   6  15
ATOM     15  C   UNL A   1      33.955  21.417  27.239  1.00  0.00     0.035 C 
ATOM     16  C   UNL A   1      32.968  22.504  27.663  1.00  0.00     0.007 C 
ENDBRANCH   6  15
ENDBRANCH   3   6
ENDBRANCH   1   2
BRANCH   1  17
ATOM     17  C   UNL A   1      35.927  23.946  25.287  1.00  0.00     0.042 C 
BRANCH  17  18
ATOM     18  C   UNL A   1      37.326  23.725  24.720  1.00  0.00     0.118 C 
BRANCH  18  19
ATOM     19  N   UNL A   1      38.071  22.703  25.441  1.00  0.00    -0.352 N 
ATOM     20  C   UNL A   1      39.086  22.829  26.351  1.00  0.00     0.251 C 
ATOM     21  H   UNL A   1      37.804  21.776  25.243  1.00  0.00     0.163 HD
ATOM     22  O   UNL A   1      39.704  21.828  26.714  1.00  0.00    -0.269 OA
BRANCH  20  23
ATOM     23  C   UNL A   1      39.462  24.155  26.884  1.00  0.00     0.039 A 
ATOM     24  C   UNL A   1      39.129  24.462  28.207  1.00  0.00     0.014 A 
ATOM     25  C   UNL A   1      40.110  25.104  26.089  1.00  0.00     0.014 A 
ATOM     26  C   UNL A   1      39.496  25.694  28.746  1.00  0.00     0.010 A 
ATOM     27  C   UNL A   1      40.545  26.302  26.651  1.00  0.00     0.010 A 
ATOM     28  C   UNL A   1      40.235  26.613  27.983  1.00  0.00    -0.014 A 
BRANCH  28  29
ATOM     29  C   UNL A   1      40.687  27.896  28.576  1.00  0.00     0.031 A 
ATOM     30  C   UNL A   1      42.141  28.133  28.875  1.00  0.00     0.074 A 
ATOM     31  C   UNL A   1      39.774  28.839  28.879  1.00  0.00     0.049 A 
ATOM     32  N   UNL A   1      42.722  29.202  29.363  1.00  0.00    -0.248 NA
ATOM     33  C   UNL A   1      43.061  27.015  28.621  1.00  0.00     0.031 C 
ATOM     34  C   UNL A   1      38.328  28.703  28.699  1.00  0.00     0.029 A 
ATOM     35  N   UNL A   1      39.927  30.100  29.398  1.00  0.00    -0.354 N 
ATOM     36  C   UNL A   1      44.066  28.877  29.486  1.00  0.00     0.074 A 
ATOM     37  C   UNL A   1      44.208  27.498  29.074  1.00  0.00     0.031 C 
ATOM     38  C   UNL A   1      37.731  29.852  29.055  1.00  0.00     0.029 A 
ATOM     39  C   UNL A   1      38.747  30.792  29.513  1.00  0.00     0.049 A 
ATOM     40  H   UNL A   1      40.799  30.473  29.660  1.00  0.00     0.167 HD
ATOM     41  C   UNL A   1      45.093  29.666  29.886  1.00  0.00     0.037 A 
ATOM     42  C   UNL A   1      38.515  32.052  29.928  1.00  0.00     0.037 A 
ATOM     43  C   UNL A   1      44.953  31.048  30.266  1.00  0.00     0.049 A 
ATOM     44  C   UNL A   1      39.676  32.916  30.337  1.00  0.00     0.074 A 
ATOM     45  C   UNL A   1      45.940  31.956  30.606  1.00  0.00     0.029 A 
ATOM     46  N   UNL A   1      43.742  31.720  30.362  1.00  0.00    -0.354 N 
ATOM     47  N   UNL A   1      40.954  32.630  30.359  1.00  0.00    -0.248 NA
ATOM     48  C   UNL A   1      39.357  34.284  30.766  1.00  0.00     0.031 C 
ATOM     49  C   UNL A   1      45.324  33.165  30.951  1.00  0.00     0.029 A 
ATOM     50  C   UNL A   1      43.956  33.025  30.779  1.00  0.00     0.049 A 
ATOM     51  H   UNL A   1      42.862  31.328  30.163  1.00  0.00     0.167 HD
ATOM     52  C   UNL A   1      41.596  33.788  30.777  1.00  0.00     0.074 A 
ATOM     53  C   UNL A   1      40.564  34.786  30.978  1.00  0.00     0.031 C 
ATOM     54  C   UNL A   1      42.919  34.006  30.976  1.00  0.00     0.037 A 
BRANCH  41  55
ATOM     55  C   UNL A   1      46.462  29.050  29.931  1.00  0.00     0.064 A 
ATOM     56  C   UNL A   1      47.343  29.126  28.841  1.00  0.00     0.173 A 
ATOM     57  C   UNL A   1      46.907  28.391  31.087  1.00  0.00     0.173 A 
ATOM     58  F   UNL A   1      46.963  29.735  27.707  1.00  0.00    -0.203 F 
ATOM     59  C   UNL A   1      48.603  28.537  28.894  1.00  0.00     0.198 A 
ATOM     60  C   UNL A   1      48.180  27.830  31.148  1.00  0.00     0.198 A 
ATOM     61  F   UNL A   1      46.108  28.293  32.160  1.00  0.00    -0.203 F 
ATOM     62  F   UNL A   1      49.405  28.577  27.821  1.00  0.00    -0.200 F 
ATOM     63  C   UNL A   1      49.022  27.894  30.049  1.00  0.00     0.200 A 
ATOM     64  F   UNL A   1      48.589  27.218  32.269  1.00  0.00    -0.200 F 
ATOM     65  F   UNL A   1      50.238  27.330  30.099  1.00  0.00    -0.200 F 
ENDBRANCH  41  55
BRANCH  42  66
ATOM     66  C   UNL A   1      37.132  32.592  29.913  1.00  0.00     0.064 A 
ATOM     67  C   UNL A   1      36.652  33.294  28.798  1.00  0.00     0.173 A 
ATOM     68  C   UNL A   1      36.264  32.420  31.000  1.00  0.00     0.173 A 
ATOM     69  F   UNL A   1      37.452  33.501  27.743  1.00  0.00    -0.203 F 
ATOM     70  C   UNL A   1      35.361  33.818  28.778  1.00  0.00     0.198 A 
ATOM     71  C   UNL A   1      34.965  32.921  30.968  1.00  0.00     0.198 A 
ATOM     72  F   UNL A   1      36.674  31.749  32.087  1.00  0.00    -0.203 F 
ATOM     73  F   UNL A   1      34.942  34.520  27.715  1.00  0.00    -0.200 F 
ATOM     74  C   UNL A   1      34.517  33.626  29.860  1.00  0.00     0.200 A 
ATOM     75  F   UNL A   1      34.146  32.721  32.010  1.00  0.00    -0.200 F 
ATOM     76  F   UNL A   1      33.273  34.125  29.839  1.00  0.00    -0.200 F 
ENDBRANCH  42  66
BRANCH  54  77
ATOM     77  C   UNL A   1      43.323  35.386  31.407  1.00  0.00     0.064 A 
ATOM     78  C   UNL A   1      43.369  35.751  32.761  1.00  0.00     0.173 A 
ATOM     79  C   UNL A   1      43.672  36.354  30.453  1.00  0.00     0.173 A 
ATOM     80  F   UNL A   1      43.028  34.866  33.710  1.00  0.00    -0.203 F 
ATOM     81  C   UNL A   1      43.710  37.046  33.142  1.00  0.00     0.198 A 
ATOM     82  C   UNL A   1      44.043  37.639  30.839  1.00  0.00     0.198 A 
ATOM     83  F   UNL A   1      43.651  36.054  29.146  1.00  0.00    -0.203 F 
ATOM     84  F   UNL A   1      43.686  37.389  34.437  1.00  0.00    -0.200 F 
ATOM     85  C   UNL A   1      44.051  37.987  32.181  1.00  0.00     0.200 A 
ATOM     86  F   UNL A   1      44.383  38.544  29.912  1.00  0.00    -0.200 F 
ATOM     87  F   UNL A   1      44.376  39.234  32.550  1.00  0.00    -0.200 F 
ENDBRANCH  54  77
ENDBRANCH  28  29
ENDBRANCH  20  23
ENDBRANCH  18  19
ENDBRANCH  17  18
ENDBRANCH   1  17
TORSDOF 14
ENDMDL
MODEL 2
REMARK VINA RESULT:     -10.7      5.501      9.972
REMARK SMILES C=CCC(=O)N[C@@](C)(CC)C(=O)NCCCNC(=O)c1ccc(-c2c3nc(c(-c4c(F)c(F)c(F)c(F)c4F)c4ccc([nH]4)c(-c4c(F)c(F)c(F)c(F)c4F)c4nc(c(-c5c(F)c(F)c(F)c(F)c5F)c5ccc2[nH]5)C=C4)C=C3)cc1
REMARK SMILES IDX 14 1 13 2 11 3 12 4 7 6 8 7 6 8 4 9 5 10 3 12 2 13 1 14 9 15
REMARK SMILES IDX 10 16 15 17 16 18 17 19 18 20 19 22 20 23 21 24 82 25 22 26
REMARK SMILES IDX 81 27 23 28 24 29 25 30 75 31 26 32 80 33 74 34 76 35 27 36
REMARK SMILES IDX 79 37 73 38 72 39 28 41 60 42 40 43 59 44 41 45 44 46 58 47
REMARK SMILES IDX 77 48 42 49 43 50 57 52 78 53 45 54 29 55 30 56 38 57 31 58
REMARK SMILES IDX 32 59 36 60 39 61 33 62 34 63 37 64 35 65 61 66 62 67 70 68
REMARK SMILES IDX 63 69 64 70 68 71 71 72 65 73 66 74 69 75 67 76 46 77 47 78
REMARK SMILES IDX 55 79 48 80 49 81 53 82 56 83 50 84 51 85 54 86 52 87
REMARK H PARENT 13 5 6 11 17 21 76 40 44 51
REMARK Flexibility Score: inf
ROOT
ATOM      1  C   UNL A   1      31.355  30.792  26.230  1.00  0.00     0.117 C 
ENDROOT
BRANCH   1   2
ATOM      2  N   UNL A   1      32.661  30.415  25.724  1.00  0.00    -0.354 N 
ATOM      3  C   UNL A   1      33.058  29.230  25.176  1.00  0.00     0.245 C 
ATOM      4  O   UNL A   1      34.111  28.765  25.621  1.00  0.00    -0.272 OA
ATOM      5  H   UNL A   1      33.356  31.109  25.782  1.00  0.00     0.163 HD
BRANCH   3   6
ATOM      6  C   UNL A   1      32.200  28.491  24.105  1.00  0.00     0.116 C 
ATOM      7  C   UNL A   1      31.045  27.679  24.726  1.00  0.00     0.045 C 
BRANCH   6   8
ATOM      8  N   UNL A   1      31.574  29.418  23.119  1.00  0.00    -0.342 N 
ATOM      9  C   UNL A   1      30.314  29.458  22.602  1.00  0.00     0.224 C 
ATOM     10  O   UNL A   1      30.210  29.776  21.413  1.00  0.00    -0.275 OA
ATOM     11  H   UNL A   1      32.174  30.122  22.784  1.00  0.00     0.164 HD
BRANCH   9  12
ATOM     12  C   UNL A   1      29.068  29.235  23.452  1.00  0.00     0.126 C 
BRANCH  12  13
ATOM     13  C   UNL A   1      27.893  30.096  23.095  1.00  0.00    -0.025 C 
ATOM     14  C   UNL A   1      27.740  31.355  23.530  1.00  0.00     0.004 C 
ENDBRANCH  12  13
ENDBRANCH   9  12
ENDBRANCH   6   8
BRANCH   6  15
ATOM     15  C   UNL A   1      33.132  27.530  23.312  1.00  0.00     0.035 C 
ATOM     16  C   UNL A   1      33.737  28.138  22.046  1.00  0.00     0.007 C 
ENDBRANCH   6  15
ENDBRANCH   3   6
ENDBRANCH   1   2
BRANCH   1  17
ATOM     17  C   UNL A   1      31.288  32.296  26.492  1.00  0.00     0.042 C 
BRANCH  17  18
ATOM     18  C   UNL A   1      32.555  32.885  27.106  1.00  0.00     0.118 C 
BRANCH  18  19
ATOM     19  N   UNL A   1      32.353  34.223  27.641  1.00  0.00    -0.352 N 
ATOM     20  C   UNL A   1      32.991  34.868  28.666  1.00  0.00     0.251 C 
ATOM     21  H   UNL A   1      31.646  34.746  27.198  1.00  0.00     0.163 HD
ATOM     22  O   UNL A   1      32.547  35.939  29.080  1.00  0.00    -0.269 OA
BRANCH  20  23
ATOM     23  C   UNL A   1      34.192  34.282  29.296  1.00  0.00     0.039 A 
ATOM     24  C   UNL A   1      34.023  33.412  30.377  1.00  0.00     0.014 A 
ATOM     25  C   UNL A   1      35.478  34.602  28.852  1.00  0.00     0.014 A 
ATOM     26  C   UNL A   1      35.137  32.822  30.973  1.00  0.00     0.010 A 
ATOM     27  C   UNL A   1      36.584  33.952  29.396  1.00  0.00     0.010 A 
ATOM     28  C   UNL A   1      36.425  33.062  30.469  1.00  0.00    -0.014 A 
BRANCH  28  29
ATOM     29  C   UNL A   1      37.605  32.381  31.057  1.00  0.00     0.031 A 
ATOM     30  C   UNL A   1      38.091  32.740  32.433  1.00  0.00     0.074 A 
ATOM     31  C   UNL A   1      38.261  31.456  30.329  1.00  0.00     0.049 A 
ATOM     32  N   UNL A   1      39.083  32.228  33.119  1.00  0.00    -0.248 NA
ATOM     33  C   UNL A   1      37.392  33.835  33.118  1.00  0.00     0.031 C 
ATOM     34  C   UNL A   1      37.927  31.067  28.959  1.00  0.00     0.029 A 
ATOM     35  N   UNL A   1      39.342  30.671  30.643  1.00  0.00    -0.354 N 
ATOM     36  C   UNL A   1      39.134  32.949  34.305  1.00  0.00     0.074 A 
ATOM     37  C   UNL A   1      38.110  33.967  34.224  1.00  0.00     0.031 C 
ATOM     38  C   UNL A   1      38.755  30.085  28.566  1.00  0.00     0.029 A 
ATOM     39  C   UNL A   1      39.692  29.795  29.646  1.00  0.00     0.049 A 
ATOM     40  H   UNL A   1      39.819  30.730  31.502  1.00  0.00     0.167 HD
ATOM     41  C   UNL A   1      39.947  32.763  35.374  1.00  0.00     0.037 A 
ATOM     42  C   UNL A   1      40.653  28.853  29.613  1.00  0.00     0.037 A 
ATOM     43  C   UNL A   1      40.945  31.729  35.463  1.00  0.00     0.049 A 
ATOM     44  C   UNL A   1      41.520  28.647  30.824  1.00  0.00     0.074 A 
ATOM     45  C   UNL A   1      41.761  31.404  36.531  1.00  0.00     0.029 A 
ATOM     46  N   UNL A   1      41.265  30.852  34.435  1.00  0.00    -0.354 N 
ATOM     47  N   UNL A   1      41.497  29.271  31.976  1.00  0.00    -0.248 NA
ATOM     48  C   UNL A   1      42.540  27.595  30.730  1.00  0.00     0.031 C 
ATOM     49  C   UNL A   1      42.607  30.361  36.137  1.00  0.00     0.029 A 
ATOM     50  C   UNL A   1      42.284  30.002  34.838  1.00  0.00     0.049 A 
ATOM     51  H   UNL A   1      40.833  30.836  33.551  1.00  0.00     0.167 HD
ATOM     52  C   UNL A   1      42.477  28.670  32.754  1.00  0.00     0.074 A 
ATOM     53  C   UNL A   1      43.063  27.619  31.947  1.00  0.00     0.031 C 
ATOM     54  C   UNL A   1      42.857  28.962  34.022  1.00  0.00     0.037 A 
BRANCH  41  55
ATOM     55  C   UNL A   1      39.788  33.703  36.534  1.00  0.00     0.064 A 
ATOM     56  C   UNL A   1      38.946  33.403  37.617  1.00  0.00     0.173 A 
ATOM     57  C   UNL A   1      40.501  34.910  36.574  1.00  0.00     0.173 A 
ATOM     58  F   UNL A   1      38.233  32.267  37.623  1.00  0.00    -0.203 F 
ATOM     59  C   UNL A   1      38.800  34.291  38.679  1.00  0.00     0.198 A 
ATOM     60  C   UNL A   1      40.376  35.782  37.653  1.00  0.00     0.198 A 
ATOM     61  F   UNL A   1      41.324  35.244  35.569  1.00  0.00    -0.203 F 
ATOM     62  F   UNL A   1      37.949  34.007  39.675  1.00  0.00    -0.200 F 
ATOM     63  C   UNL A   1      39.518  35.477  38.699  1.00  0.00     0.200 A 
ATOM     64  F   UNL A   1      41.079  36.923  37.677  1.00  0.00    -0.200 F 
ATOM     65  F   UNL A   1      39.377  36.329  39.724  1.00  0.00    -0.200 F 
ENDBRANCH  41  55
BRANCH  42  66
ATOM     66  C   UNL A   1      40.799  27.987  28.416  1.00  0.00     0.064 A 
ATOM     67  C   UNL A   1      41.599  28.390  27.337  1.00  0.00     0.173 A 
ATOM     68  C   UNL A   1      40.152  26.747  28.323  1.00  0.00     0.173 A 
ATOM     69  F   UNL A   1      42.221  29.577  27.373  1.00  0.00    -0.203 F 
ATOM     70  C   UNL A   1      41.732  27.593  26.202  1.00  0.00     0.198 A 
ATOM     71  C   UNL A   1      40.307  25.939  27.199  1.00  0.00     0.198 A 
ATOM     72  F   UNL A   1      39.382  26.314  29.332  1.00  0.00    -0.203 F 
ATOM     73  F   UNL A   1      42.470  28.021  25.169  1.00  0.00    -0.200 F 
ATOM     74  C   UNL A   1      41.091  26.365  26.137  1.00  0.00     0.200 A 
ATOM     75  F   UNL A   1      39.698  24.746  27.144  1.00  0.00    -0.200 F 
ATOM     76  F   UNL A   1      41.223  25.596  25.047  1.00  0.00    -0.200 F 
ENDBRANCH  42  66
BRANCH  54  77
ATOM     77  C   UNL A   1      43.940  28.111  34.620  1.00  0.00     0.064 A 
ATOM     78  C   UNL A   1      45.291  28.481  34.549  1.00  0.00     0.173 A 
ATOM     79  C   UNL A   1      43.621  26.911  35.273  1.00  0.00     0.173 A 
ATOM     80  F   UNL A   1      45.650  29.611  33.920  1.00  0.00    -0.203 F 
ATOM     81  C   UNL A   1      46.286  27.662  35.076  1.00  0.00     0.198 A 
ATOM     82  C   UNL A   1      44.615  26.109  35.827  1.00  0.00     0.198 A 
ATOM     83  F   UNL A   1      42.343  26.515  35.374  1.00  0.00    -0.203 F 
ATOM     84  F   UNL A   1      47.575  28.005  34.942  1.00  0.00    -0.200 F 
ATOM     85  C   UNL A   1      45.947  26.480  35.718  1.00  0.00     0.200 A 
ATOM     86  F   UNL A   1      44.286  24.974  36.456  1.00  0.00    -0.200 F 
ATOM     87  F   UNL A   1      46.906  25.691  36.221  1.00  0.00    -0.200 F 
ENDBRANCH  54  77
ENDBRANCH  28  29
ENDBRANCH  20  23
ENDBRANCH  18  19
ENDBRANCH  17  18
ENDBRANCH   1  17
TORSDOF 14
ENDMDL
MODEL 3
REMARK VINA RESULT:     -10.6      5.012      9.531
REMARK SMILES C=CCC(=O)N[C@@](C)(CC)C(=O)NCCCNC(=O)c1ccc(-c2c3nc(c(-c4c(F)c(F)c(F)c(F)c4F)c4ccc([nH]4)c(-c4c(F)c(F)c(F)c(F)c4F)c4nc(c(-c5c(F)c(F)c(F)c(F)c5F)c5ccc2[nH]5)C=C4)C=C3)cc1
REMARK SMILES IDX 14 1 13 2 11 3 12 4 7 6 8 7 6 8 4 9 5 10 3 12 2 13 1 14 9 15
REMARK SMILES IDX 10 16 15 17 16 18 17 19 18 20 19 22 20 23 21 24 82 25 22 26
REMARK SMILES IDX 81 27 23 28 24 29 25 30 75 31 26 32 80 33 74 34 76 35 27 36
REMARK SMILES IDX 79 37 73 38 72 39 28 41 60 42 40 43 59 44 41 45 44 46 58 47
REMARK SMILES IDX 77 48 42 49 43 50 57 52 78 53 45 54 29 55 30 56 38 57 31 58
REMARK SMILES IDX 32 59 36 60 39 61 33 62 34 63 37 64 35 65 61 66 62 67 70 68
REMARK SMILES IDX 63 69 64 70 68 71 71 72 65 73 66 74 69 75 67 76 46 77 47 78
REMARK SMILES IDX 55 79 48 80 49 81 53 82 56 83 50 84 51 85 54 86 52 87
REMARK H PARENT 13 5 6 11 17 21 76 40 44 51
REMARK Flexibility Score: inf
ROOT
ATOM      1  C   UNL A   1      31.458  30.256  25.965  1.00  0.00     0.117 C 
ENDROOT
BRANCH   1   2
ATOM      2  N   UNL A   1      32.510  30.033  24.990  1.00  0.00    -0.354 N 
ATOM      3  C   UNL A   1      32.724  28.945  24.196  1.00  0.00     0.245 C 
ATOM      4  O   UNL A   1      33.881  28.516  24.182  1.00  0.00    -0.272 OA
ATOM      5  H   UNL A   1      33.156  30.768  24.886  1.00  0.00     0.163 HD
BRANCH   3   6
ATOM      6  C   UNL A   1      31.566  28.258  23.411  1.00  0.00     0.116 C 
ATOM      7  C   UNL A   1      30.559  29.272  22.830  1.00  0.00     0.045 C 
BRANCH   6   8
ATOM      8  N   UNL A   1      32.047  27.443  22.258  1.00  0.00    -0.342 N 
ATOM      9  C   UNL A   1      32.879  26.365  22.208  1.00  0.00     0.224 C 
ATOM     10  O   UNL A   1      33.651  26.302  21.246  1.00  0.00    -0.275 OA
ATOM     11  H   UNL A   1      31.705  27.734  21.383  1.00  0.00     0.164 HD
BRANCH   9  12
ATOM     12  C   UNL A   1      32.806  25.222  23.215  1.00  0.00     0.126 C 
BRANCH  12  13
ATOM     13  C   UNL A   1      34.024  25.053  24.074  1.00  0.00    -0.025 C 
ATOM     14  C   UNL A   1      34.039  25.305  25.391  1.00  0.00     0.004 C 
ENDBRANCH  12  13
ENDBRANCH   9  12
ENDBRANCH   6   8
BRANCH   6  15
ATOM     15  C   UNL A   1      30.821  27.295  24.381  1.00  0.00     0.035 C 
ATOM     16  C   UNL A   1      29.471  26.797  23.863  1.00  0.00     0.007 C 
ENDBRANCH   6  15
ENDBRANCH   3   6
ENDBRANCH   1   2
BRANCH   1  17
ATOM     17  C   UNL A   1      31.345  31.740  26.311  1.00  0.00     0.042 C 
BRANCH  17  18
ATOM     18  C   UNL A   1      32.590  32.328  26.971  1.00  0.00     0.118 C 
BRANCH  18  19
ATOM     19  N   UNL A   1      32.395  33.698  27.421  1.00  0.00    -0.352 N 
ATOM     20  C   UNL A   1      33.039  34.404  28.401  1.00  0.00     0.251 C 
ATOM     21  H   UNL A   1      31.690  34.195  26.947  1.00  0.00     0.163 HD
ATOM     22  O   UNL A   1      32.601  35.502  28.748  1.00  0.00    -0.269 OA
BRANCH  20  23
ATOM     23  C   UNL A   1      34.239  33.853  29.064  1.00  0.00     0.039 A 
ATOM     24  C   UNL A   1      34.065  32.953  30.120  1.00  0.00     0.014 A 
ATOM     25  C   UNL A   1      35.527  34.235  28.677  1.00  0.00     0.014 A 
ATOM     26  C   UNL A   1      35.180  32.396  30.746  1.00  0.00     0.010 A 
ATOM     27  C   UNL A   1      36.637  33.619  29.250  1.00  0.00     0.010 A 
ATOM     28  C   UNL A   1      36.475  32.699  30.296  1.00  0.00    -0.014 A 
BRANCH  28  29
ATOM     29  C   UNL A   1      37.659  32.053  30.915  1.00  0.00     0.031 A 
ATOM     30  C   UNL A   1      38.098  32.424  32.304  1.00  0.00     0.074 A 
ATOM     31  C   UNL A   1      38.363  31.150  30.204  1.00  0.00     0.049 A 
ATOM     32  N   UNL A   1      39.086  31.942  33.016  1.00  0.00    -0.248 NA
ATOM     33  C   UNL A   1      37.347  33.497  32.972  1.00  0.00     0.031 C 
ATOM     34  C   UNL A   1      38.078  30.755  28.825  1.00  0.00     0.029 A 
ATOM     35  N   UNL A   1      39.459  30.399  30.546  1.00  0.00    -0.354 N 
ATOM     36  C   UNL A   1      39.083  32.662  34.203  1.00  0.00     0.074 A 
ATOM     37  C   UNL A   1      38.030  33.648  34.096  1.00  0.00     0.031 C 
ATOM     38  C   UNL A   1      38.945  29.800  28.453  1.00  0.00     0.029 A 
ATOM     39  C   UNL A   1      39.862  29.537  29.557  1.00  0.00     0.049 A 
ATOM     40  H   UNL A   1      39.911  30.471  31.417  1.00  0.00     0.167 HD
ATOM     41  C   UNL A   1      39.872  32.499  35.293  1.00  0.00     0.037 A 
ATOM     42  C   UNL A   1      40.852  28.624  29.549  1.00  0.00     0.037 A 
ATOM     43  C   UNL A   1      40.899  31.496  35.408  1.00  0.00     0.049 A 
ATOM     44  C   UNL A   1      41.693  28.443  30.782  1.00  0.00     0.074 A 
ATOM     45  C   UNL A   1      41.696  31.194  36.497  1.00  0.00     0.029 A 
ATOM     46  N   UNL A   1      41.274  30.632  34.388  1.00  0.00    -0.354 N 
ATOM     47  N   UNL A   1      41.620  29.063  31.934  1.00  0.00    -0.248 NA
ATOM     48  C   UNL A   1      42.747  27.423  30.714  1.00  0.00     0.031 C 
ATOM     49  C   UNL A   1      42.584  30.178  36.125  1.00  0.00     0.029 A 
ATOM     50  C   UNL A   1      42.308  29.813  34.817  1.00  0.00     0.049 A 
ATOM     51  H   UNL A   1      40.866  30.604  33.493  1.00  0.00     0.167 HD
ATOM     52  C   UNL A   1      42.597  28.492  32.738  1.00  0.00     0.074 A 
ATOM     53  C   UNL A   1      43.236  27.461  31.945  1.00  0.00     0.031 C 
ATOM     54  C   UNL A   1      42.934  28.793  34.016  1.00  0.00     0.037 A 
BRANCH  41  55
ATOM     55  C   UNL A   1      39.653  33.431  36.451  1.00  0.00     0.064 A 
ATOM     56  C   UNL A   1      38.822  33.087  37.528  1.00  0.00     0.173 A 
ATOM     57  C   UNL A   1      40.299  34.675  36.493  1.00  0.00     0.173 A 
ATOM     58  F   UNL A   1      38.171  31.914  37.531  1.00  0.00    -0.203 F 
ATOM     59  C   UNL A   1      38.619  33.969  38.587  1.00  0.00     0.198 A 
ATOM     60  C   UNL A   1      40.118  35.541  37.569  1.00  0.00     0.198 A 
ATOM     61  F   UNL A   1      41.110  35.052  35.493  1.00  0.00    -0.203 F 
ATOM     62  F   UNL A   1      37.777  33.640  39.577  1.00  0.00    -0.200 F 
ATOM     63  C   UNL A   1      39.271  35.192  38.609  1.00  0.00     0.200 A 
ATOM     64  F   UNL A   1      40.758  36.719  37.595  1.00  0.00    -0.200 F 
ATOM     65  F   UNL A   1      39.075  36.038  39.630  1.00  0.00    -0.200 F 
ENDBRANCH  41  55
BRANCH  42  66
ATOM     66  C   UNL A   1      41.057  27.766  28.355  1.00  0.00     0.064 A 
ATOM     67  C   UNL A   1      41.935  28.160  27.335  1.00  0.00     0.173 A 
ATOM     68  C   UNL A   1      40.390  26.542  28.207  1.00  0.00     0.173 A 
ATOM     69  F   UNL A   1      42.580  29.331  27.424  1.00  0.00    -0.203 F 
ATOM     70  C   UNL A   1      42.124  27.370  26.203  1.00  0.00     0.198 A 
ATOM     71  C   UNL A   1      40.600  25.740  27.087  1.00  0.00     0.198 A 
ATOM     72  F   UNL A   1      39.545  26.118  29.159  1.00  0.00    -0.203 F 
ATOM     73  F   UNL A   1      42.938  27.790  25.225  1.00  0.00    -0.200 F 
ATOM     74  C   UNL A   1      41.461  26.158  26.083  1.00  0.00     0.200 A 
ATOM     75  F   UNL A   1      39.969  24.563  26.980  1.00  0.00    -0.200 F 
ATOM     76  F   UNL A   1      41.647  25.396  24.997  1.00  0.00    -0.200 F 
ENDBRANCH  42  66
BRANCH  54  77
ATOM     77  C   UNL A   1      44.026  27.974  34.641  1.00  0.00     0.064 A 
ATOM     78  C   UNL A   1      43.749  26.797  35.353  1.00  0.00     0.173 A 
ATOM     79  C   UNL A   1      45.367  28.370  34.524  1.00  0.00     0.173 A 
ATOM     80  F   UNL A   1      42.481  26.385  35.508  1.00  0.00    -0.203 F 
ATOM     81  C   UNL A   1      44.770  26.070  35.958  1.00  0.00     0.198 A 
ATOM     82  C   UNL A   1      46.389  27.623  35.103  1.00  0.00     0.198 A 
ATOM     83  F   UNL A   1      45.686  29.484  33.848  1.00  0.00    -0.203 F 
ATOM     84  F   UNL A   1      44.475  24.983  36.686  1.00  0.00    -0.200 F 
ATOM     85  C   UNL A   1      46.089  26.480  35.829  1.00  0.00     0.200 A 
ATOM     86  F   UNL A   1      47.663  28.015  34.969  1.00  0.00    -0.200 F 
ATOM     87  F   UNL A   1      47.069  25.781  36.415  1.00  0.00    -0.200 F 
ENDBRANCH  54  77
ENDBRANCH  28  29
ENDBRANCH  20  23
ENDBRANCH  18  19
ENDBRANCH  17  18
ENDBRANCH   1  17
TORSDOF 14
ENDMDL
