MODEL 1
REMARK VINA RESULT:     -11.5      0.000      0.000
REMARK SMILES NC(=O)C[N@@H+]1CCCC[C@H]1C(=O)NCCCNC(=O)c1ccc(-c2c3nc(c(-c4c(F)c(F)c(F)c(F)c4F)c4ccc([nH]4)c(-c4c(F)c(F)c(F)c(F)c4F)c4nc(c(-c5c(F)c(F)c(F)c(F)c5F)c5ccc2[nH]5)C=C4)C=C3)cc1
REMARK SMILES IDX 15 1 14 2 13 3 11 4 12 5 10 7 5 8 6 9 7 11 9 12 8 13 4 14
REMARK SMILES IDX 2 15 1 16 3 19 16 20 17 21 18 22 19 24 20 25 21 26 82 27
REMARK SMILES IDX 22 28 81 29 23 30 24 31 25 32 75 33 26 34 80 35 74 36 76 37
REMARK SMILES IDX 27 38 79 39 73 40 72 41 28 43 60 44 40 45 59 46 41 47 44 48
REMARK SMILES IDX 58 49 77 50 42 51 43 52 57 54 78 55 45 56 29 57 30 58 38 59
REMARK SMILES IDX 31 60 32 61 36 62 39 63 33 64 34 65 37 66 35 67 61 68 62 69
REMARK SMILES IDX 70 70 63 71 64 72 68 73 71 74 65 75 66 76 69 77 67 78 46 79
REMARK SMILES IDX 47 80 55 81 48 82 49 83 53 84 56 85 50 86 51 87 54 88 52 89
REMARK H PARENT 13 6 5 10 1 17 1 18 17 23 76 42 44 53
REMARK Flexibility Score: inf
ROOT
ATOM      1  C   UNL A   1      31.195  32.306  26.519  1.00  0.00     0.042 C 
ENDROOT
BRANCH   1   2
ATOM      2  C   UNL A   1      31.386  30.944  25.870  1.00  0.00     0.118 C 
BRANCH   2   3
ATOM      3  N   UNL A   1      32.367  30.125  26.573  1.00  0.00    -0.351 N 
ATOM      4  C   UNL A   1      32.748  28.825  26.481  1.00  0.00     0.278 C 
ATOM      5  O   UNL A   1      33.668  28.495  27.246  1.00  0.00    -0.268 OA
ATOM      6  H   UNL A   1      32.860  30.625  27.264  1.00  0.00     0.163 HD
BRANCH   4   7
ATOM      7  C   UNL A   1      32.054  27.746  25.610  1.00  0.00     0.274 C 
ATOM      8  N   UNL A   1      32.307  27.880  24.172  1.00  0.00    -0.317 N 
ATOM      9  C   UNL A   1      33.567  27.323  23.687  1.00  0.00     0.263 C 
ATOM     10  H   UNL A   1      32.482  28.879  24.068  1.00  0.00     0.349 HD
ATOM     11  C   UNL A   1      33.920  25.941  24.221  1.00  0.00     0.062 C 
ATOM     12  C   UNL A   1      32.380  26.330  26.130  1.00  0.00     0.076 C 
ATOM     13  C   UNL A   1      33.786  25.895  25.735  1.00  0.00     0.012 C 
BRANCH   8  14
ATOM     14  C   UNL A   1      31.137  27.676  23.312  1.00  0.00     0.363 C 
BRANCH  14  15
ATOM     15  C   UNL A   1      30.615  29.047  22.846  1.00  0.00     0.272 C 
ATOM     16  N   UNL A   1      31.369  29.706  21.915  1.00  0.00    -0.365 N 
ATOM     17  H   UNL A   1      31.081  30.586  21.582  1.00  0.00     0.159 HD
ATOM     18  H   UNL A   1      32.199  29.299  21.578  1.00  0.00     0.159 HD
ATOM     19  O   UNL A   1      29.559  29.539  23.234  1.00  0.00    -0.269 OA
ENDBRANCH  14  15
ENDBRANCH   8  14
ENDBRANCH   4   7
ENDBRANCH   2   3
ENDBRANCH   1   2
BRANCH   1  20
ATOM     20  C   UNL A   1      32.446  32.793  27.234  1.00  0.00     0.118 C 
BRANCH  20  21
ATOM     21  N   UNL A   1      32.359  34.200  27.604  1.00  0.00    -0.352 N 
ATOM     22  C   UNL A   1      32.996  34.913  28.586  1.00  0.00     0.251 C 
ATOM     23  H   UNL A   1      31.735  34.728  27.056  1.00  0.00     0.163 HD
ATOM     24  O   UNL A   1      32.584  36.048  28.862  1.00  0.00    -0.269 OA
BRANCH  22  25
ATOM     25  C   UNL A   1      34.160  34.372  29.324  1.00  0.00     0.039 A 
ATOM     26  C   UNL A   1      35.443  34.570  28.801  1.00  0.00     0.014 A 
ATOM     27  C   UNL A   1      34.004  33.594  30.472  1.00  0.00     0.014 A 
ATOM     28  C   UNL A   1      36.558  34.018  29.442  1.00  0.00     0.010 A 
ATOM     29  C   UNL A   1      35.120  33.134  31.168  1.00  0.00     0.010 A 
ATOM     30  C   UNL A   1      36.408  33.310  30.643  1.00  0.00    -0.014 A 
BRANCH  30  31
ATOM     31  C   UNL A   1      37.566  32.676  31.328  1.00  0.00     0.031 A 
ATOM     32  C   UNL A   1      38.314  31.557  30.649  1.00  0.00     0.074 A 
ATOM     33  C   UNL A   1      37.912  33.053  32.573  1.00  0.00     0.049 A 
ATOM     34  N   UNL A   1      39.268  30.790  31.116  1.00  0.00    -0.248 NA
ATOM     35  C   UNL A   1      37.911  31.234  29.271  1.00  0.00     0.031 C 
ATOM     36  C   UNL A   1      37.251  34.096  33.358  1.00  0.00     0.029 A 
ATOM     37  N   UNL A   1      38.905  32.593  33.402  1.00  0.00    -0.354 N 
ATOM     38  C   UNL A   1      39.547  29.875  30.107  1.00  0.00     0.074 A 
ATOM     39  C   UNL A   1      38.632  30.152  29.021  1.00  0.00     0.031 C 
ATOM     40  C   UNL A   1      37.872  34.215  34.542  1.00  0.00     0.029 A 
ATOM     41  C   UNL A   1      38.948  33.231  34.617  1.00  0.00     0.049 A 
ATOM     42  H   UNL A   1      39.528  31.873  33.149  1.00  0.00     0.167 HD
ATOM     43  C   UNL A   1      40.497  28.910  30.075  1.00  0.00     0.037 A 
ATOM     44  C   UNL A   1      39.762  33.040  35.673  1.00  0.00     0.037 A 
ATOM     45  C   UNL A   1      41.448  28.676  31.128  1.00  0.00     0.049 A 
ATOM     46  C   UNL A   1      40.830  31.982  35.602  1.00  0.00     0.074 A 
ATOM     47  C   UNL A   1      42.489  27.765  31.165  1.00  0.00     0.029 A 
ATOM     48  N   UNL A   1      41.480  29.370  32.328  1.00  0.00    -0.354 N 
ATOM     49  N   UNL A   1      41.107  31.151  34.628  1.00  0.00    -0.248 NA
ATOM     50  C   UNL A   1      41.700  31.839  36.778  1.00  0.00     0.031 C 
ATOM     51  C   UNL A   1      43.135  27.888  32.399  1.00  0.00     0.029 A 
ATOM     52  C   UNL A   1      42.519  28.902  33.115  1.00  0.00     0.049 A 
ATOM     53  H   UNL A   1      40.858  30.088  32.582  1.00  0.00     0.167 HD
ATOM     54  C   UNL A   1      42.196  30.406  35.060  1.00  0.00     0.074 A 
ATOM     55  C   UNL A   1      42.538  30.892  36.381  1.00  0.00     0.031 C 
ATOM     56  C   UNL A   1      42.853  29.408  34.421  1.00  0.00     0.037 A 
BRANCH  43  57
ATOM     57  C   UNL A   1      40.560  28.040  28.853  1.00  0.00     0.064 A 
ATOM     58  C   UNL A   1      41.352  28.382  27.746  1.00  0.00     0.173 A 
ATOM     59  C   UNL A   1      39.844  26.836  28.799  1.00  0.00     0.173 A 
ATOM     60  F   UNL A   1      42.047  29.530  27.742  1.00  0.00    -0.203 F 
ATOM     61  C   UNL A   1      41.399  27.566  26.619  1.00  0.00     0.198 A 
ATOM     62  C   UNL A   1      39.916  26.007  27.683  1.00  0.00     0.198 A 
ATOM     63  F   UNL A   1      39.076  26.458  29.833  1.00  0.00    -0.203 F 
ATOM     64  F   UNL A   1      42.121  27.939  25.553  1.00  0.00    -0.200 F 
ATOM     65  C   UNL A   1      40.686  26.377  26.590  1.00  0.00     0.200 A 
ATOM     66  F   UNL A   1      39.237  24.851  27.661  1.00  0.00    -0.200 F 
ATOM     67  F   UNL A   1      40.736  25.590  25.506  1.00  0.00    -0.200 F 
ENDBRANCH  43  57
BRANCH  44  68
ATOM     68  C   UNL A   1      39.619  33.893  36.880  1.00  0.00     0.064 A 
ATOM     69  C   UNL A   1      38.833  33.476  37.963  1.00  0.00     0.173 A 
ATOM     70  C   UNL A   1      40.262  35.136  36.979  1.00  0.00     0.173 A 
ATOM     71  F   UNL A   1      38.181  32.305  37.902  1.00  0.00    -0.203 F 
ATOM     72  C   UNL A   1      38.681  34.275  39.092  1.00  0.00     0.198 A 
ATOM     73  C   UNL A   1      40.129  35.923  38.122  1.00  0.00     0.198 A 
ATOM     74  F   UNL A   1      41.027  35.579  35.972  1.00  0.00    -0.203 F 
ATOM     75  F   UNL A   1      37.889  33.870  40.095  1.00  0.00    -0.200 F 
ATOM     76  C   UNL A   1      39.334  35.496  39.174  1.00  0.00     0.200 A 
ATOM     77  F   UNL A   1      40.769  37.098  38.200  1.00  0.00    -0.200 F 
ATOM     78  F   UNL A   1      39.189  36.263  40.262  1.00  0.00    -0.200 F 
ENDBRANCH  44  68
BRANCH  56  79
ATOM     79  C   UNL A   1      44.029  28.798  35.123  1.00  0.00     0.064 A 
ATOM     80  C   UNL A   1      43.884  27.694  35.974  1.00  0.00     0.173 A 
ATOM     81  C   UNL A   1      45.322  29.299  34.907  1.00  0.00     0.173 A 
ATOM     82  F   UNL A   1      42.667  27.188  36.223  1.00  0.00    -0.203 F 
ATOM     83  C   UNL A   1      44.989  27.124  36.600  1.00  0.00     0.198 A 
ATOM     84  C   UNL A   1      46.428  28.712  35.515  1.00  0.00     0.198 A 
ATOM     85  F   UNL A   1      45.513  30.352  34.097  1.00  0.00    -0.203 F 
ATOM     86  F   UNL A   1      44.824  26.094  37.441  1.00  0.00    -0.200 F 
ATOM     87  C   UNL A   1      46.260  27.629  36.365  1.00  0.00     0.200 A 
ATOM     88  F   UNL A   1      47.655  29.194  35.278  1.00  0.00    -0.200 F 
ATOM     89  F   UNL A   1      47.324  27.075  36.964  1.00  0.00    -0.200 F 
ENDBRANCH  56  79
ENDBRANCH  30  31
ENDBRANCH  22  25
ENDBRANCH  20  21
ENDBRANCH   1  20
TORSDOF 12
ENDMDL
MODEL 2
REMARK VINA RESULT:     -11.4      0.872      1.859
REMARK SMILES NC(=O)C[N@@H+]1CCCC[C@H]1C(=O)NCCCNC(=O)c1ccc(-c2c3nc(c(-c4c(F)c(F)c(F)c(F)c4F)c4ccc([nH]4)c(-c4c(F)c(F)c(F)c(F)c4F)c4nc(c(-c5c(F)c(F)c(F)c(F)c5F)c5ccc2[nH]5)C=C4)C=C3)cc1
REMARK SMILES IDX 15 1 14 2 13 3 11 4 12 5 10 7 5 8 6 9 7 11 9 12 8 13 4 14
REMARK SMILES IDX 2 15 1 16 3 19 16 20 17 21 18 22 19 24 20 25 21 26 82 27
REMARK SMILES IDX 22 28 81 29 23 30 24 31 25 32 75 33 26 34 80 35 74 36 76 37
REMARK SMILES IDX 27 38 79 39 73 40 72 41 28 43 60 44 40 45 59 46 41 47 44 48
REMARK SMILES IDX 58 49 77 50 42 51 43 52 57 54 78 55 45 56 29 57 30 58 38 59
REMARK SMILES IDX 31 60 32 61 36 62 39 63 33 64 34 65 37 66 35 67 61 68 62 69
REMARK SMILES IDX 70 70 63 71 64 72 68 73 71 74 65 75 66 76 69 77 67 78 46 79
REMARK SMILES IDX 47 80 55 81 48 82 49 83 53 84 56 85 50 86 51 87 54 88 52 89
REMARK H PARENT 13 6 5 10 1 17 1 18 17 23 76 42 44 53
REMARK Flexibility Score: inf
ROOT
ATOM      1  C   UNL A   1      31.392  32.303  26.518  1.00  0.00     0.042 C 
ENDROOT
BRANCH   1   2
ATOM      2  C   UNL A   1      31.481  30.805  26.273  1.00  0.00     0.118 C 
BRANCH   2   3
ATOM      3  N   UNL A   1      30.994  30.427  24.952  1.00  0.00    -0.351 N 
ATOM      4  C   UNL A   1      31.142  29.324  24.173  1.00  0.00     0.278 C 
ATOM      5  O   UNL A   1      30.528  29.360  23.096  1.00  0.00    -0.268 OA
ATOM      6  H   UNL A   1      30.436  31.123  24.534  1.00  0.00     0.163 HD
BRANCH   4   7
ATOM      7  C   UNL A   1      32.087  28.132  24.475  1.00  0.00     0.274 C 
ATOM      8  N   UNL A   1      31.741  26.896  23.765  1.00  0.00    -0.317 N 
ATOM      9  C   UNL A   1      32.212  26.795  22.386  1.00  0.00     0.263 C 
ATOM     10  H   UNL A   1      30.736  26.994  23.622  1.00  0.00     0.349 HD
ATOM     11  C   UNL A   1      33.654  27.224  22.153  1.00  0.00     0.062 C 
ATOM     12  C   UNL A   1      33.561  28.534  24.262  1.00  0.00     0.076 C 
ATOM     13  C   UNL A   1      33.923  28.583  22.782  1.00  0.00     0.012 C 
BRANCH   8  14
ATOM     14  C   UNL A   1      31.825  25.673  24.569  1.00  0.00     0.363 C 
BRANCH  14  15
ATOM     15  C   UNL A   1      30.763  25.732  25.680  1.00  0.00     0.272 C 
ATOM     16  N   UNL A   1      29.458  25.620  25.289  1.00  0.00    -0.365 N 
ATOM     17  H   UNL A   1      28.738  25.652  25.959  1.00  0.00     0.159 HD
ATOM     18  H   UNL A   1      29.239  25.509  24.336  1.00  0.00     0.159 HD
ATOM     19  O   UNL A   1      31.034  25.830  26.874  1.00  0.00    -0.269 OA
ENDBRANCH  14  15
ENDBRANCH   8  14
ENDBRANCH   4   7
ENDBRANCH   2   3
ENDBRANCH   1   2
BRANCH   1  20
ATOM     20  C   UNL A   1      32.658  32.869  27.142  1.00  0.00     0.118 C 
BRANCH  20  21
ATOM     21  N   UNL A   1      32.474  34.232  27.626  1.00  0.00    -0.352 N 
ATOM     22  C   UNL A   1      33.017  34.885  28.701  1.00  0.00     0.251 C 
ATOM     23  H   UNL A   1      31.854  34.775  27.089  1.00  0.00     0.163 HD
ATOM     24  O   UNL A   1      32.530  35.969  29.050  1.00  0.00    -0.269 OA
BRANCH  22  25
ATOM     25  C   UNL A   1      34.166  34.339  29.458  1.00  0.00     0.039 A 
ATOM     26  C   UNL A   1      35.461  34.563  28.977  1.00  0.00     0.014 A 
ATOM     27  C   UNL A   1      33.988  33.530  30.582  1.00  0.00     0.014 A 
ATOM     28  C   UNL A   1      36.564  34.008  29.634  1.00  0.00     0.010 A 
ATOM     29  C   UNL A   1      35.090  33.065  31.298  1.00  0.00     0.010 A 
ATOM     30  C   UNL A   1      36.389  33.268  30.813  1.00  0.00    -0.014 A 
BRANCH  30  31
ATOM     31  C   UNL A   1      37.534  32.629  31.514  1.00  0.00     0.031 A 
ATOM     32  C   UNL A   1      38.275  31.494  30.855  1.00  0.00     0.074 A 
ATOM     33  C   UNL A   1      37.876  33.018  32.758  1.00  0.00     0.049 A 
ATOM     34  N   UNL A   1      39.218  30.723  31.337  1.00  0.00    -0.248 NA
ATOM     35  C   UNL A   1      37.879  31.159  29.477  1.00  0.00     0.031 C 
ATOM     36  C   UNL A   1      37.221  34.077  33.525  1.00  0.00     0.029 A 
ATOM     37  N   UNL A   1      38.857  32.557  33.599  1.00  0.00    -0.354 N 
ATOM     38  C   UNL A   1      39.494  29.793  30.341  1.00  0.00     0.074 A 
ATOM     39  C   UNL A   1      38.590  30.067  29.246  1.00  0.00     0.031 C 
ATOM     40  C   UNL A   1      37.834  34.203  34.712  1.00  0.00     0.029 A 
ATOM     41  C   UNL A   1      38.899  33.209  34.807  1.00  0.00     0.049 A 
ATOM     42  H   UNL A   1      39.474  31.827  33.360  1.00  0.00     0.167 HD
ATOM     43  C   UNL A   1      40.433  28.818  30.328  1.00  0.00     0.037 A 
ATOM     44  C   UNL A   1      39.702  33.022  35.872  1.00  0.00     0.037 A 
ATOM     45  C   UNL A   1      41.374  28.585  31.391  1.00  0.00     0.049 A 
ATOM     46  C   UNL A   1      40.758  31.951  35.821  1.00  0.00     0.074 A 
ATOM     47  C   UNL A   1      42.405  27.663  31.447  1.00  0.00     0.029 A 
ATOM     48  N   UNL A   1      41.405  29.293  32.583  1.00  0.00    -0.354 N 
ATOM     49  N   UNL A   1      41.034  31.105  34.859  1.00  0.00    -0.248 NA
ATOM     50  C   UNL A   1      41.618  31.813  37.006  1.00  0.00     0.031 C 
ATOM     51  C   UNL A   1      43.042  27.794  32.685  1.00  0.00     0.029 A 
ATOM     52  C   UNL A   1      42.432  28.823  33.384  1.00  0.00     0.049 A 
ATOM     53  H   UNL A   1      40.789  30.021  32.824  1.00  0.00     0.167 HD
ATOM     54  C   UNL A   1      42.111  30.354  35.308  1.00  0.00     0.074 A 
ATOM     55  C   UNL A   1      42.449  30.852  36.626  1.00  0.00     0.031 C 
ATOM     56  C   UNL A   1      42.762  29.341  34.687  1.00  0.00     0.037 A 
BRANCH  43  57
ATOM     57  C   UNL A   1      40.496  27.932  29.117  1.00  0.00     0.064 A 
ATOM     58  C   UNL A   1      41.342  28.223  28.036  1.00  0.00     0.173 A 
ATOM     59  C   UNL A   1      39.723  26.764  29.048  1.00  0.00     0.173 A 
ATOM     60  F   UNL A   1      42.093  29.335  28.047  1.00  0.00    -0.203 F 
ATOM     61  C   UNL A   1      41.388  27.393  26.919  1.00  0.00     0.198 A 
ATOM     62  C   UNL A   1      39.794  25.920  27.944  1.00  0.00     0.198 A 
ATOM     63  F   UNL A   1      38.903  26.435  30.058  1.00  0.00    -0.203 F 
ATOM     64  F   UNL A   1      42.165  27.719  25.876  1.00  0.00    -0.200 F 
ATOM     65  C   UNL A   1      40.619  26.240  26.875  1.00  0.00     0.200 A 
ATOM     66  F   UNL A   1      39.060  24.800  27.908  1.00  0.00    -0.200 F 
ATOM     67  F   UNL A   1      40.668  25.440  25.801  1.00  0.00    -0.200 F 
ENDBRANCH  43  57
BRANCH  44  68
ATOM     68  C   UNL A   1      39.560  33.891  37.067  1.00  0.00     0.064 A 
ATOM     69  C   UNL A   1      38.772  33.488  38.155  1.00  0.00     0.173 A 
ATOM     70  C   UNL A   1      40.204  35.134  37.151  1.00  0.00     0.173 A 
ATOM     71  F   UNL A   1      38.119  32.317  38.109  1.00  0.00    -0.203 F 
ATOM     72  C   UNL A   1      38.620  34.302  39.274  1.00  0.00     0.198 A 
ATOM     73  C   UNL A   1      40.071  35.936  38.283  1.00  0.00     0.198 A 
ATOM     74  F   UNL A   1      40.970  35.562  36.138  1.00  0.00    -0.203 F 
ATOM     75  F   UNL A   1      37.828  33.911  40.281  1.00  0.00    -0.200 F 
ATOM     76  C   UNL A   1      39.275  35.523  39.340  1.00  0.00     0.200 A 
ATOM     77  F   UNL A   1      40.712  37.111  38.346  1.00  0.00    -0.200 F 
ATOM     78  F   UNL A   1      39.130  36.305  40.418  1.00  0.00    -0.200 F 
ENDBRANCH  44  68
BRANCH  56  79
ATOM     79  C   UNL A   1      43.926  28.727  35.405  1.00  0.00     0.064 A 
ATOM     80  C   UNL A   1      45.230  29.213  35.238  1.00  0.00     0.173 A 
ATOM     81  C   UNL A   1      43.727  27.669  36.305  1.00  0.00     0.173 A 
ATOM     82  F   UNL A   1      45.473  30.214  34.379  1.00  0.00    -0.203 F 
ATOM     83  C   UNL A   1      46.297  28.648  35.930  1.00  0.00     0.198 A 
ATOM     84  C   UNL A   1      44.792  27.122  37.014  1.00  0.00     0.198 A 
ATOM     85  F   UNL A   1      42.496  27.172  36.502  1.00  0.00    -0.203 F 
ATOM     86  F   UNL A   1      47.542  29.101  35.726  1.00  0.00    -0.200 F 
ATOM     87  C   UNL A   1      46.076  27.608  36.822  1.00  0.00     0.200 A 
ATOM     88  F   UNL A   1      44.575  26.126  37.883  1.00  0.00    -0.200 F 
ATOM     89  F   UNL A   1      47.105  27.069  37.493  1.00  0.00    -0.200 F 
ENDBRANCH  56  79
ENDBRANCH  30  31
ENDBRANCH  22  25
ENDBRANCH  20  21
ENDBRANCH   1  20
TORSDOF 12
ENDMDL
MODEL 3
REMARK VINA RESULT:     -11.4      0.538      1.738
REMARK SMILES NC(=O)C[N@@H+]1CCCC[C@H]1C(=O)NCCCNC(=O)c1ccc(-c2c3nc(c(-c4c(F)c(F)c(F)c(F)c4F)c4ccc([nH]4)c(-c4c(F)c(F)c(F)c(F)c4F)c4nc(c(-c5c(F)c(F)c(F)c(F)c5F)c5ccc2[nH]5)C=C4)C=C3)cc1
REMARK SMILES IDX 15 1 14 2 13 3 11 4 12 5 10 7 5 8 6 9 7 11 9 12 8 13 4 14
REMARK SMILES IDX 2 15 1 16 3 19 16 20 17 21 18 22 19 24 20 25 21 26 82 27
REMARK SMILES IDX 22 28 81 29 23 30 24 31 25 32 75 33 26 34 80 35 74 36 76 37
REMARK SMILES IDX 27 38 79 39 73 40 72 41 28 43 60 44 40 45 59 46 41 47 44 48
REMARK SMILES IDX 58 49 77 50 42 51 43 52 57 54 78 55 45 56 29 57 30 58 38 59
REMARK SMILES IDX 31 60 32 61 36 62 39 63 33 64 34 65 37 66 35 67 61 68 62 69
REMARK SMILES IDX 70 70 63 71 64 72 68 73 71 74 65 75 66 76 69 77 67 78 46 79
REMARK SMILES IDX 47 80 55 81 48 82 49 83 53 84 56 85 50 86 51 87 54 88 52 89
REMARK H PARENT 13 6 5 10 1 17 1 18 17 23 76 42 44 53
REMARK Flexibility Score: inf
ROOT
ATOM      1  C   UNL A   1      31.401  31.914  26.433  1.00  0.00     0.042 C 
ENDROOT
BRANCH   1   2
ATOM      2  C   UNL A   1      31.633  30.553  25.795  1.00  0.00     0.118 C 
BRANCH   2   3
ATOM      3  N   UNL A   1      31.522  29.462  26.756  1.00  0.00    -0.351 N 
ATOM      4  C   UNL A   1      31.456  28.110  26.643  1.00  0.00     0.278 C 
ATOM      5  O   UNL A   1      31.403  27.498  27.720  1.00  0.00    -0.268 OA
ATOM      6  H   UNL A   1      31.488  29.774  27.690  1.00  0.00     0.163 HD
BRANCH   4   7
ATOM      7  C   UNL A   1      31.322  27.327  25.311  1.00  0.00     0.274 C 
ATOM      8  N   UNL A   1      31.909  28.007  24.151  1.00  0.00    -0.317 N 
ATOM      9  C   UNL A   1      33.353  27.858  23.983  1.00  0.00     0.263 C 
ATOM     10  H   UNL A   1      31.843  28.991  24.413  1.00  0.00     0.349 HD
ATOM     11  C   UNL A   1      33.891  26.446  24.173  1.00  0.00     0.062 C 
ATOM     12  C   UNL A   1      31.848  25.885  25.469  1.00  0.00     0.076 C 
ATOM     13  C   UNL A   1      33.371  25.838  25.466  1.00  0.00     0.012 C 
BRANCH   8  14
ATOM     14  C   UNL A   1      31.106  27.954  22.927  1.00  0.00     0.363 C 
BRANCH  14  15
ATOM     15  C   UNL A   1      30.369  29.294  22.755  1.00  0.00     0.272 C 
ATOM     16  N   UNL A   1      30.753  30.076  21.702  1.00  0.00    -0.365 N 
ATOM     17  H   UNL A   1      30.314  30.943  21.546  1.00  0.00     0.159 HD
ATOM     18  H   UNL A   1      31.469  29.771  21.099  1.00  0.00     0.159 HD
ATOM     19  O   UNL A   1      29.447  29.659  23.480  1.00  0.00    -0.269 OA
ENDBRANCH  14  15
ENDBRANCH   8  14
ENDBRANCH   4   7
ENDBRANCH   2   3
ENDBRANCH   1   2
BRANCH   1  20
ATOM     20  C   UNL A   1      32.625  32.428  27.176  1.00  0.00     0.118 C 
BRANCH  20  21
ATOM     21  N   UNL A   1      32.512  33.841  27.517  1.00  0.00    -0.352 N 
ATOM     22  C   UNL A   1      33.107  34.578  28.507  1.00  0.00     0.251 C 
ATOM     23  H   UNL A   1      31.904  34.353  26.937  1.00  0.00     0.163 HD
ATOM     24  O   UNL A   1      32.676  35.713  28.748  1.00  0.00    -0.269 OA
BRANCH  22  25
ATOM     25  C   UNL A   1      34.249  34.061  29.296  1.00  0.00     0.039 A 
ATOM     26  C   UNL A   1      35.550  34.349  28.870  1.00  0.00     0.014 A 
ATOM     27  C   UNL A   1      34.062  33.219  30.394  1.00  0.00     0.014 A 
ATOM     28  C   UNL A   1      36.650  33.825  29.558  1.00  0.00     0.010 A 
ATOM     29  C   UNL A   1      35.154  32.783  31.141  1.00  0.00     0.010 A 
ATOM     30  C   UNL A   1      36.462  33.051  30.713  1.00  0.00    -0.014 A 
BRANCH  30  31
ATOM     31  C   UNL A   1      37.605  32.443  31.444  1.00  0.00     0.031 A 
ATOM     32  C   UNL A   1      38.366  31.300  30.823  1.00  0.00     0.074 A 
ATOM     33  C   UNL A   1      37.927  32.868  32.680  1.00  0.00     0.049 A 
ATOM     34  N   UNL A   1      39.311  30.552  31.337  1.00  0.00    -0.248 NA
ATOM     35  C   UNL A   1      37.990  30.924  29.450  1.00  0.00     0.031 C 
ATOM     36  C   UNL A   1      37.252  33.940  33.412  1.00  0.00     0.029 A 
ATOM     37  N   UNL A   1      38.904  32.440  33.545  1.00  0.00    -0.354 N 
ATOM     38  C   UNL A   1      39.609  29.599  30.369  1.00  0.00     0.074 A 
ATOM     39  C   UNL A   1      38.715  29.834  29.256  1.00  0.00     0.031 C 
ATOM     40  C   UNL A   1      37.849  34.104  34.603  1.00  0.00     0.029 A 
ATOM     41  C   UNL A   1      38.924  33.124  34.736  1.00  0.00     0.049 A 
ATOM     42  H   UNL A   1      39.531  31.712  33.332  1.00  0.00     0.167 HD
ATOM     43  C   UNL A   1      40.559  28.634  30.392  1.00  0.00     0.037 A 
ATOM     44  C   UNL A   1      39.716  32.974  35.814  1.00  0.00     0.037 A 
ATOM     45  C   UNL A   1      41.489  28.440  31.472  1.00  0.00     0.049 A 
ATOM     46  C   UNL A   1      40.785  31.914  35.804  1.00  0.00     0.074 A 
ATOM     47  C   UNL A   1      42.529  27.532  31.564  1.00  0.00     0.029 A 
ATOM     48  N   UNL A   1      41.498  29.179  32.645  1.00  0.00    -0.354 N 
ATOM     49  N   UNL A   1      41.081  31.046  34.868  1.00  0.00    -0.248 NA
ATOM     50  C   UNL A   1      41.632  31.816  37.002  1.00  0.00     0.031 C 
ATOM     51  C   UNL A   1      43.150  27.702  32.805  1.00  0.00     0.029 A 
ATOM     52  C   UNL A   1      42.521  28.742  33.470  1.00  0.00     0.049 A 
ATOM     53  H   UNL A   1      40.871  29.907  32.859  1.00  0.00     0.167 HD
ATOM     54  C   UNL A   1      42.160  30.319  35.349  1.00  0.00     0.074 A 
ATOM     55  C   UNL A   1      42.477  30.855  36.657  1.00  0.00     0.031 C 
ATOM     56  C   UNL A   1      42.830  29.297  34.762  1.00  0.00     0.037 A 
BRANCH  43  57
ATOM     57  C   UNL A   1      40.646  27.718  29.206  1.00  0.00     0.064 A 
ATOM     58  C   UNL A   1      39.789  26.616  29.063  1.00  0.00     0.173 A 
ATOM     59  C   UNL A   1      41.578  27.959  28.186  1.00  0.00     0.173 A 
ATOM     60  F   UNL A   1      38.887  26.334  30.016  1.00  0.00    -0.203 F 
ATOM     61  C   UNL A   1      39.883  25.774  27.958  1.00  0.00     0.198 A 
ATOM     62  C   UNL A   1      41.650  27.133  27.069  1.00  0.00     0.198 A 
ATOM     63  F   UNL A   1      42.417  29.004  28.271  1.00  0.00    -0.203 F 
ATOM     64  F   UNL A   1      39.088  24.698  27.868  1.00  0.00    -0.200 F 
ATOM     65  C   UNL A   1      40.808  26.036  26.959  1.00  0.00     0.200 A 
ATOM     66  F   UNL A   1      42.537  27.395  26.098  1.00  0.00    -0.200 F 
ATOM     67  F   UNL A   1      40.895  25.227  25.894  1.00  0.00    -0.200 F 
ENDBRANCH  43  57
BRANCH  44  68
ATOM     68  C   UNL A   1      39.551  33.872  36.984  1.00  0.00     0.064 A 
ATOM     69  C   UNL A   1      40.145  35.142  37.002  1.00  0.00     0.173 A 
ATOM     70  C   UNL A   1      38.799  33.488  38.104  1.00  0.00     0.173 A 
ATOM     71  F   UNL A   1      40.893  35.543  35.963  1.00  0.00    -0.203 F 
ATOM     72  C   UNL A   1      40.008  35.986  38.100  1.00  0.00     0.198 A 
ATOM     73  C   UNL A   1      38.641  34.345  39.192  1.00  0.00     0.198 A 
ATOM     74  F   UNL A   1      38.208  32.285  38.135  1.00  0.00    -0.203 F 
ATOM     75  F   UNL A   1      40.622  37.177  38.107  1.00  0.00    -0.200 F 
ATOM     76  C   UNL A   1      39.251  35.590  39.192  1.00  0.00     0.200 A 
ATOM     77  F   UNL A   1      37.901  33.961  40.241  1.00  0.00    -0.200 F 
ATOM     78  F   UNL A   1      39.118  36.404  40.248  1.00  0.00    -0.200 F 
ENDBRANCH  44  68
BRANCH  56  79
ATOM     79  C   UNL A   1      43.991  28.716  35.510  1.00  0.00     0.064 A 
ATOM     80  C   UNL A   1      43.827  27.658  36.414  1.00  0.00     0.173 A 
ATOM     81  C   UNL A   1      45.292  29.194  35.284  1.00  0.00     0.173 A 
ATOM     82  F   UNL A   1      42.602  27.176  36.673  1.00  0.00    -0.203 F 
ATOM     83  C   UNL A   1      44.919  27.112  37.083  1.00  0.00     0.198 A 
ATOM     84  C   UNL A   1      46.385  28.630  35.936  1.00  0.00     0.198 A 
ATOM     85  F   UNL A   1      45.501  30.202  34.424  1.00  0.00    -0.203 F 
ATOM     86  F   UNL A   1      44.734  26.128  37.973  1.00  0.00    -0.200 F 
ATOM     87  C   UNL A   1      46.196  27.594  36.839  1.00  0.00     0.200 A 
ATOM     88  F   UNL A   1      47.619  29.089  35.690  1.00  0.00    -0.200 F 
ATOM     89  F   UNL A   1      47.248  27.064  37.479  1.00  0.00    -0.200 F 
ENDBRANCH  56  79
ENDBRANCH  30  31
ENDBRANCH  22  25
ENDBRANCH  20  21
ENDBRANCH   1  20
TORSDOF 12
ENDMDL
