MODEL 1
REMARK VINA RESULT:     -13.2      0.000      0.000
REMARK SMILES CC[C@@H](Oc1cc(Cl)ccc1Cl)C(=O)NNC(=O)[C@@H]1[C@@H]2CC[C@@H](C2)[C@@H]1C(=O)NCCCNC(=O)c1ccc(-c2c3nc(c(-c4c(F)c(F)c(F)c(F)c4F)c4ccc([nH]4)c(-c4c(F)c(F)c(F)c(F)c4F)c4nc(c(-c5c(F)c(F)c(F)c(F)c5F)c5ccc2[nH]5)C=C4)C=C3)cc1
REMARK SMILES IDX 26 1 27 2 28 3 25 5 19 6 20 7 21 8 24 9 23 10 22 11 17 12
REMARK SMILES IDX 16 13 18 15 15 16 13 17 14 18 3 20 2 21 1 22 4 23 5 24 6 25
REMARK SMILES IDX 11 26 7 27 10 28 12 29 8 30 9 31 29 32 30 33 31 34 32 35
REMARK SMILES IDX 33 36 34 38 35 39 36 40 97 41 37 42 96 43 38 44 39 45 40 46
REMARK SMILES IDX 90 47 41 48 95 49 89 50 91 51 42 52 94 53 88 54 87 55 43 57
REMARK SMILES IDX 75 58 55 59 74 60 56 61 59 62 73 63 92 64 57 65 58 66 72 68
REMARK SMILES IDX 93 69 60 70 44 71 45 72 53 73 46 74 47 75 51 76 54 77 48 78
REMARK SMILES IDX 49 79 52 80 50 81 76 82 77 83 85 84 78 85 79 86 83 87 86 88
REMARK SMILES IDX 80 89 81 90 84 91 82 92 61 93 62 94 70 95 63 96 64 97 68 98
REMARK SMILES IDX 71 99 65 100 66 101 69 102 67 103
REMARK H PARENT 28 4 16 14 15 19 32 37 91 56 59 67
REMARK Flexibility Score: inf
ROOT
ATOM      1  C   UNL A   1      32.164  29.082  24.625  1.00  0.00     0.224 C 
ATOM      2  O   UNL A   1      32.975  28.864  23.725  1.00  0.00    -0.275 OA
ATOM      3  N   UNL A   1      32.489  30.007  25.575  1.00  0.00    -0.356 N 
ATOM      4  H   UNL A   1      33.334  30.486  25.415  1.00  0.00     0.163 HD
ENDROOT
BRANCH   1   5
ATOM      5  C   UNL A   1      30.783  28.439  24.656  1.00  0.00     0.094 C 
ATOM      6  C   UNL A   1      30.652  26.989  25.208  1.00  0.00     0.096 C 
ATOM      7  C   UNL A   1      30.013  26.245  24.017  1.00  0.00     0.002 C 
ATOM      8  C   UNL A   1      30.999  26.095  22.849  1.00  0.00     0.005 C 
ATOM      9  C   UNL A   1      29.055  27.318  23.472  1.00  0.00     0.009 C 
ATOM     10  C   UNL A   1      30.177  28.326  23.229  1.00  0.00     0.002 C 
ATOM     11  C   UNL A   1      31.067  27.511  22.270  1.00  0.00     0.005 C 
BRANCH   6  12
ATOM     12  C   UNL A   1      31.861  26.491  25.996  1.00  0.00     0.242 C 
ATOM     13  N   UNL A   1      31.831  25.371  26.773  1.00  0.00    -0.267 N 
ATOM     14  H   UNL A   1      32.632  25.197  27.317  1.00  0.00     0.191 HD
ATOM     15  O   UNL A   1      32.868  27.207  26.078  1.00  0.00    -0.273 OA
BRANCH  13  16
ATOM     16  N   UNL A   1      30.807  24.452  26.883  1.00  0.00    -0.264 N 
ATOM     17  C   UNL A   1      30.894  23.162  26.408  1.00  0.00     0.279 C 
ATOM     18  O   UNL A   1      29.910  22.424  26.502  1.00  0.00    -0.269 OA
ATOM     19  H   UNL A   1      29.972  24.733  27.323  1.00  0.00     0.191 HD
BRANCH  17  20
ATOM     20  C   UNL A   1      32.193  22.685  25.721  1.00  0.00     0.263 C 
BRANCH  20  21
ATOM     21  C   UNL A   1      31.948  21.300  25.101  1.00  0.00     0.052 C 
ATOM     22  C   UNL A   1      33.080  20.319  25.379  1.00  0.00     0.008 C 
ENDBRANCH  20  21
BRANCH  20  23
ATOM     23  O   UNL A   1      32.593  23.610  24.696  1.00  0.00    -0.479 OA
BRANCH  23  24
ATOM     24  C   UNL A   1      33.913  23.537  24.345  1.00  0.00     0.140 A 
ATOM     25  C   UNL A   1      34.828  23.644  25.394  1.00  0.00     0.068 A 
ATOM     26  C   UNL A   1      34.365  23.237  23.054  1.00  0.00     0.083 A 
ATOM     27  C   UNL A   1      36.193  23.528  25.142  1.00  0.00     0.044 A 
ATOM     28  C   UNL A   1      35.736  23.109  22.811  1.00  0.00     0.026 A 
ATOM     29  Cl  UNL A   1      33.279  22.952  21.746  1.00  0.00    -0.080 Cl
ATOM     30  Cl  UNL A   1      37.313  23.701  26.436  1.00  0.00    -0.084 Cl
ATOM     31  C   UNL A   1      36.652  23.265  23.855  1.00  0.00     0.022 A 
ENDBRANCH  23  24
ENDBRANCH  20  23
ENDBRANCH  17  20
ENDBRANCH  13  16
ENDBRANCH   6  12
ENDBRANCH   1   5
BRANCH   3  32
ATOM     32  C   UNL A   1      31.784  30.397  26.784  1.00  0.00     0.117 C 
BRANCH  32  33
ATOM     33  C   UNL A   1      31.555  31.905  26.850  1.00  0.00     0.042 C 
BRANCH  33  34
ATOM     34  C   UNL A   1      32.798  32.701  27.246  1.00  0.00     0.118 C 
BRANCH  34  35
ATOM     35  N   UNL A   1      32.491  34.075  27.628  1.00  0.00    -0.352 N 
ATOM     36  C   UNL A   1      33.035  34.867  28.612  1.00  0.00     0.251 C 
ATOM     37  H   UNL A   1      31.782  34.504  27.096  1.00  0.00     0.163 HD
ATOM     38  O   UNL A   1      32.524  35.945  28.883  1.00  0.00    -0.269 OA
BRANCH  36  39
ATOM     39  C   UNL A   1      34.226  34.410  29.358  1.00  0.00     0.039 A 
ATOM     40  C   UNL A   1      34.052  33.781  30.595  1.00  0.00     0.014 A 
ATOM     41  C   UNL A   1      35.510  34.614  28.851  1.00  0.00     0.014 A 
ATOM     42  C   UNL A   1      35.161  33.282  31.284  1.00  0.00     0.010 A 
ATOM     43  C   UNL A   1      36.606  34.057  29.502  1.00  0.00     0.010 A 
ATOM     44  C   UNL A   1      36.442  33.379  30.722  1.00  0.00    -0.014 A 
BRANCH  44  45
ATOM     45  C   UNL A   1      37.641  32.794  31.376  1.00  0.00     0.031 A 
ATOM     46  C   UNL A   1      38.370  31.661  30.708  1.00  0.00     0.074 A 
ATOM     47  C   UNL A   1      38.010  33.207  32.604  1.00  0.00     0.049 A 
ATOM     48  N   UNL A   1      39.299  30.874  31.188  1.00  0.00    -0.248 NA
ATOM     49  C   UNL A   1      37.982  31.357  29.321  1.00  0.00     0.031 C 
ATOM     50  C   UNL A   1      37.378  34.290  33.361  1.00  0.00     0.029 A 
ATOM     51  N   UNL A   1      38.991  32.744  33.447  1.00  0.00    -0.354 N 
ATOM     52  C   UNL A   1      39.592  29.976  30.171  1.00  0.00     0.074 A 
ATOM     53  C   UNL A   1      38.713  30.281  29.064  1.00  0.00     0.031 C 
ATOM     54  C   UNL A   1      37.985  34.406  34.553  1.00  0.00     0.029 A 
ATOM     55  C   UNL A   1      39.010  33.373  34.669  1.00  0.00     0.049 A 
ATOM     56  H   UNL A   1      39.621  32.029  33.198  1.00  0.00     0.167 HD
ATOM     57  C   UNL A   1      40.526  28.995  30.156  1.00  0.00     0.037 A 
ATOM     58  C   UNL A   1      39.748  33.122  35.768  1.00  0.00     0.037 A 
ATOM     59  C   UNL A   1      41.411  28.705  31.253  1.00  0.00     0.049 A 
ATOM     60  C   UNL A   1      40.747  31.993  35.739  1.00  0.00     0.074 A 
ATOM     61  C   UNL A   1      42.396  27.736  31.334  1.00  0.00     0.029 A 
ATOM     62  N   UNL A   1      41.422  29.390  32.459  1.00  0.00    -0.354 N 
ATOM     63  N   UNL A   1      41.033  31.165  34.764  1.00  0.00    -0.248 NA
ATOM     64  C   UNL A   1      41.528  31.764  36.964  1.00  0.00     0.031 C 
ATOM     65  C   UNL A   1      42.981  27.814  32.601  1.00  0.00     0.029 A 
ATOM     66  C   UNL A   1      42.397  28.864  33.289  1.00  0.00     0.049 A 
ATOM     67  H   UNL A   1      40.826  30.139  32.690  1.00  0.00     0.167 HD
ATOM     68  C   UNL A   1      42.057  30.357  35.238  1.00  0.00     0.074 A 
ATOM     69  C   UNL A   1      42.344  30.789  36.589  1.00  0.00     0.031 C 
ATOM     70  C   UNL A   1      42.704  29.346  34.610  1.00  0.00     0.037 A 
BRANCH  57  71
ATOM     71  C   UNL A   1      40.656  28.170  28.911  1.00  0.00     0.064 A 
ATOM     72  C   UNL A   1      39.987  26.946  28.774  1.00  0.00     0.173 A 
ATOM     73  C   UNL A   1      41.398  28.639  27.816  1.00  0.00     0.173 A 
ATOM     74  F   UNL A   1      39.273  26.449  29.796  1.00  0.00    -0.203 F 
ATOM     75  C   UNL A   1      40.068  26.212  27.594  1.00  0.00     0.198 A 
ATOM     76  C   UNL A   1      41.453  27.917  26.626  1.00  0.00     0.198 A 
ATOM     77  F   UNL A   1      42.053  29.808  27.891  1.00  0.00    -0.203 F 
ATOM     78  F   UNL A   1      39.448  25.027  27.500  1.00  0.00    -0.200 F 
ATOM     79  C   UNL A   1      40.792  26.703  26.518  1.00  0.00     0.200 A 
ATOM     80  F   UNL A   1      42.140  28.401  25.581  1.00  0.00    -0.200 F 
ATOM     81  F   UNL A   1      40.854  26.004  25.376  1.00  0.00    -0.200 F 
ENDBRANCH  57  71
BRANCH  58  82
ATOM     82  C   UNL A   1      39.577  33.941  36.998  1.00  0.00     0.064 A 
ATOM     83  C   UNL A   1      38.779  33.489  38.059  1.00  0.00     0.173 A 
ATOM     84  C   UNL A   1      40.164  35.210  37.121  1.00  0.00     0.173 A 
ATOM     85  F   UNL A   1      38.179  32.292  37.981  1.00  0.00    -0.203 F 
ATOM     86  C   UNL A   1      38.541  34.290  39.174  1.00  0.00     0.198 A 
ATOM     87  C   UNL A   1      39.952  35.995  38.252  1.00  0.00     0.198 A 
ATOM     88  F   UNL A   1      40.940  35.690  36.139  1.00  0.00    -0.203 F 
ATOM     89  F   UNL A   1      37.717  33.860  40.140  1.00  0.00    -0.200 F 
ATOM     90  C   UNL A   1      39.128  35.541  39.272  1.00  0.00     0.200 A 
ATOM     91  F   UNL A   1      40.534  37.199  38.349  1.00  0.00    -0.200 F 
ATOM     92  F   UNL A   1      38.891  36.314  40.339  1.00  0.00    -0.200 F 
ENDBRANCH  58  82
BRANCH  70  93
ATOM     93  C   UNL A   1      43.850  28.694  35.327  1.00  0.00     0.064 A 
ATOM     94  C   UNL A   1      43.665  27.592  36.172  1.00  0.00     0.173 A 
ATOM     95  C   UNL A   1      45.162  29.135  35.094  1.00  0.00     0.173 A 
ATOM     96  F   UNL A   1      42.429  27.143  36.437  1.00  0.00    -0.203 F 
ATOM     97  C   UNL A   1      44.754  26.960  36.768  1.00  0.00     0.198 A 
ATOM     98  C   UNL A   1      46.249  28.484  35.668  1.00  0.00     0.198 A 
ATOM     99  F   UNL A   1      45.390  30.182  34.287  1.00  0.00    -0.203 F 
ATOM    100  F   UNL A   1      44.554  25.927  37.598  1.00  0.00    -0.200 F 
ATOM    101  C   UNL A   1      46.044  27.399  36.507  1.00  0.00     0.200 A 
ATOM    102  F   UNL A   1      47.494  28.899  35.401  1.00  0.00    -0.200 F 
ATOM    103  F   UNL A   1      47.091  26.776  37.065  1.00  0.00    -0.200 F 
ENDBRANCH  70  93
ENDBRANCH  44  45
ENDBRANCH  36  39
ENDBRANCH  34  35
ENDBRANCH  33  34
ENDBRANCH  32  33
ENDBRANCH   3  32
TORSDOF 16
ENDMDL
MODEL 2
REMARK VINA RESULT:     -12.9      1.401      2.339
REMARK SMILES CC[C@@H](Oc1cc(Cl)ccc1Cl)C(=O)NNC(=O)[C@@H]1[C@@H]2CC[C@@H](C2)[C@@H]1C(=O)NCCCNC(=O)c1ccc(-c2c3nc(c(-c4c(F)c(F)c(F)c(F)c4F)c4ccc([nH]4)c(-c4c(F)c(F)c(F)c(F)c4F)c4nc(c(-c5c(F)c(F)c(F)c(F)c5F)c5ccc2[nH]5)C=C4)C=C3)cc1
REMARK SMILES IDX 26 1 27 2 28 3 25 5 19 6 20 7 21 8 24 9 23 10 22 11 17 12
REMARK SMILES IDX 16 13 18 15 15 16 13 17 14 18 3 20 2 21 1 22 4 23 5 24 6 25
REMARK SMILES IDX 11 26 7 27 10 28 12 29 8 30 9 31 29 32 30 33 31 34 32 35
REMARK SMILES IDX 33 36 34 38 35 39 36 40 97 41 37 42 96 43 38 44 39 45 40 46
REMARK SMILES IDX 90 47 41 48 95 49 89 50 91 51 42 52 94 53 88 54 87 55 43 57
REMARK SMILES IDX 75 58 55 59 74 60 56 61 59 62 73 63 92 64 57 65 58 66 72 68
REMARK SMILES IDX 93 69 60 70 44 71 45 72 53 73 46 74 47 75 51 76 54 77 48 78
REMARK SMILES IDX 49 79 52 80 50 81 76 82 77 83 85 84 78 85 79 86 83 87 86 88
REMARK SMILES IDX 80 89 81 90 84 91 82 92 61 93 62 94 70 95 63 96 64 97 68 98
REMARK SMILES IDX 71 99 65 100 66 101 69 102 67 103
REMARK H PARENT 28 4 16 14 15 19 32 37 91 56 59 67
REMARK Flexibility Score: inf
ROOT
ATOM      1  C   UNL A   1      33.098  28.059  24.829  1.00  0.00     0.224 C 
ATOM      2  O   UNL A   1      34.025  27.960  24.025  1.00  0.00    -0.275 OA
ATOM      3  N   UNL A   1      33.053  29.168  25.627  1.00  0.00    -0.356 N 
ATOM      4  H   UNL A   1      33.742  29.844  25.435  1.00  0.00     0.163 HD
ENDROOT
BRANCH   1   5
ATOM      5  C   UNL A   1      31.957  27.052  24.892  1.00  0.00     0.094 C 
ATOM      6  C   UNL A   1      32.104  25.714  24.110  1.00  0.00     0.096 C 
ATOM      7  C   UNL A   1      30.869  25.742  23.185  1.00  0.00     0.002 C 
ATOM      8  C   UNL A   1      31.005  26.812  22.093  1.00  0.00     0.005 C 
ATOM      9  C   UNL A   1      29.817  26.380  24.108  1.00  0.00     0.009 C 
ATOM     10  C   UNL A   1      30.641  27.649  24.320  1.00  0.00     0.002 C 
ATOM     11  C   UNL A   1      30.789  28.119  22.859  1.00  0.00     0.005 C 
BRANCH   6  12
ATOM     12  C   UNL A   1      33.524  25.391  23.653  1.00  0.00     0.242 C 
ATOM     13  N   UNL A   1      34.491  24.938  24.501  1.00  0.00    -0.267 N 
ATOM     14  H   UNL A   1      35.398  24.859  24.125  1.00  0.00     0.191 HD
ATOM     15  O   UNL A   1      33.879  25.702  22.509  1.00  0.00    -0.273 OA
BRANCH  13  16
ATOM     16  N   UNL A   1      34.346  24.577  25.826  1.00  0.00    -0.264 N 
ATOM     17  C   UNL A   1      34.378  23.270  26.261  1.00  0.00     0.279 C 
ATOM     18  O   UNL A   1      34.186  23.035  27.456  1.00  0.00    -0.269 OA
ATOM     19  H   UNL A   1      34.213  25.288  26.492  1.00  0.00     0.191 HD
BRANCH  17  20
ATOM     20  C   UNL A   1      34.595  22.129  25.242  1.00  0.00     0.263 C 
BRANCH  20  21
ATOM     21  C   UNL A   1      36.096  21.808  25.166  1.00  0.00     0.052 C 
ATOM     22  C   UNL A   1      36.727  22.241  23.849  1.00  0.00     0.008 C 
ENDBRANCH  20  21
BRANCH  20  23
ATOM     23  O   UNL A   1      33.869  20.952  25.639  1.00  0.00    -0.479 OA
BRANCH  23  24
ATOM     24  C   UNL A   1      33.435  20.174  24.601  1.00  0.00     0.140 A 
ATOM     25  C   UNL A   1      33.857  18.843  24.621  1.00  0.00     0.068 A 
ATOM     26  C   UNL A   1      32.517  20.599  23.633  1.00  0.00     0.083 A 
ATOM     27  C   UNL A   1      33.423  17.960  23.635  1.00  0.00     0.044 A 
ATOM     28  C   UNL A   1      32.075  19.704  22.653  1.00  0.00     0.026 A 
ATOM     29  Cl  UNL A   1      31.849  22.189  23.639  1.00  0.00    -0.080 Cl
ATOM     30  Cl  UNL A   1      33.981  16.333  23.647  1.00  0.00    -0.084 Cl
ATOM     31  C   UNL A   1      32.537  18.385  22.649  1.00  0.00     0.022 A 
ENDBRANCH  23  24
ENDBRANCH  20  23
ENDBRANCH  17  20
ENDBRANCH  13  16
ENDBRANCH   6  12
ENDBRANCH   1   5
BRANCH   3  32
ATOM     32  C   UNL A   1      32.148  29.506  26.711  1.00  0.00     0.117 C 
BRANCH  32  33
ATOM     33  C   UNL A   1      31.787  30.989  26.712  1.00  0.00     0.042 C 
BRANCH  33  34
ATOM     34  C   UNL A   1      32.983  31.913  26.939  1.00  0.00     0.118 C 
BRANCH  34  35
ATOM     35  N   UNL A   1      32.587  33.267  27.315  1.00  0.00    -0.352 N 
ATOM     36  C   UNL A   1      33.069  34.091  28.305  1.00  0.00     0.251 C 
ATOM     37  H   UNL A   1      31.860  33.651  26.774  1.00  0.00     0.163 HD
ATOM     38  O   UNL A   1      32.490  35.136  28.568  1.00  0.00    -0.269 OA
BRANCH  36  39
ATOM     39  C   UNL A   1      34.277  33.708  29.066  1.00  0.00     0.039 A 
ATOM     40  C   UNL A   1      34.154  32.797  30.120  1.00  0.00     0.014 A 
ATOM     41  C   UNL A   1      35.523  34.256  28.755  1.00  0.00     0.014 A 
ATOM     42  C   UNL A   1      35.294  32.372  30.808  1.00  0.00     0.010 A 
ATOM     43  C   UNL A   1      36.663  33.781  29.394  1.00  0.00     0.010 A 
ATOM     44  C   UNL A   1      36.562  32.829  30.422  1.00  0.00    -0.014 A 
BRANCH  44  45
ATOM     45  C   UNL A   1      37.809  32.346  31.068  1.00  0.00     0.031 A 
ATOM     46  C   UNL A   1      38.604  31.248  30.417  1.00  0.00     0.074 A 
ATOM     47  C   UNL A   1      38.170  32.817  32.278  1.00  0.00     0.049 A 
ATOM     48  N   UNL A   1      39.593  30.540  30.899  1.00  0.00    -0.248 NA
ATOM     49  C   UNL A   1      38.215  30.880  29.045  1.00  0.00     0.031 C 
ATOM     50  C   UNL A   1      37.477  33.873  33.018  1.00  0.00     0.029 A 
ATOM     51  N   UNL A   1      39.195  32.445  33.114  1.00  0.00    -0.354 N 
ATOM     52  C   UNL A   1      39.930  29.637  29.901  1.00  0.00     0.074 A 
ATOM     53  C   UNL A   1      39.014  29.851  28.803  1.00  0.00     0.031 C 
ATOM     54  C   UNL A   1      38.094  34.063  34.196  1.00  0.00     0.029 A 
ATOM     55  C   UNL A   1      39.191  33.107  34.319  1.00  0.00     0.049 A 
ATOM     56  H   UNL A   1      39.869  31.769  32.872  1.00  0.00     0.167 HD
ATOM     57  C   UNL A   1      40.930  28.723  29.894  1.00  0.00     0.037 A 
ATOM     58  C   UNL A   1      39.962  32.937  35.410  1.00  0.00     0.037 A 
ATOM     59  C   UNL A   1      41.851  28.524  30.981  1.00  0.00     0.049 A 
ATOM     60  C   UNL A   1      41.037  31.879  35.392  1.00  0.00     0.074 A 
ATOM     61  C   UNL A   1      42.903  27.628  31.068  1.00  0.00     0.029 A 
ATOM     62  N   UNL A   1      41.835  29.241  32.168  1.00  0.00    -0.354 N 
ATOM     63  N   UNL A   1      41.364  31.047  34.434  1.00  0.00    -0.248 NA
ATOM     64  C   UNL A   1      41.853  31.738  36.607  1.00  0.00     0.031 C 
ATOM     65  C   UNL A   1      43.502  27.780  32.322  1.00  0.00     0.029 A 
ATOM     66  C   UNL A   1      42.858  28.806  32.993  1.00  0.00     0.049 A 
ATOM     67  H   UNL A   1      41.192  29.953  32.390  1.00  0.00     0.167 HD
ATOM     68  C   UNL A   1      42.449  30.324  34.909  1.00  0.00     0.074 A 
ATOM     69  C   UNL A   1      42.727  30.811  36.242  1.00  0.00     0.031 C 
ATOM     70  C   UNL A   1      43.154  29.344  34.295  1.00  0.00     0.037 A 
BRANCH  57  71
ATOM     71  C   UNL A   1      41.096  27.875  28.667  1.00  0.00     0.064 A 
ATOM     72  C   UNL A   1      40.322  26.724  28.468  1.00  0.00     0.173 A 
ATOM     73  C   UNL A   1      41.984  28.255  27.650  1.00  0.00     0.173 A 
ATOM     74  F   UNL A   1      39.466  26.313  29.415  1.00  0.00    -0.203 F 
ATOM     75  C   UNL A   1      40.442  25.972  27.302  1.00  0.00     0.198 A 
ATOM     76  C   UNL A   1      42.080  27.519  26.471  1.00  0.00     0.198 A 
ATOM     77  F   UNL A   1      42.743  29.353  27.787  1.00  0.00    -0.203 F 
ATOM     78  F   UNL A   1      39.718  24.855  27.149  1.00  0.00    -0.200 F 
ATOM     79  C   UNL A   1      41.313  26.375  26.301  1.00  0.00     0.200 A 
ATOM     80  F   UNL A   1      42.911  27.919  25.498  1.00  0.00    -0.200 F 
ATOM     81  F   UNL A   1      41.414  25.662  25.171  1.00  0.00    -0.200 F 
ENDBRANCH  57  71
BRANCH  58  82
ATOM     82  C   UNL A   1      39.756  33.776  36.622  1.00  0.00     0.064 A 
ATOM     83  C   UNL A   1      38.922  33.344  37.663  1.00  0.00     0.173 A 
ATOM     84  C   UNL A   1      40.345  35.044  36.744  1.00  0.00     0.173 A 
ATOM     85  F   UNL A   1      38.319  32.148  37.583  1.00  0.00    -0.203 F 
ATOM     86  C   UNL A   1      38.652  34.162  38.757  1.00  0.00     0.198 A 
ATOM     87  C   UNL A   1      40.101  35.847  37.856  1.00  0.00     0.198 A 
ATOM     88  F   UNL A   1      41.156  35.505  35.781  1.00  0.00    -0.203 F 
ATOM     89  F   UNL A   1      37.795  33.751  39.702  1.00  0.00    -0.200 F 
ATOM     90  C   UNL A   1      39.243  35.412  38.855  1.00  0.00     0.200 A 
ATOM     91  F   UNL A   1      40.687  37.049  37.954  1.00  0.00    -0.200 F 
ATOM     92  F   UNL A   1      38.975  36.203  39.903  1.00  0.00    -0.200 F 
ENDBRANCH  58  82
BRANCH  70  93
ATOM     93  C   UNL A   1      44.353  28.792  35.007  1.00  0.00     0.064 A 
ATOM     94  C   UNL A   1      45.626  29.361  34.866  1.00  0.00     0.173 A 
ATOM     95  C   UNL A   1      44.202  27.726  35.908  1.00  0.00     0.173 A 
ATOM     96  F   UNL A   1      45.824  30.371  34.007  1.00  0.00    -0.203 F 
ATOM     97  C   UNL A   1      46.709  28.874  35.596  1.00  0.00     0.198 A 
ATOM     98  C   UNL A   1      45.279  27.261  36.656  1.00  0.00     0.198 A 
ATOM     99  F   UNL A   1      43.001  27.154  36.082  1.00  0.00    -0.203 F 
ATOM    100  F   UNL A   1      47.925  29.410  35.424  1.00  0.00    -0.200 F 
ATOM    101  C   UNL A   1      46.532  27.834  36.496  1.00  0.00     0.200 A 
ATOM    102  F   UNL A   1      45.102  26.268  37.537  1.00  0.00    -0.200 F 
ATOM    103  F   UNL A   1      47.571  27.381  37.212  1.00  0.00    -0.200 F 
ENDBRANCH  70  93
ENDBRANCH  44  45
ENDBRANCH  36  39
ENDBRANCH  34  35
ENDBRANCH  33  34
ENDBRANCH  32  33
ENDBRANCH   3  32
TORSDOF 16
ENDMDL
MODEL 3
REMARK VINA RESULT:     -12.9      0.574      7.107
REMARK SMILES CC[C@@H](Oc1cc(Cl)ccc1Cl)C(=O)NNC(=O)[C@@H]1[C@@H]2CC[C@@H](C2)[C@@H]1C(=O)NCCCNC(=O)c1ccc(-c2c3nc(c(-c4c(F)c(F)c(F)c(F)c4F)c4ccc([nH]4)c(-c4c(F)c(F)c(F)c(F)c4F)c4nc(c(-c5c(F)c(F)c(F)c(F)c5F)c5ccc2[nH]5)C=C4)C=C3)cc1
REMARK SMILES IDX 26 1 27 2 28 3 25 5 19 6 20 7 21 8 24 9 23 10 22 11 17 12
REMARK SMILES IDX 16 13 18 15 15 16 13 17 14 18 3 20 2 21 1 22 4 23 5 24 6 25
REMARK SMILES IDX 11 26 7 27 10 28 12 29 8 30 9 31 29 32 30 33 31 34 32 35
REMARK SMILES IDX 33 36 34 38 35 39 36 40 97 41 37 42 96 43 38 44 39 45 40 46
REMARK SMILES IDX 90 47 41 48 95 49 89 50 91 51 42 52 94 53 88 54 87 55 43 57
REMARK SMILES IDX 75 58 55 59 74 60 56 61 59 62 73 63 92 64 57 65 58 66 72 68
REMARK SMILES IDX 93 69 60 70 44 71 45 72 53 73 46 74 47 75 51 76 54 77 48 78
REMARK SMILES IDX 49 79 52 80 50 81 76 82 77 83 85 84 78 85 79 86 83 87 86 88
REMARK SMILES IDX 80 89 81 90 84 91 82 92 61 93 62 94 70 95 63 96 64 97 68 98
REMARK SMILES IDX 71 99 65 100 66 101 69 102 67 103
REMARK H PARENT 28 4 16 14 15 19 32 37 91 56 59 67
REMARK Flexibility Score: inf
ROOT
ATOM      1  C   UNL A   1      32.069  29.133  24.516  1.00  0.00     0.224 C 
ATOM      2  O   UNL A   1      32.906  28.907  23.642  1.00  0.00    -0.275 OA
ATOM      3  N   UNL A   1      32.347  30.101  25.440  1.00  0.00    -0.356 N 
ATOM      4  H   UNL A   1      33.182  30.597  25.281  1.00  0.00     0.163 HD
ENDROOT
BRANCH   1   5
ATOM      5  C   UNL A   1      30.706  28.453  24.541  1.00  0.00     0.094 C 
ATOM      6  C   UNL A   1      30.599  27.029  25.162  1.00  0.00     0.096 C 
ATOM      7  C   UNL A   1      30.016  26.209  23.993  1.00  0.00     0.002 C 
ATOM      8  C   UNL A   1      31.040  26.030  22.862  1.00  0.00     0.005 C 
ATOM      9  C   UNL A   1      29.046  27.225  23.367  1.00  0.00     0.009 C 
ATOM     10  C   UNL A   1      30.146  28.252  23.105  1.00  0.00     0.002 C 
ATOM     11  C   UNL A   1      31.086  27.416  22.214  1.00  0.00     0.005 C 
BRANCH   6  12
ATOM     12  C   UNL A   1      31.797  26.607  26.008  1.00  0.00     0.242 C 
ATOM     13  N   UNL A   1      31.781  25.516  26.825  1.00  0.00    -0.267 N 
ATOM     14  H   UNL A   1      32.569  25.392  27.402  1.00  0.00     0.191 HD
ATOM     15  O   UNL A   1      32.773  27.363  26.097  1.00  0.00    -0.273 OA
BRANCH  13  16
ATOM     16  N   UNL A   1      30.788  24.563  26.936  1.00  0.00    -0.264 N 
ATOM     17  C   UNL A   1      30.928  23.269  26.484  1.00  0.00     0.279 C 
ATOM     18  O   UNL A   1      29.969  22.498  26.575  1.00  0.00    -0.269 OA
ATOM     19  H   UNL A   1      29.937  24.821  27.358  1.00  0.00     0.191 HD
BRANCH  17  20
ATOM     20  C   UNL A   1      32.253  22.826  25.825  1.00  0.00     0.263 C 
BRANCH  20  21
ATOM     21  C   UNL A   1      32.045  21.456  25.161  1.00  0.00     0.052 C 
ATOM     22  C   UNL A   1      33.047  20.411  25.636  1.00  0.00     0.008 C 
ENDBRANCH  20  21
BRANCH  20  23
ATOM     23  O   UNL A   1      32.671  23.784  24.837  1.00  0.00    -0.479 OA
BRANCH  23  24
ATOM     24  C   UNL A   1      33.974  23.659  24.438  1.00  0.00     0.140 A 
ATOM     25  C   UNL A   1      34.935  23.833  25.435  1.00  0.00     0.068 A 
ATOM     26  C   UNL A   1      34.364  23.250  23.157  1.00  0.00     0.083 A 
ATOM     27  C   UNL A   1      36.285  23.673  25.136  1.00  0.00     0.044 A 
ATOM     28  C   UNL A   1      35.722  23.078  22.867  1.00  0.00     0.026 A 
ATOM     29  Cl  UNL A   1      33.219  22.882  21.923  1.00  0.00    -0.080 Cl
ATOM     30  Cl  UNL A   1      37.464  23.927  26.364  1.00  0.00    -0.084 Cl
ATOM     31  C   UNL A   1      36.685  23.300  23.856  1.00  0.00     0.022 A 
ENDBRANCH  23  24
ENDBRANCH  20  23
ENDBRANCH  17  20
ENDBRANCH  13  16
ENDBRANCH   6  12
ENDBRANCH   1   5
BRANCH   3  32
ATOM     32  C   UNL A   1      31.605  30.513  26.618  1.00  0.00     0.117 C 
BRANCH  32  33
ATOM     33  C   UNL A   1      31.469  32.031  26.704  1.00  0.00     0.042 C 
BRANCH  33  34
ATOM     34  C   UNL A   1      32.783  32.752  27.005  1.00  0.00     0.118 C 
BRANCH  34  35
ATOM     35  N   UNL A   1      32.581  34.104  27.516  1.00  0.00    -0.352 N 
ATOM     36  C   UNL A   1      33.145  34.739  28.598  1.00  0.00     0.251 C 
ATOM     37  H   UNL A   1      31.940  34.649  27.003  1.00  0.00     0.163 HD
ATOM     38  O   UNL A   1      32.719  35.827  28.958  1.00  0.00    -0.269 OA
BRANCH  36  39
ATOM     39  C   UNL A   1      34.252  34.100  29.339  1.00  0.00     0.039 A 
ATOM     40  C   UNL A   1      33.950  33.201  30.367  1.00  0.00     0.014 A 
ATOM     41  C   UNL A   1      35.582  34.395  29.034  1.00  0.00     0.014 A 
ATOM     42  C   UNL A   1      34.983  32.536  31.035  1.00  0.00     0.010 A 
ATOM     43  C   UNL A   1      36.605  33.682  29.651  1.00  0.00     0.010 A 
ATOM     44  C   UNL A   1      36.317  32.740  30.652  1.00  0.00    -0.014 A 
BRANCH  44  45
ATOM     45  C   UNL A   1      37.443  31.998  31.275  1.00  0.00     0.031 A 
ATOM     46  C   UNL A   1      37.923  32.393  32.644  1.00  0.00     0.074 A 
ATOM     47  C   UNL A   1      38.093  31.047  30.577  1.00  0.00     0.049 A 
ATOM     48  N   UNL A   1      39.005  32.027  33.282  1.00  0.00    -0.248 NA
ATOM     49  C   UNL A   1      37.083  33.349  33.384  1.00  0.00     0.031 C 
ATOM     50  C   UNL A   1      37.732  30.580  29.237  1.00  0.00     0.029 A 
ATOM     51  N   UNL A   1      39.216  30.319  30.887  1.00  0.00    -0.354 N 
ATOM     52  C   UNL A   1      38.984  32.719  34.485  1.00  0.00     0.074 A 
ATOM     53  C   UNL A   1      37.808  33.562  34.473  1.00  0.00     0.031 C 
ATOM     54  C   UNL A   1      38.615  29.649  28.841  1.00  0.00     0.029 A 
ATOM     55  C   UNL A   1      39.635  29.492  29.873  1.00  0.00     0.049 A 
ATOM     56  H   UNL A   1      39.678  30.385  31.755  1.00  0.00     0.167 HD
ATOM     57  C   UNL A   1      39.858  32.643  35.517  1.00  0.00     0.037 A 
ATOM     58  C   UNL A   1      40.736  28.720  29.774  1.00  0.00     0.037 A 
ATOM     59  C   UNL A   1      41.016  31.790  35.533  1.00  0.00     0.049 A 
ATOM     60  C   UNL A   1      41.717  28.691  30.919  1.00  0.00     0.074 A 
ATOM     61  C   UNL A   1      41.960  31.635  36.534  1.00  0.00     0.029 A 
ATOM     62  N   UNL A   1      41.384  30.940  34.500  1.00  0.00    -0.354 N 
ATOM     63  N   UNL A   1      41.675  29.331  32.063  1.00  0.00    -0.248 NA
ATOM     64  C   UNL A   1      42.899  27.831  30.762  1.00  0.00     0.031 C 
ATOM     65  C   UNL A   1      42.916  30.716  36.093  1.00  0.00     0.029 A 
ATOM     66  C   UNL A   1      42.540  30.260  34.841  1.00  0.00     0.049 A 
ATOM     67  H   UNL A   1      40.895  30.836  33.652  1.00  0.00     0.167 HD
ATOM     68  C   UNL A   1      42.789  28.912  32.776  1.00  0.00     0.074 A 
ATOM     69  C   UNL A   1      43.492  27.965  31.939  1.00  0.00     0.031 C 
ATOM     70  C   UNL A   1      43.193  29.278  34.016  1.00  0.00     0.037 A 
BRANCH  57  71
ATOM     71  C   UNL A   1      39.590  33.489  36.726  1.00  0.00     0.064 A 
ATOM     72  C   UNL A   1      38.766  33.035  37.765  1.00  0.00     0.173 A 
ATOM     73  C   UNL A   1      40.219  34.734  36.881  1.00  0.00     0.173 A 
ATOM     74  F   UNL A   1      38.134  31.857  37.660  1.00  0.00    -0.203 F 
ATOM     75  C   UNL A   1      38.566  33.803  38.909  1.00  0.00     0.198 A 
ATOM     76  C   UNL A   1      40.041  35.487  38.039  1.00  0.00     0.198 A 
ATOM     77  F   UNL A   1      41.023  35.212  35.919  1.00  0.00    -0.203 F 
ATOM     78  F   UNL A   1      37.746  33.365  39.874  1.00  0.00    -0.200 F 
ATOM     79  C   UNL A   1      39.212  35.023  39.050  1.00  0.00     0.200 A 
ATOM     80  F   UNL A   1      40.679  36.658  38.181  1.00  0.00    -0.200 F 
ATOM     81  F   UNL A   1      39.034  35.752  40.159  1.00  0.00    -0.200 F 
ENDBRANCH  57  71
BRANCH  58  82
ATOM     82  C   UNL A   1      40.987  27.912  28.551  1.00  0.00     0.064 A 
ATOM     83  C   UNL A   1      41.658  28.462  27.450  1.00  0.00     0.173 A 
ATOM     84  C   UNL A   1      40.520  26.593  28.435  1.00  0.00     0.173 A 
ATOM     85  F   UNL A   1      42.106  29.726  27.503  1.00  0.00    -0.203 F 
ATOM     86  C   UNL A   1      41.816  27.742  26.268  1.00  0.00     0.198 A 
ATOM     87  C   UNL A   1      40.709  25.863  27.265  1.00  0.00     0.198 A 
ATOM     88  F   UNL A   1      39.876  26.016  29.459  1.00  0.00    -0.203 F 
ATOM     89  F   UNL A   1      42.399  28.319  25.208  1.00  0.00    -0.200 F 
ATOM     90  C   UNL A   1      41.344  26.442  26.176  1.00  0.00     0.200 A 
ATOM     91  F   UNL A   1      40.264  24.601  27.185  1.00  0.00    -0.200 F 
ATOM     92  F   UNL A   1      41.487  25.754  25.036  1.00  0.00    -0.200 F 
ENDBRANCH  58  82
BRANCH  70  93
ATOM     93  C   UNL A   1      44.397  28.592  34.592  1.00  0.00     0.064 A 
ATOM     94  C   UNL A   1      45.685  29.129  34.473  1.00  0.00     0.173 A 
ATOM     95  C   UNL A   1      44.237  27.418  35.345  1.00  0.00     0.173 A 
ATOM     96  F   UNL A   1      45.890  30.240  33.751  1.00  0.00    -0.203 F 
ATOM     97  C   UNL A   1      46.775  28.509  35.080  1.00  0.00     0.198 A 
ATOM     98  C   UNL A   1      45.323  26.817  35.974  1.00  0.00     0.198 A 
ATOM     99  F   UNL A   1      43.022  26.869  35.493  1.00  0.00    -0.203 F 
ATOM    100  F   UNL A   1      48.004  29.021  34.929  1.00  0.00    -0.200 F 
ATOM    101  C   UNL A   1      46.591  27.361  35.838  1.00  0.00     0.200 A 
ATOM    102  F   UNL A   1      45.141  25.719  36.719  1.00  0.00    -0.200 F 
ATOM    103  F   UNL A   1      47.639  26.778  36.438  1.00  0.00    -0.200 F 
ENDBRANCH  70  93
ENDBRANCH  44  45
ENDBRANCH  36  39
ENDBRANCH  34  35
ENDBRANCH  33  34
ENDBRANCH  32  33
ENDBRANCH   3  32
TORSDOF 16
ENDMDL
