MODEL 1
REMARK VINA RESULT:     -12.5      0.000      0.000
REMARK SMILES Cc1oc(CNC(=O)c2ccnn2C)cc1C(=O)NCCCNC(=O)c1ccc(-c2c3nc(c(-c4c(F)c(F)c(F)c(F)c4F)c4ccc([nH]4)c(-c4c(F)c(F)c(F)c(F)c4F)c4nc(c(-c5c(F)c(F)c(F)c(F)c5F)c5ccc2[nH]5)C=C4)C=C3)cc1
REMARK SMILES IDX 20 1 19 2 17 3 18 4 16 6 1 7 2 8 3 9 4 10 15 11 5 12 6 13
REMARK SMILES IDX 7 14 8 16 9 17 10 18 13 19 11 20 12 21 14 22 21 23 22 24
REMARK SMILES IDX 23 25 24 26 25 28 26 29 27 30 88 31 28 32 87 33 29 34 30 35
REMARK SMILES IDX 31 36 81 37 32 38 86 39 80 40 82 41 33 42 85 43 79 44 78 45
REMARK SMILES IDX 34 47 66 48 46 49 65 50 47 51 50 52 64 53 83 54 48 55 49 56
REMARK SMILES IDX 63 58 84 59 51 60 35 61 36 62 44 63 37 64 38 65 42 66 45 67
REMARK SMILES IDX 39 68 40 69 43 70 41 71 67 72 68 73 76 74 69 75 70 76 74 77
REMARK SMILES IDX 77 78 71 79 72 80 75 81 73 82 52 83 53 84 61 85 54 86 55 87
REMARK SMILES IDX 59 88 62 89 56 90 57 91 60 92 58 93
REMARK H PARENT 19 5 6 15 23 27 82 46 50 57
REMARK Flexibility Score: inf
ROOT
ATOM      1  C   UNL A   1      31.431  30.845  26.385  1.00  0.00     0.118 C 
ENDROOT
BRANCH   1   2
ATOM      2  N   UNL A   1      31.266  30.449  25.000  1.00  0.00    -0.352 N 
ATOM      3  C   UNL A   1      31.156  29.223  24.399  1.00  0.00     0.254 C 
ATOM      4  O   UNL A   1      30.803  29.218  23.219  1.00  0.00    -0.269 OA
ATOM      5  H   UNL A   1      31.225  31.205  24.371  1.00  0.00     0.163 HD
BRANCH   3   6
ATOM      6  C   UNL A   1      31.372  27.973  25.109  1.00  0.00     0.081 A 
ATOM      7  C   UNL A   1      33.866  27.950  26.017  1.00  0.00     0.088 C 
ATOM      8  C   UNL A   1      32.489  27.480  25.766  1.00  0.00     0.113 A 
ATOM      9  O   UNL A   1      32.262  26.208  26.202  1.00  0.00    -0.464 OA
ATOM     10  C   UNL A   1      31.038  25.828  25.757  1.00  0.00     0.124 A 
ATOM     11  C   UNL A   1      30.443  26.877  25.098  1.00  0.00     0.061 A 
BRANCH  10  12
ATOM     12  C   UNL A   1      30.650  24.419  26.010  1.00  0.00     0.191 C 
BRANCH  12  13
ATOM     13  N   UNL A   1      31.431  23.929  27.131  1.00  0.00    -0.343 N 
ATOM     14  C   UNL A   1      32.293  22.865  27.163  1.00  0.00     0.269 C 
ATOM     15  H   UNL A   1      31.328  24.424  27.976  1.00  0.00     0.164 HD
ATOM     16  O   UNL A   1      32.651  22.425  28.251  1.00  0.00    -0.268 OA
BRANCH  14  17
ATOM     17  C   UNL A   1      32.741  22.319  25.915  1.00  0.00     0.125 A 
ATOM     18  C   UNL A   1      32.281  21.202  25.242  1.00  0.00     0.055 A 
ATOM     19  N   UNL A   1      33.806  22.767  25.175  1.00  0.00    -0.263 N 
ATOM     20  C   UNL A   1      33.062  21.126  24.078  1.00  0.00     0.136 A 
ATOM     21  N   UNL A   1      33.975  22.097  24.016  1.00  0.00    -0.181 NA
ATOM     22  C   UNL A   1      34.728  23.828  25.507  1.00  0.00     0.174 C 
ENDBRANCH  14  17
ENDBRANCH  12  13
ENDBRANCH  10  12
ENDBRANCH   3   6
ENDBRANCH   1   2
BRANCH   1  23
ATOM     23  C   UNL A   1      31.387  32.364  26.554  1.00  0.00     0.042 C 
BRANCH  23  24
ATOM     24  C   UNL A   1      32.604  32.970  27.249  1.00  0.00     0.118 C 
BRANCH  24  25
ATOM     25  N   UNL A   1      32.388  34.345  27.664  1.00  0.00    -0.352 N 
ATOM     26  C   UNL A   1      32.998  35.038  28.681  1.00  0.00     0.251 C 
ATOM     27  H   UNL A   1      31.715  34.845  27.148  1.00  0.00     0.163 HD
ATOM     28  O   UNL A   1      32.581  36.148  28.999  1.00  0.00    -0.269 OA
BRANCH  26  29
ATOM     29  C   UNL A   1      34.147  34.455  29.414  1.00  0.00     0.039 A 
ATOM     30  C   UNL A   1      35.426  34.578  28.859  1.00  0.00     0.014 A 
ATOM     31  C   UNL A   1      33.970  33.737  30.602  1.00  0.00     0.014 A 
ATOM     32  C   UNL A   1      36.530  34.013  29.506  1.00  0.00     0.010 A 
ATOM     33  C   UNL A   1      35.076  33.195  31.263  1.00  0.00     0.010 A 
ATOM     34  C   UNL A   1      36.362  33.323  30.716  1.00  0.00    -0.014 A 
BRANCH  34  35
ATOM     35  C   UNL A   1      37.519  32.694  31.398  1.00  0.00     0.031 A 
ATOM     36  C   UNL A   1      38.282  31.591  30.723  1.00  0.00     0.074 A 
ATOM     37  C   UNL A   1      37.867  33.087  32.637  1.00  0.00     0.049 A 
ATOM     38  N   UNL A   1      39.264  30.859  31.188  1.00  0.00    -0.248 NA
ATOM     39  C   UNL A   1      37.878  31.256  29.350  1.00  0.00     0.031 C 
ATOM     40  C   UNL A   1      37.200  34.130  33.413  1.00  0.00     0.029 A 
ATOM     41  N   UNL A   1      38.866  32.639  33.464  1.00  0.00    -0.354 N 
ATOM     42  C   UNL A   1      39.569  29.955  30.182  1.00  0.00     0.074 A 
ATOM     43  C   UNL A   1      38.676  30.234  29.076  1.00  0.00     0.031 C 
ATOM     44  C   UNL A   1      37.814  34.250  34.602  1.00  0.00     0.029 A 
ATOM     45  C   UNL A   1      38.905  33.281  34.676  1.00  0.00     0.049 A 
ATOM     46  H   UNL A   1      39.496  31.925  33.212  1.00  0.00     0.167 HD
ATOM     47  C   UNL A   1      40.504  28.977  30.181  1.00  0.00     0.037 A 
ATOM     48  C   UNL A   1      39.727  33.107  35.727  1.00  0.00     0.037 A 
ATOM     49  C   UNL A   1      41.425  28.715  31.254  1.00  0.00     0.049 A 
ATOM     50  C   UNL A   1      40.809  32.068  35.670  1.00  0.00     0.074 A 
ATOM     51  C   UNL A   1      42.416  27.753  31.330  1.00  0.00     0.029 A 
ATOM     52  N   UNL A   1      41.473  29.434  32.438  1.00  0.00    -0.354 N 
ATOM     53  N   UNL A   1      41.083  31.216  34.714  1.00  0.00    -0.248 NA
ATOM     54  C   UNL A   1      41.696  31.968  36.839  1.00  0.00     0.031 C 
ATOM     55  C   UNL A   1      43.068  27.890  32.561  1.00  0.00     0.029 A 
ATOM     56  C   UNL A   1      42.484  28.943  33.246  1.00  0.00     0.049 A 
ATOM     57  H   UNL A   1      40.878  30.183  32.669  1.00  0.00     0.167 HD
ATOM     58  C   UNL A   1      42.173  30.482  35.161  1.00  0.00     0.074 A 
ATOM     59  C   UNL A   1      42.518  30.994  36.470  1.00  0.00     0.031 C 
ATOM     60  C   UNL A   1      42.821  29.470  34.540  1.00  0.00     0.037 A 
BRANCH  47  61
ATOM     61  C   UNL A   1      40.567  28.099  28.974  1.00  0.00     0.064 A 
ATOM     62  C   UNL A   1      41.383  28.421  27.881  1.00  0.00     0.173 A 
ATOM     63  C   UNL A   1      39.824  26.912  28.922  1.00  0.00     0.173 A 
ATOM     64  F   UNL A   1      42.099  29.555  27.884  1.00  0.00    -0.203 F 
ATOM     65  C   UNL A   1      41.445  27.586  26.769  1.00  0.00     0.198 A 
ATOM     66  C   UNL A   1      39.895  26.074  27.813  1.00  0.00     0.198 A 
ATOM     67  F   UNL A   1      39.028  26.568  29.945  1.00  0.00    -0.203 F 
ATOM     68  F   UNL A   1      42.213  27.920  25.723  1.00  0.00    -0.200 F 
ATOM     69  C   UNL A   1      40.703  26.412  26.737  1.00  0.00     0.200 A 
ATOM     70  F   UNL A   1      39.178  24.942  27.782  1.00  0.00    -0.200 F 
ATOM     71  F   UNL A   1      40.763  25.611  25.665  1.00  0.00    -0.200 F 
ENDBRANCH  47  61
BRANCH  48  72
ATOM     72  C   UNL A   1      39.564  33.954  36.929  1.00  0.00     0.064 A 
ATOM     73  C   UNL A   1      38.803  33.510  38.018  1.00  0.00     0.173 A 
ATOM     74  C   UNL A   1      40.171  35.214  37.014  1.00  0.00     0.173 A 
ATOM     75  F   UNL A   1      38.191  32.319  37.965  1.00  0.00    -0.203 F 
ATOM     76  C   UNL A   1      38.651  34.303  39.153  1.00  0.00     0.198 A 
ATOM     77  C   UNL A   1      40.025  36.001  38.154  1.00  0.00     0.198 A 
ATOM     78  F   UNL A   1      40.904  35.676  35.991  1.00  0.00    -0.203 F 
ATOM     79  F   UNL A   1      37.905  33.866  40.177  1.00  0.00    -0.200 F 
ATOM     80  C   UNL A   1      39.265  35.545  39.221  1.00  0.00     0.200 A 
ATOM     81  F   UNL A   1      40.619  37.200  38.218  1.00  0.00    -0.200 F 
ATOM     82  F   UNL A   1      39.119  36.306  40.314  1.00  0.00    -0.200 F 
ENDBRANCH  48  72
BRANCH  60  83
ATOM     83  C   UNL A   1      43.977  28.856  35.264  1.00  0.00     0.064 A 
ATOM     84  C   UNL A   1      43.786  27.796  36.160  1.00  0.00     0.173 A 
ATOM     85  C   UNL A   1      45.283  29.306  35.033  1.00  0.00     0.173 A 
ATOM     86  F   UNL A   1      42.550  27.345  36.419  1.00  0.00    -0.203 F 
ATOM     87  C   UNL A   1      44.869  27.207  36.806  1.00  0.00     0.198 A 
ATOM     88  C   UNL A   1      46.365  28.711  35.676  1.00  0.00     0.198 A 
ATOM     89  F   UNL A   1      45.509  30.322  34.187  1.00  0.00    -0.203 F 
ATOM     90  F   UNL A   1      44.667  26.204  37.671  1.00  0.00    -0.200 F 
ATOM     91  C   UNL A   1      46.157  27.663  36.562  1.00  0.00     0.200 A 
ATOM     92  F   UNL A   1      47.609  29.154  35.444  1.00  0.00    -0.200 F 
ATOM     93  F   UNL A   1      47.198  27.096  37.187  1.00  0.00    -0.200 F 
ENDBRANCH  60  83
ENDBRANCH  34  35
ENDBRANCH  26  29
ENDBRANCH  24  25
ENDBRANCH  23  24
ENDBRANCH   1  23
TORSDOF 13
ENDMDL
MODEL 2
REMARK VINA RESULT:     -12.4      5.563     11.162
REMARK SMILES Cc1oc(CNC(=O)c2ccnn2C)cc1C(=O)NCCCNC(=O)c1ccc(-c2c3nc(c(-c4c(F)c(F)c(F)c(F)c4F)c4ccc([nH]4)c(-c4c(F)c(F)c(F)c(F)c4F)c4nc(c(-c5c(F)c(F)c(F)c(F)c5F)c5ccc2[nH]5)C=C4)C=C3)cc1
REMARK SMILES IDX 20 1 19 2 17 3 18 4 16 6 1 7 2 8 3 9 4 10 15 11 5 12 6 13
REMARK SMILES IDX 7 14 8 16 9 17 10 18 13 19 11 20 12 21 14 22 21 23 22 24
REMARK SMILES IDX 23 25 24 26 25 28 26 29 27 30 88 31 28 32 87 33 29 34 30 35
REMARK SMILES IDX 31 36 81 37 32 38 86 39 80 40 82 41 33 42 85 43 79 44 78 45
REMARK SMILES IDX 34 47 66 48 46 49 65 50 47 51 50 52 64 53 83 54 48 55 49 56
REMARK SMILES IDX 63 58 84 59 51 60 35 61 36 62 44 63 37 64 38 65 42 66 45 67
REMARK SMILES IDX 39 68 40 69 43 70 41 71 67 72 68 73 76 74 69 75 70 76 74 77
REMARK SMILES IDX 77 78 71 79 72 80 75 81 73 82 52 83 53 84 61 85 54 86 55 87
REMARK SMILES IDX 59 88 62 89 56 90 57 91 60 92 58 93
REMARK H PARENT 19 5 6 15 23 27 82 46 50 57
REMARK Flexibility Score: inf
ROOT
ATOM      1  C   UNL A   1      36.651  20.441  24.999  1.00  0.00     0.118 C 
ENDROOT
BRANCH   1   2
ATOM      2  N   UNL A   1      35.497  19.564  25.035  1.00  0.00    -0.352 N 
ATOM      3  C   UNL A   1      34.158  19.797  24.863  1.00  0.00     0.254 C 
ATOM      4  O   UNL A   1      33.439  18.804  24.735  1.00  0.00    -0.269 OA
ATOM      5  H   UNL A   1      35.717  18.622  25.219  1.00  0.00     0.163 HD
BRANCH   3   6
ATOM      6  C   UNL A   1      33.595  21.132  24.764  1.00  0.00     0.081 A 
ATOM      7  C   UNL A   1      33.611  22.225  27.183  1.00  0.00     0.088 C 
ATOM      8  C   UNL A   1      33.387  22.107  25.729  1.00  0.00     0.113 A 
ATOM      9  O   UNL A   1      32.732  23.176  25.192  1.00  0.00    -0.464 OA
ATOM     10  C   UNL A   1      32.425  22.873  23.905  1.00  0.00     0.124 A 
ATOM     11  C   UNL A   1      32.946  21.641  23.588  1.00  0.00     0.061 A 
BRANCH  10  12
ATOM     12  C   UNL A   1      31.587  23.855  23.175  1.00  0.00     0.191 C 
BRANCH  12  13
ATOM     13  N   UNL A   1      32.342  24.334  22.032  1.00  0.00    -0.343 N 
ATOM     14  C   UNL A   1      32.807  25.599  21.793  1.00  0.00     0.269 C 
ATOM     15  H   UNL A   1      32.545  23.663  21.340  1.00  0.00     0.164 HD
ATOM     16  O   UNL A   1      33.180  25.890  20.660  1.00  0.00    -0.268 OA
BRANCH  14  17
ATOM     17  C   UNL A   1      32.844  26.525  22.888  1.00  0.00     0.125 A 
ATOM     18  C   UNL A   1      33.760  26.610  23.920  1.00  0.00     0.055 A 
ATOM     19  N   UNL A   1      31.896  27.474  23.174  1.00  0.00    -0.263 N 
ATOM     20  C   UNL A   1      33.329  27.691  24.706  1.00  0.00     0.136 A 
ATOM     21  N   UNL A   1      32.207  28.242  24.238  1.00  0.00    -0.181 NA
ATOM     22  C   UNL A   1      30.648  27.710  22.486  1.00  0.00     0.174 C 
ENDBRANCH  14  17
ENDBRANCH  12  13
ENDBRANCH  10  12
ENDBRANCH   3   6
ENDBRANCH   1   2
BRANCH   1  23
ATOM     23  C   UNL A   1      37.957  19.661  24.833  1.00  0.00     0.042 C 
BRANCH  23  24
ATOM     24  C   UNL A   1      39.104  20.128  25.727  1.00  0.00     0.118 C 
BRANCH  24  25
ATOM     25  N   UNL A   1      40.146  19.127  25.871  1.00  0.00    -0.352 N 
ATOM     26  C   UNL A   1      41.489  19.316  26.091  1.00  0.00     0.251 C 
ATOM     27  H   UNL A   1      39.851  18.191  25.802  1.00  0.00     0.163 HD
ATOM     28  O   UNL A   1      42.258  18.361  26.028  1.00  0.00    -0.269 OA
BRANCH  26  29
ATOM     29  C   UNL A   1      42.027  20.666  26.387  1.00  0.00     0.039 A 
ATOM     30  C   UNL A   1      42.256  21.015  27.723  1.00  0.00     0.014 A 
ATOM     31  C   UNL A   1      42.244  21.606  25.374  1.00  0.00     0.014 A 
ATOM     32  C   UNL A   1      42.734  22.290  28.044  1.00  0.00     0.010 A 
ATOM     33  C   UNL A   1      42.746  22.871  25.692  1.00  0.00     0.010 A 
ATOM     34  C   UNL A   1      42.987  23.224  27.029  1.00  0.00    -0.014 A 
BRANCH  34  35
ATOM     35  C   UNL A   1      43.465  24.590  27.356  1.00  0.00     0.031 A 
ATOM     36  C   UNL A   1      42.521  25.598  27.945  1.00  0.00     0.074 A 
ATOM     37  C   UNL A   1      44.738  24.940  27.094  1.00  0.00     0.049 A 
ATOM     38  N   UNL A   1      42.724  26.862  28.218  1.00  0.00    -0.248 NA
ATOM     39  C   UNL A   1      41.163  25.125  28.253  1.00  0.00     0.031 C 
ATOM     40  C   UNL A   1      45.752  24.067  26.507  1.00  0.00     0.029 A 
ATOM     41  N   UNL A   1      45.389  26.133  27.282  1.00  0.00    -0.354 N 
ATOM     42  C   UNL A   1      41.514  27.344  28.694  1.00  0.00     0.074 A 
ATOM     43  C   UNL A   1      40.582  26.236  28.682  1.00  0.00     0.031 C 
ATOM     44  C   UNL A   1      46.903  24.752  26.389  1.00  0.00     0.029 A 
ATOM     45  C   UNL A   1      46.699  26.114  26.878  1.00  0.00     0.049 A 
ATOM     46  H   UNL A   1      44.957  26.929  27.670  1.00  0.00     0.167 HD
ATOM     47  C   UNL A   1      41.205  28.598  29.097  1.00  0.00     0.037 A 
ATOM     48  C   UNL A   1      47.630  27.085  26.897  1.00  0.00     0.037 A 
ATOM     49  C   UNL A   1      42.130  29.698  29.153  1.00  0.00     0.049 A 
ATOM     50  C   UNL A   1      47.284  28.447  27.425  1.00  0.00     0.074 A 
ATOM     51  C   UNL A   1      41.904  31.000  29.566  1.00  0.00     0.029 A 
ATOM     52  N   UNL A   1      43.466  29.617  28.797  1.00  0.00    -0.354 N 
ATOM     53  N   UNL A   1      46.134  28.891  27.867  1.00  0.00    -0.248 NA
ATOM     54  C   UNL A   1      48.367  29.442  27.458  1.00  0.00     0.031 C 
ATOM     55  C   UNL A   1      43.107  31.708  29.460  1.00  0.00     0.029 A 
ATOM     56  C   UNL A   1      44.080  30.843  28.988  1.00  0.00     0.049 A 
ATOM     57  H   UNL A   1      43.913  28.807  28.458  1.00  0.00     0.167 HD
ATOM     58  C   UNL A   1      46.353  30.211  28.233  1.00  0.00     0.074 A 
ATOM     59  C   UNL A   1      47.748  30.497  27.971  1.00  0.00     0.031 C 
ATOM     60  C   UNL A   1      45.470  31.106  28.734  1.00  0.00     0.037 A 
BRANCH  47  61
ATOM     61  C   UNL A   1      39.789  28.853  29.501  1.00  0.00     0.064 A 
ATOM     62  C   UNL A   1      39.357  28.638  30.816  1.00  0.00     0.173 A 
ATOM     63  C   UNL A   1      38.863  29.339  28.567  1.00  0.00     0.173 A 
ATOM     64  F   UNL A   1      40.207  28.159  31.736  1.00  0.00    -0.203 F 
ATOM     65  C   UNL A   1      38.039  28.894  31.182  1.00  0.00     0.198 A 
ATOM     66  C   UNL A   1      37.548  29.603  28.939  1.00  0.00     0.198 A 
ATOM     67  F   UNL A   1      39.235  29.554  27.296  1.00  0.00    -0.203 F 
ATOM     68  F   UNL A   1      37.636  28.663  32.440  1.00  0.00    -0.200 F 
ATOM     69  C   UNL A   1      37.136  29.379  30.244  1.00  0.00     0.200 A 
ATOM     70  F   UNL A   1      36.677  30.069  28.032  1.00  0.00    -0.200 F 
ATOM     71  F   UNL A   1      35.867  29.623  30.599  1.00  0.00    -0.200 F 
ENDBRANCH  47  61
BRANCH  48  72
ATOM     72  C   UNL A   1      48.997  26.795  26.409  1.00  0.00     0.064 A 
ATOM     73  C   UNL A   1      49.974  26.292  27.276  1.00  0.00     0.173 A 
ATOM     74  C   UNL A   1      49.346  27.006  25.068  1.00  0.00     0.173 A 
ATOM     75  F   UNL A   1      49.683  26.096  28.570  1.00  0.00    -0.203 F 
ATOM     76  C   UNL A   1      51.259  26.013  26.820  1.00  0.00     0.198 A 
ATOM     77  C   UNL A   1      50.630  26.718  24.612  1.00  0.00     0.198 A 
ATOM     78  F   UNL A   1      48.439  27.490  24.207  1.00  0.00    -0.203 F 
ATOM     79  F   UNL A   1      52.184  25.548  27.671  1.00  0.00    -0.200 F 
ATOM     80  C   UNL A   1      51.585  26.223  25.488  1.00  0.00     0.200 A 
ATOM     81  F   UNL A   1      50.942  26.921  23.325  1.00  0.00    -0.200 F 
ATOM     82  F   UNL A   1      52.822  25.953  25.049  1.00  0.00    -0.200 F 
ENDBRANCH  48  72
BRANCH  60  83
ATOM     83  C   UNL A   1      45.988  32.474  29.043  1.00  0.00     0.064 A 
ATOM     84  C   UNL A   1      46.541  32.771  30.295  1.00  0.00     0.173 A 
ATOM     85  C   UNL A   1      45.965  33.482  28.070  1.00  0.00     0.173 A 
ATOM     86  F   UNL A   1      46.570  31.838  31.258  1.00  0.00    -0.203 F 
ATOM     87  C   UNL A   1      47.052  34.037  30.566  1.00  0.00     0.198 A 
ATOM     88  C   UNL A   1      46.482  34.746  28.342  1.00  0.00     0.198 A 
ATOM     89  F   UNL A   1      45.440  33.242  26.859  1.00  0.00    -0.203 F 
ATOM     90  F   UNL A   1      47.563  34.307  31.775  1.00  0.00    -0.200 F 
ATOM     91  C   UNL A   1      47.024  35.022  29.589  1.00  0.00     0.200 A 
ATOM     92  F   UNL A   1      46.452  35.699  27.400  1.00  0.00    -0.200 F 
ATOM     93  F   UNL A   1      47.514  36.241  29.853  1.00  0.00    -0.200 F 
ENDBRANCH  60  83
ENDBRANCH  34  35
ENDBRANCH  26  29
ENDBRANCH  24  25
ENDBRANCH  23  24
ENDBRANCH   1  23
TORSDOF 13
ENDMDL
MODEL 3
REMARK VINA RESULT:     -12.4      5.570     11.168
REMARK SMILES Cc1oc(CNC(=O)c2ccnn2C)cc1C(=O)NCCCNC(=O)c1ccc(-c2c3nc(c(-c4c(F)c(F)c(F)c(F)c4F)c4ccc([nH]4)c(-c4c(F)c(F)c(F)c(F)c4F)c4nc(c(-c5c(F)c(F)c(F)c(F)c5F)c5ccc2[nH]5)C=C4)C=C3)cc1
REMARK SMILES IDX 20 1 19 2 17 3 18 4 16 6 1 7 2 8 3 9 4 10 15 11 5 12 6 13
REMARK SMILES IDX 7 14 8 16 9 17 10 18 13 19 11 20 12 21 14 22 21 23 22 24
REMARK SMILES IDX 23 25 24 26 25 28 26 29 27 30 88 31 28 32 87 33 29 34 30 35
REMARK SMILES IDX 31 36 81 37 32 38 86 39 80 40 82 41 33 42 85 43 79 44 78 45
REMARK SMILES IDX 34 47 66 48 46 49 65 50 47 51 50 52 64 53 83 54 48 55 49 56
REMARK SMILES IDX 63 58 84 59 51 60 35 61 36 62 44 63 37 64 38 65 42 66 45 67
REMARK SMILES IDX 39 68 40 69 43 70 41 71 67 72 68 73 76 74 69 75 70 76 74 77
REMARK SMILES IDX 77 78 71 79 72 80 75 81 73 82 52 83 53 84 61 85 54 86 55 87
REMARK SMILES IDX 59 88 62 89 56 90 57 91 60 92 58 93
REMARK H PARENT 19 5 6 15 23 27 82 46 50 57
REMARK Flexibility Score: inf
ROOT
ATOM      1  C   UNL A   1      37.186  21.024  24.609  1.00  0.00     0.118 C 
ENDROOT
BRANCH   1   2
ATOM      2  N   UNL A   1      37.718  22.243  25.187  1.00  0.00    -0.352 N 
ATOM      3  C   UNL A   1      37.113  23.361  25.695  1.00  0.00     0.254 C 
ATOM      4  O   UNL A   1      37.834  24.142  26.318  1.00  0.00    -0.269 OA
ATOM      5  H   UNL A   1      38.702  22.272  25.220  1.00  0.00     0.163 HD
BRANCH   3   6
ATOM      6  C   UNL A   1      35.686  23.610  25.579  1.00  0.00     0.081 A 
ATOM      7  C   UNL A   1      34.470  22.456  27.637  1.00  0.00     0.088 C 
ATOM      8  C   UNL A   1      34.627  23.231  26.391  1.00  0.00     0.113 A 
ATOM      9  O   UNL A   1      33.441  23.604  25.831  1.00  0.00    -0.464 OA
ATOM     10  C   UNL A   1      33.707  24.143  24.614  1.00  0.00     0.124 A 
ATOM     11  C   UNL A   1      35.067  24.185  24.419  1.00  0.00     0.061 A 
BRANCH  10  12
ATOM     12  C   UNL A   1      32.535  24.493  23.775  1.00  0.00     0.191 C 
BRANCH  12  13
ATOM     13  N   UNL A   1      33.009  24.790  22.436  1.00  0.00    -0.343 N 
ATOM     14  C   UNL A   1      33.075  26.006  21.810  1.00  0.00     0.269 C 
ATOM     15  H   UNL A   1      33.322  24.019  21.910  1.00  0.00     0.164 HD
ATOM     16  O   UNL A   1      33.237  26.038  20.594  1.00  0.00    -0.268 OA
BRANCH  14  17
ATOM     17  C   UNL A   1      32.958  27.189  22.613  1.00  0.00     0.125 A 
ATOM     18  C   UNL A   1      33.936  27.842  23.339  1.00  0.00     0.055 A 
ATOM     19  N   UNL A   1      31.797  27.863  22.892  1.00  0.00    -0.263 N 
ATOM     20  C   UNL A   1      33.286  28.937  23.930  1.00  0.00     0.136 A 
ATOM     21  N   UNL A   1      31.984  28.972  23.636  1.00  0.00    -0.181 NA
ATOM     22  C   UNL A   1      30.454  27.510  22.495  1.00  0.00     0.174 C 
ENDBRANCH  14  17
ENDBRANCH  12  13
ENDBRANCH  10  12
ENDBRANCH   3   6
ENDBRANCH   1   2
BRANCH   1  23
ATOM     23  C   UNL A   1      38.047  19.806  24.950  1.00  0.00     0.042 C 
BRANCH  23  24
ATOM     24  C   UNL A   1      39.105  20.046  26.025  1.00  0.00     0.118 C 
BRANCH  24  25
ATOM     25  N   UNL A   1      40.186  19.078  25.975  1.00  0.00    -0.352 N 
ATOM     26  C   UNL A   1      41.539  19.303  26.029  1.00  0.00     0.251 C 
ATOM     27  H   UNL A   1      39.911  18.136  25.892  1.00  0.00     0.163 HD
ATOM     28  O   UNL A   1      42.320  18.381  25.812  1.00  0.00    -0.269 OA
BRANCH  26  29
ATOM     29  C   UNL A   1      42.073  20.654  26.328  1.00  0.00     0.039 A 
ATOM     30  C   UNL A   1      42.353  20.981  27.660  1.00  0.00     0.014 A 
ATOM     31  C   UNL A   1      42.237  21.615  25.325  1.00  0.00     0.014 A 
ATOM     32  C   UNL A   1      42.827  22.256  27.984  1.00  0.00     0.010 A 
ATOM     33  C   UNL A   1      42.736  22.881  25.646  1.00  0.00     0.010 A 
ATOM     34  C   UNL A   1      43.028  23.212  26.978  1.00  0.00    -0.014 A 
BRANCH  34  35
ATOM     35  C   UNL A   1      43.503  24.577  27.311  1.00  0.00     0.031 A 
ATOM     36  C   UNL A   1      42.553  25.583  27.896  1.00  0.00     0.074 A 
ATOM     37  C   UNL A   1      44.776  24.929  27.058  1.00  0.00     0.049 A 
ATOM     38  N   UNL A   1      42.753  26.847  28.173  1.00  0.00    -0.248 NA
ATOM     39  C   UNL A   1      41.194  25.108  28.195  1.00  0.00     0.031 C 
ATOM     40  C   UNL A   1      45.795  24.059  26.475  1.00  0.00     0.029 A 
ATOM     41  N   UNL A   1      45.425  26.123  27.252  1.00  0.00    -0.354 N 
ATOM     42  C   UNL A   1      41.540  27.327  28.642  1.00  0.00     0.074 A 
ATOM     43  C   UNL A   1      40.609  26.217  28.623  1.00  0.00     0.031 C 
ATOM     44  C   UNL A   1      46.945  24.746  26.365  1.00  0.00     0.029 A 
ATOM     45  C   UNL A   1      46.738  26.106  26.856  1.00  0.00     0.049 A 
ATOM     46  H   UNL A   1      44.989  26.917  27.639  1.00  0.00     0.167 HD
ATOM     47  C   UNL A   1      41.227  28.580  29.047  1.00  0.00     0.037 A 
ATOM     48  C   UNL A   1      47.668  27.078  26.883  1.00  0.00     0.037 A 
ATOM     49  C   UNL A   1      42.151  29.681  29.111  1.00  0.00     0.049 A 
ATOM     50  C   UNL A   1      47.317  28.438  27.412  1.00  0.00     0.074 A 
ATOM     51  C   UNL A   1      41.921  30.981  29.524  1.00  0.00     0.029 A 
ATOM     52  N   UNL A   1      43.489  29.601  28.762  1.00  0.00    -0.354 N 
ATOM     53  N   UNL A   1      46.163  28.880  27.848  1.00  0.00    -0.248 NA
ATOM     54  C   UNL A   1      48.398  29.435  27.453  1.00  0.00     0.031 C 
ATOM     55  C   UNL A   1      43.123  31.691  29.428  1.00  0.00     0.029 A 
ATOM     56  C   UNL A   1      44.101  30.827  28.960  1.00  0.00     0.049 A 
ATOM     57  H   UNL A   1      43.939  28.793  28.424  1.00  0.00     0.167 HD
ATOM     58  C   UNL A   1      46.379  30.200  28.217  1.00  0.00     0.074 A 
ATOM     59  C   UNL A   1      47.775  30.488  27.965  1.00  0.00     0.031 C 
ATOM     60  C   UNL A   1      45.492  31.093  28.715  1.00  0.00     0.037 A 
BRANCH  47  61
ATOM     61  C   UNL A   1      39.808  28.832  29.442  1.00  0.00     0.064 A 
ATOM     62  C   UNL A   1      39.376  28.645  30.762  1.00  0.00     0.173 A 
ATOM     63  C   UNL A   1      38.880  29.288  28.496  1.00  0.00     0.173 A 
ATOM     64  F   UNL A   1      40.229  28.195  31.694  1.00  0.00    -0.203 F 
ATOM     65  C   UNL A   1      38.055  28.899  31.120  1.00  0.00     0.198 A 
ATOM     66  C   UNL A   1      37.563  29.550  28.859  1.00  0.00     0.198 A 
ATOM     67  F   UNL A   1      39.252  29.476  27.221  1.00  0.00    -0.203 F 
ATOM     68  F   UNL A   1      37.653  28.694  32.382  1.00  0.00    -0.200 F 
ATOM     69  C   UNL A   1      37.150  29.354  30.169  1.00  0.00     0.200 A 
ATOM     70  F   UNL A   1      36.689  29.987  27.941  1.00  0.00    -0.200 F 
ATOM     71  F   UNL A   1      35.879  29.595  30.516  1.00  0.00    -0.200 F 
ENDBRANCH  47  61
BRANCH  48  72
ATOM     72  C   UNL A   1      49.038  26.791  26.402  1.00  0.00     0.064 A 
ATOM     73  C   UNL A   1      49.390  27.026  25.068  1.00  0.00     0.173 A 
ATOM     74  C   UNL A   1      50.017  26.288  27.268  1.00  0.00     0.173 A 
ATOM     75  F   UNL A   1      48.474  27.490  24.205  1.00  0.00    -0.203 F 
ATOM     76  C   UNL A   1      50.679  26.763  24.612  1.00  0.00     0.198 A 
ATOM     77  C   UNL A   1      51.308  26.033  26.812  1.00  0.00     0.198 A 
ATOM     78  F   UNL A   1      49.718  26.046  28.552  1.00  0.00    -0.203 F 
ATOM     79  F   UNL A   1      50.991  26.979  23.327  1.00  0.00    -0.200 F 
ATOM     80  C   UNL A   1      51.638  26.269  25.485  1.00  0.00     0.200 A 
ATOM     81  F   UNL A   1      52.233  25.557  27.657  1.00  0.00    -0.200 F 
ATOM     82  F   UNL A   1      52.878  26.017  25.047  1.00  0.00    -0.200 F 
ENDBRANCH  48  72
BRANCH  60  83
ATOM     83  C   UNL A   1      46.007  32.461  29.030  1.00  0.00     0.064 A 
ATOM     84  C   UNL A   1      46.541  32.759  30.290  1.00  0.00     0.173 A 
ATOM     85  C   UNL A   1      45.999  33.468  28.055  1.00  0.00     0.173 A 
ATOM     86  F   UNL A   1      46.554  31.827  31.254  1.00  0.00    -0.203 F 
ATOM     87  C   UNL A   1      47.048  34.024  30.567  1.00  0.00     0.198 A 
ATOM     88  C   UNL A   1      46.513  34.732  28.333  1.00  0.00     0.198 A 
ATOM     89  F   UNL A   1      45.492  33.227  26.837  1.00  0.00    -0.203 F 
ATOM     90  F   UNL A   1      47.541  34.296  31.783  1.00  0.00    -0.200 F 
ATOM     91  C   UNL A   1      47.036  35.009  29.588  1.00  0.00     0.200 A 
ATOM     92  F   UNL A   1      46.498  35.683  27.390  1.00  0.00    -0.200 F 
ATOM     93  F   UNL A   1      47.523  36.228  29.858  1.00  0.00    -0.200 F 
ENDBRANCH  60  83
ENDBRANCH  34  35
ENDBRANCH  26  29
ENDBRANCH  24  25
ENDBRANCH  23  24
ENDBRANCH   1  23
TORSDOF 13
ENDMDL
