MODEL 1
REMARK VINA RESULT:     -12.8      0.000      0.000
REMARK SMILES Cc1ccc(N2CC[C@H]([NH+]3CCOCC3)[C@H](CCC(=O)NCCCNC(=O)c3ccc(-c4c5nc(c(-c6c(F)c(F)c(F)c(F)c6F)c6ccc([nH]6)c(-c6c(F)c(F)c(F)c(F)c6F)c6nc(c(-c7c(F)c(F)c(F)c(F)c7F)c7ccc4[nH]7)C=C6)C=C5)cc3)C2)nc1
REMARK SMILES IDX 22 1 21 2 19 3 20 4 18 6 17 7 16 8 6 9 7 10 91 11 8 12 9 13
REMARK SMILES IDX 5 14 1 15 2 16 3 17 93 18 4 19 92 20 10 21 11 22 15 23 12 25
REMARK SMILES IDX 14 26 13 27 23 28 24 29 25 30 26 31 27 33 28 34 29 35 90 36
REMARK SMILES IDX 30 37 89 38 31 39 32 40 33 41 83 42 34 43 88 44 82 45 84 46
REMARK SMILES IDX 35 47 87 48 81 49 80 50 36 52 68 53 48 54 67 55 49 56 52 57
REMARK SMILES IDX 66 58 85 59 50 60 51 61 65 63 86 64 53 65 37 66 38 67 46 68
REMARK SMILES IDX 39 69 40 70 44 71 47 72 41 73 42 74 45 75 43 76 69 77 70 78
REMARK SMILES IDX 78 79 71 80 72 81 76 82 79 83 73 84 74 85 77 86 75 87 54 88
REMARK SMILES IDX 55 89 63 90 56 91 57 92 61 93 64 94 58 95 59 96 62 97 60 98
REMARK H PARENT 21 5 10 24 25 32 84 51 52 62
REMARK Flexibility Score: inf
ROOT
ATOM      1  C   UNL A   1      31.566  30.825  26.481  1.00  0.00     0.117 C 
ENDROOT
BRANCH   1   2
ATOM      2  N   UNL A   1      32.959  30.436  26.635  1.00  0.00    -0.356 N 
ATOM      3  C   UNL A   1      33.539  29.203  26.540  1.00  0.00     0.220 C 
ATOM      4  O   UNL A   1      34.695  29.076  26.948  1.00  0.00    -0.275 OA
ATOM      5  H   UNL A   1      33.578  31.174  26.840  1.00  0.00     0.163 HD
BRANCH   3   6
ATOM      6  C   UNL A   1      32.817  28.061  25.841  1.00  0.00     0.100 C 
BRANCH   6   7
ATOM      7  C   UNL A   1      33.251  26.602  26.118  1.00  0.00     0.021 C 
BRANCH   7   8
ATOM      8  C   UNL A   1      33.885  25.847  24.933  1.00  0.00     0.067 C 
ATOM      9  N   UNL A   1      32.377  25.909  22.946  1.00  0.00    -0.356 N 
ATOM     10  C   UNL A   1      32.332  24.470  22.818  1.00  0.00     0.124 C 
ATOM     11  C   UNL A   1      33.541  26.507  23.569  1.00  0.00     0.127 C 
ATOM     12  C   UNL A   1      32.524  23.801  24.172  1.00  0.00     0.087 C 
ATOM     13  C   UNL A   1      33.830  24.277  24.817  1.00  0.00     0.190 C 
BRANCH   9  14
ATOM     14  C   UNL A   1      31.174  26.584  22.976  1.00  0.00     0.128 A 
ATOM     15  C   UNL A   1      27.541  28.793  23.179  1.00  0.00     0.046 C 
ATOM     16  C   UNL A   1      28.801  27.991  23.141  1.00  0.00    -0.033 A 
ATOM     17  C   UNL A   1      28.932  26.792  23.831  1.00  0.00     0.009 A 
ATOM     18  C   UNL A   1      29.892  28.416  22.393  1.00  0.00     0.117 A 
ATOM     19  C   UNL A   1      30.124  26.078  23.738  1.00  0.00     0.047 A 
ATOM     20  N   UNL A   1      31.067  27.753  22.315  1.00  0.00    -0.239 NA
ENDBRANCH   9  14
BRANCH  13  21
ATOM     21  N   UNL A   1      34.345  23.461  25.941  1.00  0.00    -0.328 N 
ATOM     22  C   UNL A   1      35.823  23.524  26.103  1.00  0.00     0.291 C 
ATOM     23  C   UNL A   1      33.928  22.060  26.083  1.00  0.00     0.291 C 
ATOM     24  H   UNL A   1      33.855  23.950  26.691  1.00  0.00     0.348 HD
ATOM     25  C   UNL A   1      36.637  22.408  25.406  1.00  0.00     0.221 C 
ATOM     26  C   UNL A   1      34.758  21.016  25.338  1.00  0.00     0.221 C 
ATOM     27  O   UNL A   1      36.132  21.105  25.705  1.00  0.00    -0.370 OA
ENDBRANCH  13  21
ENDBRANCH   7   8
ENDBRANCH   6   7
ENDBRANCH   3   6
ENDBRANCH   1   2
BRANCH   1  28
ATOM     28  C   UNL A   1      31.427  32.332  26.705  1.00  0.00     0.042 C 
BRANCH  28  29
ATOM     29  C   UNL A   1      32.685  32.982  27.231  1.00  0.00     0.118 C 
BRANCH  29  30
ATOM     30  N   UNL A   1      32.445  34.340  27.678  1.00  0.00    -0.352 N 
ATOM     31  C   UNL A   1      33.018  35.025  28.725  1.00  0.00     0.251 C 
ATOM     32  H   UNL A   1      31.776  34.844  27.160  1.00  0.00     0.163 HD
ATOM     33  O   UNL A   1      32.547  36.099  29.076  1.00  0.00    -0.269 OA
BRANCH  31  34
ATOM     34  C   UNL A   1      34.179  34.452  29.449  1.00  0.00     0.039 A 
ATOM     35  C   UNL A   1      33.954  33.771  30.649  1.00  0.00     0.014 A 
ATOM     36  C   UNL A   1      35.483  34.580  28.963  1.00  0.00     0.014 A 
ATOM     37  C   UNL A   1      35.025  33.181  31.325  1.00  0.00     0.010 A 
ATOM     38  C   UNL A   1      36.526  33.887  29.567  1.00  0.00     0.010 A 
ATOM     39  C   UNL A   1      36.316  33.203  30.772  1.00  0.00    -0.014 A 
BRANCH  39  40
ATOM     40  C   UNL A   1      37.468  32.562  31.457  1.00  0.00     0.031 A 
ATOM     41  C   UNL A   1      38.190  31.418  30.796  1.00  0.00     0.074 A 
ATOM     42  C   UNL A   1      37.832  32.973  32.689  1.00  0.00     0.049 A 
ATOM     43  N   UNL A   1      39.169  30.679  31.253  1.00  0.00    -0.248 NA
ATOM     44  C   UNL A   1      37.728  31.027  29.453  1.00  0.00     0.031 C 
ATOM     45  C   UNL A   1      37.180  34.037  33.453  1.00  0.00     0.029 A 
ATOM     46  N   UNL A   1      38.836  32.538  33.516  1.00  0.00    -0.354 N 
ATOM     47  C   UNL A   1      39.424  29.736  30.266  1.00  0.00     0.074 A 
ATOM     48  C   UNL A   1      38.454  29.946  29.216  1.00  0.00     0.031 C 
ATOM     49  C   UNL A   1      37.822  34.195  34.622  1.00  0.00     0.029 A 
ATOM     50  C   UNL A   1      38.899  33.216  34.710  1.00  0.00     0.049 A 
ATOM     51  H   UNL A   1      39.454  31.810  33.277  1.00  0.00     0.167 HD
ATOM     52  C   UNL A   1      40.402  28.801  30.220  1.00  0.00     0.037 A 
ATOM     53  C   UNL A   1      39.730  33.057  35.759  1.00  0.00     0.037 A 
ATOM     54  C   UNL A   1      41.387  28.617  31.252  1.00  0.00     0.049 A 
ATOM     55  C   UNL A   1      40.800  31.999  35.687  1.00  0.00     0.074 A 
ATOM     56  C   UNL A   1      42.452  27.734  31.281  1.00  0.00     0.029 A 
ATOM     57  N   UNL A   1      41.426  29.333  32.440  1.00  0.00    -0.354 N 
ATOM     58  N   UNL A   1      41.073  31.160  34.717  1.00  0.00    -0.248 NA
ATOM     59  C   UNL A   1      41.681  31.870  36.856  1.00  0.00     0.031 C 
ATOM     60  C   UNL A   1      43.105  27.881  32.508  1.00  0.00     0.029 A 
ATOM     61  C   UNL A   1      42.485  28.896  33.218  1.00  0.00     0.049 A 
ATOM     62  H   UNL A   1      40.795  30.046  32.691  1.00  0.00     0.167 HD
ATOM     63  C   UNL A   1      42.174  30.429  35.144  1.00  0.00     0.074 A 
ATOM     64  C   UNL A   1      42.531  30.937  36.452  1.00  0.00     0.031 C 
ATOM     65  C   UNL A   1      42.832  29.426  34.512  1.00  0.00     0.037 A 
BRANCH  52  66
ATOM     66  C   UNL A   1      40.465  27.912  29.009  1.00  0.00     0.064 A 
ATOM     67  C   UNL A   1      39.732  26.718  28.935  1.00  0.00     0.173 A 
ATOM     68  C   UNL A   1      41.232  28.280  27.894  1.00  0.00     0.173 A 
ATOM     69  F   UNL A   1      38.992  26.313  29.979  1.00  0.00    -0.203 F 
ATOM     70  C   UNL A   1      39.785  25.912  27.801  1.00  0.00     0.198 A 
ATOM     71  C   UNL A   1      41.256  27.488  26.748  1.00  0.00     0.198 A 
ATOM     72  F   UNL A   1      41.950  29.413  27.909  1.00  0.00    -0.203 F 
ATOM     73  F   UNL A   1      39.115  24.751  27.773  1.00  0.00    -0.200 F 
ATOM     74  C   UNL A   1      40.540  26.303  26.705  1.00  0.00     0.200 A 
ATOM     75  F   UNL A   1      41.974  27.876  25.684  1.00  0.00    -0.200 F 
ATOM     76  F   UNL A   1      40.580  25.533  25.608  1.00  0.00    -0.200 F 
ENDBRANCH  52  66
BRANCH  53  77
ATOM     77  C   UNL A   1      39.599  33.926  36.959  1.00  0.00     0.064 A 
ATOM     78  C   UNL A   1      38.840  33.519  38.066  1.00  0.00     0.173 A 
ATOM     79  C   UNL A   1      40.202  35.191  37.016  1.00  0.00     0.173 A 
ATOM     80  F   UNL A   1      38.227  32.326  38.055  1.00  0.00    -0.203 F 
ATOM     81  C   UNL A   1      38.661  34.355  39.166  1.00  0.00     0.198 A 
ATOM     82  C   UNL A   1      40.051  36.014  38.131  1.00  0.00     0.198 A 
ATOM     83  F   UNL A   1      40.944  35.629  35.987  1.00  0.00    -0.203 F 
ATOM     84  F   UNL A   1      37.879  33.965  40.181  1.00  0.00    -0.200 F 
ATOM     85  C   UNL A   1      39.270  35.600  39.200  1.00  0.00     0.200 A 
ATOM     86  F   UNL A   1      40.654  37.209  38.166  1.00  0.00    -0.200 F 
ATOM     87  F   UNL A   1      39.096  36.406  40.256  1.00  0.00    -0.200 F 
ENDBRANCH  53  77
BRANCH  65  88
ATOM     88  C   UNL A   1      44.028  28.841  35.206  1.00  0.00     0.064 A 
ATOM     89  C   UNL A   1      45.321  29.345  34.999  1.00  0.00     0.173 A 
ATOM     90  C   UNL A   1      43.872  27.790  36.121  1.00  0.00     0.173 A 
ATOM     91  F   UNL A   1      45.526  30.341  34.124  1.00  0.00    -0.203 F 
ATOM     92  C   UNL A   1      46.416  28.798  35.662  1.00  0.00     0.198 A 
ATOM     93  C   UNL A   1      44.963  27.269  36.808  1.00  0.00     0.198 A 
ATOM     94  F   UNL A   1      42.655  27.278  36.363  1.00  0.00    -0.203 F 
ATOM     95  F   UNL A   1      47.648  29.259  35.408  1.00  0.00    -0.200 F 
ATOM     96  C   UNL A   1      46.236  27.766  36.571  1.00  0.00     0.200 A 
ATOM     97  F   UNL A   1      44.784  26.284  37.700  1.00  0.00    -0.200 F 
ATOM     98  F   UNL A   1      47.290  27.247  37.214  1.00  0.00    -0.200 F 
ENDBRANCH  65  88
ENDBRANCH  39  40
ENDBRANCH  31  34
ENDBRANCH  29  30
ENDBRANCH  28  29
ENDBRANCH   1  28
TORSDOF 14
ENDMDL
MODEL 2
REMARK VINA RESULT:     -12.8      0.143      1.110
REMARK SMILES Cc1ccc(N2CC[C@H]([NH+]3CCOCC3)[C@H](CCC(=O)NCCCNC(=O)c3ccc(-c4c5nc(c(-c6c(F)c(F)c(F)c(F)c6F)c6ccc([nH]6)c(-c6c(F)c(F)c(F)c(F)c6F)c6nc(c(-c7c(F)c(F)c(F)c(F)c7F)c7ccc4[nH]7)C=C6)C=C5)cc3)C2)nc1
REMARK SMILES IDX 22 1 21 2 19 3 20 4 18 6 17 7 16 8 6 9 7 10 91 11 8 12 9 13
REMARK SMILES IDX 5 14 1 15 2 16 3 17 93 18 4 19 92 20 10 21 11 22 15 23 12 25
REMARK SMILES IDX 14 26 13 27 23 28 24 29 25 30 26 31 27 33 28 34 29 35 90 36
REMARK SMILES IDX 30 37 89 38 31 39 32 40 33 41 83 42 34 43 88 44 82 45 84 46
REMARK SMILES IDX 35 47 87 48 81 49 80 50 36 52 68 53 48 54 67 55 49 56 52 57
REMARK SMILES IDX 66 58 85 59 50 60 51 61 65 63 86 64 53 65 37 66 38 67 46 68
REMARK SMILES IDX 39 69 40 70 44 71 47 72 41 73 42 74 45 75 43 76 69 77 70 78
REMARK SMILES IDX 78 79 71 80 72 81 76 82 79 83 73 84 74 85 77 86 75 87 54 88
REMARK SMILES IDX 55 89 63 90 56 91 57 92 61 93 64 94 58 95 59 96 62 97 60 98
REMARK H PARENT 21 5 10 24 25 32 84 51 52 62
REMARK Flexibility Score: inf
ROOT
ATOM      1  C   UNL A   1      31.608  30.868  26.194  1.00  0.00     0.117 C 
ENDROOT
BRANCH   1   2
ATOM      2  N   UNL A   1      32.924  30.381  26.576  1.00  0.00    -0.356 N 
ATOM      3  C   UNL A   1      33.372  29.100  26.734  1.00  0.00     0.220 C 
ATOM      4  O   UNL A   1      34.455  28.932  27.298  1.00  0.00    -0.275 OA
ATOM      5  H   UNL A   1      33.595  31.082  26.748  1.00  0.00     0.163 HD
BRANCH   3   6
ATOM      6  C   UNL A   1      32.610  27.934  26.124  1.00  0.00     0.100 C 
BRANCH   6   7
ATOM      7  C   UNL A   1      33.151  26.495  26.296  1.00  0.00     0.021 C 
BRANCH   7   8
ATOM      8  C   UNL A   1      33.907  25.906  25.088  1.00  0.00     0.067 C 
ATOM      9  N   UNL A   1      32.520  26.073  23.021  1.00  0.00    -0.356 N 
ATOM     10  C   UNL A   1      32.583  24.654  22.751  1.00  0.00     0.124 C 
ATOM     11  C   UNL A   1      33.599  26.678  23.774  1.00  0.00     0.127 C 
ATOM     12  C   UNL A   1      32.740  23.866  24.043  1.00  0.00     0.087 C 
ATOM     13  C   UNL A   1      33.968  24.356  24.816  1.00  0.00     0.190 C 
BRANCH   9  14
ATOM     14  C   UNL A   1      31.273  26.664  23.035  1.00  0.00     0.128 A 
ATOM     15  C   UNL A   1      27.491  28.611  23.202  1.00  0.00     0.046 C 
ATOM     16  C   UNL A   1      28.804  27.899  23.174  1.00  0.00    -0.033 A 
ATOM     17  C   UNL A   1      28.990  26.674  23.805  1.00  0.00     0.009 A 
ATOM     18  C   UNL A   1      29.891  28.436  22.497  1.00  0.00     0.117 A 
ATOM     19  C   UNL A   1      30.232  26.048  23.725  1.00  0.00     0.047 A 
ATOM     20  N   UNL A   1      31.112  27.858  22.433  1.00  0.00    -0.239 NA
ENDBRANCH   9  14
BRANCH  13  21
ATOM     21  N   UNL A   1      34.471  23.464  25.888  1.00  0.00    -0.328 N 
ATOM     22  C   UNL A   1      35.951  23.482  26.041  1.00  0.00     0.291 C 
ATOM     23  C   UNL A   1      34.020  22.068  25.953  1.00  0.00     0.291 C 
ATOM     24  H   UNL A   1      33.998  23.921  26.669  1.00  0.00     0.348 HD
ATOM     25  C   UNL A   1      36.732  22.389  25.275  1.00  0.00     0.221 C 
ATOM     26  C   UNL A   1      34.819  21.048  25.144  1.00  0.00     0.221 C 
ATOM     27  O   UNL A   1      36.197  21.083  25.503  1.00  0.00    -0.370 OA
ENDBRANCH  13  21
ENDBRANCH   7   8
ENDBRANCH   6   7
ENDBRANCH   3   6
ENDBRANCH   1   2
BRANCH   1  28
ATOM     28  C   UNL A   1      31.390  32.265  26.777  1.00  0.00     0.042 C 
BRANCH  28  29
ATOM     29  C   UNL A   1      32.669  32.954  27.189  1.00  0.00     0.118 C 
BRANCH  29  30
ATOM     30  N   UNL A   1      32.435  34.320  27.613  1.00  0.00    -0.352 N 
ATOM     31  C   UNL A   1      33.006  35.018  28.652  1.00  0.00     0.251 C 
ATOM     32  H   UNL A   1      31.774  34.821  27.082  1.00  0.00     0.163 HD
ATOM     33  O   UNL A   1      32.539  36.101  28.983  1.00  0.00    -0.269 OA
BRANCH  31  34
ATOM     34  C   UNL A   1      34.159  34.450  29.393  1.00  0.00     0.039 A 
ATOM     35  C   UNL A   1      33.918  33.759  30.585  1.00  0.00     0.014 A 
ATOM     36  C   UNL A   1      35.470  34.590  28.931  1.00  0.00     0.014 A 
ATOM     37  C   UNL A   1      34.981  33.173  31.276  1.00  0.00     0.010 A 
ATOM     38  C   UNL A   1      36.507  33.902  29.550  1.00  0.00     0.010 A 
ATOM     39  C   UNL A   1      36.281  33.208  30.746  1.00  0.00    -0.014 A 
BRANCH  39  40
ATOM     40  C   UNL A   1      37.425  32.572  31.447  1.00  0.00     0.031 A 
ATOM     41  C   UNL A   1      38.150  31.418  30.804  1.00  0.00     0.074 A 
ATOM     42  C   UNL A   1      37.781  32.995  32.677  1.00  0.00     0.049 A 
ATOM     43  N   UNL A   1      39.123  30.682  31.278  1.00  0.00    -0.248 NA
ATOM     44  C   UNL A   1      37.697  31.014  29.462  1.00  0.00     0.031 C 
ATOM     45  C   UNL A   1      37.126  34.069  33.425  1.00  0.00     0.029 A 
ATOM     46  N   UNL A   1      38.777  32.567  33.518  1.00  0.00    -0.354 N 
ATOM     47  C   UNL A   1      39.384  29.727  30.303  1.00  0.00     0.074 A 
ATOM     48  C   UNL A   1      38.422  29.928  29.243  1.00  0.00     0.031 C 
ATOM     49  C   UNL A   1      37.759  34.239  34.597  1.00  0.00     0.029 A 
ATOM     50  C   UNL A   1      38.833  33.257  34.704  1.00  0.00     0.049 A 
ATOM     51  H   UNL A   1      39.395  31.834  33.291  1.00  0.00     0.167 HD
ATOM     52  C   UNL A   1      40.359  28.789  30.275  1.00  0.00     0.037 A 
ATOM     53  C   UNL A   1      39.654  33.107  35.762  1.00  0.00     0.037 A 
ATOM     54  C   UNL A   1      41.335  28.614  31.317  1.00  0.00     0.049 A 
ATOM     55  C   UNL A   1      40.722  32.046  35.710  1.00  0.00     0.074 A 
ATOM     56  C   UNL A   1      42.398  27.728  31.364  1.00  0.00     0.029 A 
ATOM     57  N   UNL A   1      41.366  29.343  32.497  1.00  0.00    -0.354 N 
ATOM     58  N   UNL A   1      41.001  31.196  34.752  1.00  0.00    -0.248 NA
ATOM     59  C   UNL A   1      41.593  31.927  36.887  1.00  0.00     0.031 C 
ATOM     60  C   UNL A   1      43.041  27.887  32.595  1.00  0.00     0.029 A 
ATOM     61  C   UNL A   1      42.418  28.911  33.289  1.00  0.00     0.049 A 
ATOM     62  H   UNL A   1      40.736  30.060  32.736  1.00  0.00     0.167 HD
ATOM     63  C   UNL A   1      42.096  30.466  35.195  1.00  0.00     0.074 A 
ATOM     64  C   UNL A   1      42.444  30.988  36.500  1.00  0.00     0.031 C 
ATOM     65  C   UNL A   1      42.756  29.454  34.580  1.00  0.00     0.037 A 
BRANCH  52  66
ATOM     66  C   UNL A   1      40.429  27.887  29.075  1.00  0.00     0.064 A 
ATOM     67  C   UNL A   1      39.670  26.709  28.995  1.00  0.00     0.173 A 
ATOM     68  C   UNL A   1      41.230  28.225  27.974  1.00  0.00     0.173 A 
ATOM     69  F   UNL A   1      38.897  26.332  30.025  1.00  0.00    -0.203 F 
ATOM     70  C   UNL A   1      39.731  25.891  27.870  1.00  0.00     0.198 A 
ATOM     71  C   UNL A   1      41.262  27.422  26.837  1.00  0.00     0.198 A 
ATOM     72  F   UNL A   1      41.974  29.342  27.995  1.00  0.00    -0.203 F 
ATOM     73  F   UNL A   1      39.035  24.746  27.837  1.00  0.00    -0.200 F 
ATOM     74  C   UNL A   1      40.519  26.253  26.788  1.00  0.00     0.200 A 
ATOM     75  F   UNL A   1      42.014  27.782  25.787  1.00  0.00    -0.200 F 
ATOM     76  F   UNL A   1      40.567  25.471  25.701  1.00  0.00    -0.200 F 
ENDBRANCH  52  66
BRANCH  53  77
ATOM     77  C   UNL A   1      39.516  33.990  36.951  1.00  0.00     0.064 A 
ATOM     78  C   UNL A   1      40.159  35.237  37.003  1.00  0.00     0.173 A 
ATOM     79  C   UNL A   1      38.768  33.600  38.071  1.00  0.00     0.173 A 
ATOM     80  F   UNL A   1      40.903  35.650  35.965  1.00  0.00    -0.203 F 
ATOM     81  C   UNL A   1      40.086  36.040  38.138  1.00  0.00     0.198 A 
ATOM     82  C   UNL A   1      38.667  34.418  39.194  1.00  0.00     0.198 A 
ATOM     83  F   UNL A   1      38.129  32.420  38.074  1.00  0.00    -0.203 F 
ATOM     84  F   UNL A   1      40.761  37.196  38.183  1.00  0.00    -0.200 F 
ATOM     85  C   UNL A   1      39.337  35.633  39.232  1.00  0.00     0.200 A 
ATOM     86  F   UNL A   1      37.930  34.028  40.242  1.00  0.00    -0.200 F 
ATOM     87  F   UNL A   1      39.269  36.404  40.326  1.00  0.00    -0.200 F 
ENDBRANCH  53  77
BRANCH  65  88
ATOM     88  C   UNL A   1      43.945  28.874  35.289  1.00  0.00     0.064 A 
ATOM     89  C   UNL A   1      45.241  29.371  35.086  1.00  0.00     0.173 A 
ATOM     90  C   UNL A   1      43.778  27.834  36.217  1.00  0.00     0.173 A 
ATOM     91  F   UNL A   1      45.456  30.355  34.200  1.00  0.00    -0.203 F 
ATOM     92  C   UNL A   1      46.329  28.827  35.764  1.00  0.00     0.198 A 
ATOM     93  C   UNL A   1      44.862  27.318  36.918  1.00  0.00     0.198 A 
ATOM     94  F   UNL A   1      42.557  27.330  36.455  1.00  0.00    -0.203 F 
ATOM     95  F   UNL A   1      47.565  29.281  35.513  1.00  0.00    -0.200 F 
ATOM     96  C   UNL A   1      46.138  27.808  36.684  1.00  0.00     0.200 A 
ATOM     97  F   UNL A   1      44.673  26.345  37.821  1.00  0.00    -0.200 F 
ATOM     98  F   UNL A   1      47.186  27.293  37.341  1.00  0.00    -0.200 F 
ENDBRANCH  65  88
ENDBRANCH  39  40
ENDBRANCH  31  34
ENDBRANCH  29  30
ENDBRANCH  28  29
ENDBRANCH   1  28
TORSDOF 14
ENDMDL
MODEL 3
REMARK VINA RESULT:     -12.8      5.490     11.224
REMARK SMILES Cc1ccc(N2CC[C@H]([NH+]3CCOCC3)[C@H](CCC(=O)NCCCNC(=O)c3ccc(-c4c5nc(c(-c6c(F)c(F)c(F)c(F)c6F)c6ccc([nH]6)c(-c6c(F)c(F)c(F)c(F)c6F)c6nc(c(-c7c(F)c(F)c(F)c(F)c7F)c7ccc4[nH]7)C=C6)C=C5)cc3)C2)nc1
REMARK SMILES IDX 22 1 21 2 19 3 20 4 18 6 17 7 16 8 6 9 7 10 91 11 8 12 9 13
REMARK SMILES IDX 5 14 1 15 2 16 3 17 93 18 4 19 92 20 10 21 11 22 15 23 12 25
REMARK SMILES IDX 14 26 13 27 23 28 24 29 25 30 26 31 27 33 28 34 29 35 90 36
REMARK SMILES IDX 30 37 89 38 31 39 32 40 33 41 83 42 34 43 88 44 82 45 84 46
REMARK SMILES IDX 35 47 87 48 81 49 80 50 36 52 68 53 48 54 67 55 49 56 52 57
REMARK SMILES IDX 66 58 85 59 50 60 51 61 65 63 86 64 53 65 37 66 38 67 46 68
REMARK SMILES IDX 39 69 40 70 44 71 47 72 41 73 42 74 45 75 43 76 69 77 70 78
REMARK SMILES IDX 78 79 71 80 72 81 76 82 79 83 73 84 74 85 77 86 75 87 54 88
REMARK SMILES IDX 55 89 63 90 56 91 57 92 61 93 64 94 58 95 59 96 62 97 60 98
REMARK H PARENT 21 5 10 24 25 32 84 51 52 62
REMARK Flexibility Score: inf
ROOT
ATOM      1  C   UNL A   1      37.601  20.934  24.662  1.00  0.00     0.117 C 
ENDROOT
BRANCH   1   2
ATOM      2  N   UNL A   1      38.194  22.069  25.350  1.00  0.00    -0.356 N 
ATOM      3  C   UNL A   1      37.619  23.229  25.785  1.00  0.00     0.220 C 
ATOM      4  O   UNL A   1      38.362  24.151  26.124  1.00  0.00    -0.275 OA
ATOM      5  H   UNL A   1      39.159  21.989  25.531  1.00  0.00     0.163 HD
BRANCH   3   6
ATOM      6  C   UNL A   1      36.110  23.327  25.954  1.00  0.00     0.100 C 
BRANCH   6   7
ATOM      7  C   UNL A   1      35.239  23.809  24.770  1.00  0.00     0.021 C 
BRANCH   7   8
ATOM      8  C   UNL A   1      33.791  24.213  25.114  1.00  0.00     0.067 C 
ATOM      9  N   UNL A   1      32.255  22.262  24.867  1.00  0.00    -0.356 N 
ATOM     10  C   UNL A   1      31.388  22.944  23.933  1.00  0.00     0.124 C 
ATOM     11  C   UNL A   1      33.013  23.061  25.809  1.00  0.00     0.127 C 
ATOM     12  C   UNL A   1      32.164  23.982  23.135  1.00  0.00     0.087 C 
ATOM     13  C   UNL A   1      32.866  24.961  24.082  1.00  0.00     0.190 C 
BRANCH   9  14
ATOM     14  C   UNL A   1      32.725  21.016  24.508  1.00  0.00     0.128 A 
ATOM     15  C   UNL A   1      34.028  17.095  23.484  1.00  0.00     0.046 C 
ATOM     16  C   UNL A   1      33.598  18.470  23.879  1.00  0.00    -0.033 A 
ATOM     17  C   UNL A   1      34.245  19.184  24.880  1.00  0.00     0.009 A 
ATOM     18  C   UNL A   1      32.533  19.093  23.241  1.00  0.00     0.117 A 
ATOM     19  C   UNL A   1      33.811  20.471  25.188  1.00  0.00     0.047 A 
ATOM     20  N   UNL A   1      32.078  20.329  23.546  1.00  0.00    -0.239 NA
ENDBRANCH   9  14
BRANCH  13  21
ATOM     21  N   UNL A   1      33.346  26.228  23.482  1.00  0.00    -0.328 N 
ATOM     22  C   UNL A   1      33.653  27.288  24.480  1.00  0.00     0.291 C 
ATOM     23  C   UNL A   1      32.605  26.842  22.373  1.00  0.00     0.291 C 
ATOM     24  H   UNL A   1      34.190  25.854  23.047  1.00  0.00     0.348 HD
ATOM     25  C   UNL A   1      32.517  28.294  24.782  1.00  0.00     0.221 C 
ATOM     26  C   UNL A   1      31.474  27.798  22.747  1.00  0.00     0.221 C 
ATOM     27  O   UNL A   1      31.951  28.843  23.591  1.00  0.00    -0.370 OA
ENDBRANCH  13  21
ENDBRANCH   7   8
ENDBRANCH   6   7
ENDBRANCH   3   6
ENDBRANCH   1   2
BRANCH   1  28
ATOM     28  C   UNL A   1      38.382  19.663  25.001  1.00  0.00     0.042 C 
BRANCH  28  29
ATOM     29  C   UNL A   1      39.369  19.845  26.128  1.00  0.00     0.118 C 
BRANCH  29  30
ATOM     30  N   UNL A   1      40.463  18.897  26.046  1.00  0.00    -0.352 N 
ATOM     31  C   UNL A   1      41.819  19.133  26.028  1.00  0.00     0.251 C 
ATOM     32  H   UNL A   1      40.199  17.950  25.997  1.00  0.00     0.163 HD
ATOM     33  O   UNL A   1      42.588  18.221  25.753  1.00  0.00    -0.269 OA
BRANCH  31  34
ATOM     34  C   UNL A   1      42.347  20.492  26.302  1.00  0.00     0.039 A 
ATOM     35  C   UNL A   1      42.700  21.307  25.222  1.00  0.00     0.014 A 
ATOM     36  C   UNL A   1      42.501  20.970  27.606  1.00  0.00     0.014 A 
ATOM     37  C   UNL A   1      43.154  22.608  25.453  1.00  0.00     0.010 A 
ATOM     38  C   UNL A   1      42.832  22.301  27.828  1.00  0.00     0.010 A 
ATOM     39  C   UNL A   1      43.190  23.130  26.756  1.00  0.00    -0.014 A 
BRANCH  39  40
ATOM     40  C   UNL A   1      43.645  24.517  27.027  1.00  0.00     0.031 A 
ATOM     41  C   UNL A   1      42.668  25.536  27.552  1.00  0.00     0.074 A 
ATOM     42  C   UNL A   1      44.917  24.874  26.756  1.00  0.00     0.049 A 
ATOM     43  N   UNL A   1      42.845  26.813  27.786  1.00  0.00    -0.248 NA
ATOM     44  C   UNL A   1      41.297  25.068  27.818  1.00  0.00     0.031 C 
ATOM     45  C   UNL A   1      45.943  23.992  26.200  1.00  0.00     0.029 A 
ATOM     46  N   UNL A   1      45.560  26.076  26.906  1.00  0.00    -0.354 N 
ATOM     47  C   UNL A   1      41.612  27.294  28.208  1.00  0.00     0.074 A 
ATOM     48  C   UNL A   1      40.677  26.195  28.131  1.00  0.00     0.031 C 
ATOM     49  C   UNL A   1      47.095  24.672  26.087  1.00  0.00     0.029 A 
ATOM     50  C   UNL A   1      46.878  26.049  26.520  1.00  0.00     0.049 A 
ATOM     51  H   UNL A   1      45.119  26.883  27.259  1.00  0.00     0.167 HD
ATOM     52  C   UNL A   1      41.294  28.532  28.655  1.00  0.00     0.037 A 
ATOM     53  C   UNL A   1      47.804  27.028  26.509  1.00  0.00     0.037 A 
ATOM     54  C   UNL A   1      42.235  29.613  28.762  1.00  0.00     0.049 A 
ATOM     55  C   UNL A   1      47.419  28.400  26.998  1.00  0.00     0.074 A 
ATOM     56  C   UNL A   1      42.029  30.892  29.251  1.00  0.00     0.029 A 
ATOM     57  N   UNL A   1      43.566  29.542  28.373  1.00  0.00    -0.354 N 
ATOM     58  N   UNL A   1      46.267  28.823  27.460  1.00  0.00    -0.248 NA
ATOM     59  C   UNL A   1      48.466  29.430  26.969  1.00  0.00     0.031 C 
ATOM     60  C   UNL A   1      43.221  31.609  29.111  1.00  0.00     0.029 A 
ATOM     61  C   UNL A   1      44.186  30.761  28.592  1.00  0.00     0.049 A 
ATOM     62  H   UNL A   1      44.003  28.743  27.999  1.00  0.00     0.167 HD
ATOM     63  C   UNL A   1      46.460  30.154  27.806  1.00  0.00     0.074 A 
ATOM     64  C   UNL A   1      47.845  30.463  27.520  1.00  0.00     0.031 C 
ATOM     65  C   UNL A   1      45.571  31.043  28.314  1.00  0.00     0.037 A 
BRANCH  52  66
ATOM     66  C   UNL A   1      39.873  28.781  29.075  1.00  0.00     0.064 A 
ATOM     67  C   UNL A   1      39.451  28.582  30.399  1.00  0.00     0.173 A 
ATOM     68  C   UNL A   1      38.931  29.265  28.155  1.00  0.00     0.173 A 
ATOM     69  F   UNL A   1      40.308  28.108  31.317  1.00  0.00    -0.203 F 
ATOM     70  C   UNL A   1      38.136  28.833  30.780  1.00  0.00     0.198 A 
ATOM     71  C   UNL A   1      37.625  29.547  28.546  1.00  0.00     0.198 A 
ATOM     72  F   UNL A   1      39.280  29.476  26.877  1.00  0.00    -0.203 F 
ATOM     73  F   UNL A   1      37.745  28.589  32.038  1.00  0.00    -0.200 F 
ATOM     74  C   UNL A   1      37.226  29.324  29.855  1.00  0.00     0.200 A 
ATOM     75  F   UNL A   1      36.751  30.036  27.655  1.00  0.00    -0.200 F 
ATOM     76  F   UNL A   1      35.963  29.578  30.226  1.00  0.00    -0.200 F 
ENDBRANCH  52  66
BRANCH  53  77
ATOM     77  C   UNL A   1      49.187  26.749  26.038  1.00  0.00     0.064 A 
ATOM     78  C   UNL A   1      49.567  27.018  24.714  1.00  0.00     0.173 A 
ATOM     79  C   UNL A   1      50.150  26.183  26.886  1.00  0.00     0.173 A 
ATOM     80  F   UNL A   1      48.678  27.542  23.856  1.00  0.00    -0.203 F 
ATOM     81  C   UNL A   1      50.840  26.700  24.249  1.00  0.00     0.198 A 
ATOM     82  C   UNL A   1      51.435  25.896  26.430  1.00  0.00     0.198 A 
ATOM     83  F   UNL A   1      49.843  25.910  28.163  1.00  0.00    -0.203 F 
ATOM     84  F   UNL A   1      51.154  26.910  22.964  1.00  0.00    -0.200 F 
ATOM     85  C   UNL A   1      51.776  26.143  25.108  1.00  0.00     0.200 A 
ATOM     86  F   UNL A   1      52.340  25.373  27.267  1.00  0.00    -0.200 F 
ATOM     87  F   UNL A   1      53.001  25.834  24.661  1.00  0.00    -0.200 F 
ENDBRANCH  53  77
BRANCH  65  88
ATOM     88  C   UNL A   1      46.079  32.419  28.633  1.00  0.00     0.064 A 
ATOM     89  C   UNL A   1      46.646  32.727  29.878  1.00  0.00     0.173 A 
ATOM     90  C   UNL A   1      46.034  33.433  27.663  1.00  0.00     0.173 A 
ATOM     91  F   UNL A   1      46.700  31.797  30.844  1.00  0.00    -0.203 F 
ATOM     92  C   UNL A   1      47.123  34.006  30.150  1.00  0.00     0.198 A 
ATOM     93  C   UNL A   1      46.544  34.700  27.927  1.00  0.00     0.198 A 
ATOM     94  F   UNL A   1      45.510  33.188  26.452  1.00  0.00    -0.203 F 
ATOM     95  F   UNL A   1      47.611  34.292  31.365  1.00  0.00    -0.200 F 
ATOM     96  C   UNL A   1      47.079  34.988  29.173  1.00  0.00     0.200 A 
ATOM     97  F   UNL A   1      46.517  35.643  26.974  1.00  0.00    -0.200 F 
ATOM     98  F   UNL A   1      47.546  36.217  29.434  1.00  0.00    -0.200 F 
ENDBRANCH  65  88
ENDBRANCH  39  40
ENDBRANCH  31  34
ENDBRANCH  29  30
ENDBRANCH  28  29
ENDBRANCH   1  28
TORSDOF 14
ENDMDL
