MODEL 1
REMARK VINA RESULT:     -11.3      0.000      0.000
REMARK SMILES C[C@H]1CN(C(=O)N(C)CCc2cccs2)C[C@H]1C(=O)NCCCNC(=O)c1ccc(-c2c3nc(c(-c4c(F)c(F)c(F)c(F)c4F)c4ccc([nH]4)c(-c4c(F)c(F)c(F)c(F)c4F)c4nc(c(-c5c(F)c(F)c(F)c(F)c5F)c5ccc2[nH]5)C=C4)C=C3)cc1
REMARK SMILES IDX 18 1 19 2 20 3 17 5 1 6 2 7 3 8 4 9 16 10 5 11 6 12 7 13
REMARK SMILES IDX 8 14 9 15 10 16 11 17 12 18 15 19 13 20 14 21 21 22 22 23
REMARK SMILES IDX 23 24 24 25 25 26 26 28 27 29 28 30 89 31 29 32 88 33 30 34
REMARK SMILES IDX 31 35 32 36 82 37 33 38 87 39 81 40 83 41 34 42 86 43 80 44
REMARK SMILES IDX 79 45 35 47 67 48 47 49 66 50 48 51 51 52 65 53 84 54 49 55
REMARK SMILES IDX 50 56 64 58 85 59 52 60 36 61 37 62 45 63 38 64 39 65 43 66
REMARK SMILES IDX 46 67 40 68 41 69 44 70 42 71 68 72 69 73 77 74 70 75 71 76
REMARK SMILES IDX 75 77 78 78 72 79 73 80 76 81 74 82 53 83 54 84 62 85 55 86
REMARK SMILES IDX 56 87 60 88 63 89 57 90 58 91 61 92 59 93
REMARK H PARENT 20 4 24 27 83 46 51 57
REMARK Flexibility Score: inf
ROOT
ATOM      1  C   UNL A   1      32.536  28.587  25.753  1.00  0.00     0.225 C 
ATOM      2  O   UNL A   1      33.721  28.266  25.910  1.00  0.00    -0.275 OA
ATOM      3  N   UNL A   1      32.316  29.912  25.587  1.00  0.00    -0.356 N 
ATOM      4  H   UNL A   1      33.150  30.436  25.576  1.00  0.00     0.163 HD
ENDROOT
BRANCH   1   5
ATOM      5  C   UNL A   1      31.473  27.501  25.786  1.00  0.00     0.102 C 
ATOM      6  C   UNL A   1      31.493  27.222  23.186  1.00  0.00     0.010 C 
ATOM      7  C   UNL A   1      30.738  27.122  24.497  1.00  0.00     0.020 C 
ATOM      8  C   UNL A   1      30.263  25.686  24.744  1.00  0.00     0.125 C 
ATOM      9  N   UNL A   1      30.987  25.177  25.895  1.00  0.00    -0.324 N 
ATOM     10  C   UNL A   1      31.858  26.202  26.460  1.00  0.00     0.135 C 
BRANCH   9  11
ATOM     11  C   UNL A   1      30.947  23.956  26.524  1.00  0.00     0.319 C 
ATOM     12  O   UNL A   1      29.967  23.683  27.224  1.00  0.00    -0.248 OA
BRANCH  11  13
ATOM     13  N   UNL A   1      32.021  23.085  26.465  1.00  0.00    -0.327 N 
ATOM     14  C   UNL A   1      32.866  22.621  27.553  1.00  0.00     0.148 C 
BRANCH  13  15
ATOM     15  C   UNL A   1      32.252  22.423  25.166  1.00  0.00     0.126 C 
BRANCH  15  16
ATOM     16  C   UNL A   1      33.312  23.136  24.302  1.00  0.00     0.068 C 
BRANCH  16  17
ATOM     17  C   UNL A   1      34.663  22.475  24.358  1.00  0.00     0.006 A 
ATOM     18  C   UNL A   1      35.890  22.993  23.993  1.00  0.00     0.015 A 
ATOM     19  S   UNL A   1      34.815  20.879  24.965  1.00  0.00    -0.149 S 
ATOM     20  C   UNL A   1      36.966  22.111  24.304  1.00  0.00     0.012 A 
ATOM     21  C   UNL A   1      36.518  20.923  24.836  1.00  0.00     0.065 A 
ENDBRANCH  16  17
ENDBRANCH  15  16
ENDBRANCH  13  15
ENDBRANCH  11  13
ENDBRANCH   9  11
ENDBRANCH   1   5
BRANCH   3  22
ATOM     22  C   UNL A   1      31.133  30.743  25.422  1.00  0.00     0.117 C 
BRANCH  22  23
ATOM     23  C   UNL A   1      31.053  31.871  26.455  1.00  0.00     0.042 C 
BRANCH  23  24
ATOM     24  C   UNL A   1      32.393  32.456  26.890  1.00  0.00     0.118 C 
BRANCH  24  25
ATOM     25  N   UNL A   1      32.285  33.835  27.329  1.00  0.00    -0.352 N 
ATOM     26  C   UNL A   1      32.968  34.511  28.313  1.00  0.00     0.251 C 
ATOM     27  H   UNL A   1      31.617  34.374  26.845  1.00  0.00     0.163 HD
ATOM     28  O   UNL A   1      32.579  35.623  28.656  1.00  0.00    -0.269 OA
BRANCH  26  29
ATOM     29  C   UNL A   1      34.151  33.918  28.986  1.00  0.00     0.039 A 
ATOM     30  C   UNL A   1      35.418  34.430  28.683  1.00  0.00     0.014 A 
ATOM     31  C   UNL A   1      34.042  32.828  29.853  1.00  0.00     0.014 A 
ATOM     32  C   UNL A   1      36.560  33.888  29.285  1.00  0.00     0.010 A 
ATOM     33  C   UNL A   1      35.172  32.341  30.515  1.00  0.00     0.010 A 
ATOM     34  C   UNL A   1      36.445  32.856  30.229  1.00  0.00    -0.014 A 
BRANCH  34  35
ATOM     35  C   UNL A   1      37.645  32.289  30.904  1.00  0.00     0.031 A 
ATOM     36  C   UNL A   1      38.455  31.211  30.236  1.00  0.00     0.074 A 
ATOM     37  C   UNL A   1      37.976  32.700  32.145  1.00  0.00     0.049 A 
ATOM     38  N   UNL A   1      39.484  30.541  30.694  1.00  0.00    -0.248 NA
ATOM     39  C   UNL A   1      38.038  30.812  28.883  1.00  0.00     0.031 C 
ATOM     40  C   UNL A   1      37.251  33.705  32.923  1.00  0.00     0.029 A 
ATOM     41  N   UNL A   1      39.002  32.315  32.972  1.00  0.00    -0.354 N 
ATOM     42  C   UNL A   1      39.818  29.631  29.698  1.00  0.00     0.074 A 
ATOM     43  C   UNL A   1      38.856  29.802  28.631  1.00  0.00     0.031 C 
ATOM     44  C   UNL A   1      37.864  33.870  34.107  1.00  0.00     0.029 A 
ATOM     45  C   UNL A   1      39.002  32.960  34.186  1.00  0.00     0.049 A 
ATOM     46  H   UNL A   1      39.673  31.641  32.721  1.00  0.00     0.167 HD
ATOM     47  C   UNL A   1      40.846  28.748  29.667  1.00  0.00     0.037 A 
ATOM     48  C   UNL A   1      39.823  32.827  35.246  1.00  0.00     0.037 A 
ATOM     49  C   UNL A   1      41.828  28.606  30.709  1.00  0.00     0.049 A 
ATOM     50  C   UNL A   1      40.967  31.853  35.179  1.00  0.00     0.074 A 
ATOM     51  C   UNL A   1      42.947  27.791  30.735  1.00  0.00     0.029 A 
ATOM     52  N   UNL A   1      41.811  29.298  31.910  1.00  0.00    -0.354 N 
ATOM     53  N   UNL A   1      41.309  31.044  34.206  1.00  0.00    -0.248 NA
ATOM     54  C   UNL A   1      41.843  31.776  36.356  1.00  0.00     0.031 C 
ATOM     55  C   UNL A   1      43.584  27.960  31.969  1.00  0.00     0.029 A 
ATOM     56  C   UNL A   1      42.888  28.914  32.693  1.00  0.00     0.049 A 
ATOM     57  H   UNL A   1      41.133  29.964  32.169  1.00  0.00     0.167 HD
ATOM     58  C   UNL A   1      42.450  30.384  34.640  1.00  0.00     0.074 A 
ATOM     59  C   UNL A   1      42.752  30.896  35.961  1.00  0.00     0.031 C 
ATOM     60  C   UNL A   1      43.181  29.437  34.002  1.00  0.00     0.037 A 
BRANCH  47  61
ATOM     61  C   UNL A   1      40.967  27.865  28.458  1.00  0.00     0.064 A 
ATOM     62  C   UNL A   1      40.308  26.629  28.380  1.00  0.00     0.173 A 
ATOM     63  C   UNL A   1      41.718  28.279  27.348  1.00  0.00     0.173 A 
ATOM     64  F   UNL A   1      39.585  26.182  29.419  1.00  0.00    -0.203 F 
ATOM     65  C   UNL A   1      40.420  25.827  27.247  1.00  0.00     0.198 A 
ATOM     66  C   UNL A   1      41.803  27.488  26.205  1.00  0.00     0.198 A 
ATOM     67  F   UNL A   1      42.361  29.456  27.367  1.00  0.00    -0.203 F 
ATOM     68  F   UNL A   1      39.820  24.629  27.215  1.00  0.00    -0.200 F 
ATOM     69  C   UNL A   1      41.161  26.260  26.159  1.00  0.00     0.200 A 
ATOM     70  F   UNL A   1      42.510  27.914  25.148  1.00  0.00    -0.200 F 
ATOM     71  F   UNL A   1      41.262  25.491  25.066  1.00  0.00    -0.200 F 
ENDBRANCH  47  61
BRANCH  48  72
ATOM     72  C   UNL A   1      39.606  33.660  36.457  1.00  0.00     0.064 A 
ATOM     73  C   UNL A   1      38.827  33.189  37.523  1.00  0.00     0.173 A 
ATOM     74  C   UNL A   1      40.173  34.937  36.577  1.00  0.00     0.173 A 
ATOM     75  F   UNL A   1      38.247  31.982  37.446  1.00  0.00    -0.203 F 
ATOM     76  C   UNL A   1      38.606  33.972  38.654  1.00  0.00     0.198 A 
ATOM     77  C   UNL A   1      39.973  35.708  37.720  1.00  0.00     0.198 A 
ATOM     78  F   UNL A   1      40.931  35.431  35.587  1.00  0.00    -0.203 F 
ATOM     79  F   UNL A   1      37.822  33.514  39.639  1.00  0.00    -0.200 F 
ATOM     80  C   UNL A   1      39.184  35.228  38.754  1.00  0.00     0.200 A 
ATOM     81  F   UNL A   1      40.546  36.916  37.819  1.00  0.00    -0.200 F 
ATOM     82  F   UNL A   1      38.978  35.978  39.846  1.00  0.00    -0.200 F 
ENDBRANCH  48  72
BRANCH  60  83
ATOM     83  C   UNL A   1      44.398  28.914  34.708  1.00  0.00     0.064 A 
ATOM     84  C   UNL A   1      45.644  29.545  34.589  1.00  0.00     0.173 A 
ATOM     85  C   UNL A   1      44.305  27.792  35.545  1.00  0.00     0.173 A 
ATOM     86  F   UNL A   1      45.787  30.612  33.788  1.00  0.00    -0.203 F 
ATOM     87  C   UNL A   1      46.759  29.059  35.267  1.00  0.00     0.198 A 
ATOM     88  C   UNL A   1      45.416  27.326  36.242  1.00  0.00     0.198 A 
ATOM     89  F   UNL A   1      43.134  27.156  35.696  1.00  0.00    -0.203 F 
ATOM     90  F   UNL A   1      47.951  29.653  35.105  1.00  0.00    -0.200 F 
ATOM     91  C   UNL A   1      46.643  27.955  36.097  1.00  0.00     0.200 A 
ATOM     92  F   UNL A   1      45.300  26.265  37.054  1.00  0.00    -0.200 F 
ATOM     93  F   UNL A   1      47.716  27.493  36.754  1.00  0.00    -0.200 F 
ENDBRANCH  60  83
ENDBRANCH  34  35
ENDBRANCH  26  29
ENDBRANCH  24  25
ENDBRANCH  23  24
ENDBRANCH  22  23
ENDBRANCH   3  22
TORSDOF 15
ENDMDL
MODEL 2
REMARK VINA RESULT:     -11.3      5.291     10.792
REMARK SMILES C[C@H]1CN(C(=O)N(C)CCc2cccs2)C[C@H]1C(=O)NCCCNC(=O)c1ccc(-c2c3nc(c(-c4c(F)c(F)c(F)c(F)c4F)c4ccc([nH]4)c(-c4c(F)c(F)c(F)c(F)c4F)c4nc(c(-c5c(F)c(F)c(F)c(F)c5F)c5ccc2[nH]5)C=C4)C=C3)cc1
REMARK SMILES IDX 18 1 19 2 20 3 17 5 1 6 2 7 3 8 4 9 16 10 5 11 6 12 7 13
REMARK SMILES IDX 8 14 9 15 10 16 11 17 12 18 15 19 13 20 14 21 21 22 22 23
REMARK SMILES IDX 23 24 24 25 25 26 26 28 27 29 28 30 89 31 29 32 88 33 30 34
REMARK SMILES IDX 31 35 32 36 82 37 33 38 87 39 81 40 83 41 34 42 86 43 80 44
REMARK SMILES IDX 79 45 35 47 67 48 47 49 66 50 48 51 51 52 65 53 84 54 49 55
REMARK SMILES IDX 50 56 64 58 85 59 52 60 36 61 37 62 45 63 38 64 39 65 43 66
REMARK SMILES IDX 46 67 40 68 41 69 44 70 42 71 68 72 69 73 77 74 70 75 71 76
REMARK SMILES IDX 75 77 78 78 72 79 73 80 76 81 74 82 53 83 54 84 62 85 55 86
REMARK SMILES IDX 56 87 60 88 63 89 57 90 58 91 61 92 59 93
REMARK H PARENT 20 4 24 27 83 46 51 57
REMARK Flexibility Score: inf
ROOT
ATOM      1  C   UNL A   1      36.065  22.656  25.225  1.00  0.00     0.225 C 
ATOM      2  O   UNL A   1      36.421  23.608  25.930  1.00  0.00    -0.275 OA
ATOM      3  N   UNL A   1      36.615  21.462  25.549  1.00  0.00    -0.356 N 
ATOM      4  H   UNL A   1      37.200  21.518  26.338  1.00  0.00     0.163 HD
ENDROOT
BRANCH   1   5
ATOM      5  C   UNL A   1      35.094  22.913  24.083  1.00  0.00     0.102 C 
ATOM      6  C   UNL A   1      33.130  21.696  25.308  1.00  0.00     0.010 C 
ATOM      7  C   UNL A   1      33.787  22.119  24.008  1.00  0.00     0.020 C 
ATOM      8  C   UNL A   1      32.849  23.015  23.191  1.00  0.00     0.125 C 
ATOM      9  N   UNL A   1      33.442  24.340  23.142  1.00  0.00    -0.324 N 
ATOM     10  C   UNL A   1      34.735  24.359  23.817  1.00  0.00     0.135 C 
BRANCH   9  11
ATOM     11  C   UNL A   1      33.013  25.505  22.553  1.00  0.00     0.319 C 
ATOM     12  O   UNL A   1      33.653  25.955  21.597  1.00  0.00    -0.248 OA
BRANCH  11  13
ATOM     13  N   UNL A   1      31.950  26.221  23.074  1.00  0.00    -0.327 N 
ATOM     14  C   UNL A   1      31.025  27.098  22.377  1.00  0.00     0.148 C 
BRANCH  13  15
ATOM     15  C   UNL A   1      31.612  25.950  24.485  1.00  0.00     0.126 C 
BRANCH  15  16
ATOM     16  C   UNL A   1      30.916  27.138  25.181  1.00  0.00     0.068 C 
BRANCH  16  17
ATOM     17  C   UNL A   1      31.880  28.067  25.869  1.00  0.00     0.006 A 
ATOM     18  C   UNL A   1      32.781  27.781  26.876  1.00  0.00     0.015 A 
ATOM     19  S   UNL A   1      31.973  29.713  25.397  1.00  0.00    -0.149 S 
ATOM     20  C   UNL A   1      33.614  28.894  27.191  1.00  0.00     0.012 A 
ATOM     21  C   UNL A   1      33.278  30.010  26.460  1.00  0.00     0.065 A 
ENDBRANCH  16  17
ENDBRANCH  15  16
ENDBRANCH  13  15
ENDBRANCH  11  13
ENDBRANCH   9  11
ENDBRANCH   1   5
BRANCH   3  22
ATOM     22  C   UNL A   1      36.542  20.116  25.001  1.00  0.00     0.117 C 
BRANCH  22  23
ATOM     23  C   UNL A   1      37.920  19.470  24.834  1.00  0.00     0.042 C 
BRANCH  23  24
ATOM     24  C   UNL A   1      39.011  20.011  25.751  1.00  0.00     0.118 C 
BRANCH  24  25
ATOM     25  N   UNL A   1      40.126  19.092  25.898  1.00  0.00    -0.352 N 
ATOM     26  C   UNL A   1      41.463  19.341  26.102  1.00  0.00     0.251 C 
ATOM     27  H   UNL A   1      39.887  18.138  25.843  1.00  0.00     0.163 HD
ATOM     28  O   UNL A   1      42.266  18.419  25.997  1.00  0.00    -0.269 OA
BRANCH  26  29
ATOM     29  C   UNL A   1      41.959  20.701  26.426  1.00  0.00     0.039 A 
ATOM     30  C   UNL A   1      42.183  21.599  25.376  1.00  0.00     0.014 A 
ATOM     31  C   UNL A   1      42.271  21.085  27.733  1.00  0.00     0.014 A 
ATOM     32  C   UNL A   1      42.666  22.886  25.639  1.00  0.00     0.010 A 
ATOM     33  C   UNL A   1      42.675  22.395  28.003  1.00  0.00     0.010 A 
ATOM     34  C   UNL A   1      42.889  23.307  26.958  1.00  0.00    -0.014 A 
BRANCH  34  35
ATOM     35  C   UNL A   1      43.370  24.683  27.261  1.00  0.00     0.031 A 
ATOM     36  C   UNL A   1      42.418  25.721  27.793  1.00  0.00     0.074 A 
ATOM     37  C   UNL A   1      44.650  25.020  27.004  1.00  0.00     0.049 A 
ATOM     38  N   UNL A   1      42.630  26.990  28.045  1.00  0.00    -0.248 NA
ATOM     39  C   UNL A   1      41.038  25.283  28.052  1.00  0.00     0.031 C 
ATOM     40  C   UNL A   1      45.663  24.124  26.447  1.00  0.00     0.029 A 
ATOM     41  N   UNL A   1      45.312  26.212  27.168  1.00  0.00    -0.354 N 
ATOM     42  C   UNL A   1      41.409  27.502  28.466  1.00  0.00     0.074 A 
ATOM     43  C   UNL A   1      40.450  26.420  28.393  1.00  0.00     0.031 C 
ATOM     44  C   UNL A   1      46.823  24.791  26.331  1.00  0.00     0.029 A 
ATOM     45  C   UNL A   1      46.628  26.169  26.772  1.00  0.00     0.049 A 
ATOM     46  H   UNL A   1      44.886  27.020  27.533  1.00  0.00     0.167 HD
ATOM     47  C   UNL A   1      41.117  28.754  28.895  1.00  0.00     0.037 A 
ATOM     48  C   UNL A   1      47.569  27.134  26.760  1.00  0.00     0.037 A 
ATOM     49  C   UNL A   1      42.078  29.820  29.008  1.00  0.00     0.049 A 
ATOM     50  C   UNL A   1      47.224  28.510  27.257  1.00  0.00     0.074 A 
ATOM     51  C   UNL A   1      41.892  31.100  29.501  1.00  0.00     0.029 A 
ATOM     52  N   UNL A   1      43.406  29.729  28.624  1.00  0.00    -0.354 N 
ATOM     53  N   UNL A   1      46.082  28.964  27.713  1.00  0.00    -0.248 NA
ATOM     54  C   UNL A   1      48.301  29.510  27.245  1.00  0.00     0.031 C 
ATOM     55  C   UNL A   1      43.099  31.796  29.378  1.00  0.00     0.029 A 
ATOM     56  C   UNL A   1      44.048  30.936  28.851  1.00  0.00     0.049 A 
ATOM     57  H   UNL A   1      43.833  28.924  28.247  1.00  0.00     0.167 HD
ATOM     58  C   UNL A   1      46.308  30.287  28.064  1.00  0.00     0.074 A 
ATOM     59  C   UNL A   1      47.701  30.563  27.782  1.00  0.00     0.031 C 
ATOM     60  C   UNL A   1      45.437  31.193  28.573  1.00  0.00     0.037 A 
BRANCH  47  61
ATOM     61  C   UNL A   1      39.695  29.042  29.283  1.00  0.00     0.064 A 
ATOM     62  C   UNL A   1      39.244  28.882  30.601  1.00  0.00     0.173 A 
ATOM     63  C   UNL A   1      38.783  29.524  28.331  1.00  0.00     0.173 A 
ATOM     64  F   UNL A   1      40.074  28.414  31.546  1.00  0.00    -0.203 F 
ATOM     65  C   UNL A   1      37.925  29.165  30.948  1.00  0.00     0.198 A 
ATOM     66  C   UNL A   1      37.473  29.835  28.688  1.00  0.00     0.198 A 
ATOM     67  F   UNL A   1      39.164  29.703  27.058  1.00  0.00    -0.203 F 
ATOM     68  F   UNL A   1      37.506  28.959  32.203  1.00  0.00    -0.200 F 
ATOM     69  C   UNL A   1      37.044  29.648  29.993  1.00  0.00     0.200 A 
ATOM     70  F   UNL A   1      36.624  30.314  27.767  1.00  0.00    -0.200 F 
ATOM     71  F   UNL A   1      35.777  29.928  30.329  1.00  0.00    -0.200 F 
ENDBRANCH  47  61
BRANCH  48  72
ATOM     72  C   UNL A   1      48.940  26.823  26.278  1.00  0.00     0.064 A 
ATOM     73  C   UNL A   1      49.916  26.333  27.157  1.00  0.00     0.173 A 
ATOM     74  C   UNL A   1      49.301  27.007  24.936  1.00  0.00     0.173 A 
ATOM     75  F   UNL A   1      49.623  26.161  28.454  1.00  0.00    -0.203 F 
ATOM     76  C   UNL A   1      51.208  26.055  26.714  1.00  0.00     0.198 A 
ATOM     77  C   UNL A   1      50.586  26.703  24.489  1.00  0.00     0.198 A 
ATOM     78  F   UNL A   1      48.402  27.469  24.055  1.00  0.00    -0.203 F 
ATOM     79  F   UNL A   1      52.133  25.627  27.584  1.00  0.00    -0.200 F 
ATOM     80  C   UNL A   1      51.540  26.234  25.380  1.00  0.00     0.200 A 
ATOM     81  F   UNL A   1      50.899  26.865  23.197  1.00  0.00    -0.200 F 
ATOM     82  F   UNL A   1      52.781  25.961  24.953  1.00  0.00    -0.200 F 
ENDBRANCH  48  72
BRANCH  60  83
ATOM     83  C   UNL A   1      45.972  32.560  28.889  1.00  0.00     0.064 A 
ATOM     84  C   UNL A   1      46.628  32.830  30.099  1.00  0.00     0.173 A 
ATOM     85  C   UNL A   1      45.863  33.599  27.954  1.00  0.00     0.173 A 
ATOM     86  F   UNL A   1      46.743  31.873  31.033  1.00  0.00    -0.203 F 
ATOM     87  C   UNL A   1      47.136  34.098  30.369  1.00  0.00     0.198 A 
ATOM     88  C   UNL A   1      46.396  34.857  28.215  1.00  0.00     0.198 A 
ATOM     89  F   UNL A   1      45.249  33.389  26.779  1.00  0.00    -0.203 F 
ATOM     90  F   UNL A   1      47.721  34.346  31.550  1.00  0.00    -0.200 F 
ATOM     91  C   UNL A   1      47.026  35.108  29.425  1.00  0.00     0.200 A 
ATOM     92  F   UNL A   1      46.300  35.830  27.297  1.00  0.00    -0.200 F 
ATOM     93  F   UNL A   1      47.522  36.326  29.684  1.00  0.00    -0.200 F 
ENDBRANCH  60  83
ENDBRANCH  34  35
ENDBRANCH  26  29
ENDBRANCH  24  25
ENDBRANCH  23  24
ENDBRANCH  22  23
ENDBRANCH   3  22
TORSDOF 15
ENDMDL
MODEL 3
REMARK VINA RESULT:     -11.2      5.271     10.913
REMARK SMILES C[C@H]1CN(C(=O)N(C)CCc2cccs2)C[C@H]1C(=O)NCCCNC(=O)c1ccc(-c2c3nc(c(-c4c(F)c(F)c(F)c(F)c4F)c4ccc([nH]4)c(-c4c(F)c(F)c(F)c(F)c4F)c4nc(c(-c5c(F)c(F)c(F)c(F)c5F)c5ccc2[nH]5)C=C4)C=C3)cc1
REMARK SMILES IDX 18 1 19 2 20 3 17 5 1 6 2 7 3 8 4 9 16 10 5 11 6 12 7 13
REMARK SMILES IDX 8 14 9 15 10 16 11 17 12 18 15 19 13 20 14 21 21 22 22 23
REMARK SMILES IDX 23 24 24 25 25 26 26 28 27 29 28 30 89 31 29 32 88 33 30 34
REMARK SMILES IDX 31 35 32 36 82 37 33 38 87 39 81 40 83 41 34 42 86 43 80 44
REMARK SMILES IDX 79 45 35 47 67 48 47 49 66 50 48 51 51 52 65 53 84 54 49 55
REMARK SMILES IDX 50 56 64 58 85 59 52 60 36 61 37 62 45 63 38 64 39 65 43 66
REMARK SMILES IDX 46 67 40 68 41 69 44 70 42 71 68 72 69 73 77 74 70 75 71 76
REMARK SMILES IDX 75 77 78 78 72 79 73 80 76 81 74 82 53 83 54 84 62 85 55 86
REMARK SMILES IDX 56 87 60 88 63 89 57 90 58 91 61 92 59 93
REMARK H PARENT 20 4 24 27 83 46 51 57
REMARK Flexibility Score: inf
ROOT
ATOM      1  C   UNL A   1      34.188  20.663  25.251  1.00  0.00     0.225 C 
ATOM      2  O   UNL A   1      33.294  19.939  25.707  1.00  0.00    -0.275 OA
ATOM      3  N   UNL A   1      35.400  20.072  25.126  1.00  0.00    -0.356 N 
ATOM      4  H   UNL A   1      35.386  19.123  25.386  1.00  0.00     0.163 HD
ENDROOT
BRANCH   1   5
ATOM      5  C   UNL A   1      33.858  22.107  24.907  1.00  0.00     0.102 C 
ATOM      6  C   UNL A   1      32.283  21.413  22.937  1.00  0.00     0.010 C 
ATOM      7  C   UNL A   1      33.217  22.436  23.555  1.00  0.00     0.020 C 
ATOM      8  C   UNL A   1      32.489  23.763  23.797  1.00  0.00     0.125 C 
ATOM      9  N   UNL A   1      32.407  23.961  25.233  1.00  0.00    -0.324 N 
ATOM     10  C   UNL A   1      33.086  22.888  25.950  1.00  0.00     0.135 C 
BRANCH   9  11
ATOM     11  C   UNL A   1      31.851  24.974  25.978  1.00  0.00     0.319 C 
ATOM     12  O   UNL A   1      31.005  24.684  26.831  1.00  0.00    -0.248 OA
BRANCH  11  13
ATOM     13  N   UNL A   1      32.147  26.299  25.718  1.00  0.00    -0.327 N 
ATOM     14  C   UNL A   1      33.450  26.940  25.670  1.00  0.00     0.148 C 
BRANCH  13  15
ATOM     15  C   UNL A   1      31.017  27.146  25.285  1.00  0.00     0.126 C 
BRANCH  15  16
ATOM     16  C   UNL A   1      30.906  27.271  23.751  1.00  0.00     0.068 C 
BRANCH  16  17
ATOM     17  C   UNL A   1      29.650  27.970  23.305  1.00  0.00     0.006 A 
ATOM     18  C   UNL A   1      28.336  27.604  23.524  1.00  0.00     0.015 A 
ATOM     19  S   UNL A   1      29.749  29.439  22.426  1.00  0.00    -0.149 S 
ATOM     20  C   UNL A   1      27.414  28.582  23.053  1.00  0.00     0.012 A 
ATOM     21  C   UNL A   1      28.051  29.631  22.431  1.00  0.00     0.065 A 
ENDBRANCH  16  17
ENDBRANCH  15  16
ENDBRANCH  13  15
ENDBRANCH  11  13
ENDBRANCH   9  11
ENDBRANCH   1   5
BRANCH   3  22
ATOM     22  C   UNL A   1      36.718  20.515  24.699  1.00  0.00     0.117 C 
BRANCH  22  23
ATOM     23  C   UNL A   1      37.822  19.516  25.055  1.00  0.00     0.042 C 
BRANCH  23  24
ATOM     24  C   UNL A   1      39.014  20.098  25.807  1.00  0.00     0.118 C 
BRANCH  24  25
ATOM     25  N   UNL A   1      40.121  19.164  25.911  1.00  0.00    -0.352 N 
ATOM     26  C   UNL A   1      41.464  19.394  26.097  1.00  0.00     0.251 C 
ATOM     27  H   UNL A   1      39.871  18.215  25.837  1.00  0.00     0.163 HD
ATOM     28  O   UNL A   1      42.256  18.467  25.956  1.00  0.00    -0.269 OA
BRANCH  26  29
ATOM     29  C   UNL A   1      41.981  20.741  26.445  1.00  0.00     0.039 A 
ATOM     30  C   UNL A   1      42.302  21.623  25.406  1.00  0.00     0.014 A 
ATOM     31  C   UNL A   1      42.218  21.126  27.767  1.00  0.00     0.014 A 
ATOM     32  C   UNL A   1      42.807  22.897  25.693  1.00  0.00     0.010 A 
ATOM     33  C   UNL A   1      42.644  22.425  28.056  1.00  0.00     0.010 A 
ATOM     34  C   UNL A   1      42.955  23.321  27.022  1.00  0.00    -0.014 A 
BRANCH  34  35
ATOM     35  C   UNL A   1      43.459  24.684  27.347  1.00  0.00     0.031 A 
ATOM     36  C   UNL A   1      42.533  25.716  27.933  1.00  0.00     0.074 A 
ATOM     37  C   UNL A   1      44.734  25.016  27.064  1.00  0.00     0.049 A 
ATOM     38  N   UNL A   1      42.764  26.976  28.212  1.00  0.00    -0.248 NA
ATOM     39  C   UNL A   1      41.156  25.285  28.218  1.00  0.00     0.031 C 
ATOM     40  C   UNL A   1      45.723  24.125  26.455  1.00  0.00     0.029 A 
ATOM     41  N   UNL A   1      45.413  26.196  27.241  1.00  0.00    -0.354 N 
ATOM     42  C   UNL A   1      41.560  27.488  28.680  1.00  0.00     0.074 A 
ATOM     43  C   UNL A   1      40.589  26.418  28.606  1.00  0.00     0.031 C 
ATOM     44  C   UNL A   1      46.886  24.784  26.325  1.00  0.00     0.029 A 
ATOM     45  C   UNL A   1      46.717  26.152  26.808  1.00  0.00     0.049 A 
ATOM     46  H   UNL A   1      45.005  26.998  27.639  1.00  0.00     0.167 HD
ATOM     47  C   UNL A   1      41.293  28.731  29.150  1.00  0.00     0.037 A 
ATOM     48  C   UNL A   1      47.667  27.107  26.795  1.00  0.00     0.037 A 
ATOM     49  C   UNL A   1      42.268  29.784  29.265  1.00  0.00     0.049 A 
ATOM     50  C   UNL A   1      47.350  28.473  27.338  1.00  0.00     0.074 A 
ATOM     51  C   UNL A   1      42.109  31.053  29.796  1.00  0.00     0.029 A 
ATOM     52  N   UNL A   1      43.584  29.691  28.843  1.00  0.00    -0.354 N 
ATOM     53  N   UNL A   1      46.225  28.925  27.837  1.00  0.00    -0.248 NA
ATOM     54  C   UNL A   1      48.437  29.462  27.322  1.00  0.00     0.031 C 
ATOM     55  C   UNL A   1      43.319  31.740  29.659  1.00  0.00     0.029 A 
ATOM     56  C   UNL A   1      44.244  30.885  29.083  1.00  0.00     0.049 A 
ATOM     57  H   UNL A   1      43.992  28.893  28.432  1.00  0.00     0.167 HD
ATOM     58  C   UNL A   1      46.474  30.236  28.217  1.00  0.00     0.074 A 
ATOM     59  C   UNL A   1      47.862  30.506  27.904  1.00  0.00     0.031 C 
ATOM     60  C   UNL A   1      45.628  31.137  28.774  1.00  0.00     0.037 A 
BRANCH  47  61
ATOM     61  C   UNL A   1      39.885  29.022  29.585  1.00  0.00     0.064 A 
ATOM     62  C   UNL A   1      38.911  29.466  28.679  1.00  0.00     0.173 A 
ATOM     63  C   UNL A   1      39.496  28.815  30.917  1.00  0.00     0.173 A 
ATOM     64  F   UNL A   1      39.234  29.688  27.396  1.00  0.00    -0.203 F 
ATOM     65  C   UNL A   1      37.606  29.719  29.095  1.00  0.00     0.198 A 
ATOM     66  C   UNL A   1      38.184  29.041  31.324  1.00  0.00     0.198 A 
ATOM     67  F   UNL A   1      40.386  28.384  31.823  1.00  0.00    -0.203 F 
ATOM     68  F   UNL A   1      36.705  30.187  28.221  1.00  0.00    -0.200 F 
ATOM     69  C   UNL A   1      37.243  29.500  30.415  1.00  0.00     0.200 A 
ATOM     70  F   UNL A   1      37.829  28.817  32.597  1.00  0.00    -0.200 F 
ATOM     71  F   UNL A   1      35.985  29.737  30.813  1.00  0.00    -0.200 F 
ENDBRANCH  47  61
BRANCH  48  72
ATOM     72  C   UNL A   1      49.021  26.796  26.268  1.00  0.00     0.064 A 
ATOM     73  C   UNL A   1      49.334  27.013  24.919  1.00  0.00     0.173 A 
ATOM     74  C   UNL A   1      50.026  26.279  27.097  1.00  0.00     0.173 A 
ATOM     75  F   UNL A   1      48.399  27.486  24.082  1.00  0.00    -0.203 F 
ATOM     76  C   UNL A   1      50.597  26.707  24.415  1.00  0.00     0.198 A 
ATOM     77  C   UNL A   1      51.297  25.999  26.598  1.00  0.00     0.198 A 
ATOM     78  F   UNL A   1      49.778  26.058  28.397  1.00  0.00    -0.203 F 
ATOM     79  F   UNL A   1      50.857  26.885  23.113  1.00  0.00    -0.200 F 
ATOM     80  C   UNL A   1      51.579  26.207  25.256  1.00  0.00     0.200 A 
ATOM     81  F   UNL A   1      52.247  25.528  27.418  1.00  0.00    -0.200 F 
ATOM     82  F   UNL A   1      52.796  25.919  24.774  1.00  0.00    -0.200 F 
ENDBRANCH  48  72
BRANCH  60  83
ATOM     83  C   UNL A   1      46.185  32.489  29.111  1.00  0.00     0.064 A 
ATOM     84  C   UNL A   1      46.806  32.741  30.343  1.00  0.00     0.173 A 
ATOM     85  C   UNL A   1      46.132  33.532  28.175  1.00  0.00     0.173 A 
ATOM     86  F   UNL A   1      46.867  31.780  31.277  1.00  0.00    -0.203 F 
ATOM     87  C   UNL A   1      47.336  33.996  30.633  1.00  0.00     0.198 A 
ATOM     88  C   UNL A   1      46.687  34.777  28.457  1.00  0.00     0.198 A 
ATOM     89  F   UNL A   1      45.553  33.340  26.980  1.00  0.00    -0.203 F 
ATOM     90  F   UNL A   1      47.887  34.227  31.833  1.00  0.00    -0.200 F 
ATOM     91  C   UNL A   1      47.283  35.010  29.688  1.00  0.00     0.200 A 
ATOM     92  F   UNL A   1      46.645  35.753  27.539  1.00  0.00    -0.200 F 
ATOM     93  F   UNL A   1      47.799  36.215  29.966  1.00  0.00    -0.200 F 
ENDBRANCH  60  83
ENDBRANCH  34  35
ENDBRANCH  26  29
ENDBRANCH  24  25
ENDBRANCH  23  24
ENDBRANCH  22  23
ENDBRANCH   3  22
TORSDOF 15
ENDMDL
