MODEL 1
REMARK VINA RESULT:     -11.8      0.000      0.000
REMARK SMILES CC(C)(C)N(CC(=O)NCCCNC(=O)c1ccc(-c2c3nc(c(-c4c(F)c(F)c(F)c(F)c4F)c4ccc([nH]4)c(-c4c(F)c(F)c(F)c(F)c4F)c4nc(c(-c5c(F)c(F)c(F)c(F)c5F)c5ccc2[nH]5)C=C4)C=C3)cc1)C(=O)NCCc1cnc[nH]1
REMARK SMILES IDX 7 1 8 2 9 3 6 5 5 6 2 7 1 8 3 9 4 10 79 11 80 12 81 13 82 15
REMARK SMILES IDX 83 16 84 17 85 18 88 19 86 20 87 21 10 23 11 24 12 25 13 26
REMARK SMILES IDX 14 27 15 29 16 30 17 31 78 32 18 33 77 34 19 35 20 36 21 37
REMARK SMILES IDX 71 38 22 39 76 40 70 41 72 42 23 43 75 44 69 45 68 46 24 48
REMARK SMILES IDX 56 49 36 50 55 51 37 52 40 53 54 54 73 55 38 56 39 57 53 59
REMARK SMILES IDX 74 60 41 61 25 62 26 63 34 64 27 65 28 66 32 67 35 68 29 69
REMARK SMILES IDX 30 70 33 71 31 72 57 73 58 74 66 75 59 76 60 77 64 78 67 79
REMARK SMILES IDX 61 80 62 81 65 82 63 83 42 84 43 85 51 86 44 87 45 88 49 89
REMARK SMILES IDX 52 90 46 91 47 92 50 93 48 94
REMARK H PARENT 9 4 81 14 88 22 13 28 72 47 40 58
REMARK Flexibility Score: inf
ROOT
ATOM      1  C   UNL A   1      36.049  22.927  25.032  1.00  0.00     0.239 C 
ATOM      2  O   UNL A   1      36.404  24.017  25.493  1.00  0.00    -0.273 OA
ATOM      3  N   UNL A   1      36.953  21.911  25.105  1.00  0.00    -0.354 N 
ATOM      4  H   UNL A   1      37.888  22.182  25.247  1.00  0.00     0.163 HD
ENDROOT
BRANCH   1   5
ATOM      5  C   UNL A   1      34.599  22.702  24.568  1.00  0.00     0.221 C 
BRANCH   5   6
ATOM      6  N   UNL A   1      33.576  22.457  25.596  1.00  0.00    -0.311 N 
BRANCH   6   7
ATOM      7  C   UNL A   1      32.270  23.253  25.548  1.00  0.00     0.037 C 
ATOM      8  C   UNL A   1      31.306  22.993  26.739  1.00  0.00     0.034 C 
ATOM      9  C   UNL A   1      31.438  22.947  24.278  1.00  0.00     0.034 C 
ATOM     10  C   UNL A   1      32.573  24.770  25.600  1.00  0.00     0.034 C 
ENDBRANCH   6   7
BRANCH   6  11
ATOM     11  C   UNL A   1      33.612  21.366  26.442  1.00  0.00     0.318 C 
ATOM     12  O   UNL A   1      33.997  21.452  27.613  1.00  0.00    -0.249 OA
ATOM     13  N   UNL A   1      33.242  20.119  26.112  1.00  0.00    -0.338 N 
ATOM     14  H   UNL A   1      33.507  19.492  26.822  1.00  0.00     0.165 HD
BRANCH  13  15
ATOM     15  C   UNL A   1      32.570  19.395  25.036  1.00  0.00     0.124 C 
BRANCH  15  16
ATOM     16  C   UNL A   1      33.540  18.476  24.280  1.00  0.00     0.077 C 
BRANCH  16  17
ATOM     17  C   UNL A   1      33.447  17.048  24.708  1.00  0.00     0.036 A 
ATOM     18  C   UNL A   1      34.417  16.097  24.951  1.00  0.00     0.134 A 
ATOM     19  N   UNL A   1      32.265  16.417  25.011  1.00  0.00    -0.348 N 
ATOM     20  N   UNL A   1      33.857  14.923  25.381  1.00  0.00    -0.245 NA
ATOM     21  C   UNL A   1      32.564  15.148  25.417  1.00  0.00     0.196 A 
ATOM     22  H   UNL A   1      31.365  16.810  24.947  1.00  0.00     0.167 HD
ENDBRANCH  16  17
ENDBRANCH  15  16
ENDBRANCH  13  15
ENDBRANCH   6  11
ENDBRANCH   5   6
ENDBRANCH   1   5
BRANCH   3  23
ATOM     23  C   UNL A   1      36.724  20.487  25.003  1.00  0.00     0.117 C 
BRANCH  23  24
ATOM     24  C   UNL A   1      38.009  19.685  24.848  1.00  0.00     0.042 C 
BRANCH  24  25
ATOM     25  C   UNL A   1      39.143  20.156  25.751  1.00  0.00     0.118 C 
BRANCH  25  26
ATOM     26  N   UNL A   1      40.185  19.148  25.915  1.00  0.00    -0.352 N 
ATOM     27  C   UNL A   1      41.541  19.269  26.090  1.00  0.00     0.251 C 
ATOM     28  H   UNL A   1      39.859  18.219  25.895  1.00  0.00     0.163 HD
ATOM     29  O   UNL A   1      42.254  18.274  25.961  1.00  0.00    -0.269 OA
BRANCH  27  30
ATOM     30  C   UNL A   1      42.162  20.571  26.414  1.00  0.00     0.039 A 
ATOM     31  C   UNL A   1      42.521  21.429  25.369  1.00  0.00     0.014 A 
ATOM     32  C   UNL A   1      42.440  20.934  27.734  1.00  0.00     0.014 A 
ATOM     33  C   UNL A   1      43.072  22.683  25.652  1.00  0.00     0.010 A 
ATOM     34  C   UNL A   1      42.914  22.213  28.019  1.00  0.00     0.010 A 
ATOM     35  C   UNL A   1      43.224  23.104  26.981  1.00  0.00    -0.014 A 
BRANCH  35  36
ATOM     36  C   UNL A   1      43.670  24.480  27.322  1.00  0.00     0.031 A 
ATOM     37  C   UNL A   1      42.678  25.504  27.800  1.00  0.00     0.074 A 
ATOM     38  C   UNL A   1      44.949  24.835  27.094  1.00  0.00     0.049 A 
ATOM     39  N   UNL A   1      42.841  26.788  27.992  1.00  0.00    -0.248 NA
ATOM     40  C   UNL A   1      41.315  25.023  28.073  1.00  0.00     0.031 C 
ATOM     41  C   UNL A   1      45.998  23.944  26.595  1.00  0.00     0.029 A 
ATOM     42  N   UNL A   1      45.580  26.047  27.227  1.00  0.00    -0.354 N 
ATOM     43  C   UNL A   1      41.601  27.272  28.386  1.00  0.00     0.074 A 
ATOM     44  C   UNL A   1      40.685  26.151  28.368  1.00  0.00     0.031 C 
ATOM     45  C   UNL A   1      47.141  24.635  26.472  1.00  0.00     0.029 A 
ATOM     46  C   UNL A   1      46.896  26.028  26.832  1.00  0.00     0.049 A 
ATOM     47  H   UNL A   1      45.133  26.854  27.572  1.00  0.00     0.167 HD
ATOM     48  C   UNL A   1      41.263  28.533  28.747  1.00  0.00     0.037 A 
ATOM     49  C   UNL A   1      47.797  27.025  26.742  1.00  0.00     0.037 A 
ATOM     50  C   UNL A   1      42.185  29.638  28.791  1.00  0.00     0.049 A 
ATOM     51  C   UNL A   1      47.386  28.423  27.114  1.00  0.00     0.074 A 
ATOM     52  C   UNL A   1      41.959  30.934  29.222  1.00  0.00     0.029 A 
ATOM     53  N   UNL A   1      43.510  29.578  28.383  1.00  0.00    -0.354 N 
ATOM     54  N   UNL A   1      46.228  28.856  27.548  1.00  0.00    -0.248 NA
ATOM     55  C   UNL A   1      48.407  29.471  26.977  1.00  0.00     0.031 C 
ATOM     56  C   UNL A   1      43.134  31.670  29.030  1.00  0.00     0.029 A 
ATOM     57  C   UNL A   1      44.104  30.823  28.520  1.00  0.00     0.049 A 
ATOM     58  H   UNL A   1      43.961  28.770  28.046  1.00  0.00     0.167 HD
ATOM     59  C   UNL A   1      46.381  30.220  27.747  1.00  0.00     0.074 A 
ATOM     60  C   UNL A   1      47.752  30.541  27.407  1.00  0.00     0.031 C 
ATOM     61  C   UNL A   1      45.466  31.127  28.169  1.00  0.00     0.037 A 
BRANCH  48  62
ATOM     62  C   UNL A   1      39.834  28.792  29.124  1.00  0.00     0.064 A 
ATOM     63  C   UNL A   1      39.386  28.654  30.446  1.00  0.00     0.173 A 
ATOM     64  C   UNL A   1      38.911  29.227  28.161  1.00  0.00     0.173 A 
ATOM     65  F   UNL A   1      40.226  28.232  31.404  1.00  0.00    -0.203 F 
ATOM     66  C   UNL A   1      38.062  28.917  30.786  1.00  0.00     0.198 A 
ATOM     67  C   UNL A   1      37.594  29.517  28.509  1.00  0.00     0.198 A 
ATOM     68  F   UNL A   1      39.288  29.382  26.883  1.00  0.00    -0.203 F 
ATOM     69  F   UNL A   1      37.646  28.737  32.047  1.00  0.00    -0.200 F 
ATOM     70  C   UNL A   1      37.169  29.355  29.818  1.00  0.00     0.200 A 
ATOM     71  F   UNL A   1      36.735  29.951  27.576  1.00  0.00    -0.200 F 
ATOM     72  F   UNL A   1      35.896  29.615  30.149  1.00  0.00    -0.200 F 
ENDBRANCH  48  62
BRANCH  49  73
ATOM     73  C   UNL A   1      49.176  26.736  26.271  1.00  0.00     0.064 A 
ATOM     74  C   UNL A   1      50.163  26.302  27.166  1.00  0.00     0.173 A 
ATOM     75  C   UNL A   1      49.535  26.884  24.923  1.00  0.00     0.173 A 
ATOM     76  F   UNL A   1      49.872  26.169  28.469  1.00  0.00    -0.203 F 
ATOM     77  C   UNL A   1      51.461  26.040  26.734  1.00  0.00     0.198 A 
ATOM     78  C   UNL A   1      50.827  26.595  24.487  1.00  0.00     0.198 A 
ATOM     79  F   UNL A   1      48.627  27.294  24.026  1.00  0.00    -0.203 F 
ATOM     80  F   UNL A   1      52.395  25.666  27.618  1.00  0.00    -0.200 F 
ATOM     81  C   UNL A   1      51.790  26.180  25.394  1.00  0.00     0.200 A 
ATOM     82  F   UNL A   1      51.138  26.719  23.190  1.00  0.00    -0.200 F 
ATOM     83  F   UNL A   1      53.037  25.921  24.979  1.00  0.00    -0.200 F 
ENDBRANCH  49  73
BRANCH  61  84
ATOM     84  C   UNL A   1      45.919  32.552  28.291  1.00  0.00     0.064 A 
ATOM     85  C   UNL A   1      45.778  33.455  27.228  1.00  0.00     0.173 A 
ATOM     86  C   UNL A   1      46.452  33.032  29.496  1.00  0.00     0.173 A 
ATOM     87  F   UNL A   1      45.290  33.039  26.049  1.00  0.00    -0.203 F 
ATOM     88  C   UNL A   1      46.170  34.784  27.362  1.00  0.00     0.198 A 
ATOM     89  C   UNL A   1      46.817  34.367  29.636  1.00  0.00     0.198 A 
ATOM     90  F   UNL A   1      46.603  32.207  30.544  1.00  0.00    -0.203 F 
ATOM     91  F   UNL A   1      46.062  35.622  26.321  1.00  0.00    -0.200 F 
ATOM     92  C   UNL A   1      46.680  35.241  28.567  1.00  0.00     0.200 A 
ATOM     93  F   UNL A   1      47.300  34.810  30.806  1.00  0.00    -0.200 F 
ATOM     94  F   UNL A   1      47.046  36.523  28.699  1.00  0.00    -0.200 F 
ENDBRANCH  61  84
ENDBRANCH  35  36
ENDBRANCH  27  30
ENDBRANCH  25  26
ENDBRANCH  24  25
ENDBRANCH  23  24
ENDBRANCH   3  23
TORSDOF 16
ENDMDL
MODEL 2
REMARK VINA RESULT:     -11.6      6.598     12.046
REMARK SMILES CC(C)(C)N(CC(=O)NCCCNC(=O)c1ccc(-c2c3nc(c(-c4c(F)c(F)c(F)c(F)c4F)c4ccc([nH]4)c(-c4c(F)c(F)c(F)c(F)c4F)c4nc(c(-c5c(F)c(F)c(F)c(F)c5F)c5ccc2[nH]5)C=C4)C=C3)cc1)C(=O)NCCc1cnc[nH]1
REMARK SMILES IDX 7 1 8 2 9 3 6 5 5 6 2 7 1 8 3 9 4 10 79 11 80 12 81 13 82 15
REMARK SMILES IDX 83 16 84 17 85 18 88 19 86 20 87 21 10 23 11 24 12 25 13 26
REMARK SMILES IDX 14 27 15 29 16 30 17 31 78 32 18 33 77 34 19 35 20 36 21 37
REMARK SMILES IDX 71 38 22 39 76 40 70 41 72 42 23 43 75 44 69 45 68 46 24 48
REMARK SMILES IDX 56 49 36 50 55 51 37 52 40 53 54 54 73 55 38 56 39 57 53 59
REMARK SMILES IDX 74 60 41 61 25 62 26 63 34 64 27 65 28 66 32 67 35 68 29 69
REMARK SMILES IDX 30 70 33 71 31 72 57 73 58 74 66 75 59 76 60 77 64 78 67 79
REMARK SMILES IDX 61 80 62 81 65 82 63 83 42 84 43 85 51 86 44 87 45 88 49 89
REMARK SMILES IDX 52 90 46 91 47 92 50 93 48 94
REMARK H PARENT 9 4 81 14 88 22 13 28 72 47 40 58
REMARK Flexibility Score: inf
ROOT
ATOM      1  C   UNL A   1      33.326  28.954  26.327  1.00  0.00     0.239 C 
ATOM      2  O   UNL A   1      34.529  28.802  26.561  1.00  0.00    -0.273 OA
ATOM      3  N   UNL A   1      32.801  30.180  26.602  1.00  0.00    -0.354 N 
ATOM      4  H   UNL A   1      33.329  30.741  27.214  1.00  0.00     0.163 HD
ENDROOT
BRANCH   1   5
ATOM      5  C   UNL A   1      32.520  27.862  25.600  1.00  0.00     0.221 C 
BRANCH   5   6
ATOM      6  N   UNL A   1      32.847  27.586  24.192  1.00  0.00    -0.311 N 
BRANCH   6   7
ATOM      7  C   UNL A   1      33.036  26.135  23.746  1.00  0.00     0.037 C 
ATOM      8  C   UNL A   1      34.044  25.318  24.601  1.00  0.00     0.034 C 
ATOM      9  C   UNL A   1      33.556  26.027  22.291  1.00  0.00     0.034 C 
ATOM     10  C   UNL A   1      31.696  25.367  23.860  1.00  0.00     0.034 C 
ENDBRANCH   6   7
BRANCH   6  11
ATOM     11  C   UNL A   1      32.731  28.536  23.198  1.00  0.00     0.318 C 
ATOM     12  O   UNL A   1      33.695  29.208  22.813  1.00  0.00    -0.249 OA
ATOM     13  N   UNL A   1      31.599  28.836  22.542  1.00  0.00    -0.338 N 
ATOM     14  H   UNL A   1      31.731  29.647  22.001  1.00  0.00     0.165 HD
BRANCH  13  15
ATOM     15  C   UNL A   1      30.235  28.343  22.375  1.00  0.00     0.124 C 
BRANCH  15  16
ATOM     16  C   UNL A   1      29.230  29.171  23.191  1.00  0.00     0.077 C 
BRANCH  16  17
ATOM     17  C   UNL A   1      28.945  30.506  22.586  1.00  0.00     0.036 A 
ATOM     18  C   UNL A   1      28.335  30.866  21.401  1.00  0.00     0.134 A 
ATOM     19  N   UNL A   1      29.223  31.700  23.204  1.00  0.00    -0.348 N 
ATOM     20  N   UNL A   1      28.245  32.228  21.289  1.00  0.00    -0.245 NA
ATOM     21  C   UNL A   1      28.778  32.703  22.391  1.00  0.00     0.196 A 
ATOM     22  H   UNL A   1      29.664  31.812  24.077  1.00  0.00     0.167 HD
ENDBRANCH  16  17
ENDBRANCH  15  16
ENDBRANCH  13  15
ENDBRANCH   6  11
ENDBRANCH   5   6
ENDBRANCH   1   5
BRANCH   3  23
ATOM     23  C   UNL A   1      31.574  30.770  26.115  1.00  0.00     0.117 C 
BRANCH  23  24
ATOM     24  C   UNL A   1      31.403  32.224  26.533  1.00  0.00     0.042 C 
BRANCH  24  25
ATOM     25  C   UNL A   1      32.610  32.802  27.262  1.00  0.00     0.118 C 
BRANCH  25  26
ATOM     26  N   UNL A   1      32.427  34.203  27.626  1.00  0.00    -0.352 N 
ATOM     27  C   UNL A   1      33.009  34.966  28.608  1.00  0.00     0.251 C 
ATOM     28  H   UNL A   1      31.771  34.685  27.073  1.00  0.00     0.163 HD
ATOM     29  O   UNL A   1      32.520  36.060  28.887  1.00  0.00    -0.269 OA
BRANCH  27  30
ATOM     30  C   UNL A   1      34.199  34.493  29.347  1.00  0.00     0.039 A 
ATOM     31  C   UNL A   1      34.029  33.938  30.620  1.00  0.00     0.014 A 
ATOM     32  C   UNL A   1      35.484  34.634  28.820  1.00  0.00     0.014 A 
ATOM     33  C   UNL A   1      35.134  33.445  31.322  1.00  0.00     0.010 A 
ATOM     34  C   UNL A   1      36.573  34.073  29.482  1.00  0.00     0.010 A 
ATOM     35  C   UNL A   1      36.408  33.463  30.734  1.00  0.00    -0.014 A 
BRANCH  35  36
ATOM     36  C   UNL A   1      37.580  32.821  31.384  1.00  0.00     0.031 A 
ATOM     37  C   UNL A   1      38.257  31.645  30.739  1.00  0.00     0.074 A 
ATOM     38  C   UNL A   1      37.962  33.231  32.609  1.00  0.00     0.049 A 
ATOM     39  N   UNL A   1      39.183  30.855  31.221  1.00  0.00    -0.248 NA
ATOM     40  C   UNL A   1      37.815  31.294  29.381  1.00  0.00     0.031 C 
ATOM     41  C   UNL A   1      37.360  34.336  33.357  1.00  0.00     0.029 A 
ATOM     42  N   UNL A   1      38.931  32.749  33.454  1.00  0.00    -0.354 N 
ATOM     43  C   UNL A   1      39.419  29.904  30.238  1.00  0.00     0.074 A 
ATOM     44  C   UNL A   1      38.512  30.190  29.147  1.00  0.00     0.031 C 
ATOM     45  C   UNL A   1      37.976  34.453  34.543  1.00  0.00     0.029 A 
ATOM     46  C   UNL A   1      38.981  33.401  34.662  1.00  0.00     0.049 A 
ATOM     47  H   UNL A   1      39.533  32.007  33.217  1.00  0.00     0.167 HD
ATOM     48  C   UNL A   1      40.323  28.895  30.239  1.00  0.00     0.037 A 
ATOM     49  C   UNL A   1      39.730  33.162  35.755  1.00  0.00     0.037 A 
ATOM     50  C   UNL A   1      41.244  28.633  31.314  1.00  0.00     0.049 A 
ATOM     51  C   UNL A   1      40.701  32.014  35.744  1.00  0.00     0.074 A 
ATOM     52  C   UNL A   1      42.254  27.688  31.375  1.00  0.00     0.029 A 
ATOM     53  N   UNL A   1      41.263  29.316  32.522  1.00  0.00    -0.354 N 
ATOM     54  N   UNL A   1      40.961  31.161  34.784  1.00  0.00    -0.248 NA
ATOM     55  C   UNL A   1      41.476  31.790  36.972  1.00  0.00     0.031 C 
ATOM     56  C   UNL A   1      42.851  27.768  32.638  1.00  0.00     0.029 A 
ATOM     57  C   UNL A   1      42.243  28.790  33.348  1.00  0.00     0.049 A 
ATOM     58  H   UNL A   1      40.667  30.065  32.757  1.00  0.00     0.167 HD
ATOM     59  C   UNL A   1      41.936  30.310  35.283  1.00  0.00     0.074 A 
ATOM     60  C   UNL A   1      42.237  30.761  36.626  1.00  0.00     0.031 C 
ATOM     61  C   UNL A   1      42.525  29.245  34.684  1.00  0.00     0.037 A 
BRANCH  48  62
ATOM     62  C   UNL A   1      40.365  27.995  29.040  1.00  0.00     0.064 A 
ATOM     63  C   UNL A   1      39.629  26.802  28.988  1.00  0.00     0.173 A 
ATOM     64  C   UNL A   1      41.115  28.351  27.908  1.00  0.00     0.173 A 
ATOM     65  F   UNL A   1      38.903  26.411  30.047  1.00  0.00    -0.203 F 
ATOM     66  C   UNL A   1      39.661  25.987  27.861  1.00  0.00     0.198 A 
ATOM     67  C   UNL A   1      41.123  27.548  26.770  1.00  0.00     0.198 A 
ATOM     68  F   UNL A   1      41.832  29.485  27.900  1.00  0.00    -0.203 F 
ATOM     69  F   UNL A   1      38.984  24.830  27.852  1.00  0.00    -0.200 F 
ATOM     70  C   UNL A   1      40.403  26.363  26.750  1.00  0.00     0.200 A 
ATOM     71  F   UNL A   1      41.830  27.918  25.694  1.00  0.00    -0.200 F 
ATOM     72  F   UNL A   1      40.427  25.580  25.662  1.00  0.00    -0.200 F 
ENDBRANCH  48  62
BRANCH  49  73
ATOM     73  C   UNL A   1      39.585  34.024  36.956  1.00  0.00     0.064 A 
ATOM     74  C   UNL A   1      40.262  35.248  37.046  1.00  0.00     0.173 A 
ATOM     75  C   UNL A   1      38.768  33.648  38.033  1.00  0.00     0.173 A 
ATOM     76  F   UNL A   1      41.073  35.638  36.051  1.00  0.00    -0.203 F 
ATOM     77  C   UNL A   1      40.140  36.057  38.173  1.00  0.00     0.198 A 
ATOM     78  C   UNL A   1      38.626  34.471  39.149  1.00  0.00     0.198 A 
ATOM     79  F   UNL A   1      38.097  32.488  37.996  1.00  0.00    -0.203 F 
ATOM     80  F   UNL A   1      40.830  37.203  38.250  1.00  0.00    -0.200 F 
ATOM     81  C   UNL A   1      39.316  35.672  39.221  1.00  0.00     0.200 A 
ATOM     82  F   UNL A   1      37.819  34.102  40.153  1.00  0.00    -0.200 F 
ATOM     83  F   UNL A   1      39.194  36.454  40.301  1.00  0.00    -0.200 F 
ENDBRANCH  49  73
BRANCH  61  84
ATOM     84  C   UNL A   1      43.558  28.498  35.475  1.00  0.00     0.064 A 
ATOM     85  C   UNL A   1      44.921  28.810  35.373  1.00  0.00     0.173 A 
ATOM     86  C   UNL A   1      43.177  27.495  36.379  1.00  0.00     0.173 A 
ATOM     87  F   UNL A   1      45.335  29.750  34.509  1.00  0.00    -0.203 F 
ATOM     88  C   UNL A   1      45.868  28.134  36.137  1.00  0.00     0.198 A 
ATOM     89  C   UNL A   1      44.124  26.840  37.160  1.00  0.00     0.198 A 
ATOM     90  F   UNL A   1      41.885  27.163  36.515  1.00  0.00    -0.203 F 
ATOM     91  F   UNL A   1      47.169  28.421  35.996  1.00  0.00    -0.200 F 
ATOM     92  C   UNL A   1      45.469  27.156  37.035  1.00  0.00     0.200 A 
ATOM     93  F   UNL A   1      43.735  25.903  38.037  1.00  0.00    -0.200 F 
ATOM     94  F   UNL A   1      46.381  26.514  37.778  1.00  0.00    -0.200 F 
ENDBRANCH  61  84
ENDBRANCH  35  36
ENDBRANCH  27  30
ENDBRANCH  25  26
ENDBRANCH  24  25
ENDBRANCH  23  24
ENDBRANCH   3  23
TORSDOF 16
ENDMDL
MODEL 3
REMARK VINA RESULT:     -11.6      0.804      2.258
REMARK SMILES CC(C)(C)N(CC(=O)NCCCNC(=O)c1ccc(-c2c3nc(c(-c4c(F)c(F)c(F)c(F)c4F)c4ccc([nH]4)c(-c4c(F)c(F)c(F)c(F)c4F)c4nc(c(-c5c(F)c(F)c(F)c(F)c5F)c5ccc2[nH]5)C=C4)C=C3)cc1)C(=O)NCCc1cnc[nH]1
REMARK SMILES IDX 7 1 8 2 9 3 6 5 5 6 2 7 1 8 3 9 4 10 79 11 80 12 81 13 82 15
REMARK SMILES IDX 83 16 84 17 85 18 88 19 86 20 87 21 10 23 11 24 12 25 13 26
REMARK SMILES IDX 14 27 15 29 16 30 17 31 78 32 18 33 77 34 19 35 20 36 21 37
REMARK SMILES IDX 71 38 22 39 76 40 70 41 72 42 23 43 75 44 69 45 68 46 24 48
REMARK SMILES IDX 56 49 36 50 55 51 37 52 40 53 54 54 73 55 38 56 39 57 53 59
REMARK SMILES IDX 74 60 41 61 25 62 26 63 34 64 27 65 28 66 32 67 35 68 29 69
REMARK SMILES IDX 30 70 33 71 31 72 57 73 58 74 66 75 59 76 60 77 64 78 67 79
REMARK SMILES IDX 61 80 62 81 65 82 63 83 42 84 43 85 51 86 44 87 45 88 49 89
REMARK SMILES IDX 52 90 46 91 47 92 50 93 48 94
REMARK H PARENT 9 4 81 14 88 22 13 28 72 47 40 58
REMARK Flexibility Score: inf
ROOT
ATOM      1  C   UNL A   1      34.875  21.987  26.612  1.00  0.00     0.239 C 
ATOM      2  O   UNL A   1      34.298  21.731  27.673  1.00  0.00    -0.273 OA
ATOM      3  N   UNL A   1      35.888  21.152  26.251  1.00  0.00    -0.354 N 
ATOM      4  H   UNL A   1      36.264  20.601  26.976  1.00  0.00     0.163 HD
ENDROOT
BRANCH   1   5
ATOM      5  C   UNL A   1      34.348  23.088  25.673  1.00  0.00     0.221 C 
BRANCH   5   6
ATOM      6  N   UNL A   1      33.095  22.832  24.945  1.00  0.00    -0.311 N 
BRANCH   6   7
ATOM      7  C   UNL A   1      31.863  23.679  25.269  1.00  0.00     0.037 C 
ATOM      8  C   UNL A   1      30.796  23.733  24.141  1.00  0.00     0.034 C 
ATOM      9  C   UNL A   1      32.222  25.157  25.560  1.00  0.00     0.034 C 
ATOM     10  C   UNL A   1      31.123  23.089  26.495  1.00  0.00     0.034 C 
ENDBRANCH   6   7
BRANCH   6  11
ATOM     11  C   UNL A   1      33.039  22.056  23.805  1.00  0.00     0.318 C 
ATOM     12  O   UNL A   1      33.249  22.523  22.679  1.00  0.00    -0.249 OA
ATOM     13  N   UNL A   1      32.765  20.743  23.775  1.00  0.00    -0.338 N 
ATOM     14  H   UNL A   1      32.625  20.452  22.846  1.00  0.00     0.165 HD
BRANCH  13  15
ATOM     15  C   UNL A   1      32.608  19.609  24.681  1.00  0.00     0.124 C 
BRANCH  15  16
ATOM     16  C   UNL A   1      32.536  18.279  23.916  1.00  0.00     0.077 C 
BRANCH  16  17
ATOM     17  C   UNL A   1      33.370  17.203  24.532  1.00  0.00     0.036 A 
ATOM     18  C   UNL A   1      33.078  15.899  24.875  1.00  0.00     0.134 A 
ATOM     19  N   UNL A   1      34.703  17.345  24.826  1.00  0.00    -0.348 N 
ATOM     20  N   UNL A   1      34.185  15.262  25.368  1.00  0.00    -0.245 NA
ATOM     21  C   UNL A   1      35.149  16.151  25.319  1.00  0.00     0.196 A 
ATOM     22  H   UNL A   1      35.241  18.161  24.705  1.00  0.00     0.167 HD
ENDBRANCH  16  17
ENDBRANCH  15  16
ENDBRANCH  13  15
ENDBRANCH   6  11
ENDBRANCH   5   6
ENDBRANCH   1   5
BRANCH   3  23
ATOM     23  C   UNL A   1      36.487  20.962  24.949  1.00  0.00     0.117 C 
BRANCH  23  24
ATOM     24  C   UNL A   1      37.648  19.978  24.962  1.00  0.00     0.042 C 
BRANCH  24  25
ATOM     25  C   UNL A   1      38.859  20.463  25.751  1.00  0.00     0.118 C 
BRANCH  25  26
ATOM     26  N   UNL A   1      39.874  19.428  25.913  1.00  0.00    -0.352 N 
ATOM     27  C   UNL A   1      41.232  19.512  26.089  1.00  0.00     0.251 C 
ATOM     28  H   UNL A   1      39.524  18.508  25.891  1.00  0.00     0.163 HD
ATOM     29  O   UNL A   1      41.919  18.499  25.958  1.00  0.00    -0.269 OA
BRANCH  27  30
ATOM     30  C   UNL A   1      41.887  20.796  26.417  1.00  0.00     0.039 A 
ATOM     31  C   UNL A   1      42.235  21.665  25.377  1.00  0.00     0.014 A 
ATOM     32  C   UNL A   1      42.207  21.132  27.734  1.00  0.00     0.014 A 
ATOM     33  C   UNL A   1      42.818  22.903  25.664  1.00  0.00     0.010 A 
ATOM     34  C   UNL A   1      42.714  22.397  28.026  1.00  0.00     0.010 A 
ATOM     35  C   UNL A   1      43.013  23.299  26.996  1.00  0.00    -0.014 A 
BRANCH  35  36
ATOM     36  C   UNL A   1      43.495  24.661  27.346  1.00  0.00     0.031 A 
ATOM     37  C   UNL A   1      42.542  25.686  27.893  1.00  0.00     0.074 A 
ATOM     38  C   UNL A   1      44.767  25.003  27.066  1.00  0.00     0.049 A 
ATOM     39  N   UNL A   1      42.733  26.963  28.106  1.00  0.00    -0.248 NA
ATOM     40  C   UNL A   1      41.187  25.218  28.220  1.00  0.00     0.031 C 
ATOM     41  C   UNL A   1      45.778  24.110  26.498  1.00  0.00     0.029 A 
ATOM     42  N   UNL A   1      45.422  26.203  27.196  1.00  0.00    -0.354 N 
ATOM     43  C   UNL A   1      41.520  27.455  28.570  1.00  0.00     0.074 A 
ATOM     44  C   UNL A   1      40.588  26.348  28.570  1.00  0.00     0.031 C 
ATOM     45  C   UNL A   1      46.925  24.787  26.336  1.00  0.00     0.029 A 
ATOM     46  C   UNL A   1      46.718  26.175  26.739  1.00  0.00     0.049 A 
ATOM     47  H   UNL A   1      45.004  27.007  27.580  1.00  0.00     0.167 HD
ATOM     48  C   UNL A   1      41.219  28.712  28.974  1.00  0.00     0.037 A 
ATOM     49  C   UNL A   1      47.628  27.161  26.629  1.00  0.00     0.037 A 
ATOM     50  C   UNL A   1      42.158  29.803  29.000  1.00  0.00     0.049 A 
ATOM     51  C   UNL A   1      47.256  28.555  27.052  1.00  0.00     0.074 A 
ATOM     52  C   UNL A   1      41.972  31.091  29.471  1.00  0.00     0.029 A 
ATOM     53  N   UNL A   1      43.461  29.734  28.529  1.00  0.00    -0.354 N 
ATOM     54  N   UNL A   1      46.126  28.994  27.550  1.00  0.00    -0.248 NA
ATOM     55  C   UNL A   1      48.284  29.592  26.890  1.00  0.00     0.031 C 
ATOM     56  C   UNL A   1      43.147  31.815  29.240  1.00  0.00     0.029 A 
ATOM     57  C   UNL A   1      44.079  30.967  28.665  1.00  0.00     0.049 A 
ATOM     58  H   UNL A   1      43.884  28.928  28.153  1.00  0.00     0.167 HD
ATOM     59  C   UNL A   1      46.309  30.351  27.773  1.00  0.00     0.074 A 
ATOM     60  C   UNL A   1      47.667  30.661  27.375  1.00  0.00     0.031 C 
ATOM     61  C   UNL A   1      45.428  31.261  28.258  1.00  0.00     0.037 A 
BRANCH  48  62
ATOM     62  C   UNL A   1      39.813  28.981  29.425  1.00  0.00     0.064 A 
ATOM     63  C   UNL A   1      38.821  29.405  28.529  1.00  0.00     0.173 A 
ATOM     64  C   UNL A   1      39.441  28.768  30.761  1.00  0.00     0.173 A 
ATOM     65  F   UNL A   1      39.127  29.633  27.242  1.00  0.00    -0.203 F 
ATOM     66  C   UNL A   1      37.516  29.631  28.957  1.00  0.00     0.198 A 
ATOM     67  C   UNL A   1      38.128  28.967  31.181  1.00  0.00     0.198 A 
ATOM     68  F   UNL A   1      40.348  28.355  31.659  1.00  0.00    -0.203 F 
ATOM     69  F   UNL A   1      36.596  30.079  28.091  1.00  0.00    -0.200 F 
ATOM     70  C   UNL A   1      37.169  29.406  30.281  1.00  0.00     0.200 A 
ATOM     71  F   UNL A   1      37.791  28.737  32.458  1.00  0.00    -0.200 F 
ATOM     72  F   UNL A   1      35.910  29.616  30.691  1.00  0.00    -0.200 F 
ENDBRANCH  48  62
BRANCH  49  73
ATOM     73  C   UNL A   1      48.979  26.864  26.087  1.00  0.00     0.064 A 
ATOM     74  C   UNL A   1      49.259  27.041  24.725  1.00  0.00     0.173 A 
ATOM     75  C   UNL A   1      50.014  26.404  26.913  1.00  0.00     0.173 A 
ATOM     76  F   UNL A   1      48.294  27.457  23.892  1.00  0.00    -0.203 F 
ATOM     77  C   UNL A   1      50.521  26.754  24.207  1.00  0.00     0.198 A 
ATOM     78  C   UNL A   1      51.283  26.143  26.399  1.00  0.00     0.198 A 
ATOM     79  F   UNL A   1      49.798  26.221  28.224  1.00  0.00    -0.203 F 
ATOM     80  F   UNL A   1      50.750  26.893  22.895  1.00  0.00    -0.200 F 
ATOM     81  C   UNL A   1      51.533  26.312  25.046  1.00  0.00     0.200 A 
ATOM     82  F   UNL A   1      52.263  25.729  27.214  1.00  0.00    -0.200 F 
ATOM     83  F   UNL A   1      52.748  26.044  24.548  1.00  0.00    -0.200 F 
ENDBRANCH  49  73
BRANCH  61  84
ATOM     84  C   UNL A   1      45.907  32.676  28.390  1.00  0.00     0.064 A 
ATOM     85  C   UNL A   1      46.557  33.120  29.550  1.00  0.00     0.173 A 
ATOM     86  C   UNL A   1      45.758  33.582  27.330  1.00  0.00     0.173 A 
ATOM     87  F   UNL A   1      46.708  32.295  30.598  1.00  0.00    -0.203 F 
ATOM     88  C   UNL A   1      47.028  34.426  29.650  1.00  0.00     0.198 A 
ATOM     89  C   UNL A   1      46.254  34.879  27.424  1.00  0.00     0.198 A 
ATOM     90  F   UNL A   1      45.146  33.204  26.198  1.00  0.00    -0.203 F 
ATOM     91  F   UNL A   1      47.613  34.841  30.782  1.00  0.00    -0.200 F 
ATOM     92  C   UNL A   1      46.884  35.302  28.585  1.00  0.00     0.200 A 
ATOM     93  F   UNL A   1      46.124  35.721  26.388  1.00  0.00    -0.200 F 
ATOM     94  F   UNL A   1      47.348  36.555  28.678  1.00  0.00    -0.200 F 
ENDBRANCH  61  84
ENDBRANCH  35  36
ENDBRANCH  27  30
ENDBRANCH  25  26
ENDBRANCH  24  25
ENDBRANCH  23  24
ENDBRANCH   3  23
TORSDOF 16
ENDMDL
