MODEL 1
REMARK VINA RESULT:     -11.3      0.000      0.000
REMARK SMILES Cc1cscc1-c1ncc(C(=O)NCCCNC(=O)c2ccc(-c3c4nc(c(-c5c(F)c(F)c(F)c(F)c5F)c5ccc([nH]5)c(-c5c(F)c(F)c(F)c(F)c5F)c5nc(c(-c6c(F)c(F)c(F)c(F)c6F)c6ccc3[nH]6)C=C5)C=C4)cc2)c(=O)[nH]1
REMARK SMILES IDX 15 1 14 2 13 3 11 4 12 5 10 7 7 8 8 9 85 10 9 11 83 12 84 14
REMARK SMILES IDX 6 15 1 16 2 17 3 18 4 19 5 20 16 21 17 22 18 23 19 25 20 26
REMARK SMILES IDX 21 27 82 28 22 29 81 30 23 31 24 32 25 33 75 34 26 35 80 36
REMARK SMILES IDX 74 37 76 38 27 39 79 40 73 41 72 42 28 44 60 45 40 46 59 47
REMARK SMILES IDX 41 48 44 49 58 50 77 51 42 52 43 53 57 55 78 56 45 57 29 58
REMARK SMILES IDX 30 59 38 60 31 61 32 62 36 63 39 64 33 65 34 66 37 67 35 68
REMARK SMILES IDX 61 69 62 70 70 71 63 72 64 73 68 74 71 75 65 76 66 77 69 78
REMARK SMILES IDX 67 79 46 80 47 81 55 82 48 83 49 84 53 85 56 86 50 87 51 88
REMARK SMILES IDX 54 89 52 90
REMARK H PARENT 13 6 85 13 17 24 76 43 44 54
REMARK Flexibility Score: inf
ROOT
ATOM      1  C   UNL A   1      33.710  33.851  28.152  1.00  0.00     0.042 C 
ENDROOT
BRANCH   1   2
ATOM      2  C   UNL A   1      34.133  35.100  28.925  1.00  0.00     0.118 C 
BRANCH   2   3
ATOM      3  N   UNL A   1      33.153  35.448  29.939  1.00  0.00    -0.352 N 
ATOM      4  C   UNL A   1      33.136  35.284  31.288  1.00  0.00     0.258 C 
ATOM      5  O   UNL A   1      32.129  35.696  31.872  1.00  0.00    -0.269 OA
ATOM      6  H   UNL A   1      32.348  35.885  29.580  1.00  0.00     0.163 HD
BRANCH   4   7
ATOM      7  C   UNL A   1      34.272  34.720  32.061  1.00  0.00     0.123 A 
ATOM      8  C   UNL A   1      36.485  34.079  33.549  1.00  0.00     0.141 A 
ATOM      9  N   UNL A   1      36.013  35.275  33.660  1.00  0.00    -0.237 NA
ATOM     10  N   UNL A   1      35.937  33.122  32.753  1.00  0.00    -0.306 N 
ATOM     11  C   UNL A   1      34.930  35.576  32.867  1.00  0.00     0.133 A 
ATOM     12  C   UNL A   1      34.748  33.323  32.117  1.00  0.00     0.264 A 
ATOM     13  H   UNL A   1      36.408  32.265  32.634  1.00  0.00     0.171 HD
ATOM     14  O   UNL A   1      34.122  32.359  31.693  1.00  0.00    -0.269 OA
BRANCH   8  15
ATOM     15  C   UNL A   1      37.625  33.667  34.337  1.00  0.00     0.031 A 
ATOM     16  C   UNL A   1      39.464  34.453  32.681  1.00  0.00     0.046 C 
ATOM     17  C   UNL A   1      39.008  33.833  33.962  1.00  0.00    -0.029 A 
ATOM     18  C   UNL A   1      39.852  33.367  34.952  1.00  0.00     0.069 A 
ATOM     19  S   UNL A   1      39.012  32.739  36.300  1.00  0.00    -0.151 S 
ATOM     20  C   UNL A   1      37.501  33.084  35.585  1.00  0.00     0.077 A 
ENDBRANCH   8  15
ENDBRANCH   4   7
ENDBRANCH   2   3
ENDBRANCH   1   2
BRANCH   1  21
ATOM     21  C   UNL A   1      34.631  32.655  28.371  1.00  0.00     0.118 C 
BRANCH  21  22
ATOM     22  N   UNL A   1      33.966  31.393  28.092  1.00  0.00    -0.352 N 
ATOM     23  C   UNL A   1      34.490  30.138  27.898  1.00  0.00     0.251 C 
ATOM     24  H   UNL A   1      32.984  31.445  28.033  1.00  0.00     0.163 HD
ATOM     25  O   UNL A   1      33.775  29.249  27.450  1.00  0.00    -0.269 OA
BRANCH  23  26
ATOM     26  C   UNL A   1      35.906  29.849  28.216  1.00  0.00     0.039 A 
ATOM     27  C   UNL A   1      36.225  29.415  29.506  1.00  0.00     0.014 A 
ATOM     28  C   UNL A   1      36.922  30.057  27.281  1.00  0.00     0.014 A 
ATOM     29  C   UNL A   1      37.554  29.144  29.842  1.00  0.00     0.010 A 
ATOM     30  C   UNL A   1      38.237  29.718  27.592  1.00  0.00     0.010 A 
ATOM     31  C   UNL A   1      38.568  29.266  28.880  1.00  0.00    -0.014 A 
BRANCH  31  32
ATOM     32  C   UNL A   1      39.978  28.930  29.202  1.00  0.00     0.031 A 
ATOM     33  C   UNL A   1      40.841  29.911  29.946  1.00  0.00     0.074 A 
ATOM     34  C   UNL A   1      40.498  27.766  28.765  1.00  0.00     0.049 A 
ATOM     35  N   UNL A   1      42.112  29.830  30.253  1.00  0.00    -0.248 NA
ATOM     36  C   UNL A   1      40.200  31.162  30.378  1.00  0.00     0.031 C 
ATOM     37  C   UNL A   1      39.776  26.757  27.989  1.00  0.00     0.029 A 
ATOM     38  N   UNL A   1      41.761  27.244  28.895  1.00  0.00    -0.354 N 
ATOM     39  C   UNL A   1      42.424  31.023  30.891  1.00  0.00     0.074 A 
ATOM     40  C   UNL A   1      41.223  31.831  30.890  1.00  0.00     0.031 C 
ATOM     41  C   UNL A   1      40.601  25.733  27.724  1.00  0.00     0.029 A 
ATOM     42  C   UNL A   1      41.920  26.028  28.276  1.00  0.00     0.049 A 
ATOM     43  H   UNL A   1      42.484  27.698  29.386  1.00  0.00     0.167 HD
ATOM     44  C   UNL A   1      43.601  31.402  31.445  1.00  0.00     0.037 A 
ATOM     45  C   UNL A   1      43.009  25.246  28.155  1.00  0.00     0.037 A 
ATOM     46  C   UNL A   1      44.783  30.580  31.473  1.00  0.00     0.049 A 
ATOM     47  C   UNL A   1      44.300  25.685  28.792  1.00  0.00     0.074 A 
ATOM     48  C   UNL A   1      45.999  30.840  32.080  1.00  0.00     0.029 A 
ATOM     49  N   UNL A   1      44.896  29.339  30.864  1.00  0.00    -0.354 N 
ATOM     50  N   UNL A   1      44.561  26.780  29.465  1.00  0.00    -0.248 NA
ATOM     51  C   UNL A   1      45.447  24.776  28.661  1.00  0.00     0.031 C 
ATOM     52  C   UNL A   1      46.865  29.779  31.793  1.00  0.00     0.029 A 
ATOM     53  C   UNL A   1      46.171  28.833  31.057  1.00  0.00     0.049 A 
ATOM     54  H   UNL A   1      44.177  28.885  30.368  1.00  0.00     0.167 HD
ATOM     55  C   UNL A   1      45.888  26.679  29.859  1.00  0.00     0.074 A 
ATOM     56  C   UNL A   1      46.375  25.408  29.365  1.00  0.00     0.031 C 
ATOM     57  C   UNL A   1      46.637  27.562  30.565  1.00  0.00     0.037 A 
BRANCH  44  58
ATOM     58  C   UNL A   1      43.675  32.767  32.069  1.00  0.00     0.064 A 
ATOM     59  C   UNL A   1      44.032  33.901  31.325  1.00  0.00     0.173 A 
ATOM     60  C   UNL A   1      43.334  32.949  33.418  1.00  0.00     0.173 A 
ATOM     61  F   UNL A   1      44.376  33.782  30.033  1.00  0.00    -0.203 F 
ATOM     62  C   UNL A   1      44.071  35.163  31.914  1.00  0.00     0.198 A 
ATOM     63  C   UNL A   1      43.344  34.216  33.996  1.00  0.00     0.198 A 
ATOM     64  F   UNL A   1      42.978  31.900  34.175  1.00  0.00    -0.203 F 
ATOM     65  F   UNL A   1      44.459  36.225  31.194  1.00  0.00    -0.200 F 
ATOM     66  C   UNL A   1      43.719  35.320  33.246  1.00  0.00     0.200 A 
ATOM     67  F   UNL A   1      42.989  34.369  35.279  1.00  0.00    -0.200 F 
ATOM     68  F   UNL A   1      43.745  36.536  33.808  1.00  0.00    -0.200 F 
ENDBRANCH  44  58
BRANCH  45  69
ATOM     69  C   UNL A   1      42.923  23.961  27.413  1.00  0.00     0.064 A 
ATOM     70  C   UNL A   1      42.534  22.779  28.057  1.00  0.00     0.173 A 
ATOM     71  C   UNL A   1      43.237  23.885  26.048  1.00  0.00     0.173 A 
ATOM     72  F   UNL A   1      42.243  22.795  29.367  1.00  0.00    -0.203 F 
ATOM     73  C   UNL A   1      42.486  21.566  27.372  1.00  0.00     0.198 A 
ATOM     74  C   UNL A   1      43.158  22.679  25.356  1.00  0.00     0.198 A 
ATOM     75  F   UNL A   1      43.609  24.989  25.382  1.00  0.00    -0.203 F 
ATOM     76  F   UNL A   1      42.159  20.443  28.026  1.00  0.00    -0.200 F 
ATOM     77  C   UNL A   1      42.792  21.518  26.021  1.00  0.00     0.200 A 
ATOM     78  F   UNL A   1      43.439  22.640  24.047  1.00  0.00    -0.200 F 
ATOM     79  F   UNL A   1      42.743  20.353  25.362  1.00  0.00    -0.200 F 
ENDBRANCH  45  69
BRANCH  57  80
ATOM     80  C   UNL A   1      48.051  27.167  30.878  1.00  0.00     0.064 A 
ATOM     81  C   UNL A   1      48.365  26.359  31.981  1.00  0.00     0.173 A 
ATOM     82  C   UNL A   1      49.102  27.572  30.040  1.00  0.00     0.173 A 
ATOM     83  F   UNL A   1      47.399  25.959  32.821  1.00  0.00    -0.203 F 
ATOM     84  C   UNL A   1      49.681  25.992  32.247  1.00  0.00     0.198 A 
ATOM     85  C   UNL A   1      50.413  27.176  30.292  1.00  0.00     0.198 A 
ATOM     86  F   UNL A   1      48.855  28.339  28.968  1.00  0.00    -0.203 F 
ATOM     87  F   UNL A   1      49.964  25.261  33.335  1.00  0.00    -0.200 F 
ATOM     88  C   UNL A   1      50.702  26.394  31.399  1.00  0.00     0.200 A 
ATOM     89  F   UNL A   1      51.395  27.552  29.462  1.00  0.00    -0.200 F 
ATOM     90  F   UNL A   1      51.967  26.033  31.653  1.00  0.00    -0.200 F 
ENDBRANCH  57  80
ENDBRANCH  31  32
ENDBRANCH  23  26
ENDBRANCH  21  22
ENDBRANCH   1  21
TORSDOF 11
ENDMDL
MODEL 2
REMARK VINA RESULT:     -11.2      0.637      2.158
REMARK SMILES Cc1cscc1-c1ncc(C(=O)NCCCNC(=O)c2ccc(-c3c4nc(c(-c5c(F)c(F)c(F)c(F)c5F)c5ccc([nH]5)c(-c5c(F)c(F)c(F)c(F)c5F)c5nc(c(-c6c(F)c(F)c(F)c(F)c6F)c6ccc3[nH]6)C=C5)C=C4)cc2)c(=O)[nH]1
REMARK SMILES IDX 15 1 14 2 13 3 11 4 12 5 10 7 7 8 8 9 85 10 9 11 83 12 84 14
REMARK SMILES IDX 6 15 1 16 2 17 3 18 4 19 5 20 16 21 17 22 18 23 19 25 20 26
REMARK SMILES IDX 21 27 82 28 22 29 81 30 23 31 24 32 25 33 75 34 26 35 80 36
REMARK SMILES IDX 74 37 76 38 27 39 79 40 73 41 72 42 28 44 60 45 40 46 59 47
REMARK SMILES IDX 41 48 44 49 58 50 77 51 42 52 43 53 57 55 78 56 45 57 29 58
REMARK SMILES IDX 30 59 38 60 31 61 32 62 36 63 39 64 33 65 34 66 37 67 35 68
REMARK SMILES IDX 61 69 62 70 70 71 63 72 64 73 68 74 71 75 65 76 66 77 69 78
REMARK SMILES IDX 67 79 46 80 47 81 55 82 48 83 49 84 53 85 56 86 50 87 51 88
REMARK SMILES IDX 54 89 52 90
REMARK H PARENT 13 6 85 13 17 24 76 43 44 54
REMARK Flexibility Score: inf
ROOT
ATOM      1  C   UNL A   1      33.447  33.998  27.978  1.00  0.00     0.042 C 
ENDROOT
BRANCH   1   2
ATOM      2  C   UNL A   1      34.019  35.244  28.655  1.00  0.00     0.118 C 
BRANCH   2   3
ATOM      3  N   UNL A   1      33.058  35.830  29.572  1.00  0.00    -0.352 N 
ATOM      4  C   UNL A   1      32.971  35.830  30.928  1.00  0.00     0.258 C 
ATOM      5  O   UNL A   1      32.006  36.433  31.411  1.00  0.00    -0.269 OA
ATOM      6  H   UNL A   1      32.331  36.322  29.126  1.00  0.00     0.163 HD
BRANCH   4   7
ATOM      7  C   UNL A   1      33.993  35.220  31.816  1.00  0.00     0.123 A 
ATOM      8  C   UNL A   1      35.969  34.488  33.572  1.00  0.00     0.141 A 
ATOM      9  N   UNL A   1      35.436  35.654  33.720  1.00  0.00    -0.237 NA
ATOM     10  N   UNL A   1      35.593  33.602  32.611  1.00  0.00    -0.306 N 
ATOM     11  C   UNL A   1      34.480  36.007  32.796  1.00  0.00     0.133 A 
ATOM     12  C   UNL A   1      34.511  33.837  31.815  1.00  0.00     0.264 A 
ATOM     13  H   UNL A   1      36.111  32.774  32.488  1.00  0.00     0.171 HD
ATOM     14  O   UNL A   1      34.000  32.905  31.206  1.00  0.00    -0.269 OA
BRANCH   8  15
ATOM     15  C   UNL A   1      36.987  34.028  34.491  1.00  0.00     0.031 A 
ATOM     16  C   UNL A   1      39.039  34.556  32.989  1.00  0.00     0.046 C 
ATOM     17  C   UNL A   1      38.408  34.054  34.248  1.00  0.00    -0.029 A 
ATOM     18  C   UNL A   1      39.109  33.576  35.340  1.00  0.00     0.069 A 
ATOM     19  S   UNL A   1      38.091  33.103  36.626  1.00  0.00    -0.151 S 
ATOM     20  C   UNL A   1      36.692  33.532  35.747  1.00  0.00     0.077 A 
ENDBRANCH   8  15
ENDBRANCH   4   7
ENDBRANCH   2   3
ENDBRANCH   1   2
BRANCH   1  21
ATOM     21  C   UNL A   1      34.389  32.799  28.009  1.00  0.00     0.118 C 
BRANCH  21  22
ATOM     22  N   UNL A   1      33.688  31.545  27.786  1.00  0.00    -0.352 N 
ATOM     23  C   UNL A   1      34.172  30.262  27.696  1.00  0.00     0.251 C 
ATOM     24  H   UNL A   1      32.712  31.627  27.685  1.00  0.00     0.163 HD
ATOM     25  O   UNL A   1      33.441  29.371  27.279  1.00  0.00    -0.269 OA
BRANCH  23  26
ATOM     26  C   UNL A   1      35.562  29.946  28.089  1.00  0.00     0.039 A 
ATOM     27  C   UNL A   1      36.566  30.030  27.120  1.00  0.00     0.014 A 
ATOM     28  C   UNL A   1      35.876  29.513  29.380  1.00  0.00     0.014 A 
ATOM     29  C   UNL A   1      37.889  29.728  27.456  1.00  0.00     0.010 A 
ATOM     30  C   UNL A   1      37.204  29.282  29.734  1.00  0.00     0.010 A 
ATOM     31  C   UNL A   1      38.222  29.379  28.774  1.00  0.00    -0.014 A 
BRANCH  31  32
ATOM     32  C   UNL A   1      39.630  29.107  29.163  1.00  0.00     0.031 A 
ATOM     33  C   UNL A   1      40.412  30.128  29.941  1.00  0.00     0.074 A 
ATOM     34  C   UNL A   1      40.221  27.967  28.758  1.00  0.00     0.049 A 
ATOM     35  N   UNL A   1      41.669  30.106  30.308  1.00  0.00    -0.248 NA
ATOM     36  C   UNL A   1      39.696  31.351  30.335  1.00  0.00     0.031 C 
ATOM     37  C   UNL A   1      39.582  26.923  27.954  1.00  0.00     0.029 A 
ATOM     38  N   UNL A   1      41.499  27.502  28.949  1.00  0.00    -0.354 N 
ATOM     39  C   UNL A   1      41.898  31.314  30.953  1.00  0.00     0.074 A 
ATOM     40  C   UNL A   1      40.664  32.067  30.891  1.00  0.00     0.031 C 
ATOM     41  C   UNL A   1      40.463  25.936  27.734  1.00  0.00     0.029 A 
ATOM     42  C   UNL A   1      41.740  26.292  28.346  1.00  0.00     0.049 A 
ATOM     43  H   UNL A   1      42.177  27.989  29.471  1.00  0.00     0.167 HD
ATOM     44  C   UNL A   1      43.029  31.748  31.559  1.00  0.00     0.037 A 
ATOM     45  C   UNL A   1      42.868  25.559  28.280  1.00  0.00     0.037 A 
ATOM     46  C   UNL A   1      44.244  30.979  31.647  1.00  0.00     0.049 A 
ATOM     47  C   UNL A   1      44.106  26.058  28.974  1.00  0.00     0.074 A 
ATOM     48  C   UNL A   1      45.418  31.295  32.308  1.00  0.00     0.029 A 
ATOM     49  N   UNL A   1      44.441  29.742  31.051  1.00  0.00    -0.354 N 
ATOM     50  N   UNL A   1      44.287  27.166  29.652  1.00  0.00    -0.248 NA
ATOM     51  C   UNL A   1      45.298  25.201  28.902  1.00  0.00     0.031 C 
ATOM     52  C   UNL A   1      46.343  30.274  32.068  1.00  0.00     0.029 A 
ATOM     53  C   UNL A   1      45.727  29.294  31.306  1.00  0.00     0.049 A 
ATOM     54  H   UNL A   1      43.767  29.255  30.524  1.00  0.00     0.167 HD
ATOM     55  C   UNL A   1      45.597  27.126  30.108  1.00  0.00     0.074 A 
ATOM     56  C   UNL A   1      46.162  25.876  29.645  1.00  0.00     0.031 C 
ATOM     57  C   UNL A   1      46.272  28.044  30.844  1.00  0.00     0.037 A 
BRANCH  44  58
ATOM     58  C   UNL A   1      43.013  33.117  32.178  1.00  0.00     0.064 A 
ATOM     59  C   UNL A   1      42.626  33.320  33.511  1.00  0.00     0.173 A 
ATOM     60  C   UNL A   1      43.441  34.232  31.442  1.00  0.00     0.173 A 
ATOM     61  F   UNL A   1      42.201  32.289  34.256  1.00  0.00    -0.203 F 
ATOM     62  C   UNL A   1      42.642  34.593  34.076  1.00  0.00     0.198 A 
ATOM     63  C   UNL A   1      43.484  35.499  32.020  1.00  0.00     0.198 A 
ATOM     64  F   UNL A   1      43.829  34.094  30.165  1.00  0.00    -0.203 F 
ATOM     65  F   UNL A   1      42.224  34.770  35.337  1.00  0.00    -0.200 F 
ATOM     66  C   UNL A   1      43.079  35.679  33.332  1.00  0.00     0.200 A 
ATOM     67  F   UNL A   1      43.922  36.545  31.305  1.00  0.00    -0.200 F 
ATOM     68  F   UNL A   1      43.105  36.901  33.882  1.00  0.00    -0.200 F 
ENDBRANCH  44  58
BRANCH  45  69
ATOM     69  C   UNL A   1      42.874  24.269  27.542  1.00  0.00     0.064 A 
ATOM     70  C   UNL A   1      43.176  24.221  26.174  1.00  0.00     0.173 A 
ATOM     71  C   UNL A   1      42.569  23.060  28.184  1.00  0.00     0.173 A 
ATOM     72  F   UNL A   1      43.455  25.353  25.510  1.00  0.00    -0.203 F 
ATOM     73  C   UNL A   1      43.149  23.018  25.472  1.00  0.00     0.198 A 
ATOM     74  C   UNL A   1      42.573  21.853  27.489  1.00  0.00     0.198 A 
ATOM     75  F   UNL A   1      42.278  23.050  29.494  1.00  0.00    -0.203 F 
ATOM     76  F   UNL A   1      43.392  23.008  24.154  1.00  0.00    -0.200 F 
ATOM     77  C   UNL A   1      42.853  21.834  26.131  1.00  0.00     0.200 A 
ATOM     78  F   UNL A   1      42.301  20.710  28.132  1.00  0.00    -0.200 F 
ATOM     79  F   UNL A   1      42.829  20.677  25.456  1.00  0.00    -0.200 F 
ENDBRANCH  45  69
BRANCH  57  80
ATOM     80  C   UNL A   1      47.686  27.714  31.224  1.00  0.00     0.064 A 
ATOM     81  C   UNL A   1      48.772  28.070  30.409  1.00  0.00     0.173 A 
ATOM     82  C   UNL A   1      47.962  27.069  32.440  1.00  0.00     0.173 A 
ATOM     83  F   UNL A   1      48.561  28.674  29.230  1.00  0.00    -0.203 F 
ATOM     84  C   UNL A   1      50.077  27.767  30.785  1.00  0.00     0.198 A 
ATOM     85  C   UNL A   1      49.271  26.798  32.827  1.00  0.00     0.198 A 
ATOM     86  F   UNL A   1      46.960  26.715  33.259  1.00  0.00    -0.203 F 
ATOM     87  F   UNL A   1      51.095  28.071  29.967  1.00  0.00    -0.200 F 
ATOM     88  C   UNL A   1      50.326  27.139  31.996  1.00  0.00     0.200 A 
ATOM     89  F   UNL A   1      49.510  26.206  34.005  1.00  0.00    -0.200 F 
ATOM     90  F   UNL A   1      51.585  26.857  32.359  1.00  0.00    -0.200 F 
ENDBRANCH  57  80
ENDBRANCH  31  32
ENDBRANCH  23  26
ENDBRANCH  21  22
ENDBRANCH   1  21
TORSDOF 11
ENDMDL
MODEL 3
REMARK VINA RESULT:     -11.1      4.093     11.224
REMARK SMILES Cc1cscc1-c1ncc(C(=O)NCCCNC(=O)c2ccc(-c3c4nc(c(-c5c(F)c(F)c(F)c(F)c5F)c5ccc([nH]5)c(-c5c(F)c(F)c(F)c(F)c5F)c5nc(c(-c6c(F)c(F)c(F)c(F)c6F)c6ccc3[nH]6)C=C5)C=C4)cc2)c(=O)[nH]1
REMARK SMILES IDX 15 1 14 2 13 3 11 4 12 5 10 7 7 8 8 9 85 10 9 11 83 12 84 14
REMARK SMILES IDX 6 15 1 16 2 17 3 18 4 19 5 20 16 21 17 22 18 23 19 25 20 26
REMARK SMILES IDX 21 27 82 28 22 29 81 30 23 31 24 32 25 33 75 34 26 35 80 36
REMARK SMILES IDX 74 37 76 38 27 39 79 40 73 41 72 42 28 44 60 45 40 46 59 47
REMARK SMILES IDX 41 48 44 49 58 50 77 51 42 52 43 53 57 55 78 56 45 57 29 58
REMARK SMILES IDX 30 59 38 60 31 61 32 62 36 63 39 64 33 65 34 66 37 67 35 68
REMARK SMILES IDX 61 69 62 70 70 71 63 72 64 73 68 74 71 75 65 76 66 77 69 78
REMARK SMILES IDX 67 79 46 80 47 81 55 82 48 83 49 84 53 85 56 86 50 87 51 88
REMARK SMILES IDX 54 89 52 90
REMARK H PARENT 13 6 85 13 17 24 76 43 44 54
REMARK Flexibility Score: inf
ROOT
ATOM      1  C   UNL A   1      40.874  19.998  27.109  1.00  0.00     0.042 C 
ENDROOT
BRANCH   1   2
ATOM      2  C   UNL A   1      42.364  19.743  27.337  1.00  0.00     0.118 C 
BRANCH   2   3
ATOM      3  N   UNL A   1      43.012  19.291  26.118  1.00  0.00    -0.352 N 
ATOM      4  C   UNL A   1      43.825  19.918  25.228  1.00  0.00     0.258 C 
ATOM      5  O   UNL A   1      44.213  19.237  24.273  1.00  0.00    -0.269 OA
ATOM      6  H   UNL A   1      42.827  18.351  25.895  1.00  0.00     0.163 HD
BRANCH   4   7
ATOM      7  C   UNL A   1      44.306  21.313  25.397  1.00  0.00     0.123 A 
ATOM      8  C   UNL A   1      45.553  23.715  25.841  1.00  0.00     0.141 A 
ATOM      9  N   UNL A   1      46.296  22.669  25.702  1.00  0.00    -0.237 NA
ATOM     10  N   UNL A   1      44.195  23.692  25.763  1.00  0.00    -0.306 N 
ATOM     11  C   UNL A   1      45.637  21.475  25.524  1.00  0.00     0.133 A 
ATOM     12  C   UNL A   1      43.526  22.567  25.383  1.00  0.00     0.264 A 
ATOM     13  H   UNL A   1      43.685  24.505  25.984  1.00  0.00     0.171 HD
ATOM     14  O   UNL A   1      42.365  22.658  25.001  1.00  0.00    -0.269 OA
BRANCH   8  15
ATOM     15  C   UNL A   1      46.152  25.017  26.037  1.00  0.00     0.031 A 
ATOM     16  C   UNL A   1      46.501  24.828  28.604  1.00  0.00     0.046 C 
ATOM     17  C   UNL A   1      46.602  25.551  27.299  1.00  0.00    -0.029 A 
ATOM     18  C   UNL A   1      47.160  26.806  27.138  1.00  0.00     0.069 A 
ATOM     19  S   UNL A   1      47.142  27.337  25.516  1.00  0.00    -0.151 S 
ATOM     20  C   UNL A   1      46.391  25.894  24.997  1.00  0.00     0.077 A 
ENDBRANCH   8  15
ENDBRANCH   4   7
ENDBRANCH   2   3
ENDBRANCH   1   2
BRANCH   1  21
ATOM     21  C   UNL A   1      40.482  21.468  27.217  1.00  0.00     0.118 C 
BRANCH  21  22
ATOM     22  N   UNL A   1      39.489  21.845  26.224  1.00  0.00    -0.352 N 
ATOM     23  C   UNL A   1      38.819  23.031  26.045  1.00  0.00     0.251 C 
ATOM     24  H   UNL A   1      39.260  21.139  25.577  1.00  0.00     0.163 HD
ATOM     25  O   UNL A   1      37.856  23.071  25.289  1.00  0.00    -0.269 OA
BRANCH  23  26
ATOM     26  C   UNL A   1      39.243  24.257  26.758  1.00  0.00     0.039 A 
ATOM     27  C   UNL A   1      38.809  24.448  28.073  1.00  0.00     0.014 A 
ATOM     28  C   UNL A   1      40.009  25.240  26.128  1.00  0.00     0.014 A 
ATOM     29  C   UNL A   1      39.182  25.600  28.771  1.00  0.00     0.010 A 
ATOM     30  C   UNL A   1      40.441  26.353  26.846  1.00  0.00     0.010 A 
ATOM     31  C   UNL A   1      40.025  26.549  28.172  1.00  0.00    -0.014 A 
BRANCH  31  32
ATOM     32  C   UNL A   1      40.477  27.752  28.916  1.00  0.00     0.031 A 
ATOM     33  C   UNL A   1      41.864  27.810  29.494  1.00  0.00     0.074 A 
ATOM     34  C   UNL A   1      39.614  28.765  29.125  1.00  0.00     0.049 A 
ATOM     35  N   UNL A   1      42.415  28.739  30.235  1.00  0.00    -0.248 NA
ATOM     36  C   UNL A   1      42.740  26.659  29.230  1.00  0.00     0.031 C 
ATOM     37  C   UNL A   1      38.227  28.802  28.659  1.00  0.00     0.029 A 
ATOM     38  N   UNL A   1      39.769  29.951  29.800  1.00  0.00    -0.354 N 
ATOM     39  C   UNL A   1      43.687  28.275  30.541  1.00  0.00     0.074 A 
ATOM     40  C   UNL A   1      43.814  26.963  29.944  1.00  0.00     0.031 C 
ATOM     41  C   UNL A   1      37.663  29.956  29.049  1.00  0.00     0.029 A 
ATOM     42  C   UNL A   1      38.633  30.722  29.824  1.00  0.00     0.049 A 
ATOM     43  H   UNL A   1      40.615  30.222  30.226  1.00  0.00     0.167 HD
ATOM     44  C   UNL A   1      44.667  28.896  31.241  1.00  0.00     0.037 A 
ATOM     45  C   UNL A   1      38.396  31.908  30.417  1.00  0.00     0.037 A 
ATOM     46  C   UNL A   1      44.546  30.216  31.804  1.00  0.00     0.049 A 
ATOM     47  C   UNL A   1      39.507  32.581  31.176  1.00  0.00     0.074 A 
ATOM     48  C   UNL A   1      45.507  30.965  32.460  1.00  0.00     0.029 A 
ATOM     49  N   UNL A   1      43.390  30.982  31.780  1.00  0.00    -0.354 N 
ATOM     50  N   UNL A   1      40.734  32.169  31.389  1.00  0.00    -0.248 NA
ATOM     51  C   UNL A   1      39.204  33.891  31.772  1.00  0.00     0.031 C 
ATOM     52  C   UNL A   1      44.918  32.161  32.879  1.00  0.00     0.029 A 
ATOM     53  C   UNL A   1      43.605  32.184  32.435  1.00  0.00     0.049 A 
ATOM     54  H   UNL A   1      42.541  30.711  31.361  1.00  0.00     0.167 HD
ATOM     55  C   UNL A   1      41.355  33.176  32.116  1.00  0.00     0.074 A 
ATOM     56  C   UNL A   1      40.375  34.227  32.294  1.00  0.00     0.031 C 
ATOM     57  C   UNL A   1      42.622  33.224  32.595  1.00  0.00     0.037 A 
BRANCH  44  58
ATOM     58  C   UNL A   1      45.961  28.159  31.441  1.00  0.00     0.064 A 
ATOM     59  C   UNL A   1      46.151  27.279  32.517  1.00  0.00     0.173 A 
ATOM     60  C   UNL A   1      47.006  28.297  30.514  1.00  0.00     0.173 A 
ATOM     61  F   UNL A   1      45.188  27.116  33.436  1.00  0.00    -0.203 F 
ATOM     62  C   UNL A   1      47.349  26.584  32.672  1.00  0.00     0.198 A 
ATOM     63  C   UNL A   1      48.190  27.578  30.656  1.00  0.00     0.198 A 
ATOM     64  F   UNL A   1      46.874  29.120  29.463  1.00  0.00    -0.203 F 
ATOM     65  F   UNL A   1      47.524  25.784  33.732  1.00  0.00    -0.200 F 
ATOM     66  C   UNL A   1      48.363  26.728  31.736  1.00  0.00     0.200 A 
ATOM     67  F   UNL A   1      49.163  27.706  29.743  1.00  0.00    -0.200 F 
ATOM     68  F   UNL A   1      49.510  26.050  31.881  1.00  0.00    -0.200 F 
ENDBRANCH  44  58
BRANCH  45  69
ATOM     69  C   UNL A   1      37.056  32.541  30.304  1.00  0.00     0.064 A 
ATOM     70  C   UNL A   1      36.089  32.368  31.304  1.00  0.00     0.173 A 
ATOM     71  C   UNL A   1      36.710  33.322  29.192  1.00  0.00     0.173 A 
ATOM     72  F   UNL A   1      36.364  31.613  32.378  1.00  0.00    -0.203 F 
ATOM     73  C   UNL A   1      34.820  32.931  31.184  1.00  0.00     0.198 A 
ATOM     74  C   UNL A   1      35.452  33.911  29.088  1.00  0.00     0.198 A 
ATOM     75  F   UNL A   1      37.601  33.524  28.210  1.00  0.00    -0.203 F 
ATOM     76  F   UNL A   1      33.898  32.707  32.131  1.00  0.00    -0.200 F 
ATOM     77  C   UNL A   1      34.504  33.707  30.079  1.00  0.00     0.200 A 
ATOM     78  F   UNL A   1      35.156  34.673  28.026  1.00  0.00    -0.200 F 
ATOM     79  F   UNL A   1      33.285  34.250  29.966  1.00  0.00    -0.200 F 
ENDBRANCH  45  69
BRANCH  57  80
ATOM     80  C   UNL A   1      43.034  34.469  33.326  1.00  0.00     0.064 A 
ATOM     81  C   UNL A   1      43.481  35.610  32.644  1.00  0.00     0.173 A 
ATOM     82  C   UNL A   1      42.943  34.533  34.725  1.00  0.00     0.173 A 
ATOM     83  F   UNL A   1      43.601  35.595  31.308  1.00  0.00    -0.203 F 
ATOM     84  C   UNL A   1      43.846  36.760  33.338  1.00  0.00     0.198 A 
ATOM     85  C   UNL A   1      43.279  35.695  35.413  1.00  0.00     0.198 A 
ATOM     86  F   UNL A   1      42.514  33.471  35.424  1.00  0.00    -0.203 F 
ATOM     87  F   UNL A   1      44.319  37.822  32.670  1.00  0.00    -0.200 F 
ATOM     88  C   UNL A   1      43.737  36.804  34.720  1.00  0.00     0.200 A 
ATOM     89  F   UNL A   1      43.157  35.741  36.747  1.00  0.00    -0.200 F 
ATOM     90  F   UNL A   1      44.082  37.916  35.385  1.00  0.00    -0.200 F 
ENDBRANCH  57  80
ENDBRANCH  31  32
ENDBRANCH  23  26
ENDBRANCH  21  22
ENDBRANCH   1  21
TORSDOF 11
ENDMDL
