MODEL 1
REMARK VINA RESULT:     -12.9      0.000      0.000
REMARK SMILES C[C@@](CC(=O)N[C@@H]1CCS(=O)(=O)C1)(C(=O)NCCCNC(=O)c1ccc(-c2c3nc(c(-c4c(F)c(F)c(F)c(F)c4F)c4ccc([nH]4)c(-c4c(F)c(F)c(F)c(F)c4F)c4nc(c(-c5c(F)c(F)c(F)c(F)c5F)c5ccc2[nH]5)C=C4)C=C3)cc1)c1ccccc1
REMARK SMILES IDX 17 1 16 2 14 3 15 4 2 6 1 7 3 8 4 9 5 10 6 11 7 13 8 14
REMARK SMILES IDX 13 15 9 16 10 17 11 18 12 19 86 20 87 21 91 22 88 23 90 24
REMARK SMILES IDX 89 25 18 26 19 27 20 28 21 29 22 31 23 32 24 33 85 34 25 35
REMARK SMILES IDX 84 36 26 37 27 38 28 39 78 40 29 41 83 42 77 43 79 44 30 45
REMARK SMILES IDX 82 46 76 47 75 48 31 50 63 51 43 52 62 53 44 54 47 55 61 56
REMARK SMILES IDX 80 57 45 58 46 59 60 61 81 62 48 63 32 64 33 65 41 66 34 67
REMARK SMILES IDX 35 68 39 69 42 70 36 71 37 72 40 73 38 74 64 75 65 76 73 77
REMARK SMILES IDX 66 78 67 79 71 80 74 81 68 82 69 83 72 84 70 85 49 86 50 87
REMARK SMILES IDX 58 88 51 89 52 90 56 91 59 92 53 93 54 94 57 95 55 96
REMARK H PARENT 16 5 6 12 20 30 79 49 47 60
REMARK Flexibility Score: inf
ROOT
ATOM      1  C   UNL A   1      36.885  20.936  24.671  1.00  0.00     0.117 C 
ENDROOT
BRANCH   1   2
ATOM      2  N   UNL A   1      36.065  21.393  25.768  1.00  0.00    -0.355 N 
ATOM      3  C   UNL A   1      34.717  21.419  25.977  1.00  0.00     0.230 C 
ATOM      4  O   UNL A   1      34.418  21.453  27.179  1.00  0.00    -0.274 OA
ATOM      5  H   UNL A   1      36.585  21.762  26.519  1.00  0.00     0.163 HD
BRANCH   3   6
ATOM      6  C   UNL A   1      33.623  21.599  24.850  1.00  0.00     0.080 C 
ATOM      7  C   UNL A   1      32.391  22.078  25.588  1.00  0.00     0.027 C 
BRANCH   6   8
ATOM      8  C   UNL A   1      33.907  22.575  23.665  1.00  0.00     0.121 C 
BRANCH   8   9
ATOM      9  C   UNL A   1      34.507  23.975  23.840  1.00  0.00     0.221 C 
ATOM     10  O   UNL A   1      35.634  24.068  24.354  1.00  0.00    -0.275 OA
ATOM     11  N   UNL A   1      33.956  25.178  23.506  1.00  0.00    -0.352 N 
ATOM     12  H   UNL A   1      34.198  25.899  24.131  1.00  0.00     0.163 HD
BRANCH  11  13
ATOM     13  C   UNL A   1      33.076  25.633  22.411  1.00  0.00     0.098 C 
ATOM     14  C   UNL A   1      33.464  27.077  22.004  1.00  0.00     0.042 C 
ATOM     15  C   UNL A   1      31.564  25.692  22.704  1.00  0.00     0.161 C 
ATOM     16  C   UNL A   1      32.721  28.043  22.925  1.00  0.00     0.139 C 
ATOM     17  S   UNL A   1      31.099  27.356  23.077  1.00  0.00     0.152 S 
ATOM     18  O   UNL A   1      30.690  27.423  24.469  1.00  0.00    -0.229 OA
ATOM     19  O   UNL A   1      30.272  27.847  22.001  1.00  0.00    -0.229 OA
ENDBRANCH  11  13
ENDBRANCH   8   9
ENDBRANCH   6   8
BRANCH   6  20
ATOM     20  C   UNL A   1      33.321  20.179  24.243  1.00  0.00    -0.032 A 
ATOM     21  C   UNL A   1      34.025  19.019  24.634  1.00  0.00     0.005 A 
ATOM     22  C   UNL A   1      32.382  20.036  23.204  1.00  0.00     0.005 A 
ATOM     23  C   UNL A   1      33.812  17.786  24.013  1.00  0.00     0.000 A 
ATOM     24  C   UNL A   1      32.168  18.798  22.584  1.00  0.00     0.000 A 
ATOM     25  C   UNL A   1      32.886  17.675  22.987  1.00  0.00     0.000 A 
ENDBRANCH   6  20
ENDBRANCH   3   6
ENDBRANCH   1   2
BRANCH   1  26
ATOM     26  C   UNL A   1      37.836  19.793  25.002  1.00  0.00     0.042 C 
BRANCH  26  27
ATOM     27  C   UNL A   1      39.024  20.220  25.848  1.00  0.00     0.118 C 
BRANCH  27  28
ATOM     28  N   UNL A   1      40.069  19.204  25.911  1.00  0.00    -0.352 N 
ATOM     29  C   UNL A   1      41.422  19.323  26.106  1.00  0.00     0.251 C 
ATOM     30  H   UNL A   1      39.750  18.279  25.796  1.00  0.00     0.163 HD
ATOM     31  O   UNL A   1      42.138  18.333  25.991  1.00  0.00    -0.269 OA
BRANCH  29  32
ATOM     32  C   UNL A   1      42.027  20.635  26.419  1.00  0.00     0.039 A 
ATOM     33  C   UNL A   1      42.414  21.467  25.363  1.00  0.00     0.014 A 
ATOM     34  C   UNL A   1      42.224  21.048  27.736  1.00  0.00     0.014 A 
ATOM     35  C   UNL A   1      42.930  22.736  25.631  1.00  0.00     0.010 A 
ATOM     36  C   UNL A   1      42.630  22.348  28.001  1.00  0.00     0.010 A 
ATOM     37  C   UNL A   1      43.003  23.201  26.953  1.00  0.00    -0.014 A 
BRANCH  37  38
ATOM     38  C   UNL A   1      43.503  24.560  27.282  1.00  0.00     0.031 A 
ATOM     39  C   UNL A   1      42.554  25.581  27.848  1.00  0.00     0.074 A 
ATOM     40  C   UNL A   1      44.773  24.899  26.990  1.00  0.00     0.049 A 
ATOM     41  N   UNL A   1      42.741  26.856  28.069  1.00  0.00    -0.248 NA
ATOM     42  C   UNL A   1      41.198  25.109  28.174  1.00  0.00     0.031 C 
ATOM     43  C   UNL A   1      45.774  24.010  26.400  1.00  0.00     0.029 A 
ATOM     44  N   UNL A   1      45.434  26.094  27.132  1.00  0.00    -0.354 N 
ATOM     45  C   UNL A   1      41.524  27.341  28.530  1.00  0.00     0.074 A 
ATOM     46  C   UNL A   1      40.589  26.239  28.498  1.00  0.00     0.031 C 
ATOM     47  C   UNL A   1      46.926  24.682  26.250  1.00  0.00     0.029 A 
ATOM     48  C   UNL A   1      46.730  26.063  26.680  1.00  0.00     0.049 A 
ATOM     49  H   UNL A   1      45.017  26.897  27.522  1.00  0.00     0.167 HD
ATOM     50  C   UNL A   1      41.220  28.587  28.962  1.00  0.00     0.037 A 
ATOM     51  C   UNL A   1      47.649  27.045  26.604  1.00  0.00     0.037 A 
ATOM     52  C   UNL A   1      42.166  29.671  29.016  1.00  0.00     0.049 A 
ATOM     53  C   UNL A   1      47.281  28.426  27.077  1.00  0.00     0.074 A 
ATOM     54  C   UNL A   1      41.978  30.956  29.490  1.00  0.00     0.029 A 
ATOM     55  N   UNL A   1      43.479  29.592  28.574  1.00  0.00    -0.354 N 
ATOM     56  N   UNL A   1      46.145  28.861  27.568  1.00  0.00    -0.248 NA
ATOM     57  C   UNL A   1      48.327  29.455  26.989  1.00  0.00     0.031 C 
ATOM     58  C   UNL A   1      43.160  31.673  29.284  1.00  0.00     0.029 A 
ATOM     59  C   UNL A   1      44.107  30.815  28.746  1.00  0.00     0.049 A 
ATOM     60  H   UNL A   1      43.902  28.788  28.197  1.00  0.00     0.167 HD
ATOM     61  C   UNL A   1      46.350  30.198  27.882  1.00  0.00     0.074 A 
ATOM     62  C   UNL A   1      47.723  30.501  27.536  1.00  0.00     0.031 C 
ATOM     63  C   UNL A   1      45.481  31.094  28.413  1.00  0.00     0.037 A 
BRANCH  50  64
ATOM     64  C   UNL A   1      39.810  28.843  29.411  1.00  0.00     0.064 A 
ATOM     65  C   UNL A   1      39.412  28.660  30.745  1.00  0.00     0.173 A 
ATOM     66  C   UNL A   1      38.847  29.306  28.502  1.00  0.00     0.173 A 
ATOM     67  F   UNL A   1      40.289  28.209  31.656  1.00  0.00    -0.203 F 
ATOM     68  C   UNL A   1      38.098  28.895  31.143  1.00  0.00     0.198 A 
ATOM     69  C   UNL A   1      37.543  29.575  28.910  1.00  0.00     0.198 A 
ATOM     70  F   UNL A   1      39.171  29.504  27.214  1.00  0.00    -0.203 F 
ATOM     71  F   UNL A   1      37.731  28.655  32.409  1.00  0.00    -0.200 F 
ATOM     72  C   UNL A   1      37.167  29.361  30.227  1.00  0.00     0.200 A 
ATOM     73  F   UNL A   1      36.649  30.041  28.027  1.00  0.00    -0.200 F 
ATOM     74  F   UNL A   1      35.906  29.594  30.613  1.00  0.00    -0.200 F 
ENDBRANCH  50  64
BRANCH  51  75
ATOM     75  C   UNL A   1      49.008  26.755  26.077  1.00  0.00     0.064 A 
ATOM     76  C   UNL A   1      50.011  26.247  26.916  1.00  0.00     0.173 A 
ATOM     77  C   UNL A   1      49.340  26.987  24.734  1.00  0.00     0.173 A 
ATOM     78  F   UNL A   1      49.750  26.027  28.213  1.00  0.00    -0.203 F 
ATOM     79  C   UNL A   1      51.298  26.010  26.439  1.00  0.00     0.198 A 
ATOM     80  C   UNL A   1      50.619  26.717  24.251  1.00  0.00     0.198 A 
ATOM     81  F   UNL A   1      48.418  27.469  23.888  1.00  0.00    -0.203 F 
ATOM     82  F   UNL A   1      52.251  25.576  27.277  1.00  0.00    -0.200 F 
ATOM     83  C   UNL A   1      51.600  26.238  25.106  1.00  0.00     0.200 A 
ATOM     84  F   UNL A   1      50.903  26.924  22.957  1.00  0.00    -0.200 F 
ATOM     85  F   UNL A   1      52.837  26.006  24.648  1.00  0.00    -0.200 F 
ENDBRANCH  51  75
BRANCH  63  86
ATOM     86  C   UNL A   1      46.001  32.470  28.711  1.00  0.00     0.064 A 
ATOM     87  C   UNL A   1      45.908  33.517  27.781  1.00  0.00     0.173 A 
ATOM     88  C   UNL A   1      46.554  32.757  29.969  1.00  0.00     0.173 A 
ATOM     89  F   UNL A   1      45.400  33.293  26.560  1.00  0.00    -0.203 F 
ATOM     90  C   UNL A   1      46.374  34.792  28.091  1.00  0.00     0.198 A 
ATOM     91  C   UNL A   1      46.986  34.041  30.288  1.00  0.00     0.198 A 
ATOM     92  F   UNL A   1      46.659  31.795  30.897  1.00  0.00    -0.203 F 
ATOM     93  F   UNL A   1      46.321  35.764  27.171  1.00  0.00    -0.200 F 
ATOM     94  C   UNL A   1      46.903  35.055  29.346  1.00  0.00     0.200 A 
ATOM     95  F   UNL A   1      47.478  34.297  31.508  1.00  0.00    -0.200 F 
ATOM     96  F   UNL A   1      47.339  36.287  29.647  1.00  0.00    -0.200 F 
ENDBRANCH  63  86
ENDBRANCH  37  38
ENDBRANCH  29  32
ENDBRANCH  27  28
ENDBRANCH  26  27
ENDBRANCH   1  26
TORSDOF 14
ENDMDL
MODEL 2
REMARK VINA RESULT:     -12.8      0.658      1.801
REMARK SMILES C[C@@](CC(=O)N[C@@H]1CCS(=O)(=O)C1)(C(=O)NCCCNC(=O)c1ccc(-c2c3nc(c(-c4c(F)c(F)c(F)c(F)c4F)c4ccc([nH]4)c(-c4c(F)c(F)c(F)c(F)c4F)c4nc(c(-c5c(F)c(F)c(F)c(F)c5F)c5ccc2[nH]5)C=C4)C=C3)cc1)c1ccccc1
REMARK SMILES IDX 17 1 16 2 14 3 15 4 2 6 1 7 3 8 4 9 5 10 6 11 7 13 8 14
REMARK SMILES IDX 13 15 9 16 10 17 11 18 12 19 86 20 87 21 91 22 88 23 90 24
REMARK SMILES IDX 89 25 18 26 19 27 20 28 21 29 22 31 23 32 24 33 85 34 25 35
REMARK SMILES IDX 84 36 26 37 27 38 28 39 78 40 29 41 83 42 77 43 79 44 30 45
REMARK SMILES IDX 82 46 76 47 75 48 31 50 63 51 43 52 62 53 44 54 47 55 61 56
REMARK SMILES IDX 80 57 45 58 46 59 60 61 81 62 48 63 32 64 33 65 41 66 34 67
REMARK SMILES IDX 35 68 39 69 42 70 36 71 37 72 40 73 38 74 64 75 65 76 73 77
REMARK SMILES IDX 66 78 67 79 71 80 74 81 68 82 69 83 72 84 70 85 49 86 50 87
REMARK SMILES IDX 58 88 51 89 52 90 56 91 59 92 53 93 54 94 57 95 55 96
REMARK H PARENT 16 5 6 12 20 30 79 49 47 60
REMARK Flexibility Score: inf
ROOT
ATOM      1  C   UNL A   1      36.821  21.154  24.690  1.00  0.00     0.117 C 
ENDROOT
BRANCH   1   2
ATOM      2  N   UNL A   1      35.930  21.466  25.782  1.00  0.00    -0.355 N 
ATOM      3  C   UNL A   1      34.590  21.294  25.970  1.00  0.00     0.230 C 
ATOM      4  O   UNL A   1      34.273  21.260  27.167  1.00  0.00    -0.274 OA
ATOM      5  H   UNL A   1      36.381  21.889  26.548  1.00  0.00     0.163 HD
BRANCH   3   6
ATOM      6  C   UNL A   1      33.496  21.340  24.828  1.00  0.00     0.080 C 
ATOM      7  C   UNL A   1      32.197  21.610  25.556  1.00  0.00     0.027 C 
BRANCH   6   8
ATOM      8  C   UNL A   1      33.648  22.377  23.673  1.00  0.00     0.121 C 
BRANCH   8   9
ATOM      9  C   UNL A   1      34.025  23.847  23.892  1.00  0.00     0.221 C 
ATOM     10  O   UNL A   1      35.224  24.124  24.058  1.00  0.00    -0.275 OA
ATOM     11  N   UNL A   1      33.200  24.933  23.939  1.00  0.00    -0.352 N 
ATOM     12  H   UNL A   1      33.504  25.620  24.576  1.00  0.00     0.163 HD
BRANCH  11  13
ATOM     13  C   UNL A   1      31.951  25.302  23.244  1.00  0.00     0.098 C 
ATOM     14  C   UNL A   1      31.797  26.844  23.244  1.00  0.00     0.042 C 
ATOM     15  C   UNL A   1      30.633  24.768  23.838  1.00  0.00     0.161 C 
ATOM     16  C   UNL A   1      31.121  27.250  24.551  1.00  0.00     0.139 C 
ATOM     17  S   UNL A   1      29.863  26.033  24.802  1.00  0.00     0.152 S 
ATOM     18  O   UNL A   1      29.874  25.626  26.196  1.00  0.00    -0.229 OA
ATOM     19  O   UNL A   1      28.658  26.448  24.124  1.00  0.00    -0.229 OA
ENDBRANCH  11  13
ENDBRANCH   8   9
ENDBRANCH   6   8
BRANCH   6  20
ATOM     20  C   UNL A   1      33.417  19.907  24.182  1.00  0.00    -0.032 A 
ATOM     21  C   UNL A   1      32.454  19.562  23.210  1.00  0.00     0.005 A 
ATOM     22  C   UNL A   1      34.266  18.877  24.632  1.00  0.00     0.005 A 
ATOM     23  C   UNL A   1      32.335  18.258  22.722  1.00  0.00     0.000 A 
ATOM     24  C   UNL A   1      34.148  17.571  24.140  1.00  0.00     0.000 A 
ATOM     25  C   UNL A   1      33.181  17.262  23.188  1.00  0.00     0.000 A 
ENDBRANCH   6  20
ENDBRANCH   3   6
ENDBRANCH   1   2
BRANCH   1  26
ATOM     26  C   UNL A   1      37.782  19.999  24.945  1.00  0.00     0.042 C 
BRANCH  26  27
ATOM     27  C   UNL A   1      38.954  20.372  25.836  1.00  0.00     0.118 C 
BRANCH  27  28
ATOM     28  N   UNL A   1      39.993  19.348  25.863  1.00  0.00    -0.352 N 
ATOM     29  C   UNL A   1      41.348  19.453  26.056  1.00  0.00     0.251 C 
ATOM     30  H   UNL A   1      39.668  18.429  25.722  1.00  0.00     0.163 HD
ATOM     31  O   UNL A   1      42.057  18.463  25.907  1.00  0.00    -0.269 OA
BRANCH  29  32
ATOM     32  C   UNL A   1      41.962  20.751  26.406  1.00  0.00     0.039 A 
ATOM     33  C   UNL A   1      42.241  21.662  25.382  1.00  0.00     0.014 A 
ATOM     34  C   UNL A   1      42.273  21.074  27.727  1.00  0.00     0.014 A 
ATOM     35  C   UNL A   1      42.764  22.919  25.693  1.00  0.00     0.010 A 
ATOM     36  C   UNL A   1      42.685  22.361  28.046  1.00  0.00     0.010 A 
ATOM     37  C   UNL A   1      42.950  23.292  27.032  1.00  0.00    -0.014 A 
BRANCH  37  38
ATOM     38  C   UNL A   1      43.461  24.633  27.412  1.00  0.00     0.031 A 
ATOM     39  C   UNL A   1      42.512  25.655  27.974  1.00  0.00     0.074 A 
ATOM     40  C   UNL A   1      44.744  24.959  27.168  1.00  0.00     0.049 A 
ATOM     41  N   UNL A   1      42.711  26.921  28.234  1.00  0.00    -0.248 NA
ATOM     42  C   UNL A   1      41.138  25.198  28.247  1.00  0.00     0.031 C 
ATOM     43  C   UNL A   1      45.749  24.069  26.585  1.00  0.00     0.029 A 
ATOM     44  N   UNL A   1      45.419  26.139  27.360  1.00  0.00    -0.354 N 
ATOM     45  C   UNL A   1      41.488  27.413  28.670  1.00  0.00     0.074 A 
ATOM     46  C   UNL A   1      40.537  26.328  28.581  1.00  0.00     0.031 C 
ATOM     47  C   UNL A   1      46.916  24.726  26.488  1.00  0.00     0.029 A 
ATOM     48  C   UNL A   1      46.728  26.098  26.948  1.00  0.00     0.049 A 
ATOM     49  H   UNL A   1      45.003  26.938  27.758  1.00  0.00     0.167 HD
ATOM     50  C   UNL A   1      41.190  28.654  29.125  1.00  0.00     0.037 A 
ATOM     51  C   UNL A   1      47.664  27.066  26.925  1.00  0.00     0.037 A 
ATOM     52  C   UNL A   1      42.151  29.720  29.235  1.00  0.00     0.049 A 
ATOM     53  C   UNL A   1      47.303  28.441  27.422  1.00  0.00     0.074 A 
ATOM     54  C   UNL A   1      41.969  30.995  29.736  1.00  0.00     0.029 A 
ATOM     55  N   UNL A   1      43.476  29.631  28.832  1.00  0.00    -0.354 N 
ATOM     56  N   UNL A   1      46.160  28.882  27.889  1.00  0.00    -0.248 NA
ATOM     57  C   UNL A   1      48.367  29.455  27.393  1.00  0.00     0.031 C 
ATOM     58  C   UNL A   1      43.167  31.698  29.585  1.00  0.00     0.029 A 
ATOM     59  C   UNL A   1      44.117  30.839  29.054  1.00  0.00     0.049 A 
ATOM     60  H   UNL A   1      43.897  28.830  28.447  1.00  0.00     0.167 HD
ATOM     61  C   UNL A   1      46.376  30.207  28.244  1.00  0.00     0.074 A 
ATOM     62  C   UNL A   1      47.763  30.496  27.947  1.00  0.00     0.031 C 
ATOM     63  C   UNL A   1      45.505  31.103  28.770  1.00  0.00     0.037 A 
BRANCH  50  64
ATOM     64  C   UNL A   1      39.771  28.921  29.537  1.00  0.00     0.064 A 
ATOM     65  C   UNL A   1      38.812  29.396  28.629  1.00  0.00     0.173 A 
ATOM     66  C   UNL A   1      39.355  28.673  30.854  1.00  0.00     0.173 A 
ATOM     67  F   UNL A   1      39.158  29.661  27.359  1.00  0.00    -0.203 F 
ATOM     68  C   UNL A   1      37.502  29.646  29.030  1.00  0.00     0.198 A 
ATOM     69  C   UNL A   1      38.035  28.889  31.244  1.00  0.00     0.198 A 
ATOM     70  F   UNL A   1      40.227  28.214  31.766  1.00  0.00    -0.203 F 
ATOM     71  F   UNL A   1      36.622  30.156  28.158  1.00  0.00    -0.200 F 
ATOM     72  C   UNL A   1      37.113  29.384  30.335  1.00  0.00     0.200 A 
ATOM     73  F   UNL A   1      37.657  28.619  32.501  1.00  0.00    -0.200 F 
ATOM     74  F   UNL A   1      35.850  29.617  30.717  1.00  0.00    -0.200 F 
ENDBRANCH  50  64
BRANCH  51  75
ATOM     75  C   UNL A   1      49.035  26.768  26.432  1.00  0.00     0.064 A 
ATOM     76  C   UNL A   1      49.378  26.984  25.090  1.00  0.00     0.173 A 
ATOM     77  C   UNL A   1      50.024  26.251  27.281  1.00  0.00     0.173 A 
ATOM     78  F   UNL A   1      48.461  27.459  24.233  1.00  0.00    -0.203 F 
ATOM     79  C   UNL A   1      50.648  26.670  24.610  1.00  0.00     0.198 A 
ATOM     80  C   UNL A   1      51.305  25.969  26.808  1.00  0.00     0.198 A 
ATOM     81  F   UNL A   1      49.750  26.028  28.574  1.00  0.00    -0.203 F 
ATOM     82  F   UNL A   1      50.931  26.837  23.311  1.00  0.00    -0.200 F 
ATOM     83  C   UNL A   1      51.612  26.170  25.470  1.00  0.00     0.200 A 
ATOM     84  F   UNL A   1      52.239  25.500  27.646  1.00  0.00    -0.200 F 
ATOM     85  F   UNL A   1      52.834  25.871  25.009  1.00  0.00    -0.200 F 
ENDBRANCH  51  75
BRANCH  63  86
ATOM     86  C   UNL A   1      46.037  32.463  29.120  1.00  0.00     0.064 A 
ATOM     87  C   UNL A   1      45.979  33.537  28.218  1.00  0.00     0.173 A 
ATOM     88  C   UNL A   1      46.565  32.706  30.397  1.00  0.00     0.173 A 
ATOM     89  F   UNL A   1      45.495  33.355  26.981  1.00  0.00    -0.203 F 
ATOM     90  C   UNL A   1      46.455  34.796  28.576  1.00  0.00     0.198 A 
ATOM     91  C   UNL A   1      47.007  33.973  30.763  1.00  0.00     0.198 A 
ATOM     92  F   UNL A   1      46.636  31.716  31.299  1.00  0.00    -0.203 F 
ATOM     93  F   UNL A   1      46.437  35.795  27.682  1.00  0.00    -0.200 F 
ATOM     94  C   UNL A   1      46.959  35.015  29.849  1.00  0.00     0.200 A 
ATOM     95  F   UNL A   1      47.475  34.187  32.000  1.00  0.00    -0.200 F 
ATOM     96  F   UNL A   1      47.405  36.231  30.195  1.00  0.00    -0.200 F 
ENDBRANCH  63  86
ENDBRANCH  37  38
ENDBRANCH  29  32
ENDBRANCH  27  28
ENDBRANCH  26  27
ENDBRANCH   1  26
TORSDOF 14
ENDMDL
MODEL 3
REMARK VINA RESULT:     -12.8      5.437     11.163
REMARK SMILES C[C@@](CC(=O)N[C@@H]1CCS(=O)(=O)C1)(C(=O)NCCCNC(=O)c1ccc(-c2c3nc(c(-c4c(F)c(F)c(F)c(F)c4F)c4ccc([nH]4)c(-c4c(F)c(F)c(F)c(F)c4F)c4nc(c(-c5c(F)c(F)c(F)c(F)c5F)c5ccc2[nH]5)C=C4)C=C3)cc1)c1ccccc1
REMARK SMILES IDX 17 1 16 2 14 3 15 4 2 6 1 7 3 8 4 9 5 10 6 11 7 13 8 14
REMARK SMILES IDX 13 15 9 16 10 17 11 18 12 19 86 20 87 21 91 22 88 23 90 24
REMARK SMILES IDX 89 25 18 26 19 27 20 28 21 29 22 31 23 32 24 33 85 34 25 35
REMARK SMILES IDX 84 36 26 37 27 38 28 39 78 40 29 41 83 42 77 43 79 44 30 45
REMARK SMILES IDX 82 46 76 47 75 48 31 50 63 51 43 52 62 53 44 54 47 55 61 56
REMARK SMILES IDX 80 57 45 58 46 59 60 61 81 62 48 63 32 64 33 65 41 66 34 67
REMARK SMILES IDX 35 68 39 69 42 70 36 71 37 72 40 73 38 74 64 75 65 76 73 77
REMARK SMILES IDX 66 78 67 79 71 80 74 81 68 82 69 83 72 84 70 85 49 86 50 87
REMARK SMILES IDX 58 88 51 89 52 90 56 91 59 92 53 93 54 94 57 95 55 96
REMARK H PARENT 16 5 6 12 20 30 79 49 47 60
REMARK Flexibility Score: inf
ROOT
ATOM      1  C   UNL A   1      31.719  30.165  26.399  1.00  0.00     0.117 C 
ENDROOT
BRANCH   1   2
ATOM      2  N   UNL A   1      32.575  29.743  25.315  1.00  0.00    -0.355 N 
ATOM      3  C   UNL A   1      32.335  29.121  24.125  1.00  0.00     0.230 C 
ATOM      4  O   UNL A   1      33.220  29.333  23.285  1.00  0.00    -0.274 OA
ATOM      5  H   UNL A   1      33.527  29.945  25.466  1.00  0.00     0.163 HD
BRANCH   3   6
ATOM      6  C   UNL A   1      31.183  28.070  23.862  1.00  0.00     0.080 C 
ATOM      7  C   UNL A   1      31.628  27.319  22.625  1.00  0.00     0.027 C 
BRANCH   6   8
ATOM      8  C   UNL A   1      30.831  27.035  24.976  1.00  0.00     0.121 C 
BRANCH   8   9
ATOM      9  C   UNL A   1      31.876  26.196  25.720  1.00  0.00     0.221 C 
ATOM     10  O   UNL A   1      32.446  26.706  26.698  1.00  0.00    -0.275 OA
ATOM     11  N   UNL A   1      32.290  24.925  25.445  1.00  0.00    -0.352 N 
ATOM     12  H   UNL A   1      33.244  24.780  25.641  1.00  0.00     0.163 HD
BRANCH  11  13
ATOM     13  C   UNL A   1      31.619  23.719  24.920  1.00  0.00     0.098 C 
ATOM     14  C   UNL A   1      32.437  22.462  25.308  1.00  0.00     0.042 C 
ATOM     15  C   UNL A   1      31.440  23.625  23.393  1.00  0.00     0.161 C 
ATOM     16  C   UNL A   1      33.514  22.254  24.246  1.00  0.00     0.139 C 
ATOM     17  S   UNL A   1      32.700  22.590  22.712  1.00  0.00     0.152 S 
ATOM     18  O   UNL A   1      33.574  23.404  21.886  1.00  0.00    -0.229 OA
ATOM     19  O   UNL A   1      32.080  21.380  22.229  1.00  0.00    -0.229 OA
ENDBRANCH  11  13
ENDBRANCH   8   9
ENDBRANCH   6   8
BRANCH   6  20
ATOM     20  C   UNL A   1      29.873  28.871  23.516  1.00  0.00    -0.032 A 
ATOM     21  C   UNL A   1      29.803  30.279  23.581  1.00  0.00     0.005 A 
ATOM     22  C   UNL A   1      28.680  28.186  23.215  1.00  0.00     0.005 A 
ATOM     23  C   UNL A   1      28.605  30.967  23.368  1.00  0.00     0.000 A 
ATOM     24  C   UNL A   1      27.480  28.876  23.000  1.00  0.00     0.000 A 
ATOM     25  C   UNL A   1      27.443  30.265  23.079  1.00  0.00     0.000 A 
ENDBRANCH   6  20
ENDBRANCH   3   6
ENDBRANCH   1   2
BRANCH   1  26
ATOM     26  C   UNL A   1      31.514  31.670  26.517  1.00  0.00     0.042 C 
BRANCH  26  27
ATOM     27  C   UNL A   1      32.735  32.408  27.039  1.00  0.00     0.118 C 
BRANCH  27  28
ATOM     28  N   UNL A   1      32.434  33.770  27.467  1.00  0.00    -0.352 N 
ATOM     29  C   UNL A   1      33.008  34.550  28.439  1.00  0.00     0.251 C 
ATOM     30  H   UNL A   1      31.698  34.201  26.976  1.00  0.00     0.163 HD
ATOM     31  O   UNL A   1      32.503  35.633  28.720  1.00  0.00    -0.269 OA
BRANCH  29  32
ATOM     32  C   UNL A   1      34.205  34.084  29.171  1.00  0.00     0.039 A 
ATOM     33  C   UNL A   1      34.033  33.255  30.284  1.00  0.00     0.014 A 
ATOM     34  C   UNL A   1      35.489  34.463  28.780  1.00  0.00     0.014 A 
ATOM     35  C   UNL A   1      35.148  32.751  30.956  1.00  0.00     0.010 A 
ATOM     36  C   UNL A   1      36.596  33.875  29.375  1.00  0.00     0.010 A 
ATOM     37  C   UNL A   1      36.439  33.026  30.479  1.00  0.00    -0.014 A 
BRANCH  37  38
ATOM     38  C   UNL A   1      37.653  32.476  31.134  1.00  0.00     0.031 A 
ATOM     39  C   UNL A   1      38.423  31.375  30.459  1.00  0.00     0.074 A 
ATOM     40  C   UNL A   1      38.005  32.898  32.363  1.00  0.00     0.049 A 
ATOM     41  N   UNL A   1      39.417  30.656  30.914  1.00  0.00    -0.248 NA
ATOM     42  C   UNL A   1      37.992  31.007  29.100  1.00  0.00     0.031 C 
ATOM     43  C   UNL A   1      37.311  33.928  33.137  1.00  0.00     0.029 A 
ATOM     44  N   UNL A   1      39.025  32.495  33.188  1.00  0.00    -0.354 N 
ATOM     45  C   UNL A   1      39.707  29.738  29.912  1.00  0.00     0.074 A 
ATOM     46  C   UNL A   1      38.747  29.948  28.853  1.00  0.00     0.031 C 
ATOM     47  C   UNL A   1      37.937  34.091  34.313  1.00  0.00     0.029 A 
ATOM     48  C   UNL A   1      39.041  33.141  34.400  1.00  0.00     0.049 A 
ATOM     49  H   UNL A   1      39.684  31.809  32.934  1.00  0.00     0.167 HD
ATOM     50  C   UNL A   1      40.701  28.819  29.872  1.00  0.00     0.037 A 
ATOM     51  C   UNL A   1      39.844  32.969  35.467  1.00  0.00     0.037 A 
ATOM     52  C   UNL A   1      41.669  28.637  30.920  1.00  0.00     0.049 A 
ATOM     53  C   UNL A   1      40.931  31.929  35.402  1.00  0.00     0.074 A 
ATOM     54  C   UNL A   1      42.750  27.775  30.955  1.00  0.00     0.029 A 
ATOM     55  N   UNL A   1      41.668  29.330  32.123  1.00  0.00    -0.354 N 
ATOM     56  N   UNL A   1      41.236  31.106  34.428  1.00  0.00    -0.248 NA
ATOM     57  C   UNL A   1      41.790  31.796  36.587  1.00  0.00     0.031 C 
ATOM     58  C   UNL A   1      43.370  27.904  32.201  1.00  0.00     0.029 A 
ATOM     59  C   UNL A   1      42.718  28.898  32.915  1.00  0.00     0.049 A 
ATOM     60  H   UNL A   1      41.019  30.025  32.374  1.00  0.00     0.167 HD
ATOM     61  C   UNL A   1      42.341  30.388  34.864  1.00  0.00     0.074 A 
ATOM     62  C   UNL A   1      42.660  30.879  36.189  1.00  0.00     0.031 C 
ATOM     63  C   UNL A   1      43.033  29.412  34.225  1.00  0.00     0.037 A 
BRANCH  50  64
ATOM     64  C   UNL A   1      40.788  27.943  28.654  1.00  0.00     0.064 A 
ATOM     65  C   UNL A   1      41.588  28.284  27.552  1.00  0.00     0.173 A 
ATOM     66  C   UNL A   1      40.084  26.730  28.599  1.00  0.00     0.173 A 
ATOM     67  F   UNL A   1      42.274  29.437  27.546  1.00  0.00    -0.203 F 
ATOM     68  C   UNL A   1      41.651  27.464  26.428  1.00  0.00     0.198 A 
ATOM     69  C   UNL A   1      40.178  25.894  27.489  1.00  0.00     0.198 A 
ATOM     70  F   UNL A   1      39.307  26.350  29.626  1.00  0.00    -0.203 F 
ATOM     71  F   UNL A   1      42.374  27.842  25.366  1.00  0.00    -0.200 F 
ATOM     72  C   UNL A   1      40.953  26.266  26.402  1.00  0.00     0.200 A 
ATOM     73  F   UNL A   1      39.516  24.729  27.472  1.00  0.00    -0.200 F 
ATOM     74  F   UNL A   1      41.022  25.474  25.323  1.00  0.00    -0.200 F 
ENDBRANCH  50  64
BRANCH  51  75
ATOM     75  C   UNL A   1      39.664  33.811  36.680  1.00  0.00     0.064 A 
ATOM     76  C   UNL A   1      40.287  35.063  36.785  1.00  0.00     0.173 A 
ATOM     77  C   UNL A   1      38.880  33.383  37.761  1.00  0.00     0.173 A 
ATOM     78  F   UNL A   1      41.064  35.508  35.786  1.00  0.00    -0.203 F 
ATOM     79  C   UNL A   1      40.156  35.840  37.932  1.00  0.00     0.198 A 
ATOM     80  C   UNL A   1      38.720  34.177  38.895  1.00  0.00     0.198 A 
ATOM     81  F   UNL A   1      38.258  32.195  37.711  1.00  0.00    -0.203 F 
ATOM     82  F   UNL A   1      40.807  37.008  38.026  1.00  0.00    -0.200 F 
ATOM     83  C   UNL A   1      39.367  35.401  38.984  1.00  0.00     0.200 A 
ATOM     84  F   UNL A   1      37.945  33.755  39.903  1.00  0.00    -0.200 F 
ATOM     85  F   UNL A   1      39.238  36.151  40.087  1.00  0.00    -0.200 F 
ENDBRANCH  51  75
BRANCH  63  86
ATOM     86  C   UNL A   1      44.240  28.850  34.918  1.00  0.00     0.064 A 
ATOM     87  C   UNL A   1      44.163  27.716  35.741  1.00  0.00     0.173 A 
ATOM     88  C   UNL A   1      45.502  29.427  34.712  1.00  0.00     0.173 A 
ATOM     89  F   UNL A   1      42.978  27.134  35.981  1.00  0.00    -0.203 F 
ATOM     90  C   UNL A   1      45.302  27.199  36.353  1.00  0.00     0.198 A 
ATOM     91  C   UNL A   1      46.644  28.886  35.296  1.00  0.00     0.198 A 
ATOM     92  F   UNL A   1      45.633  30.508  33.929  1.00  0.00    -0.203 F 
ATOM     93  F   UNL A   1      45.198  26.145  37.175  1.00  0.00    -0.200 F 
ATOM     94  C   UNL A   1      46.541  27.777  36.122  1.00  0.00     0.200 A 
ATOM     95  F   UNL A   1      47.842  29.435  35.057  1.00  0.00    -0.200 F 
ATOM     96  F   UNL A   1      47.638  27.269  36.702  1.00  0.00    -0.200 F 
ENDBRANCH  63  86
ENDBRANCH  37  38
ENDBRANCH  29  32
ENDBRANCH  27  28
ENDBRANCH  26  27
ENDBRANCH   1  26
TORSDOF 14
ENDMDL
