MODEL 1
REMARK VINA RESULT:     -12.9      0.000      0.000
REMARK SMILES Cc1cccc(Nc2nc(C)c(CCO)c(OCC(=O)NCCCNC(=O)c3ccc(-c4c5nc(c(-c6c(F)c(F)c(F)c(F)c6F)c6ccc([nH]6)c(-c6c(F)c(F)c(F)c(F)c6F)c6nc(c(-c7c(F)c(F)c(F)c(F)c7F)c7ccc4[nH]7)C=C6)C=C5)cc3)n2)c1
REMARK SMILES IDX 19 1 20 2 21 3 18 5 17 6 16 7 8 8 9 9 91 10 10 11 11 12
REMARK SMILES IDX 12 13 7 14 6 16 1 17 2 18 3 19 92 20 4 21 5 22 13 23 14 24
REMARK SMILES IDX 15 25 22 27 23 28 24 29 25 30 26 31 27 33 28 34 29 35 90 36
REMARK SMILES IDX 30 37 89 38 31 39 32 40 33 41 83 42 34 43 88 44 82 45 84 46
REMARK SMILES IDX 35 47 87 48 81 49 80 50 36 52 68 53 48 54 67 55 49 56 52 57
REMARK SMILES IDX 66 58 85 59 50 60 51 61 65 63 86 64 53 65 37 66 38 67 46 68
REMARK SMILES IDX 39 69 40 70 44 71 47 72 41 73 42 74 45 75 43 76 69 77 70 78
REMARK SMILES IDX 78 79 71 80 72 81 76 82 79 83 73 84 74 85 77 86 75 87 54 88
REMARK SMILES IDX 55 89 63 90 56 91 57 92 61 93 64 94 58 95 59 96 62 97 60 98
REMARK H PARENT 21 4 7 15 15 26 25 32 84 51 52 62
REMARK Flexibility Score: inf
ROOT
ATOM      1  C   UNL A   1      33.422  28.507  25.449  1.00  0.00     0.258 C 
ATOM      2  O   UNL A   1      34.346  28.165  24.707  1.00  0.00    -0.271 OA
ATOM      3  N   UNL A   1      33.246  29.841  25.673  1.00  0.00    -0.353 N 
ATOM      4  H   UNL A   1      33.839  30.438  25.161  1.00  0.00     0.163 HD
ENDROOT
BRANCH   1   5
ATOM      5  C   UNL A   1      32.454  27.481  26.066  1.00  0.00     0.331 C 
BRANCH   5   6
ATOM      6  O   UNL A   1      31.710  26.580  25.275  1.00  0.00    -0.467 OA
BRANCH   6   7
ATOM      7  C   UNL A   1      32.247  25.991  24.173  1.00  0.00     0.222 A 
ATOM      8  C   UNL A   1      33.594  24.208  23.597  1.00  0.00     0.230 A 
ATOM      9  N   UNL A   1      33.549  24.529  22.305  1.00  0.00    -0.218 NA
ATOM     10  N   UNL A   1      33.017  24.950  24.546  1.00  0.00    -0.177 NA
ATOM     11  C   UNL A   1      32.702  25.511  21.931  1.00  0.00     0.050 A 
ATOM     12  C   UNL A   1      32.573  25.659  20.441  1.00  0.00     0.067 C 
ATOM     13  C   UNL A   1      31.937  26.242  22.843  1.00  0.00     0.038 A 
BRANCH   8  14
ATOM     14  N   UNL A   1      34.210  22.990  23.895  1.00  0.00    -0.324 N 
ATOM     15  H   UNL A   1      33.683  22.185  23.688  1.00  0.00     0.170 HD
BRANCH  14  16
ATOM     16  C   UNL A   1      35.484  22.763  24.452  1.00  0.00     0.041 A 
ATOM     17  C   UNL A   1      37.859  19.795  24.935  1.00  0.00     0.044 C 
ATOM     18  C   UNL A   1      37.282  21.179  24.979  1.00  0.00    -0.049 A 
ATOM     19  C   UNL A   1      37.993  22.203  25.612  1.00  0.00     0.003 A 
ATOM     20  C   UNL A   1      36.036  21.472  24.396  1.00  0.00     0.029 A 
ATOM     21  C   UNL A   1      37.478  23.495  25.645  1.00  0.00     0.002 A 
ATOM     22  C   UNL A   1      36.243  23.774  25.056  1.00  0.00     0.026 A 
ENDBRANCH  14  16
ENDBRANCH   8  14
BRANCH  13  23
ATOM     23  C   UNL A   1      30.782  27.095  22.381  1.00  0.00     0.071 C 
BRANCH  23  24
ATOM     24  C   UNL A   1      31.038  28.601  22.514  1.00  0.00     0.161 C 
BRANCH  24  25
ATOM     25  O   UNL A   1      30.389  29.368  21.509  1.00  0.00    -0.396 OA
ATOM     26  H   UNL A   1      30.838  30.222  21.414  1.00  0.00     0.210 HD
ENDBRANCH  24  25
ENDBRANCH  23  24
ENDBRANCH  13  23
ENDBRANCH   6   7
ENDBRANCH   5   6
ENDBRANCH   1   5
BRANCH   3  27
ATOM     27  C   UNL A   1      32.308  30.503  26.563  1.00  0.00     0.117 C 
BRANCH  27  28
ATOM     28  C   UNL A   1      33.005  31.506  27.473  1.00  0.00     0.042 C 
BRANCH  28  29
ATOM     29  C   UNL A   1      34.424  31.094  27.838  1.00  0.00     0.118 C 
BRANCH  29  30
ATOM     30  N   UNL A   1      34.933  31.686  29.071  1.00  0.00    -0.352 N 
ATOM     31  C   UNL A   1      35.975  31.262  29.882  1.00  0.00     0.251 C 
ATOM     32  H   UNL A   1      34.470  32.503  29.368  1.00  0.00     0.163 HD
ATOM     33  O   UNL A   1      36.238  31.858  30.911  1.00  0.00    -0.269 OA
BRANCH  31  34
ATOM     34  C   UNL A   1      36.844  30.149  29.420  1.00  0.00     0.039 A 
ATOM     35  C   UNL A   1      37.160  29.136  30.332  1.00  0.00     0.014 A 
ATOM     36  C   UNL A   1      37.486  30.201  28.186  1.00  0.00     0.014 A 
ATOM     37  C   UNL A   1      38.282  28.338  30.108  1.00  0.00     0.010 A 
ATOM     38  C   UNL A   1      38.651  29.481  28.005  1.00  0.00     0.010 A 
ATOM     39  C   UNL A   1      39.084  28.595  28.995  1.00  0.00    -0.014 A 
BRANCH  39  40
ATOM     40  C   UNL A   1      40.415  28.028  28.823  1.00  0.00     0.031 A 
ATOM     41  C   UNL A   1      40.583  26.601  28.495  1.00  0.00     0.074 A 
ATOM     42  C   UNL A   1      41.519  28.801  28.929  1.00  0.00     0.049 A 
ATOM     43  N   UNL A   1      41.608  25.904  28.857  1.00  0.00    -0.248 NA
ATOM     44  C   UNL A   1      39.595  25.838  27.744  1.00  0.00     0.031 C 
ATOM     45  C   UNL A   1      42.889  28.427  28.588  1.00  0.00     0.029 A 
ATOM     46  N   UNL A   1      41.650  30.041  29.574  1.00  0.00    -0.354 N 
ATOM     47  C   UNL A   1      41.558  24.715  28.175  1.00  0.00     0.074 A 
ATOM     48  C   UNL A   1      40.253  24.691  27.551  1.00  0.00     0.031 C 
ATOM     49  C   UNL A   1      43.734  29.199  29.287  1.00  0.00     0.029 A 
ATOM     50  C   UNL A   1      42.936  30.019  30.176  1.00  0.00     0.049 A 
ATOM     51  H   UNL A   1      40.991  30.771  29.604  1.00  0.00     0.167 HD
ATOM     52  C   UNL A   1      42.672  23.932  28.098  1.00  0.00     0.037 A 
ATOM     53  C   UNL A   1      43.091  30.125  31.528  1.00  0.00     0.037 A 
ATOM     54  C   UNL A   1      43.815  24.523  28.789  1.00  0.00     0.049 A 
ATOM     55  C   UNL A   1      43.766  28.939  32.182  1.00  0.00     0.074 A 
ATOM     56  C   UNL A   1      44.938  25.222  28.375  1.00  0.00     0.029 A 
ATOM     57  N   UNL A   1      43.760  24.685  30.162  1.00  0.00    -0.354 N 
ATOM     58  N   UNL A   1      44.172  27.878  31.542  1.00  0.00    -0.248 NA
ATOM     59  C   UNL A   1      43.928  28.806  33.630  1.00  0.00     0.031 C 
ATOM     60  C   UNL A   1      45.584  25.760  29.523  1.00  0.00     0.029 A 
ATOM     61  C   UNL A   1      44.847  25.397  30.633  1.00  0.00     0.049 A 
ATOM     62  H   UNL A   1      43.036  24.338  30.732  1.00  0.00     0.167 HD
ATOM     63  C   UNL A   1      44.562  26.922  32.443  1.00  0.00     0.074 A 
ATOM     64  C   UNL A   1      44.394  27.551  33.739  1.00  0.00     0.031 C 
ATOM     65  C   UNL A   1      44.945  25.670  32.056  1.00  0.00     0.037 A 
BRANCH  52  66
ATOM     66  C   UNL A   1      42.775  22.749  27.168  1.00  0.00     0.064 A 
ATOM     67  C   UNL A   1      42.027  21.574  27.393  1.00  0.00     0.173 A 
ATOM     68  C   UNL A   1      43.629  22.707  26.052  1.00  0.00     0.173 A 
ATOM     69  F   UNL A   1      41.091  21.509  28.347  1.00  0.00    -0.203 F 
ATOM     70  C   UNL A   1      42.224  20.411  26.647  1.00  0.00     0.198 A 
ATOM     71  C   UNL A   1      43.869  21.527  25.342  1.00  0.00     0.198 A 
ATOM     72  F   UNL A   1      44.229  23.817  25.599  1.00  0.00    -0.203 F 
ATOM     73  F   UNL A   1      41.493  19.320  26.917  1.00  0.00    -0.200 F 
ATOM     74  C   UNL A   1      43.176  20.374  25.650  1.00  0.00     0.200 A 
ATOM     75  F   UNL A   1      44.782  21.514  24.360  1.00  0.00    -0.200 F 
ATOM     76  F   UNL A   1      43.409  19.239  24.977  1.00  0.00    -0.200 F 
ENDBRANCH  52  66
BRANCH  53  77
ATOM     77  C   UNL A   1      42.024  30.958  32.141  1.00  0.00     0.064 A 
ATOM     78  C   UNL A   1      42.122  32.356  31.984  1.00  0.00     0.173 A 
ATOM     79  C   UNL A   1      40.765  30.422  32.428  1.00  0.00     0.173 A 
ATOM     80  F   UNL A   1      43.313  32.920  31.724  1.00  0.00    -0.203 F 
ATOM     81  C   UNL A   1      40.983  33.151  31.923  1.00  0.00     0.198 A 
ATOM     82  C   UNL A   1      39.631  31.232  32.409  1.00  0.00     0.198 A 
ATOM     83  F   UNL A   1      40.610  29.100  32.594  1.00  0.00    -0.203 F 
ATOM     84  F   UNL A   1      41.088  34.447  31.591  1.00  0.00    -0.200 F 
ATOM     85  C   UNL A   1      39.734  32.580  32.098  1.00  0.00     0.200 A 
ATOM     86  F   UNL A   1      38.421  30.681  32.588  1.00  0.00    -0.200 F 
ATOM     87  F   UNL A   1      38.630  33.319  31.921  1.00  0.00    -0.200 F 
ENDBRANCH  53  77
BRANCH  65  88
ATOM     88  C   UNL A   1      45.423  24.588  32.991  1.00  0.00     0.064 A 
ATOM     89  C   UNL A   1      44.610  23.517  33.395  1.00  0.00     0.173 A 
ATOM     90  C   UNL A   1      46.693  24.657  33.608  1.00  0.00     0.173 A 
ATOM     91  F   UNL A   1      43.345  23.409  32.964  1.00  0.00    -0.203 F 
ATOM     92  C   UNL A   1      45.065  22.541  34.288  1.00  0.00     0.198 A 
ATOM     93  C   UNL A   1      47.124  23.713  34.539  1.00  0.00     0.198 A 
ATOM     94  F   UNL A   1      47.567  25.631  33.318  1.00  0.00    -0.203 F 
ATOM     95  F   UNL A   1      44.274  21.504  34.597  1.00  0.00    -0.200 F 
ATOM     96  C   UNL A   1      46.318  22.643  34.864  1.00  0.00     0.200 A 
ATOM     97  F   UNL A   1      48.328  23.849  35.113  1.00  0.00    -0.200 F 
ATOM     98  F   UNL A   1      46.745  21.717  35.731  1.00  0.00    -0.200 F 
ENDBRANCH  65  88
ENDBRANCH  39  40
ENDBRANCH  31  34
ENDBRANCH  29  30
ENDBRANCH  28  29
ENDBRANCH  27  28
ENDBRANCH   3  27
TORSDOF 17
ENDMDL
MODEL 2
REMARK VINA RESULT:     -12.8      1.671      2.282
REMARK SMILES Cc1cccc(Nc2nc(C)c(CCO)c(OCC(=O)NCCCNC(=O)c3ccc(-c4c5nc(c(-c6c(F)c(F)c(F)c(F)c6F)c6ccc([nH]6)c(-c6c(F)c(F)c(F)c(F)c6F)c6nc(c(-c7c(F)c(F)c(F)c(F)c7F)c7ccc4[nH]7)C=C6)C=C5)cc3)n2)c1
REMARK SMILES IDX 19 1 20 2 21 3 18 5 17 6 16 7 8 8 9 9 91 10 10 11 11 12
REMARK SMILES IDX 12 13 7 14 6 16 1 17 2 18 3 19 92 20 4 21 5 22 13 23 14 24
REMARK SMILES IDX 15 25 22 27 23 28 24 29 25 30 26 31 27 33 28 34 29 35 90 36
REMARK SMILES IDX 30 37 89 38 31 39 32 40 33 41 83 42 34 43 88 44 82 45 84 46
REMARK SMILES IDX 35 47 87 48 81 49 80 50 36 52 68 53 48 54 67 55 49 56 52 57
REMARK SMILES IDX 66 58 85 59 50 60 51 61 65 63 86 64 53 65 37 66 38 67 46 68
REMARK SMILES IDX 39 69 40 70 44 71 47 72 41 73 42 74 45 75 43 76 69 77 70 78
REMARK SMILES IDX 78 79 71 80 72 81 76 82 79 83 73 84 74 85 77 86 75 87 54 88
REMARK SMILES IDX 55 89 63 90 56 91 57 92 61 93 64 94 58 95 59 96 62 97 60 98
REMARK H PARENT 21 4 7 15 15 26 25 32 84 51 52 62
REMARK Flexibility Score: inf
ROOT
ATOM      1  C   UNL A   1      31.092  27.424  25.366  1.00  0.00     0.258 C 
ATOM      2  O   UNL A   1      30.670  27.418  24.207  1.00  0.00    -0.271 OA
ATOM      3  N   UNL A   1      31.445  28.624  25.909  1.00  0.00    -0.353 N 
ATOM      4  H   UNL A   1      31.265  29.413  25.347  1.00  0.00     0.163 HD
ENDROOT
BRANCH   1   5
ATOM      5  C   UNL A   1      31.175  26.137  26.207  1.00  0.00     0.331 C 
BRANCH   5   6
ATOM      6  O   UNL A   1      31.278  24.859  25.616  1.00  0.00    -0.467 OA
BRANCH   6   7
ATOM      7  C   UNL A   1      32.425  24.133  25.687  1.00  0.00     0.222 A 
ATOM      8  C   UNL A   1      33.139  21.992  26.164  1.00  0.00     0.230 A 
ATOM      9  N   UNL A   1      34.417  22.329  25.997  1.00  0.00    -0.218 NA
ATOM     10  N   UNL A   1      32.143  22.877  26.084  1.00  0.00    -0.177 NA
ATOM     11  C   UNL A   1      34.684  23.559  25.508  1.00  0.00     0.050 A 
ATOM     12  C   UNL A   1      36.131  23.769  25.163  1.00  0.00     0.067 C 
ATOM     13  C   UNL A   1      33.689  24.502  25.244  1.00  0.00     0.038 A 
BRANCH   8  14
ATOM     14  N   UNL A   1      32.894  20.629  26.342  1.00  0.00    -0.324 N 
ATOM     15  H   UNL A   1      32.772  20.335  27.274  1.00  0.00     0.170 HD
BRANCH  14  16
ATOM     16  C   UNL A   1      32.797  19.619  25.364  1.00  0.00     0.041 A 
ATOM     17  C   UNL A   1      33.049  15.798  25.226  1.00  0.00     0.044 C 
ATOM     18  C   UNL A   1      32.889  17.230  24.810  1.00  0.00    -0.049 A 
ATOM     19  C   UNL A   1      32.698  17.540  23.461  1.00  0.00     0.003 A 
ATOM     20  C   UNL A   1      32.928  18.274  25.752  1.00  0.00     0.029 A 
ATOM     21  C   UNL A   1      32.531  18.863  23.064  1.00  0.00     0.002 A 
ATOM     22  C   UNL A   1      32.564  19.890  24.010  1.00  0.00     0.026 A 
ENDBRANCH  14  16
ENDBRANCH   8  14
BRANCH  13  23
ATOM     23  C   UNL A   1      33.980  25.726  24.410  1.00  0.00     0.071 C 
BRANCH  23  24
ATOM     24  C   UNL A   1      33.643  25.550  22.924  1.00  0.00     0.161 C 
BRANCH  24  25
ATOM     25  O   UNL A   1      32.245  25.481  22.674  1.00  0.00    -0.396 OA
ATOM     26  H   UNL A   1      31.942  26.323  22.300  1.00  0.00     0.210 HD
ENDBRANCH  24  25
ENDBRANCH  23  24
ENDBRANCH  13  23
ENDBRANCH   6   7
ENDBRANCH   5   6
ENDBRANCH   1   5
BRANCH   3  27
ATOM     27  C   UNL A   1      32.049  28.902  27.201  1.00  0.00     0.117 C 
BRANCH  27  28
ATOM     28  C   UNL A   1      32.655  30.299  27.251  1.00  0.00     0.042 C 
BRANCH  28  29
ATOM     29  C   UNL A   1      34.172  30.286  27.378  1.00  0.00     0.118 C 
BRANCH  29  30
ATOM     30  N   UNL A   1      34.701  31.124  28.449  1.00  0.00    -0.352 N 
ATOM     31  C   UNL A   1      35.808  30.916  29.260  1.00  0.00     0.251 C 
ATOM     32  H   UNL A   1      34.202  31.955  28.621  1.00  0.00     0.163 HD
ATOM     33  O   UNL A   1      36.082  31.706  30.145  1.00  0.00    -0.269 OA
BRANCH  31  34
ATOM     34  C   UNL A   1      36.724  29.787  28.956  1.00  0.00     0.039 A 
ATOM     35  C   UNL A   1      37.106  28.945  30.007  1.00  0.00     0.014 A 
ATOM     36  C   UNL A   1      37.342  29.674  27.714  1.00  0.00     0.014 A 
ATOM     37  C   UNL A   1      38.263  28.176  29.884  1.00  0.00     0.010 A 
ATOM     38  C   UNL A   1      38.538  28.990  27.620  1.00  0.00     0.010 A 
ATOM     39  C   UNL A   1      39.032  28.293  28.725  1.00  0.00    -0.014 A 
BRANCH  39  40
ATOM     40  C   UNL A   1      40.387  27.769  28.611  1.00  0.00     0.031 A 
ATOM     41  C   UNL A   1      40.615  26.349  28.286  1.00  0.00     0.074 A 
ATOM     42  C   UNL A   1      41.460  28.576  28.770  1.00  0.00     0.049 A 
ATOM     43  N   UNL A   1      41.644  25.683  28.691  1.00  0.00    -0.248 NA
ATOM     44  C   UNL A   1      39.686  25.560  27.488  1.00  0.00     0.031 C 
ATOM     45  C   UNL A   1      42.855  28.247  28.489  1.00  0.00     0.029 A 
ATOM     46  N   UNL A   1      41.522  29.816  29.425  1.00  0.00    -0.354 N 
ATOM     47  C   UNL A   1      41.663  24.497  28.003  1.00  0.00     0.074 A 
ATOM     48  C   UNL A   1      40.388  24.435  27.321  1.00  0.00     0.031 C 
ATOM     49  C   UNL A   1      43.643  29.042  29.228  1.00  0.00     0.029 A 
ATOM     50  C   UNL A   1      42.779  29.831  30.084  1.00  0.00     0.049 A 
ATOM     51  H   UNL A   1      40.840  30.525  29.427  1.00  0.00     0.167 HD
ATOM     52  C   UNL A   1      42.804  23.750  27.973  1.00  0.00     0.037 A 
ATOM     53  C   UNL A   1      42.870  29.935  31.442  1.00  0.00     0.037 A 
ATOM     54  C   UNL A   1      43.895  24.374  28.718  1.00  0.00     0.049 A 
ATOM     55  C   UNL A   1      43.553  28.768  32.121  1.00  0.00     0.074 A 
ATOM     56  C   UNL A   1      45.012  25.110  28.357  1.00  0.00     0.029 A 
ATOM     57  N   UNL A   1      43.773  24.527  30.087  1.00  0.00    -0.354 N 
ATOM     58  N   UNL A   1      44.020  27.724  31.495  1.00  0.00    -0.248 NA
ATOM     59  C   UNL A   1      43.654  28.633  33.575  1.00  0.00     0.031 C 
ATOM     60  C   UNL A   1      45.589  25.662  29.534  1.00  0.00     0.029 A 
ATOM     61  C   UNL A   1      44.814  25.270  30.609  1.00  0.00     0.049 A 
ATOM     62  H   UNL A   1      43.036  24.154  30.622  1.00  0.00     0.167 HD
ATOM     63  C   UNL A   1      44.400  26.776  32.410  1.00  0.00     0.074 A 
ATOM     64  C   UNL A   1      44.154  27.392  33.699  1.00  0.00     0.031 C 
ATOM     65  C   UNL A   1      44.840  25.539  32.036  1.00  0.00     0.037 A 
BRANCH  52  66
ATOM     66  C   UNL A   1      42.986  22.575  27.045  1.00  0.00     0.064 A 
ATOM     67  C   UNL A   1      42.289  21.367  27.248  1.00  0.00     0.173 A 
ATOM     68  C   UNL A   1      43.870  22.577  25.950  1.00  0.00     0.173 A 
ATOM     69  F   UNL A   1      41.332  21.255  28.177  1.00  0.00    -0.203 F 
ATOM     70  C   UNL A   1      42.559  20.216  26.506  1.00  0.00     0.198 A 
ATOM     71  C   UNL A   1      44.183  21.411  25.245  1.00  0.00     0.198 A 
ATOM     72  F   UNL A   1      44.429  23.715  25.516  1.00  0.00    -0.203 F 
ATOM     73  F   UNL A   1      41.873  19.091  26.754  1.00  0.00    -0.200 F 
ATOM     74  C   UNL A   1      43.537  20.226  25.534  1.00  0.00     0.200 A 
ATOM     75  F   UNL A   1      45.121  21.444  24.287  1.00  0.00    -0.200 F 
ATOM     76  F   UNL A   1      43.841  19.105  24.865  1.00  0.00    -0.200 F 
ENDBRANCH  52  66
BRANCH  53  77
ATOM     77  C   UNL A   1      41.750  30.731  32.009  1.00  0.00     0.064 A 
ATOM     78  C   UNL A   1      41.772  32.125  31.795  1.00  0.00     0.173 A 
ATOM     79  C   UNL A   1      40.521  30.136  32.306  1.00  0.00     0.173 A 
ATOM     80  F   UNL A   1      42.932  32.744  31.523  1.00  0.00    -0.203 F 
ATOM     81  C   UNL A   1      40.591  32.851  31.689  1.00  0.00     0.198 A 
ATOM     82  C   UNL A   1      39.343  30.879  32.242  1.00  0.00     0.198 A 
ATOM     83  F   UNL A   1      40.439  28.816  32.525  1.00  0.00    -0.203 F 
ATOM     84  F   UNL A   1      40.627  34.136  31.305  1.00  0.00    -0.200 F 
ATOM     85  C   UNL A   1      39.374  32.217  31.877  1.00  0.00     0.200 A 
ATOM     86  F   UNL A   1      38.164  30.269  32.432  1.00  0.00    -0.200 F 
ATOM     87  F   UNL A   1      38.232  32.885  31.658  1.00  0.00    -0.200 F 
ENDBRANCH  53  77
BRANCH  65  88
ATOM     88  C   UNL A   1      45.310  24.468  32.987  1.00  0.00     0.064 A 
ATOM     89  C   UNL A   1      44.495  23.397  33.391  1.00  0.00     0.173 A 
ATOM     90  C   UNL A   1      46.571  24.548  33.621  1.00  0.00     0.173 A 
ATOM     91  F   UNL A   1      43.237  23.280  32.944  1.00  0.00    -0.203 F 
ATOM     92  C   UNL A   1      44.942  22.432  34.300  1.00  0.00     0.198 A 
ATOM     93  C   UNL A   1      46.994  23.614  34.567  1.00  0.00     0.198 A 
ATOM     94  F   UNL A   1      47.444  25.523  33.333  1.00  0.00    -0.203 F 
ATOM     95  F   UNL A   1      44.152  21.394  34.608  1.00  0.00    -0.200 F 
ATOM     96  C   UNL A   1      46.188  22.544  34.890  1.00  0.00     0.200 A 
ATOM     97  F   UNL A   1      48.189  23.760  35.155  1.00  0.00    -0.200 F 
ATOM     98  F   UNL A   1      46.606  21.628  35.773  1.00  0.00    -0.200 F 
ENDBRANCH  65  88
ENDBRANCH  39  40
ENDBRANCH  31  34
ENDBRANCH  29  30
ENDBRANCH  28  29
ENDBRANCH  27  28
ENDBRANCH   3  27
TORSDOF 17
ENDMDL
MODEL 3
REMARK VINA RESULT:     -12.7      3.648     10.075
REMARK SMILES Cc1cccc(Nc2nc(C)c(CCO)c(OCC(=O)NCCCNC(=O)c3ccc(-c4c5nc(c(-c6c(F)c(F)c(F)c(F)c6F)c6ccc([nH]6)c(-c6c(F)c(F)c(F)c(F)c6F)c6nc(c(-c7c(F)c(F)c(F)c(F)c7F)c7ccc4[nH]7)C=C6)C=C5)cc3)n2)c1
REMARK SMILES IDX 19 1 20 2 21 3 18 5 17 6 16 7 8 8 9 9 91 10 10 11 11 12
REMARK SMILES IDX 12 13 7 14 6 16 1 17 2 18 3 19 92 20 4 21 5 22 13 23 14 24
REMARK SMILES IDX 15 25 22 27 23 28 24 29 25 30 26 31 27 33 28 34 29 35 90 36
REMARK SMILES IDX 30 37 89 38 31 39 32 40 33 41 83 42 34 43 88 44 82 45 84 46
REMARK SMILES IDX 35 47 87 48 81 49 80 50 36 52 68 53 48 54 67 55 49 56 52 57
REMARK SMILES IDX 66 58 85 59 50 60 51 61 65 63 86 64 53 65 37 66 38 67 46 68
REMARK SMILES IDX 39 69 40 70 44 71 47 72 41 73 42 74 45 75 43 76 69 77 70 78
REMARK SMILES IDX 78 79 71 80 72 81 76 82 79 83 73 84 74 85 77 86 75 87 54 88
REMARK SMILES IDX 55 89 63 90 56 91 57 92 61 93 64 94 58 95 59 96 62 97 60 98
REMARK H PARENT 21 4 7 15 15 26 25 32 84 51 52 62
REMARK Flexibility Score: inf
ROOT
ATOM      1  C   UNL A   1      36.051  20.969  25.309  1.00  0.00     0.258 C 
ATOM      2  O   UNL A   1      36.333  19.801  25.030  1.00  0.00    -0.271 OA
ATOM      3  N   UNL A   1      36.833  21.955  24.783  1.00  0.00    -0.353 N 
ATOM      4  H   UNL A   1      37.531  21.654  24.156  1.00  0.00     0.163 HD
ENDROOT
BRANCH   1   5
ATOM      5  C   UNL A   1      34.829  21.326  26.174  1.00  0.00     0.331 C 
BRANCH   5   6
ATOM      6  O   UNL A   1      33.563  20.741  25.962  1.00  0.00    -0.467 OA
BRANCH   6   7
ATOM      7  C   UNL A   1      33.061  20.565  24.710  1.00  0.00     0.222 A 
ATOM      8  C   UNL A   1      32.434  21.800  22.865  1.00  0.00     0.230 A 
ATOM      9  N   UNL A   1      32.046  20.709  22.207  1.00  0.00    -0.218 NA
ATOM     10  N   UNL A   1      32.875  21.764  24.124  1.00  0.00    -0.177 NA
ATOM     11  C   UNL A   1      32.323  19.509  22.760  1.00  0.00     0.050 A 
ATOM     12  C   UNL A   1      32.033  18.347  21.853  1.00  0.00     0.067 C 
ATOM     13  C   UNL A   1      32.927  19.373  24.012  1.00  0.00     0.038 A 
BRANCH   8  14
ATOM     14  N   UNL A   1      32.437  22.983  22.122  1.00  0.00    -0.324 N 
ATOM     15  H   UNL A   1      32.603  22.880  21.157  1.00  0.00     0.170 HD
BRANCH  14  16
ATOM     16  C   UNL A   1      32.236  24.303  22.573  1.00  0.00     0.041 A 
ATOM     17  C   UNL A   1      29.390  26.344  24.130  1.00  0.00     0.044 C 
ATOM     18  C   UNL A   1      30.723  25.968  23.553  1.00  0.00    -0.049 A 
ATOM     19  C   UNL A   1      31.719  26.941  23.426  1.00  0.00     0.003 A 
ATOM     20  C   UNL A   1      30.994  24.654  23.132  1.00  0.00     0.029 A 
ATOM     21  C   UNL A   1      32.965  26.603  22.908  1.00  0.00     0.002 A 
ATOM     22  C   UNL A   1      33.224  25.292  22.502  1.00  0.00     0.026 A 
ENDBRANCH  14  16
ENDBRANCH   8  14
BRANCH  13  23
ATOM     23  C   UNL A   1      33.510  18.053  24.453  1.00  0.00     0.071 C 
BRANCH  23  24
ATOM     24  C   UNL A   1      32.653  17.322  25.495  1.00  0.00     0.161 C 
BRANCH  24  25
ATOM     25  O   UNL A   1      32.552  18.025  26.726  1.00  0.00    -0.396 OA
ATOM     26  H   UNL A   1      32.681  17.408  27.462  1.00  0.00     0.210 HD
ENDBRANCH  24  25
ENDBRANCH  23  24
ENDBRANCH  13  23
ENDBRANCH   6   7
ENDBRANCH   5   6
ENDBRANCH   1   5
BRANCH   3  27
ATOM     27  C   UNL A   1      36.782  23.388  25.019  1.00  0.00     0.117 C 
BRANCH  27  28
ATOM     28  C   UNL A   1      38.085  23.910  25.610  1.00  0.00     0.042 C 
BRANCH  28  29
ATOM     29  C   UNL A   1      38.877  22.839  26.347  1.00  0.00     0.118 C 
BRANCH  29  30
ATOM     30  N   UNL A   1      40.322  23.037  26.342  1.00  0.00    -0.352 N 
ATOM     31  C   UNL A   1      41.050  24.189  26.606  1.00  0.00     0.251 C 
ATOM     32  H   UNL A   1      40.857  22.241  26.120  1.00  0.00     0.163 HD
ATOM     33  O   UNL A   1      42.264  24.186  26.511  1.00  0.00    -0.269 OA
BRANCH  31  34
ATOM     34  C   UNL A   1      40.344  25.388  27.125  1.00  0.00     0.039 A 
ATOM     35  C   UNL A   1      40.559  26.611  26.481  1.00  0.00     0.014 A 
ATOM     36  C   UNL A   1      39.642  25.346  28.327  1.00  0.00     0.014 A 
ATOM     37  C   UNL A   1      40.293  27.800  27.162  1.00  0.00     0.010 A 
ATOM     38  C   UNL A   1      39.466  26.516  29.041  1.00  0.00     0.010 A 
ATOM     39  C   UNL A   1      39.851  27.738  28.484  1.00  0.00    -0.014 A 
BRANCH  39  40
ATOM     40  C   UNL A   1      39.821  28.894  29.370  1.00  0.00     0.031 A 
ATOM     41  C   UNL A   1      38.781  29.928  29.216  1.00  0.00     0.074 A 
ATOM     42  C   UNL A   1      40.724  29.029  30.367  1.00  0.00     0.049 A 
ATOM     43  N   UNL A   1      38.963  31.170  29.517  1.00  0.00    -0.248 NA
ATOM     44  C   UNL A   1      37.452  29.642  28.693  1.00  0.00     0.031 C 
ATOM     45  C   UNL A   1      40.699  30.012  31.447  1.00  0.00     0.029 A 
ATOM     46  N   UNL A   1      41.981  28.416  30.486  1.00  0.00    -0.354 N 
ATOM     47  C   UNL A   1      37.736  31.782  29.495  1.00  0.00     0.074 A 
ATOM     48  C   UNL A   1      36.838  30.811  28.909  1.00  0.00     0.031 C 
ATOM     49  C   UNL A   1      41.950  30.187  31.900  1.00  0.00     0.029 A 
ATOM     50  C   UNL A   1      42.829  29.403  31.056  1.00  0.00     0.049 A 
ATOM     51  H   UNL A   1      42.225  27.498  30.230  1.00  0.00     0.167 HD
ATOM     52  C   UNL A   1      37.576  32.997  30.095  1.00  0.00     0.037 A 
ATOM     53  C   UNL A   1      43.931  29.864  30.394  1.00  0.00     0.037 A 
ATOM     54  C   UNL A   1      38.810  33.480  30.709  1.00  0.00     0.049 A 
ATOM     55  C   UNL A   1      43.918  31.348  30.102  1.00  0.00     0.074 A 
ATOM     56  C   UNL A   1      39.294  33.509  32.007  1.00  0.00     0.029 A 
ATOM     57  N   UNL A   1      39.891  33.780  29.901  1.00  0.00    -0.354 N 
ATOM     58  N   UNL A   1      42.948  32.154  30.431  1.00  0.00    -0.248 NA
ATOM     59  C   UNL A   1      44.949  32.018  29.309  1.00  0.00     0.031 C 
ATOM     60  C   UNL A   1      40.666  33.882  31.969  1.00  0.00     0.029 A 
ATOM     61  C   UNL A   1      41.018  34.069  30.646  1.00  0.00     0.049 A 
ATOM     62  H   UNL A   1      39.861  33.786  28.917  1.00  0.00     0.167 HD
ATOM     63  C   UNL A   1      43.160  33.382  29.859  1.00  0.00     0.074 A 
ATOM     64  C   UNL A   1      44.428  33.249  29.168  1.00  0.00     0.031 C 
ATOM     65  C   UNL A   1      42.253  34.397  29.956  1.00  0.00     0.037 A 
BRANCH  52  66
ATOM     66  C   UNL A   1      36.221  33.615  30.335  1.00  0.00     0.064 A 
ATOM     67  C   UNL A   1      35.442  34.108  29.268  1.00  0.00     0.173 A 
ATOM     68  C   UNL A   1      35.655  33.780  31.612  1.00  0.00     0.173 A 
ATOM     69  F   UNL A   1      35.797  33.918  27.992  1.00  0.00    -0.203 F 
ATOM     70  C   UNL A   1      34.265  34.828  29.475  1.00  0.00     0.198 A 
ATOM     71  C   UNL A   1      34.508  34.550  31.824  1.00  0.00     0.198 A 
ATOM     72  F   UNL A   1      36.181  33.171  32.684  1.00  0.00    -0.203 F 
ATOM     73  F   UNL A   1      33.573  35.285  28.422  1.00  0.00    -0.200 F 
ATOM     74  C   UNL A   1      33.821  35.088  30.755  1.00  0.00     0.200 A 
ATOM     75  F   UNL A   1      34.078  34.773  33.075  1.00  0.00    -0.200 F 
ATOM     76  F   UNL A   1      32.726  35.833  30.955  1.00  0.00    -0.200 F 
ENDBRANCH  52  66
BRANCH  53  77
ATOM     77  C   UNL A   1      44.528  28.816  29.524  1.00  0.00     0.064 A 
ATOM     78  C   UNL A   1      45.292  27.811  30.151  1.00  0.00     0.173 A 
ATOM     79  C   UNL A   1      43.997  28.539  28.261  1.00  0.00     0.173 A 
ATOM     80  F   UNL A   1      45.837  28.036  31.358  1.00  0.00    -0.203 F 
ATOM     81  C   UNL A   1      45.354  26.525  29.625  1.00  0.00     0.198 A 
ATOM     82  C   UNL A   1      44.100  27.259  27.717  1.00  0.00     0.198 A 
ATOM     83  F   UNL A   1      43.266  29.458  27.613  1.00  0.00    -0.203 F 
ATOM     84  F   UNL A   1      45.932  25.540  30.329  1.00  0.00    -0.200 F 
ATOM     85  C   UNL A   1      44.725  26.242  28.424  1.00  0.00     0.200 A 
ATOM     86  F   UNL A   1      43.498  26.986  26.551  1.00  0.00    -0.200 F 
ATOM     87  F   UNL A   1      44.680  24.980  27.975  1.00  0.00    -0.200 F 
ENDBRANCH  53  77
BRANCH  65  88
ATOM     88  C   UNL A   1      42.443  35.780  29.387  1.00  0.00     0.064 A 
ATOM     89  C   UNL A   1      41.900  36.177  28.154  1.00  0.00     0.173 A 
ATOM     90  C   UNL A   1      43.285  36.725  30.016  1.00  0.00     0.173 A 
ATOM     91  F   UNL A   1      41.178  35.326  27.411  1.00  0.00    -0.203 F 
ATOM     92  C   UNL A   1      42.116  37.456  27.631  1.00  0.00     0.198 A 
ATOM     93  C   UNL A   1      43.542  37.980  29.466  1.00  0.00     0.198 A 
ATOM     94  F   UNL A   1      43.873  36.473  31.193  1.00  0.00    -0.203 F 
ATOM     95  F   UNL A   1      41.526  37.811  26.481  1.00  0.00    -0.200 F 
ATOM     96  C   UNL A   1      42.941  38.354  28.283  1.00  0.00     0.200 A 
ATOM     97  F   UNL A   1      44.373  38.823  30.096  1.00  0.00    -0.200 F 
ATOM     98  F   UNL A   1      43.160  39.572  27.772  1.00  0.00    -0.200 F 
ENDBRANCH  65  88
ENDBRANCH  39  40
ENDBRANCH  31  34
ENDBRANCH  29  30
ENDBRANCH  28  29
ENDBRANCH  27  28
ENDBRANCH   3  27
TORSDOF 17
ENDMDL
