MODEL 1
REMARK VINA RESULT:     -11.5      0.000      0.000
REMARK SMILES CC[NH2+][C@@](C)(C[C@@H](C)Sc1ccncc1)C(=O)NCCCNC(=O)c1ccc(-c2c3nc(c(-c4c(F)c(F)c(F)c(F)c4F)c4ccc([nH]4)c(-c4c(F)c(F)c(F)c(F)c4F)c4nc(c(-c5c(F)c(F)c(F)c(F)c5F)c5ccc2[nH]5)C=C4)C=C3)cc1
REMARK SMILES IDX 19 1 18 2 16 3 17 4 4 6 5 7 3 8 2 11 1 12 6 13 7 14 8 15
REMARK SMILES IDX 9 16 10 17 11 18 15 19 12 20 14 21 13 22 20 23 21 24 22 25
REMARK SMILES IDX 23 26 24 28 25 29 26 30 87 31 27 32 86 33 28 34 29 35 30 36
REMARK SMILES IDX 80 37 31 38 85 39 79 40 81 41 32 42 84 43 78 44 77 45 33 47
REMARK SMILES IDX 65 48 45 49 64 50 46 51 49 52 63 53 82 54 47 55 48 56 62 58
REMARK SMILES IDX 83 59 50 60 34 61 35 62 43 63 36 64 37 65 41 66 44 67 38 68
REMARK SMILES IDX 39 69 42 70 40 71 66 72 67 73 75 74 68 75 69 76 73 77 76 78
REMARK SMILES IDX 70 79 71 80 74 81 72 82 51 83 52 84 60 85 53 86 54 87 58 88
REMARK SMILES IDX 61 89 55 90 56 91 59 92 57 93
REMARK H PARENT 18 5 3 9 3 10 22 27 81 46 49 57
REMARK Flexibility Score: inf
ROOT
ATOM      1  C   UNL A   1      31.420  30.863  25.959  1.00  0.00     0.118 C 
ENDROOT
BRANCH   1   2
ATOM      2  N   UNL A   1      32.699  30.282  26.325  1.00  0.00    -0.351 N 
ATOM      3  C   UNL A   1      33.419  29.221  25.871  1.00  0.00     0.281 C 
ATOM      4  O   UNL A   1      34.424  28.975  26.549  1.00  0.00    -0.268 OA
ATOM      5  H   UNL A   1      33.141  30.759  27.063  1.00  0.00     0.163 HD
BRANCH   3   6
ATOM      6  C   UNL A   1      33.014  28.377  24.606  1.00  0.00     0.173 C 
ATOM      7  C   UNL A   1      33.529  29.061  23.316  1.00  0.00     0.090 C 
BRANCH   6   8
ATOM      8  N   UNL A   1      33.610  27.004  24.664  1.00  0.00    -0.334 N 
ATOM      9  H   UNL A   1      33.732  26.673  23.707  1.00  0.00     0.347 HD
ATOM     10  H   UNL A   1      34.484  27.097  25.180  1.00  0.00     0.347 HD
BRANCH   8  11
ATOM     11  C   UNL A   1      32.814  26.005  25.392  1.00  0.00     0.257 C 
ATOM     12  C   UNL A   1      33.654  24.765  25.665  1.00  0.00     0.071 C 
ENDBRANCH   8  11
ENDBRANCH   6   8
BRANCH   6  13
ATOM     13  C   UNL A   1      31.468  28.222  24.494  1.00  0.00     0.093 C 
BRANCH  13  14
ATOM     14  C   UNL A   1      30.810  28.242  23.097  1.00  0.00     0.055 C 
ATOM     15  C   UNL A   1      31.167  27.098  22.156  1.00  0.00     0.020 C 
BRANCH  14  16
ATOM     16  S   UNL A   1      28.953  28.401  23.253  1.00  0.00    -0.123 SA
BRANCH  16  17
ATOM     17  C   UNL A   1      28.593  30.068  22.718  1.00  0.00     0.011 A 
ATOM     18  C   UNL A   1      28.806  31.161  23.556  1.00  0.00     0.035 A 
ATOM     19  C   UNL A   1      28.221  30.305  21.395  1.00  0.00     0.035 A 
ATOM     20  C   UNL A   1      28.573  32.434  23.058  1.00  0.00     0.112 A 
ATOM     21  C   UNL A   1      28.028  31.616  20.984  1.00  0.00     0.112 A 
ATOM     22  N   UNL A   1      28.175  32.686  21.794  1.00  0.00    -0.265 NA
ENDBRANCH  16  17
ENDBRANCH  14  16
ENDBRANCH  13  14
ENDBRANCH   6  13
ENDBRANCH   3   6
ENDBRANCH   1   2
BRANCH   1  23
ATOM     23  C   UNL A   1      31.233  32.249  26.561  1.00  0.00     0.042 C 
BRANCH  23  24
ATOM     24  C   UNL A   1      32.478  32.810  27.232  1.00  0.00     0.118 C 
BRANCH  24  25
ATOM     25  N   UNL A   1      32.328  34.219  27.565  1.00  0.00    -0.352 N 
ATOM     26  C   UNL A   1      32.951  34.959  28.538  1.00  0.00     0.251 C 
ATOM     27  H   UNL A   1      31.685  34.716  27.009  1.00  0.00     0.163 HD
ATOM     28  O   UNL A   1      32.515  36.073  28.831  1.00  0.00    -0.269 OA
BRANCH  26  29
ATOM     29  C   UNL A   1      34.136  34.427  29.246  1.00  0.00     0.039 A 
ATOM     30  C   UNL A   1      33.964  33.772  30.470  1.00  0.00     0.014 A 
ATOM     31  C   UNL A   1      35.419  34.601  28.724  1.00  0.00     0.014 A 
ATOM     32  C   UNL A   1      35.071  33.236  31.134  1.00  0.00     0.010 A 
ATOM     33  C   UNL A   1      36.507  33.992  29.339  1.00  0.00     0.010 A 
ATOM     34  C   UNL A   1      36.347  33.311  30.556  1.00  0.00    -0.014 A 
BRANCH  34  35
ATOM     35  C   UNL A   1      37.545  32.720  31.206  1.00  0.00     0.031 A 
ATOM     36  C   UNL A   1      38.285  31.601  30.525  1.00  0.00     0.074 A 
ATOM     37  C   UNL A   1      37.905  33.115  32.442  1.00  0.00     0.049 A 
ATOM     38  N   UNL A   1      39.238  30.831  30.987  1.00  0.00    -0.248 NA
ATOM     39  C   UNL A   1      37.871  31.282  29.149  1.00  0.00     0.031 C 
ATOM     40  C   UNL A   1      37.246  34.160  33.224  1.00  0.00     0.029 A 
ATOM     41  N   UNL A   1      38.906  32.662  33.267  1.00  0.00    -0.354 N 
ATOM     42  C   UNL A   1      39.508  29.918  29.976  1.00  0.00     0.074 A 
ATOM     43  C   UNL A   1      38.592  30.202  28.893  1.00  0.00     0.031 C 
ATOM     44  C   UNL A   1      37.870  34.284  34.406  1.00  0.00     0.029 A 
ATOM     45  C   UNL A   1      38.936  33.291  34.488  1.00  0.00     0.049 A 
ATOM     46  H   UNL A   1      39.540  31.956  33.009  1.00  0.00     0.167 HD
ATOM     47  C   UNL A   1      40.447  28.943  29.948  1.00  0.00     0.037 A 
ATOM     48  C   UNL A   1      39.720  33.072  35.562  1.00  0.00     0.037 A 
ATOM     49  C   UNL A   1      41.380  28.690  31.013  1.00  0.00     0.049 A 
ATOM     50  C   UNL A   1      40.760  31.984  35.504  1.00  0.00     0.074 A 
ATOM     51  C   UNL A   1      42.405  27.761  31.061  1.00  0.00     0.029 A 
ATOM     52  N   UNL A   1      41.407  29.378  32.218  1.00  0.00    -0.354 N 
ATOM     53  N   UNL A   1      41.035  31.152  34.529  1.00  0.00    -0.248 NA
ATOM     54  C   UNL A   1      41.600  31.803  36.697  1.00  0.00     0.031 C 
ATOM     55  C   UNL A   1      43.024  27.857  32.311  1.00  0.00     0.029 A 
ATOM     56  C   UNL A   1      42.421  28.883  33.021  1.00  0.00     0.049 A 
ATOM     57  H   UNL A   1      40.796  30.109  32.465  1.00  0.00     0.167 HD
ATOM     58  C   UNL A   1      42.098  30.377  34.974  1.00  0.00     0.074 A 
ATOM     59  C   UNL A   1      42.422  30.840  36.308  1.00  0.00     0.031 C 
ATOM     60  C   UNL A   1      42.747  29.375  34.335  1.00  0.00     0.037 A 
BRANCH  47  61
ATOM     61  C   UNL A   1      40.508  28.071  28.727  1.00  0.00     0.064 A 
ATOM     62  C   UNL A   1      41.276  28.424  27.606  1.00  0.00     0.173 A 
ATOM     63  C   UNL A   1      39.820  26.848  28.690  1.00  0.00     0.173 A 
ATOM     64  F   UNL A   1      41.945  29.586  27.585  1.00  0.00    -0.203 F 
ATOM     65  C   UNL A   1      41.325  27.602  26.483  1.00  0.00     0.198 A 
ATOM     66  C   UNL A   1      39.899  26.013  27.578  1.00  0.00     0.198 A 
ATOM     67  F   UNL A   1      39.077  26.458  29.736  1.00  0.00    -0.203 F 
ATOM     68  F   UNL A   1      42.022  27.986  25.404  1.00  0.00    -0.200 F 
ATOM     69  C   UNL A   1      40.643  26.395  26.472  1.00  0.00     0.200 A 
ATOM     70  F   UNL A   1      39.251  24.840  27.575  1.00  0.00    -0.200 F 
ATOM     71  F   UNL A   1      40.698  25.601  25.394  1.00  0.00    -0.200 F 
ENDBRANCH  47  61
BRANCH  48  72
ATOM     72  C   UNL A   1      39.563  33.910  36.778  1.00  0.00     0.064 A 
ATOM     73  C   UNL A   1      40.215  35.148  36.885  1.00  0.00     0.173 A 
ATOM     74  C   UNL A   1      38.767  33.497  37.857  1.00  0.00     0.173 A 
ATOM     75  F   UNL A   1      41.006  35.575  35.890  1.00  0.00    -0.203 F 
ATOM     76  C   UNL A   1      40.092  35.929  38.032  1.00  0.00     0.198 A 
ATOM     77  C   UNL A   1      38.623  34.293  38.991  1.00  0.00     0.198 A 
ATOM     78  F   UNL A   1      38.122  32.322  37.804  1.00  0.00    -0.203 F 
ATOM     79  F   UNL A   1      40.766  37.084  38.128  1.00  0.00    -0.200 F 
ATOM     80  C   UNL A   1      39.291  35.504  39.081  1.00  0.00     0.200 A 
ATOM     81  F   UNL A   1      37.838  33.884  39.998  1.00  0.00    -0.200 F 
ATOM     82  F   UNL A   1      39.173  36.257  40.183  1.00  0.00    -0.200 F 
ENDBRANCH  48  72
BRANCH  60  83
ATOM     83  C   UNL A   1      43.917  28.746  35.036  1.00  0.00     0.064 A 
ATOM     84  C   UNL A   1      45.218  29.248  34.900  1.00  0.00     0.173 A 
ATOM     85  C   UNL A   1      43.715  27.666  35.910  1.00  0.00     0.173 A 
ATOM     86  F   UNL A   1      45.464  30.270  34.066  1.00  0.00    -0.203 F 
ATOM     87  C   UNL A   1      46.279  28.680  35.599  1.00  0.00     0.198 A 
ATOM     88  C   UNL A   1      44.773  27.119  36.628  1.00  0.00     0.198 A 
ATOM     89  F   UNL A   1      42.487  27.154  36.080  1.00  0.00    -0.203 F 
ATOM     90  F   UNL A   1      47.522  29.150  35.426  1.00  0.00    -0.200 F 
ATOM     91  C   UNL A   1      46.056  27.623  36.469  1.00  0.00     0.200 A 
ATOM     92  F   UNL A   1      44.551  26.109  37.481  1.00  0.00    -0.200 F 
ATOM     93  F   UNL A   1      47.076  27.088  37.154  1.00  0.00    -0.200 F 
ENDBRANCH  60  83
ENDBRANCH  34  35
ENDBRANCH  26  29
ENDBRANCH  24  25
ENDBRANCH  23  24
ENDBRANCH   1  23
TORSDOF 16
ENDMDL
MODEL 2
REMARK VINA RESULT:     -11.5      6.197     11.372
REMARK SMILES CC[NH2+][C@@](C)(C[C@@H](C)Sc1ccncc1)C(=O)NCCCNC(=O)c1ccc(-c2c3nc(c(-c4c(F)c(F)c(F)c(F)c4F)c4ccc([nH]4)c(-c4c(F)c(F)c(F)c(F)c4F)c4nc(c(-c5c(F)c(F)c(F)c(F)c5F)c5ccc2[nH]5)C=C4)C=C3)cc1
REMARK SMILES IDX 19 1 18 2 16 3 17 4 4 6 5 7 3 8 2 11 1 12 6 13 7 14 8 15
REMARK SMILES IDX 9 16 10 17 11 18 15 19 12 20 14 21 13 22 20 23 21 24 22 25
REMARK SMILES IDX 23 26 24 28 25 29 26 30 87 31 27 32 86 33 28 34 29 35 30 36
REMARK SMILES IDX 80 37 31 38 85 39 79 40 81 41 32 42 84 43 78 44 77 45 33 47
REMARK SMILES IDX 65 48 45 49 64 50 46 51 49 52 63 53 82 54 47 55 48 56 62 58
REMARK SMILES IDX 83 59 50 60 34 61 35 62 43 63 36 64 37 65 41 66 44 67 38 68
REMARK SMILES IDX 39 69 42 70 40 71 66 72 67 73 75 74 68 75 69 76 73 77 76 78
REMARK SMILES IDX 70 79 71 80 74 81 72 82 51 83 52 84 60 85 53 86 54 87 58 88
REMARK SMILES IDX 61 89 55 90 56 91 59 92 57 93
REMARK H PARENT 18 5 3 9 3 10 22 27 81 46 49 57
REMARK Flexibility Score: inf
ROOT
ATOM      1  C   UNL A   1      36.779  20.624  24.960  1.00  0.00     0.118 C 
ENDROOT
BRANCH   1   2
ATOM      2  N   UNL A   1      37.033  21.678  23.996  1.00  0.00    -0.351 N 
ATOM      3  C   UNL A   1      36.312  22.739  23.542  1.00  0.00     0.281 C 
ATOM      4  O   UNL A   1      36.847  23.339  22.603  1.00  0.00    -0.268 OA
ATOM      5  H   UNL A   1      37.921  21.610  23.577  1.00  0.00     0.163 HD
BRANCH   3   6
ATOM      6  C   UNL A   1      34.923  23.163  24.148  1.00  0.00     0.173 C 
ATOM      7  C   UNL A   1      35.097  23.635  25.613  1.00  0.00     0.090 C 
BRANCH   6   8
ATOM      8  N   UNL A   1      34.323  24.295  23.371  1.00  0.00    -0.334 N 
ATOM      9  H   UNL A   1      33.905  24.946  24.036  1.00  0.00     0.347 HD
ATOM     10  H   UNL A   1      35.084  24.699  22.827  1.00  0.00     0.347 HD
BRANCH   8  11
ATOM     11  C   UNL A   1      33.289  23.911  22.401  1.00  0.00     0.257 C 
ATOM     12  C   UNL A   1      32.029  24.736  22.623  1.00  0.00     0.071 C 
ENDBRANCH   8  11
ENDBRANCH   6   8
BRANCH   6  13
ATOM     13  C   UNL A   1      33.907  21.981  24.131  1.00  0.00     0.093 C 
BRANCH  13  14
ATOM     14  C   UNL A   1      33.001  21.753  25.361  1.00  0.00     0.055 C 
ATOM     15  C   UNL A   1      31.515  22.035  25.178  1.00  0.00     0.020 C 
BRANCH  14  16
ATOM     16  S   UNL A   1      33.257  20.032  26.047  1.00  0.00    -0.123 SA
BRANCH  16  17
ATOM     17  C   UNL A   1      33.319  18.973  24.608  1.00  0.00     0.011 A 
ATOM     18  C   UNL A   1      34.264  17.955  24.497  1.00  0.00     0.035 A 
ATOM     19  C   UNL A   1      32.323  19.068  23.637  1.00  0.00     0.035 A 
ATOM     20  C   UNL A   1      34.216  17.124  23.389  1.00  0.00     0.112 A 
ATOM     21  C   UNL A   1      32.348  18.179  22.572  1.00  0.00     0.112 A 
ATOM     22  N   UNL A   1      33.287  17.221  22.415  1.00  0.00    -0.265 NA
ENDBRANCH  16  17
ENDBRANCH  14  16
ENDBRANCH  13  14
ENDBRANCH   6  13
ENDBRANCH   3   6
ENDBRANCH   1   2
BRANCH   1  23
ATOM     23  C   UNL A   1      37.934  19.635  25.040  1.00  0.00     0.042 C 
BRANCH  23  24
ATOM     24  C   UNL A   1      39.143  20.151  25.805  1.00  0.00     0.118 C 
BRANCH  24  25
ATOM     25  N   UNL A   1      40.205  19.157  25.880  1.00  0.00    -0.352 N 
ATOM     26  C   UNL A   1      41.554  19.329  26.056  1.00  0.00     0.251 C 
ATOM     27  H   UNL A   1      39.910  18.222  25.792  1.00  0.00     0.163 HD
ATOM     28  O   UNL A   1      42.322  18.390  25.843  1.00  0.00    -0.269 OA
BRANCH  26  29
ATOM     29  C   UNL A   1      42.096  20.636  26.487  1.00  0.00     0.039 A 
ATOM     30  C   UNL A   1      42.515  21.555  25.521  1.00  0.00     0.014 A 
ATOM     31  C   UNL A   1      42.226  20.944  27.843  1.00  0.00     0.014 A 
ATOM     32  C   UNL A   1      42.999  22.807  25.913  1.00  0.00     0.010 A 
ATOM     33  C   UNL A   1      42.623  22.218  28.230  1.00  0.00     0.010 A 
ATOM     34  C   UNL A   1      43.024  23.161  27.271  1.00  0.00    -0.014 A 
BRANCH  34  35
ATOM     35  C   UNL A   1      43.492  24.494  27.730  1.00  0.00     0.031 A 
ATOM     36  C   UNL A   1      42.486  25.547  28.104  1.00  0.00     0.074 A 
ATOM     37  C   UNL A   1      44.806  24.788  27.717  1.00  0.00     0.049 A 
ATOM     38  N   UNL A   1      42.667  26.819  28.359  1.00  0.00    -0.248 NA
ATOM     39  C   UNL A   1      41.079  25.120  28.161  1.00  0.00     0.031 C 
ATOM     40  C   UNL A   1      45.877  23.868  27.338  1.00  0.00     0.029 A 
ATOM     41  N   UNL A   1      45.461  25.960  28.010  1.00  0.00    -0.354 N 
ATOM     42  C   UNL A   1      41.400  27.346  28.569  1.00  0.00     0.074 A 
ATOM     43  C   UNL A   1      40.455  26.269  28.371  1.00  0.00     0.031 C 
ATOM     44  C   UNL A   1      47.057  24.501  27.440  1.00  0.00     0.029 A 
ATOM     45  C   UNL A   1      46.822  25.886  27.837  1.00  0.00     0.049 A 
ATOM     46  H   UNL A   1      44.999  26.774  28.315  1.00  0.00     0.167 HD
ATOM     47  C   UNL A   1      41.058  28.610  28.914  1.00  0.00     0.037 A 
ATOM     48  C   UNL A   1      47.769  26.836  27.961  1.00  0.00     0.037 A 
ATOM     49  C   UNL A   1      42.005  29.667  29.148  1.00  0.00     0.049 A 
ATOM     50  C   UNL A   1      47.363  28.233  28.350  1.00  0.00     0.074 A 
ATOM     51  C   UNL A   1      41.763  30.969  29.552  1.00  0.00     0.029 A 
ATOM     52  N   UNL A   1      43.379  29.540  29.004  1.00  0.00    -0.354 N 
ATOM     53  N   UNL A   1      46.166  28.713  28.585  1.00  0.00    -0.248 NA
ATOM     54  C   UNL A   1      48.440  29.224  28.489  1.00  0.00     0.031 C 
ATOM     55  C   UNL A   1      42.988  31.641  29.612  1.00  0.00     0.029 A 
ATOM     56  C   UNL A   1      43.996  30.745  29.299  1.00  0.00     0.049 A 
ATOM     57  H   UNL A   1      43.845  28.717  28.733  1.00  0.00     0.167 HD
ATOM     58  C   UNL A   1      46.348  30.044  28.935  1.00  0.00     0.074 A 
ATOM     59  C   UNL A   1      47.773  30.298  28.884  1.00  0.00     0.031 C 
ATOM     60  C   UNL A   1      45.419  30.972  29.269  1.00  0.00     0.037 A 
BRANCH  47  61
ATOM     61  C   UNL A   1      39.595  28.921  29.055  1.00  0.00     0.064 A 
ATOM     62  C   UNL A   1      38.940  28.840  30.293  1.00  0.00     0.173 A 
ATOM     63  C   UNL A   1      38.847  29.341  27.944  1.00  0.00     0.173 A 
ATOM     64  F   UNL A   1      39.605  28.434  31.385  1.00  0.00    -0.203 F 
ATOM     65  C   UNL A   1      37.583  29.136  30.407  1.00  0.00     0.198 A 
ATOM     66  C   UNL A   1      37.499  29.668  28.069  1.00  0.00     0.198 A 
ATOM     67  F   UNL A   1      39.425  29.443  26.738  1.00  0.00    -0.203 F 
ATOM     68  F   UNL A   1      36.967  29.000  31.589  1.00  0.00    -0.200 F 
ATOM     69  C   UNL A   1      36.866  29.556  29.297  1.00  0.00     0.200 A 
ATOM     70  F   UNL A   1      36.811  30.089  26.998  1.00  0.00    -0.200 F 
ATOM     71  F   UNL A   1      35.563  29.849  29.410  1.00  0.00    -0.200 F 
ENDBRANCH  47  61
BRANCH  48  72
ATOM     72  C   UNL A   1      49.196  26.495  27.730  1.00  0.00     0.064 A 
ATOM     73  C   UNL A   1      50.070  26.296  28.809  1.00  0.00     0.173 A 
ATOM     74  C   UNL A   1      49.719  26.364  26.435  1.00  0.00     0.173 A 
ATOM     75  F   UNL A   1      49.622  26.434  30.066  1.00  0.00    -0.203 F 
ATOM     76  C   UNL A   1      51.415  26.000  28.602  1.00  0.00     0.198 A 
ATOM     77  C   UNL A   1      51.058  26.039  26.230  1.00  0.00     0.198 A 
ATOM     78  F   UNL A   1      48.925  26.543  25.369  1.00  0.00    -0.203 F 
ATOM     79  F   UNL A   1      52.238  25.864  29.651  1.00  0.00    -0.200 F 
ATOM     80  C   UNL A   1      51.906  25.865  27.312  1.00  0.00     0.200 A 
ATOM     81  F   UNL A   1      51.527  25.898  24.982  1.00  0.00    -0.200 F 
ATOM     82  F   UNL A   1      53.200  25.578  27.114  1.00  0.00    -0.200 F 
ENDBRANCH  48  72
BRANCH  60  83
ATOM     83  C   UNL A   1      45.909  32.333  29.670  1.00  0.00     0.064 A 
ATOM     84  C   UNL A   1      46.036  33.377  28.744  1.00  0.00     0.173 A 
ATOM     85  C   UNL A   1      46.190  32.610  31.018  1.00  0.00     0.173 A 
ATOM     86  F   UNL A   1      45.791  33.158  27.443  1.00  0.00    -0.203 F 
ATOM     87  C   UNL A   1      46.444  34.645  29.148  1.00  0.00     0.198 A 
ATOM     88  C   UNL A   1      46.570  33.885  31.422  1.00  0.00     0.198 A 
ATOM     89  F   UNL A   1      46.077  31.646  31.944  1.00  0.00    -0.203 F 
ATOM     90  F   UNL A   1      46.595  35.619  28.242  1.00  0.00    -0.200 F 
ATOM     91  C   UNL A   1      46.701  34.901  30.487  1.00  0.00     0.200 A 
ATOM     92  F   UNL A   1      46.804  34.134  32.719  1.00  0.00    -0.200 F 
ATOM     93  F   UNL A   1      47.079  36.126  30.877  1.00  0.00    -0.200 F 
ENDBRANCH  60  83
ENDBRANCH  34  35
ENDBRANCH  26  29
ENDBRANCH  24  25
ENDBRANCH  23  24
ENDBRANCH   1  23
TORSDOF 16
ENDMDL
MODEL 3
REMARK VINA RESULT:     -11.4      0.833      1.550
REMARK SMILES CC[NH2+][C@@](C)(C[C@@H](C)Sc1ccncc1)C(=O)NCCCNC(=O)c1ccc(-c2c3nc(c(-c4c(F)c(F)c(F)c(F)c4F)c4ccc([nH]4)c(-c4c(F)c(F)c(F)c(F)c4F)c4nc(c(-c5c(F)c(F)c(F)c(F)c5F)c5ccc2[nH]5)C=C4)C=C3)cc1
REMARK SMILES IDX 19 1 18 2 16 3 17 4 4 6 5 7 3 8 2 11 1 12 6 13 7 14 8 15
REMARK SMILES IDX 9 16 10 17 11 18 15 19 12 20 14 21 13 22 20 23 21 24 22 25
REMARK SMILES IDX 23 26 24 28 25 29 26 30 87 31 27 32 86 33 28 34 29 35 30 36
REMARK SMILES IDX 80 37 31 38 85 39 79 40 81 41 32 42 84 43 78 44 77 45 33 47
REMARK SMILES IDX 65 48 45 49 64 50 46 51 49 52 63 53 82 54 47 55 48 56 62 58
REMARK SMILES IDX 83 59 50 60 34 61 35 62 43 63 36 64 37 65 41 66 44 67 38 68
REMARK SMILES IDX 39 69 42 70 40 71 66 72 67 73 75 74 68 75 69 76 73 77 76 78
REMARK SMILES IDX 70 79 71 80 74 81 72 82 51 83 52 84 60 85 53 86 54 87 58 88
REMARK SMILES IDX 61 89 55 90 56 91 59 92 57 93
REMARK H PARENT 18 5 3 9 3 10 22 27 81 46 49 57
REMARK Flexibility Score: inf
ROOT
ATOM      1  C   UNL A   1      31.604  30.250  26.165  1.00  0.00     0.118 C 
ENDROOT
BRANCH   1   2
ATOM      2  N   UNL A   1      32.460  30.089  25.004  1.00  0.00    -0.351 N 
ATOM      3  C   UNL A   1      32.533  29.172  24.002  1.00  0.00     0.281 C 
ATOM      4  O   UNL A   1      33.509  29.324  23.258  1.00  0.00    -0.268 OA
ATOM      5  H   UNL A   1      33.138  30.799  24.926  1.00  0.00     0.163 HD
BRANCH   3   6
ATOM      6  C   UNL A   1      31.479  28.020  23.807  1.00  0.00     0.173 C 
ATOM      7  C   UNL A   1      31.704  27.310  22.449  1.00  0.00     0.090 C 
BRANCH   6   8
ATOM      8  N   UNL A   1      31.606  26.989  24.887  1.00  0.00    -0.334 N 
ATOM      9  H   UNL A   1      31.993  27.444  25.713  1.00  0.00     0.347 HD
ATOM     10  H   UNL A   1      30.669  26.613  25.028  1.00  0.00     0.347 HD
BRANCH   8  11
ATOM     11  C   UNL A   1      32.460  25.839  24.560  1.00  0.00     0.257 C 
ATOM     12  C   UNL A   1      33.811  25.978  25.247  1.00  0.00     0.071 C 
ENDBRANCH   8  11
ENDBRANCH   6   8
BRANCH   6  13
ATOM     13  C   UNL A   1      30.021  28.567  23.838  1.00  0.00     0.093 C 
BRANCH  13  14
ATOM     14  C   UNL A   1      28.883  27.706  23.246  1.00  0.00     0.055 C 
ATOM     15  C   UNL A   1      28.643  26.349  23.896  1.00  0.00     0.020 C 
BRANCH  14  16
ATOM     16  S   UNL A   1      27.291  28.687  23.181  1.00  0.00    -0.123 SA
BRANCH  16  17
ATOM     17  C   UNL A   1      27.784  30.318  22.640  1.00  0.00     0.011 A 
ATOM     18  C   UNL A   1      28.017  30.596  21.295  1.00  0.00     0.035 A 
ATOM     19  C   UNL A   1      27.806  31.372  23.553  1.00  0.00     0.035 A 
ATOM     20  C   UNL A   1      28.328  31.897  20.931  1.00  0.00     0.112 A 
ATOM     21  C   UNL A   1      28.111  32.644  23.091  1.00  0.00     0.112 A 
ATOM     22  N   UNL A   1      28.395  32.926  21.800  1.00  0.00    -0.265 NA
ENDBRANCH  16  17
ENDBRANCH  14  16
ENDBRANCH  13  14
ENDBRANCH   6  13
ENDBRANCH   3   6
ENDBRANCH   1   2
BRANCH   1  23
ATOM     23  C   UNL A   1      31.426  31.714  26.543  1.00  0.00     0.042 C 
BRANCH  23  24
ATOM     24  C   UNL A   1      32.715  32.412  26.951  1.00  0.00     0.118 C 
BRANCH  24  25
ATOM     25  N   UNL A   1      32.479  33.783  27.379  1.00  0.00    -0.352 N 
ATOM     26  C   UNL A   1      33.032  34.483  28.422  1.00  0.00     0.251 C 
ATOM     27  H   UNL A   1      31.827  34.285  26.838  1.00  0.00     0.163 HD
ATOM     28  O   UNL A   1      32.527  35.547  28.778  1.00  0.00    -0.269 OA
BRANCH  26  29
ATOM     29  C   UNL A   1      34.223  33.963  29.129  1.00  0.00     0.039 A 
ATOM     30  C   UNL A   1      34.063  32.965  30.095  1.00  0.00     0.014 A 
ATOM     31  C   UNL A   1      35.493  34.481  28.867  1.00  0.00     0.014 A 
ATOM     32  C   UNL A   1      35.183  32.442  30.748  1.00  0.00     0.010 A 
ATOM     33  C   UNL A   1      36.613  33.900  29.450  1.00  0.00     0.010 A 
ATOM     34  C   UNL A   1      36.471  32.881  30.405  1.00  0.00    -0.014 A 
BRANCH  34  35
ATOM     35  C   UNL A   1      37.691  32.324  31.043  1.00  0.00     0.031 A 
ATOM     36  C   UNL A   1      38.476  31.252  30.339  1.00  0.00     0.074 A 
ATOM     37  C   UNL A   1      38.035  32.707  32.288  1.00  0.00     0.049 A 
ATOM     38  N   UNL A   1      39.459  30.511  30.785  1.00  0.00    -0.248 NA
ATOM     39  C   UNL A   1      38.075  30.947  28.956  1.00  0.00     0.031 C 
ATOM     40  C   UNL A   1      37.334  33.708  33.091  1.00  0.00     0.029 A 
ATOM     41  N   UNL A   1      39.054  32.277  33.104  1.00  0.00    -0.354 N 
ATOM     42  C   UNL A   1      39.765  29.631  29.754  1.00  0.00     0.074 A 
ATOM     43  C   UNL A   1      38.839  29.902  28.677  1.00  0.00     0.031 C 
ATOM     44  C   UNL A   1      37.953  33.831  34.277  1.00  0.00     0.029 A 
ATOM     45  C   UNL A   1      39.059  32.880  34.338  1.00  0.00     0.049 A 
ATOM     46  H   UNL A   1      39.716  31.602  32.830  1.00  0.00     0.167 HD
ATOM     47  C   UNL A   1      40.743  28.696  29.706  1.00  0.00     0.037 A 
ATOM     48  C   UNL A   1      39.851  32.669  35.408  1.00  0.00     0.037 A 
ATOM     49  C   UNL A   1      41.686  28.458  30.766  1.00  0.00     0.049 A 
ATOM     50  C   UNL A   1      40.934  31.626  35.327  1.00  0.00     0.074 A 
ATOM     51  C   UNL A   1      42.747  27.570  30.794  1.00  0.00     0.029 A 
ATOM     52  N   UNL A   1      41.685  29.120  31.985  1.00  0.00    -0.354 N 
ATOM     53  N   UNL A   1      41.242  30.827  34.334  1.00  0.00    -0.248 NA
ATOM     54  C   UNL A   1      41.780  31.453  36.517  1.00  0.00     0.031 C 
ATOM     55  C   UNL A   1      43.362  27.664  32.047  1.00  0.00     0.029 A 
ATOM     56  C   UNL A   1      42.718  28.649  32.778  1.00  0.00     0.049 A 
ATOM     57  H   UNL A   1      41.045  29.820  32.248  1.00  0.00     0.167 HD
ATOM     58  C   UNL A   1      42.335  30.086  34.763  1.00  0.00     0.074 A 
ATOM     59  C   UNL A   1      42.641  30.532  36.107  1.00  0.00     0.031 C 
ATOM     60  C   UNL A   1      43.024  29.124  34.103  1.00  0.00     0.037 A 
BRANCH  47  61
ATOM     61  C   UNL A   1      40.840  27.854  28.466  1.00  0.00     0.064 A 
ATOM     62  C   UNL A   1      41.615  28.249  27.365  1.00  0.00     0.173 A 
ATOM     63  C   UNL A   1      40.177  26.618  28.391  1.00  0.00     0.173 A 
ATOM     64  F   UNL A   1      42.260  29.425  27.380  1.00  0.00    -0.203 F 
ATOM     65  C   UNL A   1      41.697  27.454  26.224  1.00  0.00     0.198 A 
ATOM     66  C   UNL A   1      40.289  25.812  27.262  1.00  0.00     0.198 A 
ATOM     67  F   UNL A   1      39.429  26.188  29.418  1.00  0.00    -0.203 F 
ATOM     68  F   UNL A   1      42.400  27.877  25.164  1.00  0.00    -0.200 F 
ATOM     69  C   UNL A   1      41.040  26.234  26.176  1.00  0.00     0.200 A 
ATOM     70  F   UNL A   1      39.666  24.625  27.223  1.00  0.00    -0.200 F 
ATOM     71  F   UNL A   1      41.127  25.467  25.081  1.00  0.00    -0.200 F 
ENDBRANCH  47  61
BRANCH  48  72
ATOM     72  C   UNL A   1      39.660  33.474  36.642  1.00  0.00     0.064 A 
ATOM     73  C   UNL A   1      40.371  34.667  36.837  1.00  0.00     0.173 A 
ATOM     74  C   UNL A   1      38.772  33.071  37.650  1.00  0.00     0.173 A 
ATOM     75  F   UNL A   1      41.249  35.081  35.911  1.00  0.00    -0.203 F 
ATOM     76  C   UNL A   1      40.216  35.415  38.001  1.00  0.00     0.198 A 
ATOM     77  C   UNL A   1      38.597  33.836  38.802  1.00  0.00     0.198 A 
ATOM     78  F   UNL A   1      38.067  31.938  37.512  1.00  0.00    -0.203 F 
ATOM     79  F   UNL A   1      40.945  36.525  38.184  1.00  0.00    -0.200 F 
ATOM     80  C   UNL A   1      39.325  35.002  38.980  1.00  0.00     0.200 A 
ATOM     81  F   UNL A   1      37.726  33.440  39.740  1.00  0.00    -0.200 F 
ATOM     82  F   UNL A   1      39.175  35.723  40.100  1.00  0.00    -0.200 F 
ENDBRANCH  48  72
BRANCH  60  83
ATOM     83  C   UNL A   1      44.218  28.529  34.791  1.00  0.00     0.064 A 
ATOM     84  C   UNL A   1      44.125  27.358  35.555  1.00  0.00     0.173 A 
ATOM     85  C   UNL A   1      45.487  29.107  34.625  1.00  0.00     0.173 A 
ATOM     86  F   UNL A   1      42.932  26.776  35.755  1.00  0.00    -0.203 F 
ATOM     87  C   UNL A   1      45.255  26.796  36.143  1.00  0.00     0.198 A 
ATOM     88  C   UNL A   1      46.618  28.527  35.189  1.00  0.00     0.198 A 
ATOM     89  F   UNL A   1      45.630  30.225  33.896  1.00  0.00    -0.203 F 
ATOM     90  F   UNL A   1      45.138  25.697  36.900  1.00  0.00    -0.200 F 
ATOM     91  C   UNL A   1      46.501  27.374  35.952  1.00  0.00     0.200 A 
ATOM     92  F   UNL A   1      47.823  29.079  34.991  1.00  0.00    -0.200 F 
ATOM     93  F   UNL A   1      47.590  26.823  36.505  1.00  0.00    -0.200 F 
ENDBRANCH  60  83
ENDBRANCH  34  35
ENDBRANCH  26  29
ENDBRANCH  24  25
ENDBRANCH  23  24
ENDBRANCH   1  23
TORSDOF 16
ENDMDL
