MODEL 1
REMARK VINA RESULT:     -13.4      0.000      0.000
REMARK SMILES Cc1cc(C(=O)N[C@@H]2C(=O)N3C(C(=O)NCCCNC(=O)c4ccc(-c5c6nc(c(-c7c(F)c(F)c(F)c(F)c7F)c7ccc([nH]7)c(-c7c(F)c(F)c(F)c(F)c7F)c7nc(c(-c8c(F)c(F)c(F)c(F)c8F)c8ccc5[nH]8)C=C7)C=C6)cc4)=C(CSc4nnc(C)s4)CS[C@H]23)n(C)n1
REMARK SMILES IDX 16 1 15 2 13 3 14 4 12 6 8 7 9 8 96 9 10 10 11 11 95 12
REMARK SMILES IDX 94 13 85 14 7 15 5 16 6 17 4 19 1 20 2 21 3 22 99 23 97 24
REMARK SMILES IDX 98 25 86 26 87 27 88 28 89 29 93 30 90 31 91 32 92 33 17 34
REMARK SMILES IDX 18 35 19 36 20 37 21 39 22 40 23 41 84 42 24 43 83 44 25 45
REMARK SMILES IDX 26 46 27 47 77 48 28 49 82 50 76 51 78 52 29 53 81 54 75 55
REMARK SMILES IDX 74 56 30 58 62 59 42 60 61 61 43 62 46 63 60 64 79 65 44 66
REMARK SMILES IDX 45 67 59 69 80 70 47 71 31 72 32 73 40 74 33 75 34 76 38 77
REMARK SMILES IDX 41 78 35 79 36 80 39 81 37 82 63 83 64 84 72 85 65 86 66 87
REMARK SMILES IDX 70 88 73 89 67 90 68 91 71 92 69 93 48 94 49 95 57 96 50 97
REMARK SMILES IDX 51 98 55 99 58 100 52 101 53 102 56 103 54 104
REMARK H PARENT 15 5 7 18 19 38 78 57 46 68
REMARK Flexibility Score: inf
ROOT
ATOM      1  C   UNL A   1      33.303  28.908  22.725  1.00  0.00     0.118 C 
ENDROOT
BRANCH   1   2
ATOM      2  N   UNL A   1      33.478  27.795  21.809  1.00  0.00    -0.351 N 
ATOM      3  C   UNL A   1      32.993  26.532  21.679  1.00  0.00     0.268 C 
ATOM      4  O   UNL A   1      33.288  26.017  20.594  1.00  0.00    -0.268 OA
ATOM      5  H   UNL A   1      34.118  28.012  21.094  1.00  0.00     0.163 HD
BRANCH   3   6
ATOM      6  C   UNL A   1      32.006  25.819  22.623  1.00  0.00     0.111 C 
ATOM      7  C   UNL A   1      33.179  23.190  24.527  1.00  0.00     0.206 C 
ATOM      8  C   UNL A   1      33.705  24.537  23.951  1.00  0.00     0.253 C 
ATOM      9  C   UNL A   1      31.814  23.716  24.004  1.00  0.00     0.181 C 
ATOM     10  O   UNL A   1      34.675  25.232  24.182  1.00  0.00    -0.272 OA
ATOM     11  N   UNL A   1      32.556  24.685  23.215  1.00  0.00    -0.290 N 
ATOM     12  S   UNL A   1      30.764  24.596  25.203  1.00  0.00    -0.129 SA
ATOM     13  C   UNL A   1      29.845  25.331  23.852  1.00  0.00     0.106 C 
ATOM     14  C   UNL A   1      30.775  26.234  23.062  1.00  0.00    -0.020 C 
BRANCH   7  15
ATOM     15  N   UNL A   1      33.373  22.923  25.980  1.00  0.00    -0.336 N 
ATOM     16  C   UNL A   1      34.468  22.403  26.647  1.00  0.00     0.270 C 
ATOM     17  O   UNL A   1      34.393  22.302  27.870  1.00  0.00    -0.268 OA
ATOM     18  H   UNL A   1      32.605  23.152  26.552  1.00  0.00     0.164 HD
BRANCH  16  19
ATOM     19  C   UNL A   1      35.601  21.937  25.878  1.00  0.00     0.126 A 
ATOM     20  C   UNL A   1      37.948  19.362  24.828  1.00  0.00     0.069 C 
ATOM     21  C   UNL A   1      37.188  20.608  25.086  1.00  0.00     0.060 A 
ATOM     22  C   UNL A   1      35.788  20.782  25.135  1.00  0.00     0.059 A 
ATOM     23  N   UNL A   1      37.821  21.731  25.428  1.00  0.00    -0.178 NA
ATOM     24  N   UNL A   1      36.826  22.567  25.804  1.00  0.00    -0.263 N 
ATOM     25  C   UNL A   1      37.187  23.924  26.141  1.00  0.00     0.174 C 
ENDBRANCH  16  19
ENDBRANCH   7  15
BRANCH  14  26
ATOM     26  C   UNL A   1      30.297  27.666  23.146  1.00  0.00     0.111 C 
BRANCH  26  27
ATOM     27  S   UNL A   1      28.526  27.648  23.448  1.00  0.00    -0.089 SA
BRANCH  27  28
ATOM     28  C   UNL A   1      27.944  29.169  22.902  1.00  0.00     0.174 A 
ATOM     29  N   UNL A   1      26.907  29.786  23.422  1.00  0.00    -0.132 NA
ATOM     30  S   UNL A   1      28.977  30.177  21.982  1.00  0.00    -0.091 S 
ATOM     31  N   UNL A   1      27.109  31.158  23.411  1.00  0.00    -0.143 NA
ATOM     32  C   UNL A   1      28.271  31.465  22.867  1.00  0.00     0.115 A 
ATOM     33  C   UNL A   1      29.038  32.711  23.086  1.00  0.00     0.081 C 
ENDBRANCH  27  28
ENDBRANCH  26  27
ENDBRANCH  14  26
ENDBRANCH   3   6
ENDBRANCH   1   2
BRANCH   1  34
ATOM     34  C   UNL A   1      34.040  28.664  24.045  1.00  0.00     0.042 C 
BRANCH  34  35
ATOM     35  C   UNL A   1      33.189  28.660  25.301  1.00  0.00     0.118 C 
BRANCH  35  36
ATOM     36  N   UNL A   1      32.744  29.991  25.659  1.00  0.00    -0.352 N 
ATOM     37  C   UNL A   1      33.160  30.838  26.657  1.00  0.00     0.251 C 
ATOM     38  H   UNL A   1      32.022  30.349  25.093  1.00  0.00     0.163 HD
ATOM     39  O   UNL A   1      32.469  31.821  26.918  1.00  0.00    -0.269 OA
BRANCH  37  40
ATOM     40  C   UNL A   1      34.404  30.597  27.437  1.00  0.00     0.039 A 
ATOM     41  C   UNL A   1      34.595  29.334  28.011  1.00  0.00     0.014 A 
ATOM     42  C   UNL A   1      35.345  31.600  27.683  1.00  0.00     0.014 A 
ATOM     43  C   UNL A   1      35.732  29.071  28.783  1.00  0.00     0.010 A 
ATOM     44  C   UNL A   1      36.531  31.308  28.359  1.00  0.00     0.010 A 
ATOM     45  C   UNL A   1      36.727  30.048  28.941  1.00  0.00    -0.014 A 
BRANCH  45  46
ATOM     46  C   UNL A   1      37.948  29.787  29.751  1.00  0.00     0.031 A 
ATOM     47  C   UNL A   1      39.031  28.882  29.220  1.00  0.00     0.074 A 
ATOM     48  C   UNL A   1      38.072  30.332  30.977  1.00  0.00     0.049 A 
ATOM     49  N   UNL A   1      40.140  28.486  29.796  1.00  0.00    -0.248 NA
ATOM     50  C   UNL A   1      38.829  28.326  27.872  1.00  0.00     0.031 C 
ATOM     51  C   UNL A   1      37.082  31.195  31.621  1.00  0.00     0.029 A 
ATOM     52  N   UNL A   1      39.084  30.242  31.901  1.00  0.00    -0.354 N 
ATOM     53  C   UNL A   1      40.752  27.630  28.889  1.00  0.00     0.074 A 
ATOM     54  C   UNL A   1      39.865  27.509  27.755  1.00  0.00     0.031 C 
ATOM     55  C   UNL A   1      37.550  31.586  32.817  1.00  0.00     0.029 A 
ATOM     56  C   UNL A   1      38.853  30.968  33.044  1.00  0.00     0.049 A 
ATOM     57  H   UNL A   1      39.898  29.707  31.757  1.00  0.00     0.167 HD
ATOM     58  C   UNL A   1      41.961  27.023  28.978  1.00  0.00     0.037 A 
ATOM     59  C   UNL A   1      39.607  31.119  34.150  1.00  0.00     0.037 A 
ATOM     60  C   UNL A   1      42.856  27.165  30.095  1.00  0.00     0.049 A 
ATOM     61  C   UNL A   1      40.938  30.422  34.232  1.00  0.00     0.074 A 
ATOM     62  C   UNL A   1      44.116  26.620  30.268  1.00  0.00     0.029 A 
ATOM     63  N   UNL A   1      42.585  27.912  31.234  1.00  0.00    -0.354 N 
ATOM     64  N   UNL A   1      41.523  29.647  33.351  1.00  0.00    -0.248 NA
ATOM     65  C   UNL A   1      41.718  30.627  35.461  1.00  0.00     0.031 C 
ATOM     66  C   UNL A   1      44.589  27.000  31.527  1.00  0.00     0.029 A 
ATOM     67  C   UNL A   1      43.648  27.829  32.118  1.00  0.00     0.049 A 
ATOM     68  H   UNL A   1      41.759  28.424  31.389  1.00  0.00     0.167 HD
ATOM     69  C   UNL A   1      42.747  29.296  33.904  1.00  0.00     0.074 A 
ATOM     70  C   UNL A   1      42.828  29.955  35.191  1.00  0.00     0.031 C 
ATOM     71  C   UNL A   1      43.717  28.498  33.391  1.00  0.00     0.037 A 
BRANCH  58  72
ATOM     72  C   UNL A   1      42.392  26.159  27.827  1.00  0.00     0.064 A 
ATOM     73  C   UNL A   1      41.958  24.829  27.705  1.00  0.00     0.173 A 
ATOM     74  C   UNL A   1      43.216  26.672  26.814  1.00  0.00     0.173 A 
ATOM     75  F   UNL A   1      41.179  24.283  28.651  1.00  0.00    -0.203 F 
ATOM     76  C   UNL A   1      42.356  24.039  26.629  1.00  0.00     0.198 A 
ATOM     77  C   UNL A   1      43.585  25.888  25.722  1.00  0.00     0.198 A 
ATOM     78  F   UNL A   1      43.656  27.938  26.876  1.00  0.00    -0.203 F 
ATOM     79  F   UNL A   1      41.970  22.757  26.563  1.00  0.00    -0.200 F 
ATOM     80  C   UNL A   1      43.162  24.571  25.635  1.00  0.00     0.200 A 
ATOM     81  F   UNL A   1      44.352  26.409  24.754  1.00  0.00    -0.200 F 
ATOM     82  F   UNL A   1      43.536  23.813  24.595  1.00  0.00    -0.200 F 
ENDBRANCH  58  72
BRANCH  59  83
ATOM     83  C   UNL A   1      39.134  31.995  35.254  1.00  0.00     0.064 A 
ATOM     84  C   UNL A   1      38.422  31.462  36.339  1.00  0.00     0.173 A 
ATOM     85  C   UNL A   1      39.386  33.374  35.255  1.00  0.00     0.173 A 
ATOM     86  F   UNL A   1      38.136  30.152  36.373  1.00  0.00    -0.203 F 
ATOM     87  C   UNL A   1      37.969  32.278  37.374  1.00  0.00     0.198 A 
ATOM     88  C   UNL A   1      38.958  34.184  36.306  1.00  0.00     0.198 A 
ATOM     89  F   UNL A   1      40.067  33.933  34.243  1.00  0.00    -0.203 F 
ATOM     90  F   UNL A   1      37.255  31.749  38.377  1.00  0.00    -0.200 F 
ATOM     91  C   UNL A   1      38.243  33.636  37.360  1.00  0.00     0.200 A 
ATOM     92  F   UNL A   1      39.239  35.494  36.295  1.00  0.00    -0.200 F 
ATOM     93  F   UNL A   1      37.815  34.419  38.359  1.00  0.00    -0.200 F 
ENDBRANCH  59  83
BRANCH  71  94
ATOM     94  C   UNL A   1      44.968  28.323  34.205  1.00  0.00     0.064 A 
ATOM     95  C   UNL A   1      46.054  29.202  34.086  1.00  0.00     0.173 A 
ATOM     96  C   UNL A   1      45.058  27.288  35.149  1.00  0.00     0.173 A 
ATOM     97  F   UNL A   1      46.021  30.200  33.189  1.00  0.00    -0.203 F 
ATOM     98  C   UNL A   1      47.196  29.034  34.863  1.00  0.00     0.198 A 
ATOM     99  C   UNL A   1      46.190  27.144  35.947  1.00  0.00     0.198 A 
ATOM    100  F   UNL A   1      44.043  26.426  35.307  1.00  0.00    -0.203 F 
ATOM    101  F   UNL A   1      48.243  29.856  34.698  1.00  0.00    -0.200 F 
ATOM    102  C   UNL A   1      47.261  28.011  35.798  1.00  0.00     0.200 A 
ATOM    103  F   UNL A   1      46.242  26.165  36.860  1.00  0.00    -0.200 F 
ATOM    104  F   UNL A   1      48.358  27.857  36.551  1.00  0.00    -0.200 F 
ENDBRANCH  71  94
ENDBRANCH  45  46
ENDBRANCH  37  40
ENDBRANCH  35  36
ENDBRANCH  34  35
ENDBRANCH   1  34
TORSDOF 15
ENDMDL
MODEL 2
REMARK VINA RESULT:     -13.3      0.723      7.016
REMARK SMILES Cc1cc(C(=O)N[C@@H]2C(=O)N3C(C(=O)NCCCNC(=O)c4ccc(-c5c6nc(c(-c7c(F)c(F)c(F)c(F)c7F)c7ccc([nH]7)c(-c7c(F)c(F)c(F)c(F)c7F)c7nc(c(-c8c(F)c(F)c(F)c(F)c8F)c8ccc5[nH]8)C=C7)C=C6)cc4)=C(CSc4nnc(C)s4)CS[C@H]23)n(C)n1
REMARK SMILES IDX 16 1 15 2 13 3 14 4 12 6 8 7 9 8 96 9 10 10 11 11 95 12
REMARK SMILES IDX 94 13 85 14 7 15 5 16 6 17 4 19 1 20 2 21 3 22 99 23 97 24
REMARK SMILES IDX 98 25 86 26 87 27 88 28 89 29 93 30 90 31 91 32 92 33 17 34
REMARK SMILES IDX 18 35 19 36 20 37 21 39 22 40 23 41 84 42 24 43 83 44 25 45
REMARK SMILES IDX 26 46 27 47 77 48 28 49 82 50 76 51 78 52 29 53 81 54 75 55
REMARK SMILES IDX 74 56 30 58 62 59 42 60 61 61 43 62 46 63 60 64 79 65 44 66
REMARK SMILES IDX 45 67 59 69 80 70 47 71 31 72 32 73 40 74 33 75 34 76 38 77
REMARK SMILES IDX 41 78 35 79 36 80 39 81 37 82 63 83 64 84 72 85 65 86 66 87
REMARK SMILES IDX 70 88 73 89 67 90 68 91 71 92 69 93 48 94 49 95 57 96 50 97
REMARK SMILES IDX 51 98 55 99 58 100 52 101 53 102 56 103 54 104
REMARK H PARENT 15 5 7 18 19 38 78 57 46 68
REMARK Flexibility Score: inf
ROOT
ATOM      1  C   UNL A   1      33.492  28.964  22.932  1.00  0.00     0.118 C 
ENDROOT
BRANCH   1   2
ATOM      2  N   UNL A   1      33.644  27.831  22.037  1.00  0.00    -0.351 N 
ATOM      3  C   UNL A   1      33.027  26.637  21.834  1.00  0.00     0.268 C 
ATOM      4  O   UNL A   1      33.394  26.081  20.792  1.00  0.00    -0.268 OA
ATOM      5  H   UNL A   1      34.393  27.962  21.412  1.00  0.00     0.163 HD
BRANCH   3   6
ATOM      6  C   UNL A   1      31.847  26.059  22.637  1.00  0.00     0.111 C 
ATOM      7  C   UNL A   1      32.462  23.411  24.764  1.00  0.00     0.206 C 
ATOM      8  C   UNL A   1      33.197  24.679  24.239  1.00  0.00     0.253 C 
ATOM      9  C   UNL A   1      31.247  24.041  24.028  1.00  0.00     0.181 C 
ATOM     10  O   UNL A   1      34.186  25.288  24.594  1.00  0.00    -0.272 OA
ATOM     11  N   UNL A   1      32.189  24.904  23.335  1.00  0.00    -0.290 N 
ATOM     12  S   UNL A   1      30.124  25.064  25.033  1.00  0.00    -0.129 SA
ATOM     13  C   UNL A   1      29.491  25.826  23.540  1.00  0.00     0.106 C 
ATOM     14  C   UNL A   1      30.612  26.604  22.875  1.00  0.00    -0.020 C 
BRANCH   7  15
ATOM     15  N   UNL A   1      32.413  23.186  26.236  1.00  0.00    -0.336 N 
ATOM     16  C   UNL A   1      33.260  22.456  27.050  1.00  0.00     0.270 C 
ATOM     17  O   UNL A   1      33.020  22.444  28.256  1.00  0.00    -0.268 OA
ATOM     18  H   UNL A   1      31.662  23.624  26.701  1.00  0.00     0.164 HD
BRANCH  16  19
ATOM     19  C   UNL A   1      34.326  21.689  26.445  1.00  0.00     0.126 A 
ATOM     20  C   UNL A   1      37.374  21.394  24.478  1.00  0.00     0.069 C 
ATOM     21  C   UNL A   1      36.135  21.188  25.267  1.00  0.00     0.060 A 
ATOM     22  C   UNL A   1      35.696  21.903  26.401  1.00  0.00     0.059 A 
ATOM     23  N   UNL A   1      35.213  20.313  24.866  1.00  0.00    -0.178 NA
ATOM     24  N   UNL A   1      34.154  20.560  25.672  1.00  0.00    -0.263 N 
ATOM     25  C   UNL A   1      33.008  19.690  25.552  1.00  0.00     0.174 C 
ENDBRANCH  16  19
ENDBRANCH   7  15
BRANCH  14  26
ATOM     26  C   UNL A   1      30.270  28.077  22.849  1.00  0.00     0.111 C 
BRANCH  26  27
ATOM     27  S   UNL A   1      28.593  28.274  23.460  1.00  0.00    -0.089 SA
BRANCH  27  28
ATOM     28  C   UNL A   1      28.065  29.807  22.890  1.00  0.00     0.174 A 
ATOM     29  N   UNL A   1      27.022  30.446  23.370  1.00  0.00    -0.132 NA
ATOM     30  S   UNL A   1      29.155  30.791  22.011  1.00  0.00    -0.091 S 
ATOM     31  N   UNL A   1      27.254  31.813  23.366  1.00  0.00    -0.143 NA
ATOM     32  C   UNL A   1      28.443  32.095  22.868  1.00  0.00     0.115 A 
ATOM     33  C   UNL A   1      29.227  33.324  23.116  1.00  0.00     0.081 C 
ENDBRANCH  27  28
ENDBRANCH  26  27
ENDBRANCH  14  26
ENDBRANCH   3   6
ENDBRANCH   1   2
BRANCH   1  34
ATOM     34  C   UNL A   1      34.050  28.654  24.323  1.00  0.00     0.042 C 
BRANCH  34  35
ATOM     35  C   UNL A   1      33.069  28.742  25.478  1.00  0.00     0.118 C 
BRANCH  35  36
ATOM     36  N   UNL A   1      32.754  30.115  25.817  1.00  0.00    -0.352 N 
ATOM     37  C   UNL A   1      33.266  30.939  26.789  1.00  0.00     0.251 C 
ATOM     38  H   UNL A   1      32.055  30.526  25.258  1.00  0.00     0.163 HD
ATOM     39  O   UNL A   1      32.672  31.985  27.044  1.00  0.00    -0.269 OA
BRANCH  37  40
ATOM     40  C   UNL A   1      34.499  30.600  27.550  1.00  0.00     0.039 A 
ATOM     41  C   UNL A   1      35.475  31.591  27.712  1.00  0.00     0.014 A 
ATOM     42  C   UNL A   1      34.752  29.317  28.042  1.00  0.00     0.014 A 
ATOM     43  C   UNL A   1      36.666  31.308  28.390  1.00  0.00     0.010 A 
ATOM     44  C   UNL A   1      35.888  29.064  28.811  1.00  0.00     0.010 A 
ATOM     45  C   UNL A   1      36.873  30.048  28.973  1.00  0.00    -0.014 A 
BRANCH  45  46
ATOM     46  C   UNL A   1      38.128  29.730  29.705  1.00  0.00     0.031 A 
ATOM     47  C   UNL A   1      38.379  30.317  31.071  1.00  0.00     0.074 A 
ATOM     48  C   UNL A   1      39.060  28.942  29.134  1.00  0.00     0.049 A 
ATOM     49  N   UNL A   1      39.432  30.206  31.842  1.00  0.00    -0.248 NA
ATOM     50  C   UNL A   1      37.316  31.166  31.634  1.00  0.00     0.031 C 
ATOM     51  C   UNL A   1      38.956  28.341  27.804  1.00  0.00     0.029 A 
ATOM     52  N   UNL A   1      40.278  28.511  29.598  1.00  0.00    -0.354 N 
ATOM     53  C   UNL A   1      39.162  30.978  32.966  1.00  0.00     0.074 A 
ATOM     54  C   UNL A   1      37.878  31.605  32.750  1.00  0.00     0.031 C 
ATOM     55  C   UNL A   1      40.044  27.588  27.575  1.00  0.00     0.029 A 
ATOM     56  C   UNL A   1      40.942  27.688  28.721  1.00  0.00     0.049 A 
ATOM     57  H   UNL A   1      40.641  28.768  30.477  1.00  0.00     0.167 HD
ATOM     58  C   UNL A   1      39.901  31.126  34.092  1.00  0.00     0.037 A 
ATOM     59  C   UNL A   1      42.141  27.083  28.829  1.00  0.00     0.037 A 
ATOM     60  C   UNL A   1      41.167  30.480  34.319  1.00  0.00     0.049 A 
ATOM     61  C   UNL A   1      42.950  27.275  30.083  1.00  0.00     0.074 A 
ATOM     62  C   UNL A   1      41.978  30.538  35.438  1.00  0.00     0.029 A 
ATOM     63  N   UNL A   1      41.805  29.653  33.405  1.00  0.00    -0.354 N 
ATOM     64  N   UNL A   1      42.664  27.975  31.154  1.00  0.00    -0.248 NA
ATOM     65  C   UNL A   1      44.247  26.586  30.145  1.00  0.00     0.031 C 
ATOM     66  C   UNL A   1      43.126  29.781  35.186  1.00  0.00     0.029 A 
ATOM     67  C   UNL A   1      43.006  29.205  33.931  1.00  0.00     0.049 A 
ATOM     68  H   UNL A   1      41.455  29.418  32.516  1.00  0.00     0.167 HD
ATOM     69  C   UNL A   1      43.728  27.789  32.026  1.00  0.00     0.074 A 
ATOM     70  C   UNL A   1      44.659  26.898  31.366  1.00  0.00     0.031 C 
ATOM     71  C   UNL A   1      43.917  28.311  33.264  1.00  0.00     0.037 A 
BRANCH  58  72
ATOM     72  C   UNL A   1      39.352  32.012  35.174  1.00  0.00     0.064 A 
ATOM     73  C   UNL A   1      39.560  33.401  35.162  1.00  0.00     0.173 A 
ATOM     74  C   UNL A   1      38.576  31.478  36.215  1.00  0.00     0.173 A 
ATOM     75  F   UNL A   1      40.304  33.963  34.197  1.00  0.00    -0.203 F 
ATOM     76  C   UNL A   1      39.039  34.215  36.164  1.00  0.00     0.198 A 
ATOM     77  C   UNL A   1      38.028  32.301  37.197  1.00  0.00     0.198 A 
ATOM     78  F   UNL A   1      38.340  30.159  36.274  1.00  0.00    -0.203 F 
ATOM     79  F   UNL A   1      39.296  35.531  36.158  1.00  0.00    -0.200 F 
ATOM     80  C   UNL A   1      38.267  33.666  37.175  1.00  0.00     0.200 A 
ATOM     81  F   UNL A   1      37.270  31.770  38.167  1.00  0.00    -0.200 F 
ATOM     82  F   UNL A   1      37.757  34.452  38.134  1.00  0.00    -0.200 F 
ENDBRANCH  58  72
BRANCH  59  83
ATOM     83  C   UNL A   1      42.630  26.208  27.730  1.00  0.00     0.064 A 
ATOM     84  C   UNL A   1      42.248  24.861  27.661  1.00  0.00     0.173 A 
ATOM     85  C   UNL A   1      43.478  26.697  26.727  1.00  0.00     0.173 A 
ATOM     86  F   UNL A   1      41.455  24.341  28.610  1.00  0.00    -0.203 F 
ATOM     87  C   UNL A   1      42.707  24.033  26.639  1.00  0.00     0.198 A 
ATOM     88  C   UNL A   1      43.913  25.875  25.688  1.00  0.00     0.198 A 
ATOM     89  F   UNL A   1      43.870  27.980  26.744  1.00  0.00    -0.203 F 
ATOM     90  F   UNL A   1      42.359  22.739  26.620  1.00  0.00    -0.200 F 
ATOM     91  C   UNL A   1      43.534  24.543  25.649  1.00  0.00     0.200 A 
ATOM     92  F   UNL A   1      44.700  26.377  24.726  1.00  0.00    -0.200 F 
ATOM     93  F   UNL A   1      43.969  23.748  24.662  1.00  0.00    -0.200 F 
ENDBRANCH  59  83
BRANCH  71  94
ATOM     94  C   UNL A   1      45.159  27.903  34.003  1.00  0.00     0.064 A 
ATOM     95  C   UNL A   1      46.346  28.645  33.918  1.00  0.00     0.173 A 
ATOM     96  C   UNL A   1      45.144  26.779  34.844  1.00  0.00     0.173 A 
ATOM     97  F   UNL A   1      46.415  29.719  33.118  1.00  0.00    -0.203 F 
ATOM     98  C   UNL A   1      47.481  28.260  34.627  1.00  0.00     0.198 A 
ATOM     99  C   UNL A   1      46.272  26.417  35.577  1.00  0.00     0.198 A 
ATOM    100  F   UNL A   1      44.031  26.041  34.968  1.00  0.00    -0.203 F 
ATOM    101  F   UNL A   1      48.620  28.955  34.492  1.00  0.00    -0.200 F 
ATOM    102  C   UNL A   1      47.441  27.153  35.461  1.00  0.00     0.200 A 
ATOM    103  F   UNL A   1      46.225  25.357  36.394  1.00  0.00    -0.200 F 
ATOM    104  F   UNL A   1      48.532  26.790  36.149  1.00  0.00    -0.200 F 
ENDBRANCH  71  94
ENDBRANCH  45  46
ENDBRANCH  37  40
ENDBRANCH  35  36
ENDBRANCH  34  35
ENDBRANCH   1  34
TORSDOF 15
ENDMDL
MODEL 3
REMARK VINA RESULT:     -13.2      4.204      9.957
REMARK SMILES Cc1cc(C(=O)N[C@@H]2C(=O)N3C(C(=O)NCCCNC(=O)c4ccc(-c5c6nc(c(-c7c(F)c(F)c(F)c(F)c7F)c7ccc([nH]7)c(-c7c(F)c(F)c(F)c(F)c7F)c7nc(c(-c8c(F)c(F)c(F)c(F)c8F)c8ccc5[nH]8)C=C7)C=C6)cc4)=C(CSc4nnc(C)s4)CS[C@H]23)n(C)n1
REMARK SMILES IDX 16 1 15 2 13 3 14 4 12 6 8 7 9 8 96 9 10 10 11 11 95 12
REMARK SMILES IDX 94 13 85 14 7 15 5 16 6 17 4 19 1 20 2 21 3 22 99 23 97 24
REMARK SMILES IDX 98 25 86 26 87 27 88 28 89 29 93 30 90 31 91 32 92 33 17 34
REMARK SMILES IDX 18 35 19 36 20 37 21 39 22 40 23 41 84 42 24 43 83 44 25 45
REMARK SMILES IDX 26 46 27 47 77 48 28 49 82 50 76 51 78 52 29 53 81 54 75 55
REMARK SMILES IDX 74 56 30 58 62 59 42 60 61 61 43 62 46 63 60 64 79 65 44 66
REMARK SMILES IDX 45 67 59 69 80 70 47 71 31 72 32 73 40 74 33 75 34 76 38 77
REMARK SMILES IDX 41 78 35 79 36 80 39 81 37 82 63 83 64 84 72 85 65 86 66 87
REMARK SMILES IDX 70 88 73 89 67 90 68 91 71 92 69 93 48 94 49 95 57 96 50 97
REMARK SMILES IDX 51 98 55 99 58 100 52 101 53 102 56 103 54 104
REMARK H PARENT 15 5 7 18 19 38 78 57 46 68
REMARK Flexibility Score: inf
ROOT
ATOM      1  C   UNL A   1      36.284  20.331  24.865  1.00  0.00     0.118 C 
ENDROOT
BRANCH   1   2
ATOM      2  N   UNL A   1      35.978  21.064  26.081  1.00  0.00    -0.351 N 
ATOM      3  C   UNL A   1      34.969  21.852  26.537  1.00  0.00     0.268 C 
ATOM      4  O   UNL A   1      35.060  22.090  27.746  1.00  0.00    -0.268 OA
ATOM      5  H   UNL A   1      36.691  20.963  26.752  1.00  0.00     0.163 HD
BRANCH   3   6
ATOM      6  C   UNL A   1      33.705  22.274  25.764  1.00  0.00     0.111 C 
ATOM      7  C   UNL A   1      33.889  25.057  23.730  1.00  0.00     0.206 C 
ATOM      8  C   UNL A   1      34.813  23.896  24.203  1.00  0.00     0.253 C 
ATOM      9  C   UNL A   1      32.792  24.227  24.452  1.00  0.00     0.181 C 
ATOM     10  O   UNL A   1      35.878  23.456  23.819  1.00  0.00    -0.272 OA
ATOM     11  N   UNL A   1      33.862  23.491  25.106  1.00  0.00    -0.290 N 
ATOM     12  S   UNL A   1      31.822  23.082  23.419  1.00  0.00    -0.129 SA
ATOM     13  C   UNL A   1      31.330  22.182  24.888  1.00  0.00     0.106 C 
ATOM     14  C   UNL A   1      32.564  21.558  25.515  1.00  0.00    -0.020 C 
BRANCH   7  15
ATOM     15  N   UNL A   1      33.788  25.323  22.268  1.00  0.00    -0.336 N 
ATOM     16  C   UNL A   1      33.031  26.260  21.587  1.00  0.00     0.270 C 
ATOM     17  O   UNL A   1      33.141  26.300  20.363  1.00  0.00    -0.268 OA
ATOM     18  H   UNL A   1      34.345  24.742  21.699  1.00  0.00     0.164 HD
BRANCH  16  19
ATOM     19  C   UNL A   1      32.101  27.083  22.329  1.00  0.00     0.126 A 
ATOM     20  C   UNL A   1      28.865  28.681  22.790  1.00  0.00     0.069 C 
ATOM     21  C   UNL A   1      30.267  28.205  22.865  1.00  0.00     0.060 A 
ATOM     22  C   UNL A   1      30.759  26.903  22.627  1.00  0.00     0.059 A 
ATOM     23  N   UNL A   1      31.266  29.063  23.071  1.00  0.00    -0.178 NA
ATOM     24  N   UNL A   1      32.380  28.330  22.847  1.00  0.00    -0.263 N 
ATOM     25  C   UNL A   1      33.655  28.963  23.093  1.00  0.00     0.174 C 
ENDBRANCH  16  19
ENDBRANCH   7  15
BRANCH  14  26
ATOM     26  C   UNL A   1      32.446  20.050  25.490  1.00  0.00     0.111 C 
BRANCH  26  27
ATOM     27  S   UNL A   1      32.409  19.519  23.775  1.00  0.00    -0.089 SA
BRANCH  27  28
ATOM     28  C   UNL A   1      32.803  17.847  23.794  1.00  0.00     0.174 A 
ATOM     29  N   UNL A   1      33.284  17.197  22.759  1.00  0.00    -0.132 NA
ATOM     30  S   UNL A   1      33.046  17.064  25.296  1.00  0.00    -0.091 S 
ATOM     31  N   UNL A   1      34.190  16.233  23.176  1.00  0.00    -0.143 NA
ATOM     32  C   UNL A   1      34.304  16.223  24.491  1.00  0.00     0.115 A 
ATOM     33  C   UNL A   1      35.455  15.708  25.265  1.00  0.00     0.081 C 
ENDBRANCH  27  28
ENDBRANCH  26  27
ENDBRANCH  14  26
ENDBRANCH   3   6
ENDBRANCH   1   2
BRANCH   1  34
ATOM     34  C   UNL A   1      37.538  19.469  25.035  1.00  0.00     0.042 C 
BRANCH  34  35
ATOM     35  C   UNL A   1      38.787  20.183  25.516  1.00  0.00     0.118 C 
BRANCH  35  36
ATOM     36  N   UNL A   1      39.869  19.258  25.789  1.00  0.00    -0.352 N 
ATOM     37  C   UNL A   1      41.188  19.486  26.096  1.00  0.00     0.251 C 
ATOM     38  H   UNL A   1      39.616  18.307  25.748  1.00  0.00     0.163 HD
ATOM     39  O   UNL A   1      41.973  18.540  26.047  1.00  0.00    -0.269 OA
BRANCH  37  40
ATOM     40  C   UNL A   1      41.697  20.834  26.465  1.00  0.00     0.039 A 
ATOM     41  C   UNL A   1      41.795  21.160  27.824  1.00  0.00     0.014 A 
ATOM     42  C   UNL A   1      42.007  21.809  25.513  1.00  0.00     0.014 A 
ATOM     43  C   UNL A   1      42.235  22.428  28.218  1.00  0.00     0.010 A 
ATOM     44  C   UNL A   1      42.549  23.034  25.905  1.00  0.00     0.010 A 
ATOM     45  C   UNL A   1      42.645  23.370  27.262  1.00  0.00    -0.014 A 
BRANCH  45  46
ATOM     46  C   UNL A   1      43.125  24.721  27.661  1.00  0.00     0.031 A 
ATOM     47  C   UNL A   1      42.137  25.794  28.040  1.00  0.00     0.074 A 
ATOM     48  C   UNL A   1      44.443  24.998  27.650  1.00  0.00     0.049 A 
ATOM     49  N   UNL A   1      42.352  27.047  28.360  1.00  0.00    -0.248 NA
ATOM     50  C   UNL A   1      40.713  25.419  28.032  1.00  0.00     0.031 C 
ATOM     51  C   UNL A   1      45.499  24.060  27.268  1.00  0.00     0.029 A 
ATOM     52  N   UNL A   1      45.121  26.149  27.969  1.00  0.00    -0.354 N 
ATOM     53  C   UNL A   1      41.098  27.604  28.575  1.00  0.00     0.074 A 
ATOM     54  C   UNL A   1      40.123  26.577  28.286  1.00  0.00     0.031 C 
ATOM     55  C   UNL A   1      46.693  24.659  27.413  1.00  0.00     0.029 A 
ATOM     56  C   UNL A   1      46.485  26.034  27.854  1.00  0.00     0.049 A 
ATOM     57  H   UNL A   1      44.671  26.977  28.254  1.00  0.00     0.167 HD
ATOM     58  C   UNL A   1      40.785  28.850  29.007  1.00  0.00     0.037 A 
ATOM     59  C   UNL A   1      47.459  26.937  28.078  1.00  0.00     0.037 A 
ATOM     60  C   UNL A   1      41.757  29.864  29.321  1.00  0.00     0.049 A 
ATOM     61  C   UNL A   1      47.086  28.320  28.542  1.00  0.00     0.074 A 
ATOM     62  C   UNL A   1      41.545  31.146  29.797  1.00  0.00     0.029 A 
ATOM     63  N   UNL A   1      43.130  29.708  29.192  1.00  0.00    -0.354 N 
ATOM     64  N   UNL A   1      45.898  28.821  28.780  1.00  0.00    -0.248 NA
ATOM     65  C   UNL A   1      48.192  29.260  28.775  1.00  0.00     0.031 C 
ATOM     66  C   UNL A   1      42.785  31.779  29.915  1.00  0.00     0.029 A 
ATOM     67  C   UNL A   1      43.775  30.875  29.566  1.00  0.00     0.049 A 
ATOM     68  H   UNL A   1      43.578  28.888  28.881  1.00  0.00     0.167 HD
ATOM     69  C   UNL A   1      46.113  30.121  29.216  1.00  0.00     0.074 A 
ATOM     70  C   UNL A   1      47.547  30.327  29.226  1.00  0.00     0.031 C 
ATOM     71  C   UNL A   1      45.204  31.061  29.577  1.00  0.00     0.037 A 
BRANCH  58  72
ATOM     72  C   UNL A   1      39.330  29.183  29.179  1.00  0.00     0.064 A 
ATOM     73  C   UNL A   1      38.713  29.152  30.440  1.00  0.00     0.173 A 
ATOM     74  C   UNL A   1      38.549  29.574  28.080  1.00  0.00     0.173 A 
ATOM     75  F   UNL A   1      39.409  28.773  31.522  1.00  0.00    -0.203 F 
ATOM     76  C   UNL A   1      37.366  29.472  30.589  1.00  0.00     0.198 A 
ATOM     77  C   UNL A   1      37.210  29.926  28.239  1.00  0.00     0.198 A 
ATOM     78  F   UNL A   1      39.088  29.627  26.852  1.00  0.00    -0.203 F 
ATOM     79  F   UNL A   1      36.788  29.384  31.796  1.00  0.00    -0.200 F 
ATOM     80  C   UNL A   1      36.618  29.866  29.491  1.00  0.00     0.200 A 
ATOM     81  F   UNL A   1      36.492  30.321  27.178  1.00  0.00    -0.200 F 
ATOM     82  F   UNL A   1      35.325  30.183  29.638  1.00  0.00    -0.200 F 
ENDBRANCH  58  72
BRANCH  59  83
ATOM     83  C   UNL A   1      48.884  26.549  27.902  1.00  0.00     0.064 A 
ATOM     84  C   UNL A   1      49.686  26.240  29.009  1.00  0.00     0.173 A 
ATOM     85  C   UNL A   1      49.470  26.471  26.631  1.00  0.00     0.173 A 
ATOM     86  F   UNL A   1      49.177  26.321  30.248  1.00  0.00    -0.203 F 
ATOM     87  C   UNL A   1      51.024  25.882  28.853  1.00  0.00     0.198 A 
ATOM     88  C   UNL A   1      50.800  26.084  26.474  1.00  0.00     0.198 A 
ATOM     89  F   UNL A   1      48.745  26.752  25.538  1.00  0.00    -0.203 F 
ATOM     90  F   UNL A   1      51.778  25.632  29.932  1.00  0.00    -0.200 F 
ATOM     91  C   UNL A   1      51.577  25.797  27.585  1.00  0.00     0.200 A 
ATOM     92  F   UNL A   1      51.326  25.990  25.245  1.00  0.00    -0.200 F 
ATOM     93  F   UNL A   1      52.861  25.445  27.434  1.00  0.00    -0.200 F 
ENDBRANCH  59  83
BRANCH  71  94
ATOM     94  C   UNL A   1      45.731  32.386  30.049  1.00  0.00     0.064 A 
ATOM     95  C   UNL A   1      46.060  32.612  31.393  1.00  0.00     0.173 A 
ATOM     96  C   UNL A   1      45.954  33.425  29.132  1.00  0.00     0.173 A 
ATOM     97  F   UNL A   1      45.853  31.655  32.310  1.00  0.00    -0.203 F 
ATOM     98  C   UNL A   1      46.565  33.842  31.807  1.00  0.00     0.198 A 
ATOM     99  C   UNL A   1      46.490  34.642  29.545  1.00  0.00     0.198 A 
ATOM    100  F   UNL A   1      45.665  33.256  27.834  1.00  0.00    -0.203 F 
ATOM    101  F   UNL A   1      46.825  34.054  33.105  1.00  0.00    -0.200 F 
ATOM    102  C   UNL A   1      46.788  34.852  30.883  1.00  0.00     0.200 A 
ATOM    103  F   UNL A   1      46.720  35.610  28.648  1.00  0.00    -0.200 F 
ATOM    104  F   UNL A   1      47.283  36.031  31.282  1.00  0.00    -0.200 F 
ENDBRANCH  71  94
ENDBRANCH  45  46
ENDBRANCH  37  40
ENDBRANCH  35  36
ENDBRANCH  34  35
ENDBRANCH   1  34
TORSDOF 15
ENDMDL
