MODEL 1
REMARK VINA RESULT:     -14.1      0.000      0.000
REMARK SMILES Cc1c(CC(=O)NCCCNC(=O)c2ccc(-c3c4nc(c(-c5c(F)c(F)c(F)c(F)c5F)c5ccc([nH]5)c(-c5c(F)c(F)c(F)c(F)c5F)c5nc(c(-c6c(F)c(F)c(F)c(F)c6F)c6ccc3[nH]6)C=C5)C=C4)cc2)cccc1-c1ccn(C(F)F)c(=O)c1
REMARK SMILES IDX 8 1 7 2 5 3 6 4 4 6 3 7 1 8 2 9 80 10 77 11 79 12 78 13
REMARK SMILES IDX 81 14 82 15 90 16 83 17 88 18 84 19 89 20 85 21 86 22 87 23
REMARK SMILES IDX 9 24 10 25 11 26 12 27 13 29 14 30 15 31 76 32 16 33 75 34
REMARK SMILES IDX 17 35 18 36 19 37 69 38 20 39 74 40 68 41 70 42 21 43 73 44
REMARK SMILES IDX 67 45 66 46 22 48 54 49 34 50 53 51 35 52 38 53 52 54 71 55
REMARK SMILES IDX 36 56 37 57 51 59 72 60 39 61 23 62 24 63 32 64 25 65 26 66
REMARK SMILES IDX 30 67 33 68 27 69 28 70 31 71 29 72 55 73 56 74 64 75 57 76
REMARK SMILES IDX 58 77 62 78 65 79 59 80 60 81 63 82 61 83 40 84 41 85 49 86
REMARK SMILES IDX 42 87 43 88 47 89 50 90 44 91 45 92 48 93 46 94
REMARK H PARENT 7 5 11 28 70 47 38 58
REMARK Flexibility Score: inf
ROOT
ATOM      1  C   UNL A   1      32.389  29.576  25.622  1.00  0.00     0.117 C 
ENDROOT
BRANCH   1   2
ATOM      2  N   UNL A   1      31.475  28.511  26.009  1.00  0.00    -0.356 N 
ATOM      3  C   UNL A   1      31.737  27.196  26.284  1.00  0.00     0.224 C 
ATOM      4  O   UNL A   1      30.789  26.472  26.598  1.00  0.00    -0.275 OA
ATOM      5  H   UNL A   1      30.530  28.775  26.082  1.00  0.00     0.163 HD
BRANCH   3   6
ATOM      6  C   UNL A   1      33.159  26.643  26.213  1.00  0.00     0.135 C 
BRANCH   6   7
ATOM      7  C   UNL A   1      33.355  25.617  25.111  1.00  0.00    -0.035 A 
ATOM      8  C   UNL A   1      32.977  23.647  26.684  1.00  0.00     0.045 C 
ATOM      9  C   UNL A   1      33.365  24.215  25.338  1.00  0.00    -0.040 A 
ATOM     10  C   UNL A   1      33.716  23.350  24.266  1.00  0.00    -0.015 A 
ATOM     11  C   UNL A   1      33.601  26.107  23.812  1.00  0.00     0.004 A 
ATOM     12  C   UNL A   1      33.978  23.878  22.991  1.00  0.00     0.009 A 
ATOM     13  C   UNL A   1      33.905  25.247  22.762  1.00  0.00     0.001 A 
BRANCH  10  14
ATOM     14  C   UNL A   1      33.910  21.894  24.463  1.00  0.00    -0.011 A 
ATOM     15  C   UNL A   1      35.186  21.297  24.803  1.00  0.00     0.027 A 
ATOM     16  C   UNL A   1      32.855  21.093  24.229  1.00  0.00     0.080 A 
ATOM     17  C   UNL A   1      35.335  19.967  24.794  1.00  0.00     0.095 A 
ATOM     18  C   UNL A   1      32.992  19.611  24.274  1.00  0.00     0.255 A 
ATOM     19  N   UNL A   1      34.270  19.132  24.512  1.00  0.00    -0.258 N 
ATOM     20  O   UNL A   1      31.994  18.927  24.075  1.00  0.00    -0.269 OA
BRANCH  19  21
ATOM     21  C   UNL A   1      34.447  17.703  24.464  1.00  0.00     0.451 C 
ATOM     22  F   UNL A   1      34.239  17.226  23.214  1.00  0.00    -0.185 F 
ATOM     23  F   UNL A   1      35.701  17.357  24.846  1.00  0.00    -0.185 F 
ENDBRANCH  19  21
ENDBRANCH  10  14
ENDBRANCH   6   7
ENDBRANCH   3   6
ENDBRANCH   1   2
BRANCH   1  24
ATOM     24  C   UNL A   1      32.710  30.528  26.772  1.00  0.00     0.042 C 
BRANCH  24  25
ATOM     25  C   UNL A   1      33.901  30.103  27.615  1.00  0.00     0.118 C 
BRANCH  25  26
ATOM     26  N   UNL A   1      34.498  31.178  28.399  1.00  0.00    -0.352 N 
ATOM     27  C   UNL A   1      35.722  31.206  29.048  1.00  0.00     0.251 C 
ATOM     28  H   UNL A   1      33.957  31.997  28.478  1.00  0.00     0.163 HD
ATOM     29  O   UNL A   1      36.066  32.187  29.685  1.00  0.00    -0.269 OA
BRANCH  27  30
ATOM     30  C   UNL A   1      36.664  30.080  28.848  1.00  0.00     0.039 A 
ATOM     31  C   UNL A   1      36.880  29.206  29.920  1.00  0.00     0.014 A 
ATOM     32  C   UNL A   1      37.473  30.020  27.718  1.00  0.00     0.014 A 
ATOM     33  C   UNL A   1      38.054  28.458  29.962  1.00  0.00     0.010 A 
ATOM     34  C   UNL A   1      38.687  29.370  27.806  1.00  0.00     0.010 A 
ATOM     35  C   UNL A   1      39.005  28.645  28.960  1.00  0.00    -0.014 A 
BRANCH  35  36
ATOM     36  C   UNL A   1      40.398  28.239  29.097  1.00  0.00     0.031 A 
ATOM     37  C   UNL A   1      40.875  26.956  28.540  1.00  0.00     0.074 A 
ATOM     38  C   UNL A   1      41.283  29.110  29.635  1.00  0.00     0.049 A 
ATOM     39  N   UNL A   1      41.939  26.346  28.940  1.00  0.00    -0.248 NA
ATOM     40  C   UNL A   1      40.162  26.236  27.493  1.00  0.00     0.031 C 
ATOM     41  C   UNL A   1      42.740  29.039  29.579  1.00  0.00     0.029 A 
ATOM     42  N   UNL A   1      41.019  30.172  30.518  1.00  0.00    -0.354 N 
ATOM     43  C   UNL A   1      42.201  25.328  28.051  1.00  0.00     0.074 A 
ATOM     44  C   UNL A   1      41.034  25.267  27.201  1.00  0.00     0.031 C 
ATOM     45  C   UNL A   1      43.248  29.776  30.578  1.00  0.00     0.029 A 
ATOM     46  C   UNL A   1      42.131  30.222  31.391  1.00  0.00     0.049 A 
ATOM     47  H   UNL A   1      40.228  30.758  30.527  1.00  0.00     0.167 HD
ATOM     48  C   UNL A   1      43.432  24.737  28.053  1.00  0.00     0.037 A 
ATOM     49  C   UNL A   1      42.002  29.992  32.730  1.00  0.00     0.037 A 
ATOM     50  C   UNL A   1      44.283  25.289  29.103  1.00  0.00     0.049 A 
ATOM     51  C   UNL A   1      42.834  28.842  33.241  1.00  0.00     0.074 A 
ATOM     52  C   UNL A   1      45.264  26.266  29.092  1.00  0.00     0.029 A 
ATOM     53  N   UNL A   1      43.965  25.064  30.438  1.00  0.00    -0.354 N 
ATOM     54  N   UNL A   1      43.322  27.905  32.477  1.00  0.00    -0.248 NA
ATOM     55  C   UNL A   1      43.149  28.632  34.652  1.00  0.00     0.031 C 
ATOM     56  C   UNL A   1      45.512  26.659  30.429  1.00  0.00     0.029 A 
ATOM     57  C   UNL A   1      44.693  25.908  31.254  1.00  0.00     0.049 A 
ATOM     58  H   UNL A   1      43.314  24.398  30.756  1.00  0.00     0.167 HD
ATOM     59  C   UNL A   1      43.974  26.980  33.248  1.00  0.00     0.074 A 
ATOM     60  C   UNL A   1      43.856  27.489  34.601  1.00  0.00     0.031 C 
ATOM     61  C   UNL A   1      44.544  25.867  32.699  1.00  0.00     0.037 A 
BRANCH  48  62
ATOM     62  C   UNL A   1      43.956  23.883  26.919  1.00  0.00     0.064 A 
ATOM     63  C   UNL A   1      43.491  22.563  26.725  1.00  0.00     0.173 A 
ATOM     64  C   UNL A   1      44.960  24.289  26.020  1.00  0.00     0.173 A 
ATOM     65  F   UNL A   1      42.455  22.074  27.418  1.00  0.00    -0.203 F 
ATOM     66  C   UNL A   1      44.076  21.686  25.809  1.00  0.00     0.198 A 
ATOM     67  C   UNL A   1      45.585  23.396  25.143  1.00  0.00     0.198 A 
ATOM     68  F   UNL A   1      45.328  25.572  25.928  1.00  0.00    -0.203 F 
ATOM     69  F   UNL A   1      43.597  20.440  25.681  1.00  0.00    -0.200 F 
ATOM     70  C   UNL A   1      45.152  22.089  25.047  1.00  0.00     0.200 A 
ATOM     71  F   UNL A   1      46.611  23.814  24.388  1.00  0.00    -0.200 F 
ATOM     72  F   UNL A   1      45.750  21.233  24.208  1.00  0.00    -0.200 F 
ENDBRANCH  48  62
BRANCH  49  73
ATOM     73  C   UNL A   1      40.677  30.394  33.268  1.00  0.00     0.064 A 
ATOM     74  C   UNL A   1      40.406  31.767  33.413  1.00  0.00     0.173 A 
ATOM     75  C   UNL A   1      39.588  29.515  33.264  1.00  0.00     0.173 A 
ATOM     76  F   UNL A   1      41.416  32.652  33.419  1.00  0.00    -0.203 F 
ATOM     77  C   UNL A   1      39.100  32.249  33.432  1.00  0.00     0.198 A 
ATOM     78  C   UNL A   1      38.279  30.002  33.295  1.00  0.00     0.198 A 
ATOM     79  F   UNL A   1      39.780  28.197  33.106  1.00  0.00    -0.203 F 
ATOM     80  F   UNL A   1      38.876  33.572  33.455  1.00  0.00    -0.200 F 
ATOM     81  C   UNL A   1      38.037  31.367  33.344  1.00  0.00     0.200 A 
ATOM     82  F   UNL A   1      37.249  29.151  33.180  1.00  0.00    -0.200 F 
ATOM     83  F   UNL A   1      36.783  31.833  33.264  1.00  0.00    -0.200 F 
ENDBRANCH  49  73
BRANCH  61  84
ATOM     84  C   UNL A   1      45.093  24.676  33.447  1.00  0.00     0.064 A 
ATOM     85  C   UNL A   1      44.387  23.478  33.643  1.00  0.00     0.173 A 
ATOM     86  C   UNL A   1      46.447  24.661  33.867  1.00  0.00     0.173 A 
ATOM     87  F   UNL A   1      43.136  23.324  33.190  1.00  0.00    -0.203 F 
ATOM     88  C   UNL A   1      44.973  22.369  34.260  1.00  0.00     0.198 A 
ATOM     89  C   UNL A   1      47.044  23.534  34.429  1.00  0.00     0.198 A 
ATOM     90  F   UNL A   1      47.240  25.732  33.718  1.00  0.00    -0.203 F 
ATOM     91  F   UNL A   1      44.245  21.261  34.458  1.00  0.00    -0.200 F 
ATOM     92  C   UNL A   1      46.303  22.392  34.640  1.00  0.00     0.200 A 
ATOM     93  F   UNL A   1      48.347  23.558  34.744  1.00  0.00    -0.200 F 
ATOM     94  F   UNL A   1      46.871  21.309  35.186  1.00  0.00    -0.200 F 
ENDBRANCH  61  84
ENDBRANCH  35  36
ENDBRANCH  27  30
ENDBRANCH  25  26
ENDBRANCH  24  25
ENDBRANCH   1  24
TORSDOF 13
ENDMDL
MODEL 2
REMARK VINA RESULT:     -13.9      4.502     10.526
REMARK SMILES Cc1c(CC(=O)NCCCNC(=O)c2ccc(-c3c4nc(c(-c5c(F)c(F)c(F)c(F)c5F)c5ccc([nH]5)c(-c5c(F)c(F)c(F)c(F)c5F)c5nc(c(-c6c(F)c(F)c(F)c(F)c6F)c6ccc3[nH]6)C=C5)C=C4)cc2)cccc1-c1ccn(C(F)F)c(=O)c1
REMARK SMILES IDX 8 1 7 2 5 3 6 4 4 6 3 7 1 8 2 9 80 10 77 11 79 12 78 13
REMARK SMILES IDX 81 14 82 15 90 16 83 17 88 18 84 19 89 20 85 21 86 22 87 23
REMARK SMILES IDX 9 24 10 25 11 26 12 27 13 29 14 30 15 31 76 32 16 33 75 34
REMARK SMILES IDX 17 35 18 36 19 37 69 38 20 39 74 40 68 41 70 42 21 43 73 44
REMARK SMILES IDX 67 45 66 46 22 48 54 49 34 50 53 51 35 52 38 53 52 54 71 55
REMARK SMILES IDX 36 56 37 57 51 59 72 60 39 61 23 62 24 63 32 64 25 65 26 66
REMARK SMILES IDX 30 67 33 68 27 69 28 70 31 71 29 72 55 73 56 74 64 75 57 76
REMARK SMILES IDX 58 77 62 78 65 79 59 80 60 81 63 82 61 83 40 84 41 85 49 86
REMARK SMILES IDX 42 87 43 88 47 89 50 90 44 91 45 92 48 93 46 94
REMARK H PARENT 7 5 11 28 70 47 38 58
REMARK Flexibility Score: inf
ROOT
ATOM      1  C   UNL A   1      36.575  22.642  23.855  1.00  0.00     0.117 C 
ENDROOT
BRANCH   1   2
ATOM      2  N   UNL A   1      35.182  22.217  23.875  1.00  0.00    -0.356 N 
ATOM      3  C   UNL A   1      34.050  22.929  23.584  1.00  0.00     0.224 C 
ATOM      4  O   UNL A   1      32.965  22.349  23.669  1.00  0.00    -0.275 OA
ATOM      5  H   UNL A   1      35.033  21.281  24.138  1.00  0.00     0.163 HD
BRANCH   3   6
ATOM      6  C   UNL A   1      34.128  24.395  23.160  1.00  0.00     0.135 C 
BRANCH   6   7
ATOM      7  C   UNL A   1      33.124  25.285  23.873  1.00  0.00    -0.035 A 
ATOM      8  C   UNL A   1      31.885  25.852  21.719  1.00  0.00     0.045 C 
ATOM      9  C   UNL A   1      32.131  26.043  23.197  1.00  0.00    -0.040 A 
ATOM     10  C   UNL A   1      31.348  26.966  23.943  1.00  0.00    -0.015 A 
ATOM     11  C   UNL A   1      33.245  25.398  25.272  1.00  0.00     0.004 A 
ATOM     12  C   UNL A   1      31.514  27.067  25.335  1.00  0.00     0.009 A 
ATOM     13  C   UNL A   1      32.445  26.276  25.997  1.00  0.00     0.001 A 
BRANCH  10  14
ATOM     14  C   UNL A   1      30.411  27.909  23.291  1.00  0.00    -0.011 A 
ATOM     15  C   UNL A   1      30.841  29.059  22.520  1.00  0.00     0.027 A 
ATOM     16  C   UNL A   1      29.096  27.720  23.502  1.00  0.00     0.080 A 
ATOM     17  C   UNL A   1      29.951  29.967  22.105  1.00  0.00     0.095 A 
ATOM     18  C   UNL A   1      28.089  28.691  22.994  1.00  0.00     0.255 A 
ATOM     19  N   UNL A   1      28.600  29.808  22.354  1.00  0.00    -0.258 N 
ATOM     20  O   UNL A   1      26.902  28.460  23.195  1.00  0.00    -0.269 OA
BRANCH  19  21
ATOM     21  C   UNL A   1      27.652  30.811  21.940  1.00  0.00     0.451 C 
ATOM     22  F   UNL A   1      27.431  31.712  22.925  1.00  0.00    -0.185 F 
ATOM     23  F   UNL A   1      28.098  31.479  20.848  1.00  0.00    -0.185 F 
ENDBRANCH  19  21
ENDBRANCH  10  14
ENDBRANCH   6   7
ENDBRANCH   3   6
ENDBRANCH   1   2
BRANCH   1  24
ATOM     24  C   UNL A   1      37.386  22.065  25.013  1.00  0.00     0.042 C 
BRANCH  24  25
ATOM     25  C   UNL A   1      38.009  23.115  25.918  1.00  0.00     0.118 C 
BRANCH  25  26
ATOM     26  N   UNL A   1      39.423  22.900  26.205  1.00  0.00    -0.352 N 
ATOM     27  C   UNL A   1      40.358  23.798  26.695  1.00  0.00     0.251 C 
ATOM     28  H   UNL A   1      39.758  21.992  26.027  1.00  0.00     0.163 HD
ATOM     29  O   UNL A   1      41.517  23.460  26.861  1.00  0.00    -0.269 OA
BRANCH  27  30
ATOM     30  C   UNL A   1      39.901  25.136  27.138  1.00  0.00     0.039 A 
ATOM     31  C   UNL A   1      40.315  26.250  26.399  1.00  0.00     0.014 A 
ATOM     32  C   UNL A   1      39.274  25.303  28.369  1.00  0.00     0.014 A 
ATOM     33  C   UNL A   1      40.329  27.503  27.006  1.00  0.00     0.010 A 
ATOM     34  C   UNL A   1      39.390  26.518  29.012  1.00  0.00     0.010 A 
ATOM     35  C   UNL A   1      39.982  27.601  28.352  1.00  0.00    -0.014 A 
BRANCH  35  36
ATOM     36  C   UNL A   1      40.330  28.745  29.185  1.00  0.00     0.031 A 
ATOM     37  C   UNL A   1      39.328  29.779  29.514  1.00  0.00     0.074 A 
ATOM     38  C   UNL A   1      41.555  28.788  29.757  1.00  0.00     0.049 A 
ATOM     39  N   UNL A   1      39.622  30.979  29.886  1.00  0.00    -0.248 NA
ATOM     40  C   UNL A   1      37.892  29.544  29.422  1.00  0.00     0.031 C 
ATOM     41  C   UNL A   1      41.992  29.653  30.850  1.00  0.00     0.029 A 
ATOM     42  N   UNL A   1      42.733  28.153  29.324  1.00  0.00    -0.354 N 
ATOM     43  C   UNL A   1      38.467  31.578  30.333  1.00  0.00     0.074 A 
ATOM     44  C   UNL A   1      37.409  30.662  29.971  1.00  0.00     0.031 C 
ATOM     45  C   UNL A   1      43.330  29.740  30.825  1.00  0.00     0.029 A 
ATOM     46  C   UNL A   1      43.781  29.054  29.628  1.00  0.00     0.049 A 
ATOM     47  H   UNL A   1      42.812  27.269  28.898  1.00  0.00     0.167 HD
ATOM     48  C   UNL A   1      38.549  32.721  31.076  1.00  0.00     0.037 A 
ATOM     49  C   UNL A   1      44.550  29.615  28.651  1.00  0.00     0.037 A 
ATOM     50  C   UNL A   1      39.933  33.160  31.221  1.00  0.00     0.049 A 
ATOM     51  C   UNL A   1      44.514  31.124  28.629  1.00  0.00     0.074 A 
ATOM     52  C   UNL A   1      40.866  32.988  32.231  1.00  0.00     0.029 A 
ATOM     53  N   UNL A   1      40.635  33.609  30.108  1.00  0.00    -0.354 N 
ATOM     54  N   UNL A   1      43.577  31.834  29.192  1.00  0.00    -0.248 NA
ATOM     55  C   UNL A   1      45.504  31.949  27.942  1.00  0.00     0.031 C 
ATOM     56  C   UNL A   1      42.144  33.301  31.709  1.00  0.00     0.029 A 
ATOM     57  C   UNL A   1      41.986  33.679  30.387  1.00  0.00     0.049 A 
ATOM     58  H   UNL A   1      40.226  33.843  29.244  1.00  0.00     0.167 HD
ATOM     59  C   UNL A   1      43.799  33.163  28.942  1.00  0.00     0.074 A 
ATOM     60  C   UNL A   1      45.028  33.186  28.173  1.00  0.00     0.031 C 
ATOM     61  C   UNL A   1      42.937  34.126  29.383  1.00  0.00     0.037 A 
BRANCH  48  62
ATOM     62  C   UNL A   1      37.411  33.262  31.915  1.00  0.00     0.064 A 
ATOM     63  C   UNL A   1      36.336  33.959  31.320  1.00  0.00     0.173 A 
ATOM     64  C   UNL A   1      37.349  33.174  33.317  1.00  0.00     0.173 A 
ATOM     65  F   UNL A   1      36.187  34.022  29.991  1.00  0.00    -0.203 F 
ATOM     66  C   UNL A   1      35.365  34.627  32.072  1.00  0.00     0.198 A 
ATOM     67  C   UNL A   1      36.413  33.889  34.072  1.00  0.00     0.198 A 
ATOM     68  F   UNL A   1      38.159  32.352  33.996  1.00  0.00    -0.203 F 
ATOM     69  F   UNL A   1      34.376  35.283  31.448  1.00  0.00    -0.200 F 
ATOM     70  C   UNL A   1      35.428  34.628  33.449  1.00  0.00     0.200 A 
ATOM     71  F   UNL A   1      36.471  33.854  35.411  1.00  0.00    -0.200 F 
ATOM     72  F   UNL A   1      34.531  35.314  34.170  1.00  0.00    -0.200 F 
ENDBRANCH  48  62
BRANCH  49  73
ATOM     73  C   UNL A   1      44.704  28.747  27.455  1.00  0.00     0.064 A 
ATOM     74  C   UNL A   1      45.560  27.633  27.547  1.00  0.00     0.173 A 
ATOM     75  C   UNL A   1      43.770  28.763  26.413  1.00  0.00     0.173 A 
ATOM     76  F   UNL A   1      46.470  27.568  28.533  1.00  0.00    -0.203 F 
ATOM     77  C   UNL A   1      45.407  26.532  26.710  1.00  0.00     0.198 A 
ATOM     78  C   UNL A   1      43.628  27.661  25.567  1.00  0.00     0.198 A 
ATOM     79  F   UNL A   1      42.912  29.786  26.286  1.00  0.00    -0.203 F 
ATOM     80  F   UNL A   1      46.162  25.439  26.898  1.00  0.00    -0.200 F 
ATOM     81  C   UNL A   1      44.421  26.535  25.738  1.00  0.00     0.200 A 
ATOM     82  F   UNL A   1      42.655  27.650  24.645  1.00  0.00    -0.200 F 
ATOM     83  F   UNL A   1      44.208  25.440  24.995  1.00  0.00    -0.200 F 
ENDBRANCH  49  73
BRANCH  61  84
ATOM     84  C   UNL A   1      42.945  35.585  28.997  1.00  0.00     0.064 A 
ATOM     85  C   UNL A   1      42.229  36.114  27.911  1.00  0.00     0.173 A 
ATOM     86  C   UNL A   1      43.577  36.540  29.833  1.00  0.00     0.173 A 
ATOM     87  F   UNL A   1      41.497  35.328  27.110  1.00  0.00    -0.203 F 
ATOM     88  C   UNL A   1      42.192  37.486  27.648  1.00  0.00     0.198 A 
ATOM     89  C   UNL A   1      43.489  37.912  29.601  1.00  0.00     0.198 A 
ATOM     90  F   UNL A   1      44.275  36.172  30.917  1.00  0.00    -0.203 F 
ATOM     91  F   UNL A   1      41.525  37.937  26.577  1.00  0.00    -0.200 F 
ATOM     92  C   UNL A   1      42.810  38.385  28.499  1.00  0.00     0.200 A 
ATOM     93  F   UNL A   1      44.050  38.770  30.464  1.00  0.00    -0.200 F 
ATOM     94  F   UNL A   1      42.729  39.702  28.270  1.00  0.00    -0.200 F 
ENDBRANCH  61  84
ENDBRANCH  35  36
ENDBRANCH  27  30
ENDBRANCH  25  26
ENDBRANCH  24  25
ENDBRANCH   1  24
TORSDOF 13
ENDMDL
MODEL 3
REMARK VINA RESULT:     -13.7      1.559      1.922
REMARK SMILES Cc1c(CC(=O)NCCCNC(=O)c2ccc(-c3c4nc(c(-c5c(F)c(F)c(F)c(F)c5F)c5ccc([nH]5)c(-c5c(F)c(F)c(F)c(F)c5F)c5nc(c(-c6c(F)c(F)c(F)c(F)c6F)c6ccc3[nH]6)C=C5)C=C4)cc2)cccc1-c1ccn(C(F)F)c(=O)c1
REMARK SMILES IDX 8 1 7 2 5 3 6 4 4 6 3 7 1 8 2 9 80 10 77 11 79 12 78 13
REMARK SMILES IDX 81 14 82 15 90 16 83 17 88 18 84 19 89 20 85 21 86 22 87 23
REMARK SMILES IDX 9 24 10 25 11 26 12 27 13 29 14 30 15 31 76 32 16 33 75 34
REMARK SMILES IDX 17 35 18 36 19 37 69 38 20 39 74 40 68 41 70 42 21 43 73 44
REMARK SMILES IDX 67 45 66 46 22 48 54 49 34 50 53 51 35 52 38 53 52 54 71 55
REMARK SMILES IDX 36 56 37 57 51 59 72 60 39 61 23 62 24 63 32 64 25 65 26 66
REMARK SMILES IDX 30 67 33 68 27 69 28 70 31 71 29 72 55 73 56 74 64 75 57 76
REMARK SMILES IDX 58 77 62 78 65 79 59 80 60 81 63 82 61 83 40 84 41 85 49 86
REMARK SMILES IDX 42 87 43 88 47 89 50 90 44 91 45 92 48 93 46 94
REMARK H PARENT 7 5 11 28 70 47 38 58
REMARK Flexibility Score: inf
ROOT
ATOM      1  C   UNL A   1      31.775  30.560  26.386  1.00  0.00     0.117 C 
ENDROOT
BRANCH   1   2
ATOM      2  N   UNL A   1      32.071  29.980  25.084  1.00  0.00    -0.356 N 
ATOM      3  C   UNL A   1      31.841  28.712  24.623  1.00  0.00     0.224 C 
ATOM      4  O   UNL A   1      32.180  28.447  23.467  1.00  0.00    -0.275 OA
ATOM      5  H   UNL A   1      32.502  30.588  24.441  1.00  0.00     0.163 HD
BRANCH   3   6
ATOM      6  C   UNL A   1      31.177  27.659  25.509  1.00  0.00     0.135 C 
BRANCH   6   7
ATOM      7  C   UNL A   1      31.281  26.249  24.954  1.00  0.00    -0.035 A 
ATOM      8  C   UNL A   1      33.502  25.801  26.122  1.00  0.00     0.045 C 
ATOM      9  C   UNL A   1      32.407  25.407  25.158  1.00  0.00    -0.040 A 
ATOM     10  C   UNL A   1      32.472  24.169  24.462  1.00  0.00    -0.015 A 
ATOM     11  C   UNL A   1      30.220  25.796  24.144  1.00  0.00     0.004 A 
ATOM     12  C   UNL A   1      31.404  23.763  23.645  1.00  0.00     0.009 A 
ATOM     13  C   UNL A   1      30.277  24.565  23.500  1.00  0.00     0.001 A 
BRANCH  10  14
ATOM     14  C   UNL A   1      33.681  23.314  24.492  1.00  0.00    -0.011 A 
ATOM     15  C   UNL A   1      33.941  22.333  25.528  1.00  0.00     0.027 A 
ATOM     16  C   UNL A   1      34.615  23.529  23.548  1.00  0.00     0.080 A 
ATOM     17  C   UNL A   1      35.128  21.719  25.596  1.00  0.00     0.095 A 
ATOM     18  C   UNL A   1      35.916  22.808  23.577  1.00  0.00     0.255 A 
ATOM     19  N   UNL A   1      36.112  21.963  24.657  1.00  0.00    -0.258 N 
ATOM     20  O   UNL A   1      36.724  23.025  22.679  1.00  0.00    -0.269 OA
BRANCH  19  21
ATOM     21  C   UNL A   1      37.402  21.329  24.761  1.00  0.00     0.451 C 
ATOM     22  F   UNL A   1      38.041  21.701  25.894  1.00  0.00    -0.185 F 
ATOM     23  F   UNL A   1      37.279  19.979  24.769  1.00  0.00    -0.185 F 
ENDBRANCH  19  21
ENDBRANCH  10  14
ENDBRANCH   6   7
ENDBRANCH   3   6
ENDBRANCH   1   2
BRANCH   1  24
ATOM     24  C   UNL A   1      32.861  31.519  26.867  1.00  0.00     0.042 C 
BRANCH  24  25
ATOM     25  C   UNL A   1      33.989  30.846  27.632  1.00  0.00     0.118 C 
BRANCH  25  26
ATOM     26  N   UNL A   1      34.620  31.689  28.641  1.00  0.00    -0.352 N 
ATOM     27  C   UNL A   1      35.729  31.423  29.428  1.00  0.00     0.251 C 
ATOM     28  H   UNL A   1      34.200  32.568  28.782  1.00  0.00     0.163 HD
ATOM     29  O   UNL A   1      36.119  32.236  30.248  1.00  0.00    -0.269 OA
BRANCH  27  30
ATOM     30  C   UNL A   1      36.513  30.192  29.168  1.00  0.00     0.039 A 
ATOM     31  C   UNL A   1      36.754  29.328  30.242  1.00  0.00     0.014 A 
ATOM     32  C   UNL A   1      37.175  30.013  27.958  1.00  0.00     0.014 A 
ATOM     33  C   UNL A   1      37.836  28.453  30.182  1.00  0.00     0.010 A 
ATOM     34  C   UNL A   1      38.312  29.232  27.936  1.00  0.00     0.010 A 
ATOM     35  C   UNL A   1      38.680  28.505  29.074  1.00  0.00    -0.014 A 
BRANCH  35  36
ATOM     36  C   UNL A   1      40.027  27.948  29.070  1.00  0.00     0.031 A 
ATOM     37  C   UNL A   1      40.264  26.534  28.715  1.00  0.00     0.074 A 
ATOM     38  C   UNL A   1      41.076  28.776  29.279  1.00  0.00     0.049 A 
ATOM     39  N   UNL A   1      41.315  25.869  29.058  1.00  0.00    -0.248 NA
ATOM     40  C   UNL A   1      39.306  25.739  27.957  1.00  0.00     0.031 C 
ATOM     41  C   UNL A   1      42.486  28.502  29.011  1.00  0.00     0.029 A 
ATOM     42  N   UNL A   1      41.084  30.006  29.961  1.00  0.00    -0.354 N 
ATOM     43  C   UNL A   1      41.310  24.682  28.361  1.00  0.00     0.074 A 
ATOM     44  C   UNL A   1      40.009  24.626  27.733  1.00  0.00     0.031 C 
ATOM     45  C   UNL A   1      43.236  29.333  29.751  1.00  0.00     0.029 A 
ATOM     46  C   UNL A   1      42.333  30.062  30.623  1.00  0.00     0.049 A 
ATOM     47  H   UNL A   1      40.370  30.684  29.976  1.00  0.00     0.167 HD
ATOM     48  C   UNL A   1      42.455  23.942  28.289  1.00  0.00     0.037 A 
ATOM     49  C   UNL A   1      42.423  30.098  31.984  1.00  0.00     0.037 A 
ATOM     50  C   UNL A   1      43.531  24.555  29.062  1.00  0.00     0.049 A 
ATOM     51  C   UNL A   1      43.212  28.957  32.579  1.00  0.00     0.074 A 
ATOM     52  C   UNL A   1      44.589  25.375  28.702  1.00  0.00     0.029 A 
ATOM     53  N   UNL A   1      43.436  24.619  30.447  1.00  0.00    -0.354 N 
ATOM     54  N   UNL A   1      43.458  27.842  31.951  1.00  0.00    -0.248 NA
ATOM     55  C   UNL A   1      43.751  28.964  33.936  1.00  0.00     0.031 C 
ATOM     56  C   UNL A   1      45.109  25.965  29.879  1.00  0.00     0.029 A 
ATOM     57  C   UNL A   1      44.379  25.492  30.954  1.00  0.00     0.049 A 
ATOM     58  H   UNL A   1      42.788  24.115  30.990  1.00  0.00     0.167 HD
ATOM     59  C   UNL A   1      44.141  26.991  32.781  1.00  0.00     0.074 A 
ATOM     60  C   UNL A   1      44.318  27.747  34.006  1.00  0.00     0.031 C 
ATOM     61  C   UNL A   1      44.487  25.731  32.384  1.00  0.00     0.037 A 
BRANCH  48  62
ATOM     62  C   UNL A   1      42.679  22.836  27.281  1.00  0.00     0.064 A 
ATOM     63  C   UNL A   1      42.039  21.584  27.420  1.00  0.00     0.173 A 
ATOM     64  C   UNL A   1      43.557  22.928  26.186  1.00  0.00     0.173 A 
ATOM     65  F   UNL A   1      41.085  21.379  28.337  1.00  0.00    -0.203 F 
ATOM     66  C   UNL A   1      42.357  20.484  26.619  1.00  0.00     0.198 A 
ATOM     67  C   UNL A   1      43.918  21.814  25.420  1.00  0.00     0.198 A 
ATOM     68  F   UNL A   1      44.049  24.108  25.791  1.00  0.00    -0.203 F 
ATOM     69  F   UNL A   1      41.723  19.318  26.808  1.00  0.00    -0.200 F 
ATOM     70  C   UNL A   1      43.328  20.587  25.646  1.00  0.00     0.200 A 
ATOM     71  F   UNL A   1      44.844  21.940  24.459  1.00  0.00    -0.200 F 
ATOM     72  F   UNL A   1      43.674  19.519  24.915  1.00  0.00    -0.200 F 
ENDBRANCH  48  62
BRANCH  49  73
ATOM     73  C   UNL A   1      41.263  30.763  32.630  1.00  0.00     0.064 A 
ATOM     74  C   UNL A   1      41.183  32.167  32.572  1.00  0.00     0.173 A 
ATOM     75  C   UNL A   1      40.093  30.059  32.938  1.00  0.00     0.173 A 
ATOM     76  F   UNL A   1      42.277  32.888  32.275  1.00  0.00    -0.203 F 
ATOM     77  C   UNL A   1      39.964  32.828  32.696  1.00  0.00     0.198 A 
ATOM     78  C   UNL A   1      38.874  30.728  33.074  1.00  0.00     0.198 A 
ATOM     79  F   UNL A   1      40.100  28.718  32.986  1.00  0.00    -0.203 F 
ATOM     80  F   UNL A   1      39.904  34.157  32.520  1.00  0.00    -0.200 F 
ATOM     81  C   UNL A   1      38.806  32.105  32.918  1.00  0.00     0.200 A 
ATOM     82  F   UNL A   1      37.747  30.026  33.259  1.00  0.00    -0.200 F 
ATOM     83  F   UNL A   1      37.619  32.728  32.941  1.00  0.00    -0.200 F 
ENDBRANCH  49  73
BRANCH  61  84
ATOM     84  C   UNL A   1      45.038  24.633  33.260  1.00  0.00     0.064 A 
ATOM     85  C   UNL A   1      44.311  23.494  33.642  1.00  0.00     0.173 A 
ATOM     86  C   UNL A   1      46.408  24.631  33.623  1.00  0.00     0.173 A 
ATOM     87  F   UNL A   1      43.037  23.321  33.264  1.00  0.00    -0.203 F 
ATOM     88  C   UNL A   1      44.894  22.457  34.376  1.00  0.00     0.198 A 
ATOM     89  C   UNL A   1      47.000  23.568  34.305  1.00  0.00     0.198 A 
ATOM     90  F   UNL A   1      47.222  25.647  33.302  1.00  0.00    -0.203 F 
ATOM     91  F   UNL A   1      44.147  21.408  34.748  1.00  0.00    -0.200 F 
ATOM     92  C   UNL A   1      46.239  22.488  34.696  1.00  0.00     0.200 A 
ATOM     93  F   UNL A   1      48.315  23.592  34.561  1.00  0.00    -0.200 F 
ATOM     94  F   UNL A   1      46.803  21.469  35.357  1.00  0.00    -0.200 F 
ENDBRANCH  61  84
ENDBRANCH  35  36
ENDBRANCH  27  30
ENDBRANCH  25  26
ENDBRANCH  24  25
ENDBRANCH   1  24
TORSDOF 13
ENDMDL
