MODEL 1
REMARK VINA RESULT:     -13.5      0.000      0.000
REMARK SMILES CC1=CC[C@@H]2C(=O)N(c3ccc(Cl)c(C(=O)NCCCNC(=O)c4ccc(-c5c6nc(c(-c7c(F)c(F)c(F)c(F)c7F)c7ccc([nH]7)c(-c7c(F)c(F)c(F)c(F)c7F)c7nc(c(-c8c(F)c(F)c(F)c(F)c8F)c8ccc5[nH]8)C=C7)C=C6)cc4)c3)C(=O)[C@H]2C1
REMARK SMILES IDX 19 1 18 2 17 3 15 4 16 5 14 7 9 8 10 9 87 10 11 11 12 12
REMARK SMILES IDX 13 13 8 14 1 15 2 16 3 17 91 18 4 19 90 20 5 21 88 22 6 23
REMARK SMILES IDX 89 24 7 25 20 26 21 27 22 28 23 30 24 31 25 32 86 33 26 34
REMARK SMILES IDX 85 35 27 36 28 37 29 38 79 39 30 40 84 41 78 42 80 43 31 44
REMARK SMILES IDX 83 45 77 46 76 47 32 49 64 50 44 51 63 52 45 53 48 54 62 55
REMARK SMILES IDX 81 56 46 57 47 58 61 60 82 61 49 62 33 63 34 64 42 65 35 66
REMARK SMILES IDX 36 67 40 68 43 69 37 70 38 71 41 72 39 73 65 74 66 75 74 76
REMARK SMILES IDX 67 77 68 78 72 79 75 80 69 81 70 82 73 83 71 84 50 85 51 86
REMARK SMILES IDX 59 87 52 88 53 89 57 90 60 91 54 92 55 93 58 94 56 95
REMARK H PARENT 17 6 21 29 80 48 48 59
REMARK Flexibility Score: inf
ROOT
ATOM      1  C   UNL A   1      37.796  19.849  24.823  1.00  0.00     0.042 C 
ENDROOT
BRANCH   1   2
ATOM      2  C   UNL A   1      36.651  20.847  24.748  1.00  0.00     0.118 C 
BRANCH   2   3
ATOM      3  N   UNL A   1      35.594  20.622  25.720  1.00  0.00    -0.352 N 
ATOM      4  C   UNL A   1      34.302  21.087  25.786  1.00  0.00     0.252 C 
ATOM      5  O   UNL A   1      33.604  20.704  26.727  1.00  0.00    -0.269 OA
ATOM      6  H   UNL A   1      35.849  20.033  26.466  1.00  0.00     0.163 HD
BRANCH   4   7
ATOM      7  C   UNL A   1      33.726  22.069  24.830  1.00  0.00     0.060 A 
ATOM      8  C   UNL A   1      33.164  24.417  24.465  1.00  0.00     0.053 A 
ATOM      9  C   UNL A   1      32.599  24.069  23.233  1.00  0.00     0.028 A 
ATOM     10  C   UNL A   1      33.824  23.432  25.209  1.00  0.00     0.042 A 
ATOM     11  C   UNL A   1      32.506  22.739  22.847  1.00  0.00     0.023 A 
ATOM     12  C   UNL A   1      32.964  21.735  23.701  1.00  0.00     0.053 A 
ATOM     13  Cl  UNL A   1      32.324  20.160  23.381  1.00  0.00    -0.083 Cl
BRANCH   8  14
ATOM     14  N   UNL A   1      32.871  25.692  24.999  1.00  0.00    -0.250 N 
ATOM     15  C   UNL A   1      31.723  31.509  26.316  1.00  0.00     0.039 C 
ATOM     16  C   UNL A   1      31.927  30.028  26.442  1.00  0.00    -0.076 C 
ATOM     17  C   UNL A   1      31.461  29.344  27.513  1.00  0.00    -0.027 C 
ATOM     18  C   UNL A   1      32.664  29.345  25.284  1.00  0.00     0.044 C 
ATOM     19  C   UNL A   1      31.521  27.840  27.635  1.00  0.00     0.041 C 
ATOM     20  C   UNL A   1      33.013  27.911  25.660  1.00  0.00     0.096 C 
ATOM     21  C   UNL A   1      31.770  27.275  26.254  1.00  0.00     0.096 C 
ATOM     22  C   UNL A   1      33.405  26.905  24.602  1.00  0.00     0.238 C 
ATOM     23  C   UNL A   1      32.060  25.821  26.122  1.00  0.00     0.238 C 
ATOM     24  O   UNL A   1      34.105  27.146  23.631  1.00  0.00    -0.274 OA
ATOM     25  O   UNL A   1      31.616  24.961  26.854  1.00  0.00    -0.274 OA
ENDBRANCH   8  14
ENDBRANCH   4   7
ENDBRANCH   2   3
ENDBRANCH   1   2
BRANCH   1  26
ATOM     26  C   UNL A   1      38.920  20.231  25.776  1.00  0.00     0.118 C 
BRANCH  26  27
ATOM     27  N   UNL A   1      39.998  19.252  25.840  1.00  0.00    -0.352 N 
ATOM     28  C   UNL A   1      41.341  19.375  26.111  1.00  0.00     0.251 C 
ATOM     29  H   UNL A   1      39.711  18.329  25.655  1.00  0.00     0.163 HD
ATOM     30  O   UNL A   1      42.071  18.396  25.975  1.00  0.00    -0.269 OA
BRANCH  28  31
ATOM     31  C   UNL A   1      41.938  20.666  26.525  1.00  0.00     0.039 A 
ATOM     32  C   UNL A   1      42.325  21.579  25.535  1.00  0.00     0.014 A 
ATOM     33  C   UNL A   1      42.161  20.979  27.864  1.00  0.00     0.014 A 
ATOM     34  C   UNL A   1      42.843  22.827  25.895  1.00  0.00     0.010 A 
ATOM     35  C   UNL A   1      42.567  22.260  28.225  1.00  0.00     0.010 A 
ATOM     36  C   UNL A   1      42.921  23.198  27.245  1.00  0.00    -0.014 A 
BRANCH  36  37
ATOM     37  C   UNL A   1      43.380  24.549  27.664  1.00  0.00     0.031 A 
ATOM     38  C   UNL A   1      42.375  25.607  28.035  1.00  0.00     0.074 A 
ATOM     39  C   UNL A   1      44.691  24.855  27.617  1.00  0.00     0.049 A 
ATOM     40  N   UNL A   1      42.565  26.874  28.308  1.00  0.00    -0.248 NA
ATOM     41  C   UNL A   1      40.963  25.195  28.060  1.00  0.00     0.031 C 
ATOM     42  C   UNL A   1      45.760  23.941  27.215  1.00  0.00     0.029 A 
ATOM     43  N   UNL A   1      45.347  26.030  27.895  1.00  0.00    -0.354 N 
ATOM     44  C   UNL A   1      41.299  27.411  28.504  1.00  0.00     0.074 A 
ATOM     45  C   UNL A   1      40.347  26.350  28.261  1.00  0.00     0.031 C 
ATOM     46  C   UNL A   1      46.939  24.579  27.294  1.00  0.00     0.029 A 
ATOM     47  C   UNL A   1      46.706  25.957  27.713  1.00  0.00     0.049 A 
ATOM     48  H   UNL A   1      44.886  26.846  28.197  1.00  0.00     0.167 HD
ATOM     49  C   UNL A   1      40.960  28.668  28.879  1.00  0.00     0.037 A 
ATOM     50  C   UNL A   1      47.658  26.899  27.859  1.00  0.00     0.037 A 
ATOM     51  C   UNL A   1      41.912  29.710  29.162  1.00  0.00     0.049 A 
ATOM     52  C   UNL A   1      47.263  28.280  28.303  1.00  0.00     0.074 A 
ATOM     53  C   UNL A   1      41.678  30.991  29.628  1.00  0.00     0.029 A 
ATOM     54  N   UNL A   1      43.286  29.585  29.006  1.00  0.00    -0.354 N 
ATOM     55  N   UNL A   1      46.069  28.757  28.556  1.00  0.00    -0.248 NA
ATOM     56  C   UNL A   1      48.349  29.252  28.488  1.00  0.00     0.031 C 
ATOM     57  C   UNL A   1      42.907  31.656  29.713  1.00  0.00     0.029 A 
ATOM     58  C   UNL A   1      43.911  30.774  29.346  1.00  0.00     0.049 A 
ATOM     59  H   UNL A   1      43.747  28.773  28.698  1.00  0.00     0.167 HD
ATOM     60  C   UNL A   1      46.259  30.073  28.951  1.00  0.00     0.074 A 
ATOM     61  C   UNL A   1      47.686  30.317  28.919  1.00  0.00     0.031 C 
ATOM     62  C   UNL A   1      45.333  30.998  29.310  1.00  0.00     0.037 A 
BRANCH  49  63
ATOM     63  C   UNL A   1      39.496  28.980  29.007  1.00  0.00     0.064 A 
ATOM     64  C   UNL A   1      38.823  28.876  30.233  1.00  0.00     0.173 A 
ATOM     65  C   UNL A   1      38.757  29.397  27.889  1.00  0.00     0.173 A 
ATOM     66  F   UNL A   1      39.480  28.471  31.332  1.00  0.00    -0.203 F 
ATOM     67  C   UNL A   1      37.458  29.131  30.329  1.00  0.00     0.198 A 
ATOM     68  C   UNL A   1      37.397  29.685  27.995  1.00  0.00     0.198 A 
ATOM     69  F   UNL A   1      39.349  29.521  26.693  1.00  0.00    -0.203 F 
ATOM     70  F   UNL A   1      36.826  28.961  31.498  1.00  0.00    -0.200 F 
ATOM     71  C   UNL A   1      36.747  29.541  29.211  1.00  0.00     0.200 A 
ATOM     72  F   UNL A   1      36.715  30.094  26.917  1.00  0.00    -0.200 F 
ATOM     73  F   UNL A   1      35.433  29.787  29.304  1.00  0.00    -0.200 F 
ENDBRANCH  49  63
BRANCH  50  74
ATOM     74  C   UNL A   1      49.081  26.549  27.615  1.00  0.00     0.064 A 
ATOM     75  C   UNL A   1      49.610  26.563  26.317  1.00  0.00     0.173 A 
ATOM     76  C   UNL A   1      49.946  26.222  28.669  1.00  0.00     0.173 A 
ATOM     77  F   UNL A   1      48.817  26.851  25.275  1.00  0.00    -0.203 F 
ATOM     78  C   UNL A   1      50.947  26.251  26.081  1.00  0.00     0.198 A 
ATOM     79  C   UNL A   1      51.290  25.936  28.435  1.00  0.00     0.198 A 
ATOM     80  F   UNL A   1      49.490  26.202  29.930  1.00  0.00    -0.203 F 
ATOM     81  F   UNL A   1      51.419  26.239  24.828  1.00  0.00    -0.200 F 
ATOM     82  C   UNL A   1      51.788  25.946  27.141  1.00  0.00     0.200 A 
ATOM     83  F   UNL A   1      52.102  25.656  29.464  1.00  0.00    -0.200 F 
ATOM     84  F   UNL A   1      53.077  25.658  26.915  1.00  0.00    -0.200 F 
ENDBRANCH  50  74
BRANCH  62  85
ATOM     85  C   UNL A   1      45.837  32.350  29.722  1.00  0.00     0.064 A 
ATOM     86  C   UNL A   1      46.203  32.626  31.047  1.00  0.00     0.173 A 
ATOM     87  C   UNL A   1      45.998  33.368  28.770  1.00  0.00     0.173 A 
ATOM     88  F   UNL A   1      46.053  31.691  31.998  1.00  0.00    -0.203 F 
ATOM     89  C   UNL A   1      46.689  33.880  31.408  1.00  0.00     0.198 A 
ATOM     90  C   UNL A   1      46.510  34.611  29.129  1.00  0.00     0.198 A 
ATOM     91  F   UNL A   1      45.668  33.152  27.487  1.00  0.00    -0.203 F 
ATOM     92  F   UNL A   1      46.989  34.136  32.689  1.00  0.00    -0.200 F 
ATOM     93  C   UNL A   1      46.849  34.868  30.448  1.00  0.00     0.200 A 
ATOM     94  F   UNL A   1      46.678  35.560  28.198  1.00  0.00    -0.200 F 
ATOM     95  F   UNL A   1      47.325  36.071  30.797  1.00  0.00    -0.200 F 
ENDBRANCH  62  85
ENDBRANCH  36  37
ENDBRANCH  28  31
ENDBRANCH  26  27
ENDBRANCH   1  26
TORSDOF 11
ENDMDL
MODEL 2
REMARK VINA RESULT:     -13.4      4.518      9.945
REMARK SMILES CC1=CC[C@@H]2C(=O)N(c3ccc(Cl)c(C(=O)NCCCNC(=O)c4ccc(-c5c6nc(c(-c7c(F)c(F)c(F)c(F)c7F)c7ccc([nH]7)c(-c7c(F)c(F)c(F)c(F)c7F)c7nc(c(-c8c(F)c(F)c(F)c(F)c8F)c8ccc5[nH]8)C=C7)C=C6)cc4)c3)C(=O)[C@H]2C1
REMARK SMILES IDX 19 1 18 2 17 3 15 4 16 5 14 7 9 8 10 9 87 10 11 11 12 12
REMARK SMILES IDX 13 13 8 14 1 15 2 16 3 17 91 18 4 19 90 20 5 21 88 22 6 23
REMARK SMILES IDX 89 24 7 25 20 26 21 27 22 28 23 30 24 31 25 32 86 33 26 34
REMARK SMILES IDX 85 35 27 36 28 37 29 38 79 39 30 40 84 41 78 42 80 43 31 44
REMARK SMILES IDX 83 45 77 46 76 47 32 49 64 50 44 51 63 52 45 53 48 54 62 55
REMARK SMILES IDX 81 56 46 57 47 58 61 60 82 61 49 62 33 63 34 64 42 65 35 66
REMARK SMILES IDX 36 67 40 68 43 69 37 70 38 71 41 72 39 73 65 74 66 75 74 76
REMARK SMILES IDX 67 77 68 78 72 79 75 80 69 81 70 82 73 83 71 84 50 85 51 86
REMARK SMILES IDX 59 87 52 88 53 89 57 90 60 91 54 92 55 93 58 94 56 95
REMARK H PARENT 17 6 21 29 80 48 48 59
REMARK Flexibility Score: inf
ROOT
ATOM      1  C   UNL A   1      32.960  28.927  24.131  1.00  0.00     0.042 C 
ENDROOT
BRANCH   1   2
ATOM      2  C   UNL A   1      34.117  28.005  23.783  1.00  0.00     0.118 C 
BRANCH   2   3
ATOM      3  N   UNL A   1      33.959  27.291  22.527  1.00  0.00    -0.352 N 
ATOM      4  C   UNL A   1      33.227  26.175  22.197  1.00  0.00     0.252 C 
ATOM      5  O   UNL A   1      33.257  25.798  21.025  1.00  0.00    -0.269 OA
ATOM      6  H   UNL A   1      34.470  27.675  21.777  1.00  0.00     0.163 HD
BRANCH   4   7
ATOM      7  C   UNL A   1      32.462  25.367  23.182  1.00  0.00     0.060 A 
ATOM      8  C   UNL A   1      32.240  23.175  24.235  1.00  0.00     0.053 A 
ATOM      9  C   UNL A   1      31.107  23.639  24.913  1.00  0.00     0.028 A 
ATOM     10  C   UNL A   1      32.977  24.074  23.457  1.00  0.00     0.042 A 
ATOM     11  C   UNL A   1      30.599  24.905  24.661  1.00  0.00     0.023 A 
ATOM     12  C   UNL A   1      31.211  25.721  23.708  1.00  0.00     0.053 A 
ATOM     13  Cl  UNL A   1      30.216  26.998  23.098  1.00  0.00    -0.083 Cl
BRANCH   8  14
ATOM     14  N   UNL A   1      32.474  21.782  24.199  1.00  0.00    -0.250 N 
ATOM     15  C   UNL A   1      33.345  15.835  25.076  1.00  0.00     0.039 C 
ATOM     16  C   UNL A   1      33.197  17.178  24.421  1.00  0.00    -0.076 C 
ATOM     17  C   UNL A   1      32.959  17.288  23.094  1.00  0.00    -0.027 C 
ATOM     18  C   UNL A   1      33.307  18.396  25.345  1.00  0.00     0.044 C 
ATOM     19  C   UNL A   1      32.673  18.601  22.404  1.00  0.00     0.041 C 
ATOM     20  C   UNL A   1      33.386  19.673  24.518  1.00  0.00     0.096 C 
ATOM     21  C   UNL A   1      32.295  19.609  23.465  1.00  0.00     0.096 C 
ATOM     22  C   UNL A   1      33.134  21.023  25.150  1.00  0.00     0.238 C 
ATOM     23  C   UNL A   1      32.146  21.037  23.071  1.00  0.00     0.238 C 
ATOM     24  O   UNL A   1      33.506  21.356  26.264  1.00  0.00    -0.274 OA
ATOM     25  O   UNL A   1      31.770  21.414  21.982  1.00  0.00    -0.274 OA
ENDBRANCH   8  14
ENDBRANCH   4   7
ENDBRANCH   2   3
ENDBRANCH   1   2
BRANCH   1  26
ATOM     26  C   UNL A   1      32.674  29.068  25.620  1.00  0.00     0.118 C 
BRANCH  26  27
ATOM     27  N   UNL A   1      32.349  30.427  26.034  1.00  0.00    -0.352 N 
ATOM     28  C   UNL A   1      32.962  31.298  26.904  1.00  0.00     0.251 C 
ATOM     29  H   UNL A   1      31.538  30.791  25.610  1.00  0.00     0.163 HD
ATOM     30  O   UNL A   1      32.406  32.360  27.178  1.00  0.00    -0.269 OA
BRANCH  28  31
ATOM     31  C   UNL A   1      34.255  30.975  27.549  1.00  0.00     0.039 A 
ATOM     32  C   UNL A   1      35.190  32.001  27.739  1.00  0.00     0.014 A 
ATOM     33  C   UNL A   1      34.582  29.677  27.937  1.00  0.00     0.014 A 
ATOM     34  C   UNL A   1      36.398  31.740  28.392  1.00  0.00     0.010 A 
ATOM     35  C   UNL A   1      35.729  29.439  28.687  1.00  0.00     0.010 A 
ATOM     36  C   UNL A   1      36.657  30.465  28.918  1.00  0.00    -0.014 A 
BRANCH  36  37
ATOM     37  C   UNL A   1      37.888  30.171  29.697  1.00  0.00     0.031 A 
ATOM     38  C   UNL A   1      38.922  29.224  29.148  1.00  0.00     0.074 A 
ATOM     39  C   UNL A   1      38.032  30.676  30.938  1.00  0.00     0.049 A 
ATOM     40  N   UNL A   1      39.998  28.746  29.720  1.00  0.00    -0.248 NA
ATOM     41  C   UNL A   1      38.692  28.714  27.787  1.00  0.00     0.031 C 
ATOM     42  C   UNL A   1      37.074  31.554  31.611  1.00  0.00     0.029 A 
ATOM     43  N   UNL A   1      39.034  30.508  31.862  1.00  0.00    -0.354 N 
ATOM     44  C   UNL A   1      40.550  27.859  28.805  1.00  0.00     0.074 A 
ATOM     45  C   UNL A   1      39.661  27.819  27.666  1.00  0.00     0.031 C 
ATOM     46  C   UNL A   1      37.544  31.867  32.829  1.00  0.00     0.029 A 
ATOM     47  C   UNL A   1      38.814  31.181  33.039  1.00  0.00     0.049 A 
ATOM     48  H   UNL A   1      39.834  29.958  31.696  1.00  0.00     0.167 HD
ATOM     49  C   UNL A   1      41.707  27.160  28.893  1.00  0.00     0.037 A 
ATOM     50  C   UNL A   1      39.551  31.232  34.165  1.00  0.00     0.037 A 
ATOM     51  C   UNL A   1      42.612  27.235  30.010  1.00  0.00     0.049 A 
ATOM     52  C   UNL A   1      40.846  30.471  34.232  1.00  0.00     0.074 A 
ATOM     53  C   UNL A   1      43.848  26.632  30.163  1.00  0.00     0.029 A 
ATOM     54  N   UNL A   1      42.374  27.961  31.169  1.00  0.00    -0.354 N 
ATOM     55  N   UNL A   1      41.394  29.693  33.331  1.00  0.00    -0.248 NA
ATOM     56  C   UNL A   1      41.628  30.601  35.469  1.00  0.00     0.031 C 
ATOM     57  C   UNL A   1      44.339  26.961  31.432  1.00  0.00     0.029 A 
ATOM     58  C   UNL A   1      43.432  27.806  32.050  1.00  0.00     0.049 A 
ATOM     59  H   UNL A   1      41.572  28.506  31.339  1.00  0.00     0.167 HD
ATOM     60  C   UNL A   1      42.593  29.259  33.880  1.00  0.00     0.074 A 
ATOM     61  C   UNL A   1      42.700  29.873  35.187  1.00  0.00     0.031 C 
ATOM     62  C   UNL A   1      43.522  28.426  33.348  1.00  0.00     0.037 A 
BRANCH  49  63
ATOM     63  C   UNL A   1      42.058  26.257  27.745  1.00  0.00     0.064 A 
ATOM     64  C   UNL A   1      41.480  24.987  27.600  1.00  0.00     0.173 A 
ATOM     65  C   UNL A   1      42.981  26.669  26.772  1.00  0.00     0.173 A 
ATOM     66  F   UNL A   1      40.599  24.538  28.508  1.00  0.00    -0.203 F 
ATOM     67  C   UNL A   1      41.844  24.146  26.551  1.00  0.00     0.198 A 
ATOM     68  C   UNL A   1      43.318  25.839  25.704  1.00  0.00     0.198 A 
ATOM     69  F   UNL A   1      43.560  27.876  26.855  1.00  0.00    -0.203 F 
ATOM     70  F   UNL A   1      41.325  22.913  26.472  1.00  0.00    -0.200 F 
ATOM     71  C   UNL A   1      42.758  24.574  25.601  1.00  0.00     0.200 A 
ATOM     72  F   UNL A   1      44.192  26.260  24.780  1.00  0.00    -0.200 F 
ATOM     73  F   UNL A   1      43.108  23.765  24.593  1.00  0.00    -0.200 F 
ENDBRANCH  49  63
BRANCH  50  74
ATOM     74  C   UNL A   1      39.092  32.066  35.306  1.00  0.00     0.064 A 
ATOM     75  C   UNL A   1      38.357  31.500  36.357  1.00  0.00     0.173 A 
ATOM     76  C   UNL A   1      39.398  33.432  35.385  1.00  0.00     0.173 A 
ATOM     77  F   UNL A   1      38.024  30.202  36.317  1.00  0.00    -0.203 F 
ATOM     78  C   UNL A   1      37.936  32.271  37.438  1.00  0.00     0.198 A 
ATOM     79  C   UNL A   1      39.000  34.197  36.480  1.00  0.00     0.198 A 
ATOM     80  F   UNL A   1      40.106  34.019  34.409  1.00  0.00    -0.203 F 
ATOM     81  F   UNL A   1      37.206  31.713  38.413  1.00  0.00    -0.200 F 
ATOM     82  C   UNL A   1      38.264  33.617  37.502  1.00  0.00     0.200 A 
ATOM     83  F   UNL A   1      39.331  35.493  36.545  1.00  0.00    -0.200 F 
ATOM     84  F   UNL A   1      37.869  34.356  38.548  1.00  0.00    -0.200 F 
ENDBRANCH  50  74
BRANCH  62  85
ATOM     85  C   UNL A   1      44.748  28.152  34.168  1.00  0.00     0.064 A 
ATOM     86  C   UNL A   1      45.877  28.982  34.104  1.00  0.00     0.173 A 
ATOM     87  C   UNL A   1      44.778  27.070  35.061  1.00  0.00     0.173 A 
ATOM     88  F   UNL A   1      45.904  30.020  33.254  1.00  0.00    -0.203 F 
ATOM     89  C   UNL A   1      46.999  28.725  34.888  1.00  0.00     0.198 A 
ATOM     90  C   UNL A   1      45.890  26.833  35.864  1.00  0.00     0.198 A 
ATOM     91  F   UNL A   1      43.721  26.250  35.164  1.00  0.00    -0.203 F 
ATOM     92  F   UNL A   1      48.083  29.505  34.778  1.00  0.00    -0.200 F 
ATOM     93  C   UNL A   1      47.001  27.656  35.771  1.00  0.00     0.200 A 
ATOM     94  F   UNL A   1      45.885  25.808  36.727  1.00  0.00    -0.200 F 
ATOM     95  F   UNL A   1      48.079  27.416  36.531  1.00  0.00    -0.200 F 
ENDBRANCH  62  85
ENDBRANCH  36  37
ENDBRANCH  28  31
ENDBRANCH  26  27
ENDBRANCH   1  26
TORSDOF 11
ENDMDL
MODEL 3
REMARK VINA RESULT:     -13.4      4.409      9.803
REMARK SMILES CC1=CC[C@@H]2C(=O)N(c3ccc(Cl)c(C(=O)NCCCNC(=O)c4ccc(-c5c6nc(c(-c7c(F)c(F)c(F)c(F)c7F)c7ccc([nH]7)c(-c7c(F)c(F)c(F)c(F)c7F)c7nc(c(-c8c(F)c(F)c(F)c(F)c8F)c8ccc5[nH]8)C=C7)C=C6)cc4)c3)C(=O)[C@H]2C1
REMARK SMILES IDX 19 1 18 2 17 3 15 4 16 5 14 7 9 8 10 9 87 10 11 11 12 12
REMARK SMILES IDX 13 13 8 14 1 15 2 16 3 17 91 18 4 19 90 20 5 21 88 22 6 23
REMARK SMILES IDX 89 24 7 25 20 26 21 27 22 28 23 30 24 31 25 32 86 33 26 34
REMARK SMILES IDX 85 35 27 36 28 37 29 38 79 39 30 40 84 41 78 42 80 43 31 44
REMARK SMILES IDX 83 45 77 46 76 47 32 49 64 50 44 51 63 52 45 53 48 54 62 55
REMARK SMILES IDX 81 56 46 57 47 58 61 60 82 61 49 62 33 63 34 64 42 65 35 66
REMARK SMILES IDX 36 67 40 68 43 69 37 70 38 71 41 72 39 73 65 74 66 75 74 76
REMARK SMILES IDX 67 77 68 78 72 79 75 80 69 81 70 82 73 83 71 84 50 85 51 86
REMARK SMILES IDX 59 87 52 88 53 89 57 90 60 91 54 92 55 93 58 94 56 95
REMARK H PARENT 17 6 21 29 80 48 48 59
REMARK Flexibility Score: inf
ROOT
ATOM      1  C   UNL A   1      31.839  28.486  25.497  1.00  0.00     0.042 C 
ENDROOT
BRANCH   1   2
ATOM      2  C   UNL A   1      31.930  27.512  26.660  1.00  0.00     0.118 C 
BRANCH   2   3
ATOM      3  N   UNL A   1      30.721  26.739  26.892  1.00  0.00    -0.352 N 
ATOM      4  C   UNL A   1      30.240  25.596  26.298  1.00  0.00     0.252 C 
ATOM      5  O   UNL A   1      29.180  25.134  26.722  1.00  0.00    -0.269 OA
ATOM      6  H   UNL A   1      30.141  27.100  27.602  1.00  0.00     0.163 HD
BRANCH   4   7
ATOM      7  C   UNL A   1      30.889  24.931  25.138  1.00  0.00     0.060 A 
ATOM      8  C   UNL A   1      32.693  23.446  24.430  1.00  0.00     0.053 A 
ATOM      9  C   UNL A   1      32.319  23.660  23.099  1.00  0.00     0.028 A 
ATOM     10  C   UNL A   1      31.907  23.995  25.449  1.00  0.00     0.042 A 
ATOM     11  C   UNL A   1      31.317  24.566  22.781  1.00  0.00     0.023 A 
ATOM     12  C   UNL A   1      30.686  25.286  23.796  1.00  0.00     0.053 A 
ATOM     13  Cl  UNL A   1      29.881  26.726  23.273  1.00  0.00    -0.083 Cl
BRANCH   8  14
ATOM     14  N   UNL A   1      33.954  22.860  24.685  1.00  0.00    -0.250 N 
ATOM     15  C   UNL A   1      39.023  19.555  25.200  1.00  0.00     0.039 C 
ATOM     16  C   UNL A   1      38.019  20.663  25.329  1.00  0.00    -0.076 C 
ATOM     17  C   UNL A   1      38.393  21.909  25.700  1.00  0.00    -0.027 C 
ATOM     18  C   UNL A   1      36.567  20.302  24.994  1.00  0.00     0.044 C 
ATOM     19  C   UNL A   1      37.454  23.091  25.723  1.00  0.00     0.041 C 
ATOM     20  C   UNL A   1      35.639  21.438  25.404  1.00  0.00     0.096 C 
ATOM     21  C   UNL A   1      36.241  22.734  24.893  1.00  0.00     0.096 C 
ATOM     22  C   UNL A   1      34.226  21.517  24.871  1.00  0.00     0.238 C 
ATOM     23  C   UNL A   1      35.073  23.656  24.905  1.00  0.00     0.238 C 
ATOM     24  O   UNL A   1      33.485  20.560  24.705  1.00  0.00    -0.274 OA
ATOM     25  O   UNL A   1      35.148  24.859  25.042  1.00  0.00    -0.274 OA
ENDBRANCH   8  14
ENDBRANCH   4   7
ENDBRANCH   2   3
ENDBRANCH   1   2
BRANCH   1  26
ATOM     26  C   UNL A   1      32.952  29.523  25.439  1.00  0.00     0.118 C 
BRANCH  26  27
ATOM     27  N   UNL A   1      32.580  30.821  25.990  1.00  0.00    -0.352 N 
ATOM     28  C   UNL A   1      33.140  31.599  26.975  1.00  0.00     0.251 C 
ATOM     29  H   UNL A   1      31.776  31.214  25.579  1.00  0.00     0.163 HD
ATOM     30  O   UNL A   1      32.550  32.612  27.346  1.00  0.00    -0.269 OA
BRANCH  28  31
ATOM     31  C   UNL A   1      34.417  31.231  27.630  1.00  0.00     0.039 A 
ATOM     32  C   UNL A   1      35.379  32.226  27.841  1.00  0.00     0.014 A 
ATOM     33  C   UNL A   1      34.701  29.919  28.004  1.00  0.00     0.014 A 
ATOM     34  C   UNL A   1      36.572  31.921  28.503  1.00  0.00     0.010 A 
ATOM     35  C   UNL A   1      35.832  29.638  28.763  1.00  0.00     0.010 A 
ATOM     36  C   UNL A   1      36.787  30.633  29.016  1.00  0.00    -0.014 A 
BRANCH  36  37
ATOM     37  C   UNL A   1      38.001  30.293  29.804  1.00  0.00     0.031 A 
ATOM     38  C   UNL A   1      39.021  29.336  29.246  1.00  0.00     0.074 A 
ATOM     39  C   UNL A   1      38.140  30.767  31.057  1.00  0.00     0.049 A 
ATOM     40  N   UNL A   1      40.079  28.820  29.821  1.00  0.00    -0.248 NA
ATOM     41  C   UNL A   1      38.797  28.862  27.871  1.00  0.00     0.031 C 
ATOM     42  C   UNL A   1      37.194  31.651  31.738  1.00  0.00     0.029 A 
ATOM     43  N   UNL A   1      39.126  30.555  31.990  1.00  0.00    -0.354 N 
ATOM     44  C   UNL A   1      40.622  27.942  28.892  1.00  0.00     0.074 A 
ATOM     45  C   UNL A   1      39.747  27.949  27.741  1.00  0.00     0.031 C 
ATOM     46  C   UNL A   1      37.655  31.926  32.968  1.00  0.00     0.029 A 
ATOM     47  C   UNL A   1      38.906  31.206  33.179  1.00  0.00     0.049 A 
ATOM     48  H   UNL A   1      39.915  29.991  31.821  1.00  0.00     0.167 HD
ATOM     49  C   UNL A   1      41.762  27.215  28.979  1.00  0.00     0.037 A 
ATOM     50  C   UNL A   1      39.629  31.215  34.316  1.00  0.00     0.037 A 
ATOM     51  C   UNL A   1      42.653  27.244  30.109  1.00  0.00     0.049 A 
ATOM     52  C   UNL A   1      40.906  30.423  34.381  1.00  0.00     0.074 A 
ATOM     53  C   UNL A   1      43.873  26.610  30.264  1.00  0.00     0.029 A 
ATOM     54  N   UNL A   1      42.417  27.949  31.281  1.00  0.00    -0.354 N 
ATOM     55  N   UNL A   1      41.448  29.653  33.470  1.00  0.00    -0.248 NA
ATOM     56  C   UNL A   1      41.674  30.508  35.631  1.00  0.00     0.031 C 
ATOM     57  C   UNL A   1      44.355  26.898  31.546  1.00  0.00     0.029 A 
ATOM     58  C   UNL A   1      43.459  27.750  32.172  1.00  0.00     0.049 A 
ATOM     59  H   UNL A   1      41.625  28.508  31.453  1.00  0.00     0.167 HD
ATOM     60  C   UNL A   1      42.629  29.180  34.023  1.00  0.00     0.074 A 
ATOM     61  C   UNL A   1      42.733  29.761  35.346  1.00  0.00     0.031 C 
ATOM     62  C   UNL A   1      43.546  28.339  33.484  1.00  0.00     0.037 A 
BRANCH  49  63
ATOM     63  C   UNL A   1      42.108  26.330  27.815  1.00  0.00     0.064 A 
ATOM     64  C   UNL A   1      41.541  25.056  27.661  1.00  0.00     0.173 A 
ATOM     65  C   UNL A   1      43.014  26.765  26.836  1.00  0.00     0.173 A 
ATOM     66  F   UNL A   1      40.676  24.587  28.575  1.00  0.00    -0.203 F 
ATOM     67  C   UNL A   1      41.900  24.233  26.597  1.00  0.00     0.198 A 
ATOM     68  C   UNL A   1      43.346  25.952  25.753  1.00  0.00     0.198 A 
ATOM     69  F   UNL A   1      43.582  27.976  26.927  1.00  0.00    -0.203 F 
ATOM     70  F   UNL A   1      41.393  22.996  26.509  1.00  0.00    -0.200 F 
ATOM     71  C   UNL A   1      42.797  24.683  25.642  1.00  0.00     0.200 A 
ATOM     72  F   UNL A   1      44.203  26.393  24.824  1.00  0.00    -0.200 F 
ATOM     73  F   UNL A   1      43.142  23.890  24.618  1.00  0.00    -0.200 F 
ENDBRANCH  49  63
BRANCH  50  74
ATOM     74  C   UNL A   1      39.174  32.033  35.469  1.00  0.00     0.064 A 
ATOM     75  C   UNL A   1      38.372  31.473  36.473  1.00  0.00     0.173 A 
ATOM     76  C   UNL A   1      39.550  33.377  35.608  1.00  0.00     0.173 A 
ATOM     77  F   UNL A   1      37.971  30.197  36.374  1.00  0.00    -0.203 F 
ATOM     78  C   UNL A   1      37.953  32.228  37.566  1.00  0.00     0.198 A 
ATOM     79  C   UNL A   1      39.153  34.124  36.715  1.00  0.00     0.198 A 
ATOM     80  F   UNL A   1      40.323  33.957  34.679  1.00  0.00    -0.203 F 
ATOM     81  F   UNL A   1      37.160  31.678  38.494  1.00  0.00    -0.200 F 
ATOM     82  C   UNL A   1      38.351  33.551  37.690  1.00  0.00     0.200 A 
ATOM     83  F   UNL A   1      39.551  35.398  36.839  1.00  0.00    -0.200 F 
ATOM     84  F   UNL A   1      37.958  34.274  38.748  1.00  0.00    -0.200 F 
ENDBRANCH  50  74
BRANCH  62  85
ATOM     85  C   UNL A   1      44.755  28.017  34.313  1.00  0.00     0.064 A 
ATOM     86  C   UNL A   1      45.909  28.813  34.269  1.00  0.00     0.173 A 
ATOM     87  C   UNL A   1      44.742  26.926  35.195  1.00  0.00     0.173 A 
ATOM     88  F   UNL A   1      45.977  29.859  33.432  1.00  0.00    -0.203 F 
ATOM     89  C   UNL A   1      47.014  28.514  35.062  1.00  0.00     0.198 A 
ATOM     90  C   UNL A   1      45.838  26.646  36.006  1.00  0.00     0.198 A 
ATOM     91  F   UNL A   1      43.659  26.137  35.279  1.00  0.00    -0.203 F 
ATOM     92  F   UNL A   1      48.123  29.261  34.971  1.00  0.00    -0.200 F 
ATOM     93  C   UNL A   1      46.975  27.435  35.934  1.00  0.00     0.200 A 
ATOM     94  F   UNL A   1      45.793  25.613  36.858  1.00  0.00    -0.200 F 
ATOM     95  F   UNL A   1      48.037  27.154  36.701  1.00  0.00    -0.200 F 
ENDBRANCH  62  85
ENDBRANCH  36  37
ENDBRANCH  28  31
ENDBRANCH  26  27
ENDBRANCH   1  26
TORSDOF 11
ENDMDL
