MODEL 1
REMARK VINA RESULT:     -12.4      0.000      0.000
REMARK SMILES N#Cc1ccc(C[N@H+]2CCCC[C@H]2C(=O)NCCCNC(=O)c2ccc(-c3c4nc(c(-c5c(F)c(F)c(F)c(F)c5F)c5ccc([nH]5)c(-c5c(F)c(F)c(F)c(F)c5F)c5nc(c(-c6c(F)c(F)c(F)c(F)c6F)c6ccc3[nH]6)C=C5)C=C4)cc2)c(F)c1
REMARK SMILES IDX 17 1 16 2 14 3 15 4 13 6 8 7 9 8 10 10 12 11 11 12 7 13 6 14
REMARK SMILES IDX 3 15 4 16 88 17 5 18 86 19 87 20 2 21 1 22 18 23 19 24 20 25
REMARK SMILES IDX 21 26 22 28 23 29 24 30 85 31 25 32 84 33 26 34 27 35 28 36
REMARK SMILES IDX 78 37 29 38 83 39 77 40 79 41 30 42 82 43 76 44 75 45 31 47
REMARK SMILES IDX 63 48 43 49 62 50 44 51 47 52 61 53 80 54 45 55 46 56 60 58
REMARK SMILES IDX 81 59 48 60 32 61 33 62 41 63 34 64 35 65 39 66 42 67 36 68
REMARK SMILES IDX 37 69 40 70 38 71 64 72 65 73 73 74 66 75 67 76 71 77 74 78
REMARK SMILES IDX 68 79 69 80 72 81 70 82 49 83 50 84 58 85 51 86 52 87 56 88
REMARK SMILES IDX 59 89 53 90 54 91 57 92 55 93
REMARK H PARENT 16 5 8 9 20 27 79 46 47 57
REMARK Flexibility Score: inf
ROOT
ATOM      1  C   UNL A   1      31.616  30.265  26.262  1.00  0.00     0.118 C 
ENDROOT
BRANCH   1   2
ATOM      2  N   UNL A   1      32.488  30.042  25.131  1.00  0.00    -0.351 N 
ATOM      3  C   UNL A   1      32.947  28.864  24.622  1.00  0.00     0.278 C 
ATOM      4  O   UNL A   1      34.010  28.928  24.000  1.00  0.00    -0.268 OA
ATOM      5  H   UNL A   1      32.794  30.853  24.664  1.00  0.00     0.163 HD
BRANCH   3   6
ATOM      6  C   UNL A   1      32.112  27.571  24.822  1.00  0.00     0.274 C 
ATOM      7  N   UNL A   1      32.260  26.582  23.726  1.00  0.00    -0.321 N 
ATOM      8  C   UNL A   1      33.611  26.034  23.597  1.00  0.00     0.263 C 
ATOM      9  H   UNL A   1      31.703  25.790  24.046  1.00  0.00     0.349 HD
ATOM     10  C   UNL A   1      34.138  25.471  24.926  1.00  0.00     0.062 C 
ATOM     11  C   UNL A   1      32.489  26.906  26.150  1.00  0.00     0.076 C 
ATOM     12  C   UNL A   1      33.923  26.396  26.120  1.00  0.00     0.012 C 
BRANCH   7  13
ATOM     13  C   UNL A   1      31.583  26.913  22.458  1.00  0.00     0.302 C 
BRANCH  13  14
ATOM     14  C   UNL A   1      30.464  27.927  22.509  1.00  0.00     0.042 A 
ATOM     15  C   UNL A   1      28.538  29.905  23.027  1.00  0.00     0.055 A 
ATOM     16  C   UNL A   1      29.676  30.212  22.273  1.00  0.00     0.020 A 
ATOM     17  C   UNL A   1      28.307  28.590  23.427  1.00  0.00     0.059 A 
ATOM     18  C   UNL A   1      30.639  29.228  22.021  1.00  0.00     0.014 A 
ATOM     19  C   UNL A   1      29.252  27.613  23.134  1.00  0.00     0.133 A 
ATOM     20  F   UNL A   1      29.030  26.362  23.568  1.00  0.00    -0.206 F 
BRANCH  15  21
ATOM     21  C   UNL A   1      27.641  30.947  23.439  1.00  0.00     0.099 C 
ATOM     22  N   UNL A   1      26.938  31.794  23.798  1.00  0.00    -0.192 NA
ENDBRANCH  15  21
ENDBRANCH  13  14
ENDBRANCH   7  13
ENDBRANCH   3   6
ENDBRANCH   1   2
BRANCH   1  23
ATOM     23  C   UNL A   1      31.458  31.766  26.493  1.00  0.00     0.042 C 
BRANCH  23  24
ATOM     24  C   UNL A   1      32.703  32.428  27.083  1.00  0.00     0.118 C 
BRANCH  24  25
ATOM     25  N   UNL A   1      32.468  33.810  27.469  1.00  0.00    -0.352 N 
ATOM     26  C   UNL A   1      33.062  34.554  28.457  1.00  0.00     0.251 C 
ATOM     27  H   UNL A   1      31.783  34.281  26.943  1.00  0.00     0.163 HD
ATOM     28  O   UNL A   1      32.587  35.641  28.770  1.00  0.00    -0.269 OA
BRANCH  26  29
ATOM     29  C   UNL A   1      34.251  34.035  29.162  1.00  0.00     0.039 A 
ATOM     30  C   UNL A   1      34.061  33.170  30.241  1.00  0.00     0.014 A 
ATOM     31  C   UNL A   1      35.544  34.401  28.774  1.00  0.00     0.014 A 
ATOM     32  C   UNL A   1      35.168  32.624  30.890  1.00  0.00     0.010 A 
ATOM     33  C   UNL A   1      36.645  33.789  29.367  1.00  0.00     0.010 A 
ATOM     34  C   UNL A   1      36.469  32.893  30.430  1.00  0.00    -0.014 A 
BRANCH  34  35
ATOM     35  C   UNL A   1      37.641  32.215  31.045  1.00  0.00     0.031 A 
ATOM     36  C   UNL A   1      38.134  32.617  32.408  1.00  0.00     0.074 A 
ATOM     37  C   UNL A   1      38.278  31.247  30.355  1.00  0.00     0.049 A 
ATOM     38  N   UNL A   1      39.148  32.145  33.092  1.00  0.00    -0.248 NA
ATOM     39  C   UNL A   1      37.408  33.700  33.089  1.00  0.00     0.031 C 
ATOM     40  C   UNL A   1      37.924  30.800  29.006  1.00  0.00     0.029 A 
ATOM     41  N   UNL A   1      39.356  30.465  30.690  1.00  0.00    -0.354 N 
ATOM     42  C   UNL A   1      39.174  32.866  34.278  1.00  0.00     0.074 A 
ATOM     43  C   UNL A   1      38.118  33.851  34.197  1.00  0.00     0.031 C 
ATOM     44  C   UNL A   1      38.745  29.803  28.642  1.00  0.00     0.029 A 
ATOM     45  C   UNL A   1      39.717  29.575  29.706  1.00  0.00     0.049 A 
ATOM     46  H   UNL A   1      39.826  30.535  31.552  1.00  0.00     0.167 HD
ATOM     47  C   UNL A   1      39.986  32.700  35.349  1.00  0.00     0.037 A 
ATOM     48  C   UNL A   1      40.728  28.687  29.661  1.00  0.00     0.037 A 
ATOM     49  C   UNL A   1      41.035  31.717  35.428  1.00  0.00     0.049 A 
ATOM     50  C   UNL A   1      41.645  28.563  30.849  1.00  0.00     0.074 A 
ATOM     51  C   UNL A   1      41.892  31.454  36.483  1.00  0.00     0.029 A 
ATOM     52  N   UNL A   1      41.379  30.841  34.409  1.00  0.00    -0.354 N 
ATOM     53  N   UNL A   1      41.612  29.202  31.994  1.00  0.00    -0.248 NA
ATOM     54  C   UNL A   1      42.737  27.585  30.743  1.00  0.00     0.031 C 
ATOM     55  C   UNL A   1      42.793  30.464  36.081  1.00  0.00     0.029 A 
ATOM     56  C   UNL A   1      42.452  30.056  34.802  1.00  0.00     0.049 A 
ATOM     57  H   UNL A   1      40.927  30.785  33.536  1.00  0.00     0.167 HD
ATOM     58  C   UNL A   1      42.652  28.681  32.751  1.00  0.00     0.074 A 
ATOM     59  C   UNL A   1      43.278  27.652  31.949  1.00  0.00     0.031 C 
ATOM     60  C   UNL A   1      43.060  29.027  33.997  1.00  0.00     0.037 A 
BRANCH  47  61
ATOM     61  C   UNL A   1      39.771  33.595  36.538  1.00  0.00     0.064 A 
ATOM     62  C   UNL A   1      40.361  34.866  36.614  1.00  0.00     0.173 A 
ATOM     63  C   UNL A   1      38.905  33.212  37.573  1.00  0.00     0.173 A 
ATOM     64  F   UNL A   1      41.202  35.279  35.654  1.00  0.00    -0.203 F 
ATOM     65  C   UNL A   1      40.105  35.713  37.690  1.00  0.00     0.198 A 
ATOM     66  C   UNL A   1      38.625  34.075  38.630  1.00  0.00     0.198 A 
ATOM     67  F   UNL A   1      38.309  32.011  37.548  1.00  0.00    -0.203 F 
ATOM     68  F   UNL A   1      40.708  36.908  37.758  1.00  0.00    -0.200 F 
ATOM     69  C   UNL A   1      39.228  35.321  38.690  1.00  0.00     0.200 A 
ATOM     70  F   UNL A   1      37.762  33.703  39.586  1.00  0.00    -0.200 F 
ATOM     71  F   UNL A   1      38.966  36.146  39.713  1.00  0.00    -0.200 F 
ENDBRANCH  47  61
BRANCH  48  72
ATOM     72  C   UNL A   1      40.945  27.848  28.448  1.00  0.00     0.064 A 
ATOM     73  C   UNL A   1      41.726  28.306  27.377  1.00  0.00     0.173 A 
ATOM     74  C   UNL A   1      40.327  26.595  28.310  1.00  0.00     0.173 A 
ATOM     75  F   UNL A   1      42.326  29.504  27.450  1.00  0.00    -0.203 F 
ATOM     76  C   UNL A   1      41.839  27.570  26.199  1.00  0.00     0.198 A 
ATOM     77  C   UNL A   1      40.475  25.841  27.149  1.00  0.00     0.198 A 
ATOM     78  F   UNL A   1      39.574  26.104  29.305  1.00  0.00    -0.203 F 
ATOM     79  F   UNL A   1      42.522  28.072  25.162  1.00  0.00    -0.200 F 
ATOM     80  C   UNL A   1      41.216  26.338  26.087  1.00  0.00     0.200 A 
ATOM     81  F   UNL A   1      39.888  24.640  27.054  1.00  0.00    -0.200 F 
ATOM     82  F   UNL A   1      41.316  25.634  24.951  1.00  0.00    -0.200 F 
ENDBRANCH  48  72
BRANCH  60  83
ATOM     83  C   UNL A   1      44.206  28.253  34.588  1.00  0.00     0.064 A 
ATOM     84  C   UNL A   1      45.536  28.684  34.462  1.00  0.00     0.173 A 
ATOM     85  C   UNL A   1      43.969  27.070  35.305  1.00  0.00     0.173 A 
ATOM     86  F   UNL A   1      45.822  29.802  33.777  1.00  0.00    -0.203 F 
ATOM     87  C   UNL A   1      46.585  27.936  34.990  1.00  0.00     0.198 A 
ATOM     88  C   UNL A   1      45.016  26.348  35.870  1.00  0.00     0.198 A 
ATOM     89  F   UNL A   1      42.716  26.615  35.467  1.00  0.00    -0.203 F 
ATOM     90  F   UNL A   1      47.852  28.330  34.793  1.00  0.00    -0.200 F 
ATOM     91  C   UNL A   1      46.324  26.775  35.700  1.00  0.00     0.200 A 
ATOM     92  F   UNL A   1      44.760  25.237  36.573  1.00  0.00    -0.200 F 
ATOM     93  F   UNL A   1      47.335  26.058  36.212  1.00  0.00    -0.200 F 
ENDBRANCH  60  83
ENDBRANCH  34  35
ENDBRANCH  26  29
ENDBRANCH  24  25
ENDBRANCH  23  24
ENDBRANCH   1  23
TORSDOF 13
ENDMDL
MODEL 2
REMARK VINA RESULT:     -12.3      3.968      7.300
REMARK SMILES N#Cc1ccc(C[N@H+]2CCCC[C@H]2C(=O)NCCCNC(=O)c2ccc(-c3c4nc(c(-c5c(F)c(F)c(F)c(F)c5F)c5ccc([nH]5)c(-c5c(F)c(F)c(F)c(F)c5F)c5nc(c(-c6c(F)c(F)c(F)c(F)c6F)c6ccc3[nH]6)C=C5)C=C4)cc2)c(F)c1
REMARK SMILES IDX 17 1 16 2 14 3 15 4 13 6 8 7 9 8 10 10 12 11 11 12 7 13 6 14
REMARK SMILES IDX 3 15 4 16 88 17 5 18 86 19 87 20 2 21 1 22 18 23 19 24 20 25
REMARK SMILES IDX 21 26 22 28 23 29 24 30 85 31 25 32 84 33 26 34 27 35 28 36
REMARK SMILES IDX 78 37 29 38 83 39 77 40 79 41 30 42 82 43 76 44 75 45 31 47
REMARK SMILES IDX 63 48 43 49 62 50 44 51 47 52 61 53 80 54 45 55 46 56 60 58
REMARK SMILES IDX 81 59 48 60 32 61 33 62 41 63 34 64 35 65 39 66 42 67 36 68
REMARK SMILES IDX 37 69 40 70 38 71 64 72 65 73 73 74 66 75 67 76 71 77 74 78
REMARK SMILES IDX 68 79 69 80 72 81 70 82 49 83 50 84 58 85 51 86 52 87 56 88
REMARK SMILES IDX 59 89 53 90 54 91 57 92 55 93
REMARK H PARENT 16 5 8 9 20 27 79 46 47 57
REMARK Flexibility Score: inf
ROOT
ATOM      1  C   UNL A   1      32.908  34.477  28.159  1.00  0.00     0.118 C 
ENDROOT
BRANCH   1   2
ATOM      2  N   UNL A   1      33.337  35.739  28.717  1.00  0.00    -0.351 N 
ATOM      3  C   UNL A   1      33.253  36.179  30.004  1.00  0.00     0.278 C 
ATOM      4  O   UNL A   1      33.227  37.404  30.150  1.00  0.00    -0.268 OA
ATOM      5  H   UNL A   1      33.745  36.368  28.080  1.00  0.00     0.163 HD
BRANCH   3   6
ATOM      6  C   UNL A   1      33.231  35.147  31.162  1.00  0.00     0.274 C 
ATOM      7  N   UNL A   1      34.523  35.019  31.881  1.00  0.00    -0.321 N 
ATOM      8  C   UNL A   1      34.935  36.233  32.586  1.00  0.00     0.263 C 
ATOM      9  H   UNL A   1      34.312  34.359  32.630  1.00  0.00     0.349 HD
ATOM     10  C   UNL A   1      33.834  36.764  33.518  1.00  0.00     0.062 C 
ATOM     11  C   UNL A   1      32.133  35.514  32.168  1.00  0.00     0.076 C 
ATOM     12  C   UNL A   1      32.453  36.825  32.874  1.00  0.00     0.012 C 
BRANCH   7  13
ATOM     13  C   UNL A   1      35.594  34.304  31.163  1.00  0.00     0.302 C 
BRANCH  13  14
ATOM     14  C   UNL A   1      36.410  33.303  31.947  1.00  0.00     0.042 A 
ATOM     15  C   UNL A   1      37.682  31.581  33.767  1.00  0.00     0.055 A 
ATOM     16  C   UNL A   1      36.655  31.102  32.946  1.00  0.00     0.020 A 
ATOM     17  C   UNL A   1      38.148  32.884  33.603  1.00  0.00     0.059 A 
ATOM     18  C   UNL A   1      36.017  31.961  32.044  1.00  0.00     0.014 A 
ATOM     19  C   UNL A   1      37.532  33.716  32.674  1.00  0.00     0.133 A 
ATOM     20  F   UNL A   1      37.968  34.981  32.565  1.00  0.00    -0.206 F 
BRANCH  15  21
ATOM     21  C   UNL A   1      38.215  30.757  34.814  1.00  0.00     0.099 C 
ATOM     22  N   UNL A   1      38.624  30.107  35.681  1.00  0.00    -0.192 NA
ENDBRANCH  15  21
ENDBRANCH  13  14
ENDBRANCH   7  13
ENDBRANCH   3   6
ENDBRANCH   1   2
BRANCH   1  23
ATOM     23  C   UNL A   1      34.126  33.586  27.924  1.00  0.00     0.042 C 
BRANCH  23  24
ATOM     24  C   UNL A   1      34.117  32.306  28.758  1.00  0.00     0.118 C 
BRANCH  24  25
ATOM     25  N   UNL A   1      33.658  31.152  28.001  1.00  0.00    -0.352 N 
ATOM     26  C   UNL A   1      34.359  30.053  27.573  1.00  0.00     0.251 C 
ATOM     27  H   UNL A   1      32.704  31.159  27.761  1.00  0.00     0.163 HD
ATOM     28  O   UNL A   1      33.850  29.279  26.769  1.00  0.00    -0.269 OA
BRANCH  26  29
ATOM     29  C   UNL A   1      35.735  29.817  28.056  1.00  0.00     0.039 A 
ATOM     30  C   UNL A   1      35.912  29.329  29.351  1.00  0.00     0.014 A 
ATOM     31  C   UNL A   1      36.845  30.081  27.247  1.00  0.00     0.014 A 
ATOM     32  C   UNL A   1      37.197  29.046  29.812  1.00  0.00     0.010 A 
ATOM     33  C   UNL A   1      38.119  29.718  27.677  1.00  0.00     0.010 A 
ATOM     34  C   UNL A   1      38.309  29.196  28.964  1.00  0.00    -0.014 A 
BRANCH  34  35
ATOM     35  C   UNL A   1      39.663  28.780  29.415  1.00  0.00     0.031 A 
ATOM     36  C   UNL A   1      40.441  29.621  30.391  1.00  0.00     0.074 A 
ATOM     37  C   UNL A   1      40.203  27.648  28.920  1.00  0.00     0.049 A 
ATOM     38  N   UNL A   1      41.639  29.420  30.882  1.00  0.00    -0.248 NA
ATOM     39  C   UNL A   1      39.801  30.858  30.865  1.00  0.00     0.031 C 
ATOM     40  C   UNL A   1      39.567  26.771  27.935  1.00  0.00     0.029 A 
ATOM     41  N   UNL A   1      41.406  27.039  29.176  1.00  0.00    -0.354 N 
ATOM     42  C   UNL A   1      41.889  30.495  31.724  1.00  0.00     0.074 A 
ATOM     43  C   UNL A   1      40.750  31.381  31.628  1.00  0.00     0.031 C 
ATOM     44  C   UNL A   1      40.369  25.722  27.694  1.00  0.00     0.029 A 
ATOM     45  C   UNL A   1      41.598  25.877  28.466  1.00  0.00     0.049 A 
ATOM     46  H   UNL A   1      42.070  27.399  29.808  1.00  0.00     0.167 HD
ATOM     47  C   UNL A   1      42.959  30.709  32.526  1.00  0.00     0.037 A 
ATOM     48  C   UNL A   1      42.652  25.041  28.428  1.00  0.00     0.037 A 
ATOM     49  C   UNL A   1      44.092  29.826  32.621  1.00  0.00     0.049 A 
ATOM     50  C   UNL A   1      43.849  25.335  29.295  1.00  0.00     0.074 A 
ATOM     51  C   UNL A   1      45.211  29.942  33.427  1.00  0.00     0.029 A 
ATOM     52  N   UNL A   1      44.256  28.665  31.879  1.00  0.00    -0.354 N 
ATOM     53  N   UNL A   1      44.040  26.318  30.140  1.00  0.00    -0.248 NA
ATOM     54  C   UNL A   1      44.975  24.394  29.208  1.00  0.00     0.031 C 
ATOM     55  C   UNL A   1      46.080  28.889  33.128  1.00  0.00     0.029 A 
ATOM     56  C   UNL A   1      45.470  28.073  32.189  1.00  0.00     0.049 A 
ATOM     57  H   UNL A   1      43.605  28.314  31.227  1.00  0.00     0.167 HD
ATOM     58  C   UNL A   1      45.288  26.096  30.707  1.00  0.00     0.074 A 
ATOM     59  C   UNL A   1      45.794  24.868  30.133  1.00  0.00     0.031 C 
ATOM     60  C   UNL A   1      45.959  26.844  31.617  1.00  0.00     0.037 A 
BRANCH  47  61
ATOM     61  C   UNL A   1      42.960  31.945  33.381  1.00  0.00     0.064 A 
ATOM     62  C   UNL A   1      43.546  33.142  32.939  1.00  0.00     0.173 A 
ATOM     63  C   UNL A   1      42.299  31.959  34.619  1.00  0.00     0.173 A 
ATOM     64  F   UNL A   1      44.196  33.182  31.766  1.00  0.00    -0.203 F 
ATOM     65  C   UNL A   1      43.486  34.299  33.711  1.00  0.00     0.198 A 
ATOM     66  C   UNL A   1      42.212  33.127  35.373  1.00  0.00     0.198 A 
ATOM     67  F   UNL A   1      41.716  30.846  35.087  1.00  0.00    -0.203 F 
ATOM     68  F   UNL A   1      44.085  35.420  33.284  1.00  0.00    -0.200 F 
ATOM     69  C   UNL A   1      42.809  34.293  34.921  1.00  0.00     0.200 A 
ATOM     70  F   UNL A   1      41.541  33.125  36.533  1.00  0.00    -0.200 F 
ATOM     71  F   UNL A   1      42.734  35.414  35.653  1.00  0.00    -0.200 F 
ENDBRANCH  47  61
BRANCH  48  72
ATOM     72  C   UNL A   1      42.641  23.849  27.533  1.00  0.00     0.064 A 
ATOM     73  C   UNL A   1      42.283  22.582  28.013  1.00  0.00     0.173 A 
ATOM     74  C   UNL A   1      43.047  23.944  26.192  1.00  0.00     0.173 A 
ATOM     75  F   UNL A   1      41.902  22.432  29.291  1.00  0.00    -0.203 F 
ATOM     76  C   UNL A   1      42.378  21.450  27.206  1.00  0.00     0.198 A 
ATOM     77  C   UNL A   1      43.102  22.818  25.374  1.00  0.00     0.198 A 
ATOM     78  F   UNL A   1      43.395  25.131  25.677  1.00  0.00    -0.203 F 
ATOM     79  F   UNL A   1      42.110  20.241  27.717  1.00  0.00    -0.200 F 
ATOM     80  C   UNL A   1      42.785  21.569  25.886  1.00  0.00     0.200 A 
ATOM     81  F   UNL A   1      43.475  22.942  24.092  1.00  0.00    -0.200 F 
ATOM     82  F   UNL A   1      42.887  20.480  25.112  1.00  0.00    -0.200 F 
ENDBRANCH  48  72
BRANCH  60  83
ATOM     83  C   UNL A   1      47.293  26.329  32.084  1.00  0.00     0.064 A 
ATOM     84  C   UNL A   1      48.496  26.730  31.482  1.00  0.00     0.173 A 
ATOM     85  C   UNL A   1      47.370  25.432  33.161  1.00  0.00     0.173 A 
ATOM     86  F   UNL A   1      48.481  27.577  30.441  1.00  0.00    -0.203 F 
ATOM     87  C   UNL A   1      49.718  26.218  31.910  1.00  0.00     0.198 A 
ATOM     88  C   UNL A   1      48.597  24.956  33.615  1.00  0.00     0.198 A 
ATOM     89  F   UNL A   1      46.254  25.022  33.782  1.00  0.00    -0.203 F 
ATOM     90  F   UNL A   1      50.846  26.560  31.270  1.00  0.00    -0.200 F 
ATOM     91  C   UNL A   1      49.768  25.339  32.980  1.00  0.00     0.200 A 
ATOM     92  F   UNL A   1      48.644  24.122  34.663  1.00  0.00    -0.200 F 
ATOM     93  F   UNL A   1      50.946  24.850  33.393  1.00  0.00    -0.200 F 
ENDBRANCH  60  83
ENDBRANCH  34  35
ENDBRANCH  26  29
ENDBRANCH  24  25
ENDBRANCH  23  24
ENDBRANCH   1  23
TORSDOF 13
ENDMDL
MODEL 3
REMARK VINA RESULT:     -12.3      0.542      7.457
REMARK SMILES N#Cc1ccc(C[N@H+]2CCCC[C@H]2C(=O)NCCCNC(=O)c2ccc(-c3c4nc(c(-c5c(F)c(F)c(F)c(F)c5F)c5ccc([nH]5)c(-c5c(F)c(F)c(F)c(F)c5F)c5nc(c(-c6c(F)c(F)c(F)c(F)c6F)c6ccc3[nH]6)C=C5)C=C4)cc2)c(F)c1
REMARK SMILES IDX 17 1 16 2 14 3 15 4 13 6 8 7 9 8 10 10 12 11 11 12 7 13 6 14
REMARK SMILES IDX 3 15 4 16 88 17 5 18 86 19 87 20 2 21 1 22 18 23 19 24 20 25
REMARK SMILES IDX 21 26 22 28 23 29 24 30 85 31 25 32 84 33 26 34 27 35 28 36
REMARK SMILES IDX 78 37 29 38 83 39 77 40 79 41 30 42 82 43 76 44 75 45 31 47
REMARK SMILES IDX 63 48 43 49 62 50 44 51 47 52 61 53 80 54 45 55 46 56 60 58
REMARK SMILES IDX 81 59 48 60 32 61 33 62 41 63 34 64 35 65 39 66 42 67 36 68
REMARK SMILES IDX 37 69 40 70 38 71 64 72 65 73 73 74 66 75 67 76 71 77 74 78
REMARK SMILES IDX 68 79 69 80 72 81 70 82 49 83 50 84 58 85 51 86 52 87 56 88
REMARK SMILES IDX 59 89 53 90 54 91 57 92 55 93
REMARK H PARENT 16 5 8 9 20 27 79 46 47 57
REMARK Flexibility Score: inf
ROOT
ATOM      1  C   UNL A   1      31.749  30.272  26.300  1.00  0.00     0.118 C 
ENDROOT
BRANCH   1   2
ATOM      2  N   UNL A   1      32.561  30.059  25.123  1.00  0.00    -0.351 N 
ATOM      3  C   UNL A   1      32.959  28.884  24.559  1.00  0.00     0.278 C 
ATOM      4  O   UNL A   1      33.994  28.936  23.890  1.00  0.00    -0.268 OA
ATOM      5  H   UNL A   1      32.869  30.875  24.667  1.00  0.00     0.163 HD
BRANCH   3   6
ATOM      6  C   UNL A   1      32.094  27.611  24.760  1.00  0.00     0.274 C 
ATOM      7  N   UNL A   1      32.207  26.626  23.656  1.00  0.00    -0.321 N 
ATOM      8  C   UNL A   1      33.543  26.046  23.509  1.00  0.00     0.263 C 
ATOM      9  H   UNL A   1      31.634  25.845  23.977  1.00  0.00     0.349 HD
ATOM     10  C   UNL A   1      34.069  25.461  24.829  1.00  0.00     0.062 C 
ATOM     11  C   UNL A   1      32.470  26.928  26.080  1.00  0.00     0.076 C 
ATOM     12  C   UNL A   1      33.890  26.383  26.031  1.00  0.00     0.012 C 
BRANCH   7  13
ATOM     13  C   UNL A   1      31.525  26.981  22.398  1.00  0.00     0.302 C 
BRANCH  13  14
ATOM     14  C   UNL A   1      30.413  28.001  22.472  1.00  0.00     0.042 A 
ATOM     15  C   UNL A   1      28.504  29.986  23.031  1.00  0.00     0.055 A 
ATOM     16  C   UNL A   1      29.635  30.293  22.266  1.00  0.00     0.020 A 
ATOM     17  C   UNL A   1      28.270  28.669  23.422  1.00  0.00     0.059 A 
ATOM     18  C   UNL A   1      30.589  29.306  21.993  1.00  0.00     0.014 A 
ATOM     19  C   UNL A   1      29.206  27.688  23.109  1.00  0.00     0.133 A 
ATOM     20  F   UNL A   1      28.982  26.435  23.534  1.00  0.00    -0.206 F 
BRANCH  15  21
ATOM     21  C   UNL A   1      27.619  31.029  23.464  1.00  0.00     0.099 C 
ATOM     22  N   UNL A   1      26.895  31.874  23.782  1.00  0.00    -0.192 NA
ENDBRANCH  15  21
ENDBRANCH  13  14
ENDBRANCH   7  13
ENDBRANCH   3   6
ENDBRANCH   1   2
BRANCH   1  23
ATOM     23  C   UNL A   1      31.569  31.771  26.528  1.00  0.00     0.042 C 
BRANCH  23  24
ATOM     24  C   UNL A   1      32.757  32.430  27.227  1.00  0.00     0.118 C 
BRANCH  24  25
ATOM     25  N   UNL A   1      32.505  33.824  27.556  1.00  0.00    -0.352 N 
ATOM     26  C   UNL A   1      33.065  34.606  28.534  1.00  0.00     0.251 C 
ATOM     27  H   UNL A   1      31.834  34.273  26.994  1.00  0.00     0.163 HD
ATOM     28  O   UNL A   1      32.578  35.702  28.794  1.00  0.00    -0.269 OA
BRANCH  26  29
ATOM     29  C   UNL A   1      34.234  34.119  29.293  1.00  0.00     0.039 A 
ATOM     30  C   UNL A   1      34.013  33.387  30.461  1.00  0.00     0.014 A 
ATOM     31  C   UNL A   1      35.540  34.384  28.868  1.00  0.00     0.014 A 
ATOM     32  C   UNL A   1      35.098  32.870  31.167  1.00  0.00     0.010 A 
ATOM     33  C   UNL A   1      36.617  33.795  29.526  1.00  0.00     0.010 A 
ATOM     34  C   UNL A   1      36.408  33.030  30.682  1.00  0.00    -0.014 A 
BRANCH  34  35
ATOM     35  C   UNL A   1      37.552  32.375  31.368  1.00  0.00     0.031 A 
ATOM     36  C   UNL A   1      38.288  31.235  30.719  1.00  0.00     0.074 A 
ATOM     37  C   UNL A   1      37.912  32.798  32.597  1.00  0.00     0.049 A 
ATOM     38  N   UNL A   1      39.298  30.537  31.177  1.00  0.00    -0.248 NA
ATOM     39  C   UNL A   1      37.820  30.808  29.391  1.00  0.00     0.031 C 
ATOM     40  C   UNL A   1      37.248  33.864  33.350  1.00  0.00     0.029 A 
ATOM     41  N   UNL A   1      38.922  32.386  33.430  1.00  0.00    -0.354 N 
ATOM     42  C   UNL A   1      39.589  29.600  30.195  1.00  0.00     0.074 A 
ATOM     43  C   UNL A   1      38.609  29.772  29.144  1.00  0.00     0.031 C 
ATOM     44  C   UNL A   1      37.887  34.044  34.517  1.00  0.00     0.029 A 
ATOM     45  C   UNL A   1      38.971  33.073  34.620  1.00  0.00     0.049 A 
ATOM     46  H   UNL A   1      39.552  31.665  33.198  1.00  0.00     0.167 HD
ATOM     47  C   UNL A   1      40.599  28.699  30.159  1.00  0.00     0.037 A 
ATOM     48  C   UNL A   1      39.787  32.926  35.681  1.00  0.00     0.037 A 
ATOM     49  C   UNL A   1      41.574  28.531  31.205  1.00  0.00     0.049 A 
ATOM     50  C   UNL A   1      40.869  31.879  35.630  1.00  0.00     0.074 A 
ATOM     51  C   UNL A   1      42.653  27.664  31.247  1.00  0.00     0.029 A 
ATOM     52  N   UNL A   1      41.585  29.237  32.399  1.00  0.00    -0.354 N 
ATOM     53  N   UNL A   1      41.177  31.049  34.663  1.00  0.00    -0.248 NA
ATOM     54  C   UNL A   1      41.725  31.755  36.818  1.00  0.00     0.031 C 
ATOM     55  C   UNL A   1      43.278  27.800  32.489  1.00  0.00     0.029 A 
ATOM     56  C   UNL A   1      42.635  28.805  33.194  1.00  0.00     0.049 A 
ATOM     57  H   UNL A   1      40.942  29.941  32.645  1.00  0.00     0.167 HD
ATOM     58  C   UNL A   1      42.277  30.332  35.112  1.00  0.00     0.074 A 
ATOM     59  C   UNL A   1      42.603  30.846  36.425  1.00  0.00     0.031 C 
ATOM     60  C   UNL A   1      42.955  29.332  34.496  1.00  0.00     0.037 A 
BRANCH  47  61
ATOM     61  C   UNL A   1      40.716  27.824  28.943  1.00  0.00     0.064 A 
ATOM     62  C   UNL A   1      39.914  26.683  28.780  1.00  0.00     0.173 A 
ATOM     63  C   UNL A   1      41.580  28.171  27.892  1.00  0.00     0.173 A 
ATOM     64  F   UNL A   1      39.076  26.303  29.756  1.00  0.00    -0.203 F 
ATOM     65  C   UNL A   1      39.985  25.914  27.621  1.00  0.00     0.198 A 
ATOM     66  C   UNL A   1      41.624  27.418  26.721  1.00  0.00     0.198 A 
ATOM     67  F   UNL A   1      42.364  29.254  27.991  1.00  0.00    -0.203 F 
ATOM     68  F   UNL A   1      39.235  24.809  27.505  1.00  0.00    -0.200 F 
ATOM     69  C   UNL A   1      40.831  26.289  26.588  1.00  0.00     0.200 A 
ATOM     70  F   UNL A   1      42.427  27.793  25.716  1.00  0.00    -0.200 F 
ATOM     71  F   UNL A   1      40.882  25.560  25.465  1.00  0.00    -0.200 F 
ENDBRANCH  47  61
BRANCH  48  72
ATOM     72  C   UNL A   1      39.614  33.776  36.892  1.00  0.00     0.064 A 
ATOM     73  C   UNL A   1      38.846  33.342  37.982  1.00  0.00     0.173 A 
ATOM     74  C   UNL A   1      40.165  35.066  36.960  1.00  0.00     0.173 A 
ATOM     75  F   UNL A   1      38.284  32.124  37.963  1.00  0.00    -0.203 F 
ATOM     76  C   UNL A   1      38.594  34.179  39.067  1.00  0.00     0.198 A 
ATOM     77  C   UNL A   1      39.948  35.886  38.064  1.00  0.00     0.198 A 
ATOM     78  F   UNL A   1      40.914  35.531  35.950  1.00  0.00    -0.203 F 
ATOM     79  F   UNL A   1      37.788  33.768  40.055  1.00  0.00    -0.200 F 
ATOM     80  C   UNL A   1      39.147  35.450  39.108  1.00  0.00     0.200 A 
ATOM     81  F   UNL A   1      40.502  37.106  38.109  1.00  0.00    -0.200 F 
ATOM     82  F   UNL A   1      38.897  36.259  40.147  1.00  0.00    -0.200 F 
ENDBRANCH  48  72
BRANCH  60  83
ATOM     83  C   UNL A   1      44.146  28.762  35.216  1.00  0.00     0.064 A 
ATOM     84  C   UNL A   1      45.442  29.264  35.022  1.00  0.00     0.173 A 
ATOM     85  C   UNL A   1      43.986  27.706  36.128  1.00  0.00     0.173 A 
ATOM     86  F   UNL A   1      45.655  30.265  34.153  1.00  0.00    -0.203 F 
ATOM     87  C   UNL A   1      46.536  28.702  35.676  1.00  0.00     0.198 A 
ATOM     88  C   UNL A   1      45.075  27.175  36.813  1.00  0.00     0.198 A 
ATOM     89  F   UNL A   1      42.769  27.193  36.362  1.00  0.00    -0.203 F 
ATOM     90  F   UNL A   1      47.772  29.151  35.416  1.00  0.00    -0.200 F 
ATOM     91  C   UNL A   1      46.350  27.665  36.576  1.00  0.00     0.200 A 
ATOM     92  F   UNL A   1      44.891  26.187  37.699  1.00  0.00    -0.200 F 
ATOM     93  F   UNL A   1      47.403  27.127  37.208  1.00  0.00    -0.200 F 
ENDBRANCH  60  83
ENDBRANCH  34  35
ENDBRANCH  26  29
ENDBRANCH  24  25
ENDBRANCH  23  24
ENDBRANCH   1  23
TORSDOF 13
ENDMDL
