MODEL 1
REMARK VINA RESULT:     -13.2      0.000      0.000
REMARK SMILES O=C(NCCCNC(=O)c1ccc(-c2c3nc(c(-c4c(F)c(F)c(F)c(F)c4F)c4ccc([nH]4)c(-c4c(F)c(F)c(F)c(F)c4F)c4nc(c(-c5c(F)c(F)c(F)c(F)c5F)c5ccc2[nH]5)C=C4)C=C3)cc1)c1ccc(Cn2cc(Cl)c(=O)[nH]c2=O)cc1
REMARK SMILES IDX 5 1 4 2 3 3 1 4 2 5 73 7 74 8 88 9 75 10 87 11 76 12 77 13
REMARK SMILES IDX 78 14 79 15 85 16 80 17 84 18 86 19 81 20 82 21 83 23 6 24
REMARK SMILES IDX 7 25 8 26 9 28 10 29 11 30 72 31 12 32 71 33 13 34 14 35
REMARK SMILES IDX 15 36 65 37 16 38 70 39 64 40 66 41 17 42 69 43 63 44 62 45
REMARK SMILES IDX 18 47 50 48 30 49 49 50 31 51 34 52 48 53 67 54 32 55 33 56
REMARK SMILES IDX 47 58 68 59 35 60 19 61 20 62 28 63 21 64 22 65 26 66 29 67
REMARK SMILES IDX 23 68 24 69 27 70 25 71 51 72 52 73 60 74 53 75 54 76 58 77
REMARK SMILES IDX 61 78 55 79 56 80 59 81 57 82 36 83 37 84 45 85 38 86 39 87
REMARK SMILES IDX 43 88 46 89 40 90 41 91 44 92 42 93
REMARK H PARENT 3 6 84 22 7 27 66 46 34 57
REMARK Flexibility Score: inf
ROOT
ATOM      1  C   UNL A   1      31.698  31.690  26.875  1.00  0.00     0.042 C 
ENDROOT
BRANCH   1   2
ATOM      2  C   UNL A   1      32.079  30.456  26.069  1.00  0.00     0.118 C 
BRANCH   2   3
ATOM      3  N   UNL A   1      31.130  30.184  24.998  1.00  0.00    -0.352 N 
ATOM      4  O   UNL A   1      30.260  29.032  23.258  1.00  0.00    -0.269 OA
ATOM      5  C   UNL A   1      30.980  29.042  24.249  1.00  0.00     0.251 C 
ATOM      6  H   UNL A   1      30.512  30.919  24.781  1.00  0.00     0.163 HD
BRANCH   5   7
ATOM      7  C   UNL A   1      31.706  27.824  24.651  1.00  0.00     0.039 A 
ATOM      8  C   UNL A   1      31.190  27.010  25.663  1.00  0.00     0.014 A 
ATOM      9  C   UNL A   1      32.914  27.506  24.029  1.00  0.00     0.014 A 
ATOM     10  C   UNL A   1      31.931  25.921  26.113  1.00  0.00     0.006 A 
ATOM     11  C   UNL A   1      33.660  26.419  24.490  1.00  0.00     0.006 A 
ATOM     12  C   UNL A   1      33.188  25.633  25.554  1.00  0.00    -0.028 A 
BRANCH  12  13
ATOM     13  C   UNL A   1      34.036  24.515  26.125  1.00  0.00     0.162 C 
BRANCH  13  14
ATOM     14  N   UNL A   1      33.506  23.181  25.812  1.00  0.00    -0.295 N 
ATOM     15  C   UNL A   1      33.133  22.874  24.513  1.00  0.00     0.117 A 
ATOM     16  C   UNL A   1      33.405  22.243  26.835  1.00  0.00     0.328 A 
ATOM     17  C   UNL A   1      32.639  21.683  24.166  1.00  0.00     0.122 A 
ATOM     18  N   UNL A   1      32.919  21.013  26.463  1.00  0.00    -0.273 N 
ATOM     19  O   UNL A   1      33.723  22.451  28.003  1.00  0.00    -0.248 OA
ATOM     20  Cl  UNL A   1      32.157  21.330  22.558  1.00  0.00    -0.077 Cl
ATOM     21  C   UNL A   1      32.509  20.639  25.210  1.00  0.00     0.272 A 
ATOM     22  H   UNL A   1      32.860  20.331  27.169  1.00  0.00     0.175 HD
ATOM     23  O   UNL A   1      32.070  19.517  24.986  1.00  0.00    -0.268 OA
ENDBRANCH  13  14
ENDBRANCH  12  13
ENDBRANCH   5   7
ENDBRANCH   2   3
ENDBRANCH   1   2
BRANCH   1  24
ATOM     24  C   UNL A   1      32.887  32.537  27.308  1.00  0.00     0.118 C 
BRANCH  24  25
ATOM     25  N   UNL A   1      32.525  33.918  27.603  1.00  0.00    -0.352 N 
ATOM     26  C   UNL A   1      33.035  34.778  28.547  1.00  0.00     0.251 C 
ATOM     27  H   UNL A   1      31.807  34.292  27.041  1.00  0.00     0.163 HD
ATOM     28  O   UNL A   1      32.499  35.862  28.750  1.00  0.00    -0.269 OA
BRANCH  26  29
ATOM     29  C   UNL A   1      34.215  34.379  29.340  1.00  0.00     0.039 A 
ATOM     30  C   UNL A   1      34.028  33.773  30.586  1.00  0.00     0.014 A 
ATOM     31  C   UNL A   1      35.504  34.576  28.841  1.00  0.00     0.014 A 
ATOM     32  C   UNL A   1      35.131  33.277  31.287  1.00  0.00     0.010 A 
ATOM     33  C   UNL A   1      36.589  34.008  29.497  1.00  0.00     0.010 A 
ATOM     34  C   UNL A   1      36.413  33.345  30.722  1.00  0.00    -0.014 A 
BRANCH  34  35
ATOM     35  C   UNL A   1      37.600  32.736  31.373  1.00  0.00     0.031 A 
ATOM     36  C   UNL A   1      38.296  31.580  30.712  1.00  0.00     0.074 A 
ATOM     37  C   UNL A   1      37.977  33.141  32.601  1.00  0.00     0.049 A 
ATOM     38  N   UNL A   1      39.215  30.780  31.190  1.00  0.00    -0.248 NA
ATOM     39  C   UNL A   1      37.872  31.261  29.340  1.00  0.00     0.031 C 
ATOM     40  C   UNL A   1      37.370  34.236  33.359  1.00  0.00     0.029 A 
ATOM     41  N   UNL A   1      38.951  32.657  33.440  1.00  0.00    -0.354 N 
ATOM     42  C   UNL A   1      39.457  29.848  30.190  1.00  0.00     0.074 A 
ATOM     43  C   UNL A   1      38.555  30.152  29.100  1.00  0.00     0.031 C 
ATOM     44  C   UNL A   1      37.995  34.352  34.541  1.00  0.00     0.029 A 
ATOM     45  C   UNL A   1      39.007  33.306  34.649  1.00  0.00     0.049 A 
ATOM     46  H   UNL A   1      39.551  31.915  33.197  1.00  0.00     0.167 HD
ATOM     47  C   UNL A   1      40.364  28.842  30.174  1.00  0.00     0.037 A 
ATOM     48  C   UNL A   1      39.776  33.071  35.729  1.00  0.00     0.037 A 
ATOM     49  C   UNL A   1      41.276  28.560  31.250  1.00  0.00     0.049 A 
ATOM     50  C   UNL A   1      40.754  31.927  35.700  1.00  0.00     0.074 A 
ATOM     51  C   UNL A   1      42.259  27.590  31.318  1.00  0.00     0.029 A 
ATOM     52  N   UNL A   1      41.314  29.254  32.452  1.00  0.00    -0.354 N 
ATOM     53  N   UNL A   1      41.000  31.072  34.739  1.00  0.00    -0.248 NA
ATOM     54  C   UNL A   1      41.560  31.715  36.912  1.00  0.00     0.031 C 
ATOM     55  C   UNL A   1      42.867  27.671  32.575  1.00  0.00     0.029 A 
ATOM     56  C   UNL A   1      42.296  28.724  33.273  1.00  0.00     0.049 A 
ATOM     57  H   UNL A   1      40.730  30.011  32.686  1.00  0.00     0.167 HD
ATOM     58  C   UNL A   1      42.012  30.247  35.211  1.00  0.00     0.074 A 
ATOM     59  C   UNL A   1      42.335  30.705  36.546  1.00  0.00     0.031 C 
ATOM     60  C   UNL A   1      42.622  29.207  34.590  1.00  0.00     0.037 A 
BRANCH  47  61
ATOM     61  C   UNL A   1      40.403  27.972  28.950  1.00  0.00     0.064 A 
ATOM     62  C   UNL A   1      41.180  28.309  27.832  1.00  0.00     0.173 A 
ATOM     63  C   UNL A   1      39.660  26.783  28.897  1.00  0.00     0.173 A 
ATOM     64  F   UNL A   1      41.898  29.443  27.826  1.00  0.00    -0.203 F 
ATOM     65  C   UNL A   1      41.179  27.513  26.690  1.00  0.00     0.198 A 
ATOM     66  C   UNL A   1      39.688  25.970  27.767  1.00  0.00     0.198 A 
ATOM     67  F   UNL A   1      38.905  26.408  29.940  1.00  0.00    -0.203 F 
ATOM     68  F   UNL A   1      41.878  27.891  25.611  1.00  0.00    -0.200 F 
ATOM     69  C   UNL A   1      40.437  26.342  26.660  1.00  0.00     0.200 A 
ATOM     70  F   UNL A   1      38.982  24.832  27.744  1.00  0.00    -0.200 F 
ATOM     71  F   UNL A   1      40.437  25.575  25.560  1.00  0.00    -0.200 F 
ENDBRANCH  47  61
BRANCH  48  72
ATOM     72  C   UNL A   1      39.672  33.953  36.920  1.00  0.00     0.064 A 
ATOM     73  C   UNL A   1      38.874  33.583  38.011  1.00  0.00     0.173 A 
ATOM     74  C   UNL A   1      40.364  35.170  36.999  1.00  0.00     0.173 A 
ATOM     75  F   UNL A   1      38.177  32.438  37.972  1.00  0.00    -0.203 F 
ATOM     76  C   UNL A   1      38.758  34.404  39.131  1.00  0.00     0.198 A 
ATOM     77  C   UNL A   1      40.268  35.979  38.130  1.00  0.00     0.198 A 
ATOM     78  F   UNL A   1      41.144  35.568  35.984  1.00  0.00    -0.203 F 
ATOM     79  F   UNL A   1      37.956  34.045  40.142  1.00  0.00    -0.200 F 
ATOM     80  C   UNL A   1      39.460  35.599  39.192  1.00  0.00     0.200 A 
ATOM     81  F   UNL A   1      40.957  37.126  38.192  1.00  0.00    -0.200 F 
ATOM     82  F   UNL A   1      39.352  36.387  40.270  1.00  0.00    -0.200 F 
ENDBRANCH  48  72
BRANCH  60  83
ATOM     83  C   UNL A   1      43.744  28.529  35.319  1.00  0.00     0.064 A 
ATOM     84  C   UNL A   1      43.514  27.470  36.210  1.00  0.00     0.173 A 
ATOM     85  C   UNL A   1      45.072  28.910  35.076  1.00  0.00     0.173 A 
ATOM     86  F   UNL A   1      42.262  27.081  36.487  1.00  0.00    -0.203 F 
ATOM     87  C   UNL A   1      44.575  26.829  36.844  1.00  0.00     0.198 A 
ATOM     88  C   UNL A   1      46.131  28.248  35.691  1.00  0.00     0.198 A 
ATOM     89  F   UNL A   1      45.344  29.913  34.229  1.00  0.00    -0.203 F 
ATOM     90  F   UNL A   1      44.333  25.845  37.721  1.00  0.00    -0.200 F 
ATOM     91  C   UNL A   1      45.882  27.211  36.578  1.00  0.00     0.200 A 
ATOM     92  F   UNL A   1      47.393  28.610  35.422  1.00  0.00    -0.200 F 
ATOM     93  F   UNL A   1      46.902  26.584  37.179  1.00  0.00    -0.200 F 
ENDBRANCH  60  83
ENDBRANCH  34  35
ENDBRANCH  26  29
ENDBRANCH  24  25
ENDBRANCH   1  24
TORSDOF 12
ENDMDL
MODEL 2
REMARK VINA RESULT:     -13.2      2.056      3.498
REMARK SMILES O=C(NCCCNC(=O)c1ccc(-c2c3nc(c(-c4c(F)c(F)c(F)c(F)c4F)c4ccc([nH]4)c(-c4c(F)c(F)c(F)c(F)c4F)c4nc(c(-c5c(F)c(F)c(F)c(F)c5F)c5ccc2[nH]5)C=C4)C=C3)cc1)c1ccc(Cn2cc(Cl)c(=O)[nH]c2=O)cc1
REMARK SMILES IDX 5 1 4 2 3 3 1 4 2 5 73 7 74 8 88 9 75 10 87 11 76 12 77 13
REMARK SMILES IDX 78 14 79 15 85 16 80 17 84 18 86 19 81 20 82 21 83 23 6 24
REMARK SMILES IDX 7 25 8 26 9 28 10 29 11 30 72 31 12 32 71 33 13 34 14 35
REMARK SMILES IDX 15 36 65 37 16 38 70 39 64 40 66 41 17 42 69 43 63 44 62 45
REMARK SMILES IDX 18 47 50 48 30 49 49 50 31 51 34 52 48 53 67 54 32 55 33 56
REMARK SMILES IDX 47 58 68 59 35 60 19 61 20 62 28 63 21 64 22 65 26 66 29 67
REMARK SMILES IDX 23 68 24 69 27 70 25 71 51 72 52 73 60 74 53 75 54 76 58 77
REMARK SMILES IDX 61 78 55 79 56 80 59 81 57 82 36 83 37 84 45 85 38 86 39 87
REMARK SMILES IDX 43 88 46 89 40 90 41 91 44 92 42 93
REMARK H PARENT 3 6 84 22 7 27 66 46 34 57
REMARK Flexibility Score: inf
ROOT
ATOM      1  C   UNL A   1      33.301  28.954  24.030  1.00  0.00     0.042 C 
ENDROOT
BRANCH   1   2
ATOM      2  C   UNL A   1      32.100  28.419  23.263  1.00  0.00     0.118 C 
BRANCH   2   3
ATOM      3  N   UNL A   1      32.488  27.773  22.016  1.00  0.00    -0.352 N 
ATOM      4  O   UNL A   1      33.284  26.098  20.722  1.00  0.00    -0.269 OA
ATOM      5  C   UNL A   1      32.794  26.453  21.788  1.00  0.00     0.251 C 
ATOM      6  H   UNL A   1      32.538  28.363  21.230  1.00  0.00     0.163 HD
BRANCH   5   7
ATOM      7  C   UNL A   1      32.531  25.465  22.850  1.00  0.00     0.039 A 
ATOM      8  C   UNL A   1      33.536  25.145  23.766  1.00  0.00     0.014 A 
ATOM      9  C   UNL A   1      31.283  24.845  22.918  1.00  0.00     0.014 A 
ATOM     10  C   UNL A   1      33.320  24.135  24.699  1.00  0.00     0.006 A 
ATOM     11  C   UNL A   1      31.073  23.824  23.849  1.00  0.00     0.006 A 
ATOM     12  C   UNL A   1      32.098  23.443  24.729  1.00  0.00    -0.028 A 
BRANCH  12  13
ATOM     13  C   UNL A   1      31.910  22.272  25.672  1.00  0.00     0.162 C 
BRANCH  13  14
ATOM     14  N   UNL A   1      32.666  21.081  25.259  1.00  0.00    -0.295 N 
ATOM     15  C   UNL A   1      32.204  20.300  24.211  1.00  0.00     0.117 A 
ATOM     16  C   UNL A   1      33.847  20.772  25.926  1.00  0.00     0.328 A 
ATOM     17  C   UNL A   1      32.840  19.204  23.793  1.00  0.00     0.122 A 
ATOM     18  N   UNL A   1      34.508  19.657  25.471  1.00  0.00    -0.273 N 
ATOM     19  O   UNL A   1      34.312  21.425  26.856  1.00  0.00    -0.248 OA
ATOM     20  Cl  UNL A   1      32.239  18.234  22.512  1.00  0.00    -0.077 Cl
ATOM     21  C   UNL A   1      34.107  18.823  24.461  1.00  0.00     0.272 A 
ATOM     22  H   UNL A   1      35.356  19.434  25.918  1.00  0.00     0.175 HD
ATOM     23  O   UNL A   1      34.763  17.836  24.144  1.00  0.00    -0.268 OA
ENDBRANCH  13  14
ENDBRANCH  12  13
ENDBRANCH   5   7
ENDBRANCH   2   3
ENDBRANCH   1   2
BRANCH   1  24
ATOM     24  C   UNL A   1      33.107  28.983  25.540  1.00  0.00     0.118 C 
BRANCH  24  25
ATOM     25  N   UNL A   1      32.600  30.261  26.025  1.00  0.00    -0.352 N 
ATOM     26  C   UNL A   1      33.125  31.116  26.966  1.00  0.00     0.251 C 
ATOM     27  H   UNL A   1      31.753  30.558  25.618  1.00  0.00     0.163 HD
ATOM     28  O   UNL A   1      32.477  32.081  27.356  1.00  0.00    -0.269 OA
BRANCH  26  29
ATOM     29  C   UNL A   1      34.464  30.851  27.529  1.00  0.00     0.039 A 
ATOM     30  C   UNL A   1      35.383  31.900  27.629  1.00  0.00     0.014 A 
ATOM     31  C   UNL A   1      34.802  29.576  27.985  1.00  0.00     0.014 A 
ATOM     32  C   UNL A   1      36.604  31.691  28.276  1.00  0.00     0.010 A 
ATOM     33  C   UNL A   1      35.977  29.391  28.702  1.00  0.00     0.010 A 
ATOM     34  C   UNL A   1      36.887  30.448  28.861  1.00  0.00    -0.014 A 
BRANCH  34  35
ATOM     35  C   UNL A   1      38.120  30.206  29.654  1.00  0.00     0.031 A 
ATOM     36  C   UNL A   1      39.177  29.284  29.115  1.00  0.00     0.074 A 
ATOM     37  C   UNL A   1      38.235  30.717  30.894  1.00  0.00     0.049 A 
ATOM     38  N   UNL A   1      40.225  28.781  29.716  1.00  0.00    -0.248 NA
ATOM     39  C   UNL A   1      39.009  28.840  27.723  1.00  0.00     0.031 C 
ATOM     40  C   UNL A   1      37.270  31.608  31.539  1.00  0.00     0.029 A 
ATOM     41  N   UNL A   1      39.209  30.538  31.845  1.00  0.00    -0.354 N 
ATOM     42  C   UNL A   1      40.823  27.942  28.786  1.00  0.00     0.074 A 
ATOM     43  C   UNL A   1      39.994  27.964  27.600  1.00  0.00     0.031 C 
ATOM     44  C   UNL A   1      37.707  31.910  32.772  1.00  0.00     0.029 A 
ATOM     45  C   UNL A   1      38.952  31.193  33.025  1.00  0.00     0.049 A 
ATOM     46  H   UNL A   1      40.015  29.992  31.696  1.00  0.00     0.167 HD
ATOM     47  C   UNL A   1      41.970  27.231  28.903  1.00  0.00     0.037 A 
ATOM     48  C   UNL A   1      39.636  31.199  34.185  1.00  0.00     0.037 A 
ATOM     49  C   UNL A   1      42.804  27.231  30.076  1.00  0.00     0.049 A 
ATOM     50  C   UNL A   1      40.890  30.376  34.303  1.00  0.00     0.074 A 
ATOM     51  C   UNL A   1      44.005  26.578  30.283  1.00  0.00     0.029 A 
ATOM     52  N   UNL A   1      42.518  27.924  31.245  1.00  0.00    -0.354 N 
ATOM     53  N   UNL A   1      41.467  29.611  33.409  1.00  0.00    -0.248 NA
ATOM     54  C   UNL A   1      41.588  30.415  35.596  1.00  0.00     0.031 C 
ATOM     55  C   UNL A   1      44.428  26.844  31.590  1.00  0.00     0.029 A 
ATOM     56  C   UNL A   1      43.515  27.703  32.181  1.00  0.00     0.049 A 
ATOM     57  H   UNL A   1      41.724  28.490  31.386  1.00  0.00     0.167 HD
ATOM     58  C   UNL A   1      42.612  29.111  34.014  1.00  0.00     0.074 A 
ATOM     59  C   UNL A   1      42.648  29.659  35.354  1.00  0.00     0.031 C 
ATOM     60  C   UNL A   1      43.549  28.276  33.503  1.00  0.00     0.037 A 
BRANCH  47  61
ATOM     61  C   UNL A   1      42.382  26.391  27.729  1.00  0.00     0.064 A 
ATOM     62  C   UNL A   1      41.831  25.120  27.503  1.00  0.00     0.173 A 
ATOM     63  C   UNL A   1      43.333  26.864  26.813  1.00  0.00     0.173 A 
ATOM     64  F   UNL A   1      40.927  24.616  28.357  1.00  0.00    -0.203 F 
ATOM     65  C   UNL A   1      42.248  24.337  26.430  1.00  0.00     0.198 A 
ATOM     66  C   UNL A   1      43.724  26.092  25.721  1.00  0.00     0.198 A 
ATOM     67  F   UNL A   1      43.888  28.074  26.975  1.00  0.00    -0.203 F 
ATOM     68  F   UNL A   1      41.755  23.101  26.274  1.00  0.00    -0.200 F 
ATOM     69  C   UNL A   1      43.190  24.825  25.538  1.00  0.00     0.200 A 
ATOM     70  F   UNL A   1      44.624  26.571  24.851  1.00  0.00    -0.200 F 
ATOM     71  F   UNL A   1      43.590  24.070  24.505  1.00  0.00    -0.200 F 
ENDBRANCH  47  61
BRANCH  48  72
ATOM     72  C   UNL A   1      39.163  32.032  35.321  1.00  0.00     0.064 A 
ATOM     73  C   UNL A   1      39.482  33.395  35.385  1.00  0.00     0.173 A 
ATOM     74  C   UNL A   1      38.385  31.493  36.356  1.00  0.00     0.173 A 
ATOM     75  F   UNL A   1      40.243  33.948  34.429  1.00  0.00    -0.203 F 
ATOM     76  C   UNL A   1      39.055  34.186  36.449  1.00  0.00     0.198 A 
ATOM     77  C   UNL A   1      37.937  32.291  37.407  1.00  0.00     0.198 A 
ATOM     78  F   UNL A   1      38.049  30.196  36.340  1.00  0.00    -0.203 F 
ATOM     79  F   UNL A   1      39.410  35.477  36.505  1.00  0.00    -0.200 F 
ATOM     80  C   UNL A   1      38.278  33.635  37.456  1.00  0.00     0.200 A 
ATOM     81  F   UNL A   1      37.175  31.759  38.372  1.00  0.00    -0.200 F 
ATOM     82  F   UNL A   1      37.863  34.397  38.478  1.00  0.00    -0.200 F 
ENDBRANCH  48  72
BRANCH  60  83
ATOM     83  C   UNL A   1      44.731  27.951  34.368  1.00  0.00     0.064 A 
ATOM     84  C   UNL A   1      45.875  28.762  34.392  1.00  0.00     0.173 A 
ATOM     85  C   UNL A   1      44.691  26.842  35.226  1.00  0.00     0.173 A 
ATOM     86  F   UNL A   1      45.968  29.824  33.578  1.00  0.00    -0.203 F 
ATOM     87  C   UNL A   1      46.943  28.463  35.234  1.00  0.00     0.198 A 
ATOM     88  C   UNL A   1      45.749  26.563  36.086  1.00  0.00     0.198 A 
ATOM     89  F   UNL A   1      43.617  26.039  35.244  1.00  0.00    -0.203 F 
ATOM     90  F   UNL A   1      48.043  29.228  35.214  1.00  0.00    -0.200 F 
ATOM     91  C   UNL A   1      46.877  27.370  36.086  1.00  0.00     0.200 A 
ATOM     92  F   UNL A   1      45.676  25.514  36.917  1.00  0.00    -0.200 F 
ATOM     93  F   UNL A   1      47.900  27.092  36.903  1.00  0.00    -0.200 F 
ENDBRANCH  60  83
ENDBRANCH  34  35
ENDBRANCH  26  29
ENDBRANCH  24  25
ENDBRANCH   1  24
TORSDOF 12
ENDMDL
MODEL 3
REMARK VINA RESULT:     -13.2      0.075      1.134
REMARK SMILES O=C(NCCCNC(=O)c1ccc(-c2c3nc(c(-c4c(F)c(F)c(F)c(F)c4F)c4ccc([nH]4)c(-c4c(F)c(F)c(F)c(F)c4F)c4nc(c(-c5c(F)c(F)c(F)c(F)c5F)c5ccc2[nH]5)C=C4)C=C3)cc1)c1ccc(Cn2cc(Cl)c(=O)[nH]c2=O)cc1
REMARK SMILES IDX 5 1 4 2 3 3 1 4 2 5 73 7 74 8 88 9 75 10 87 11 76 12 77 13
REMARK SMILES IDX 78 14 79 15 85 16 80 17 84 18 86 19 81 20 82 21 83 23 6 24
REMARK SMILES IDX 7 25 8 26 9 28 10 29 11 30 72 31 12 32 71 33 13 34 14 35
REMARK SMILES IDX 15 36 65 37 16 38 70 39 64 40 66 41 17 42 69 43 63 44 62 45
REMARK SMILES IDX 18 47 50 48 30 49 49 50 31 51 34 52 48 53 67 54 32 55 33 56
REMARK SMILES IDX 47 58 68 59 35 60 19 61 20 62 28 63 21 64 22 65 26 66 29 67
REMARK SMILES IDX 23 68 24 69 27 70 25 71 51 72 52 73 60 74 53 75 54 76 58 77
REMARK SMILES IDX 61 78 55 79 56 80 59 81 57 82 36 83 37 84 45 85 38 86 39 87
REMARK SMILES IDX 43 88 46 89 40 90 41 91 44 92 42 93
REMARK H PARENT 3 6 84 22 7 27 66 46 34 57
REMARK Flexibility Score: inf
ROOT
ATOM      1  C   UNL A   1      31.691  31.650  26.872  1.00  0.00     0.042 C 
ENDROOT
BRANCH   1   2
ATOM      2  C   UNL A   1      32.083  30.438  26.039  1.00  0.00     0.118 C 
BRANCH   2   3
ATOM      3  N   UNL A   1      31.111  30.152  24.992  1.00  0.00    -0.352 N 
ATOM      4  O   UNL A   1      30.208  28.983  23.281  1.00  0.00    -0.269 OA
ATOM      5  C   UNL A   1      30.950  29.004  24.255  1.00  0.00     0.251 C 
ATOM      6  H   UNL A   1      30.484  30.882  24.784  1.00  0.00     0.163 HD
BRANCH   5   7
ATOM      7  C   UNL A   1      31.692  27.792  24.650  1.00  0.00     0.039 A 
ATOM      8  C   UNL A   1      31.165  26.941  25.624  1.00  0.00     0.014 A 
ATOM      9  C   UNL A   1      32.926  27.519  24.058  1.00  0.00     0.014 A 
ATOM     10  C   UNL A   1      31.917  25.859  26.071  1.00  0.00     0.006 A 
ATOM     11  C   UNL A   1      33.683  26.437  24.516  1.00  0.00     0.006 A 
ATOM     12  C   UNL A   1      33.197  25.614  25.545  1.00  0.00    -0.028 A 
BRANCH  12  13
ATOM     13  C   UNL A   1      34.054  24.501  26.113  1.00  0.00     0.162 C 
BRANCH  13  14
ATOM     14  N   UNL A   1      33.530  23.164  25.804  1.00  0.00    -0.295 N 
ATOM     15  C   UNL A   1      33.143  22.857  24.509  1.00  0.00     0.117 A 
ATOM     16  C   UNL A   1      33.449  22.223  26.826  1.00  0.00     0.328 A 
ATOM     17  C   UNL A   1      32.653  21.663  24.166  1.00  0.00     0.122 A 
ATOM     18  N   UNL A   1      32.969  20.990  26.457  1.00  0.00    -0.273 N 
ATOM     19  O   UNL A   1      33.780  22.430  27.990  1.00  0.00    -0.248 OA
ATOM     20  Cl  UNL A   1      32.154  21.311  22.563  1.00  0.00    -0.077 Cl
ATOM     21  C   UNL A   1      32.545  20.616  25.209  1.00  0.00     0.272 A 
ATOM     22  H   UNL A   1      32.924  20.305  27.162  1.00  0.00     0.175 HD
ATOM     23  O   UNL A   1      32.112  19.491  24.987  1.00  0.00    -0.268 OA
ENDBRANCH  13  14
ENDBRANCH  12  13
ENDBRANCH   5   7
ENDBRANCH   2   3
ENDBRANCH   1   2
BRANCH   1  24
ATOM     24  C   UNL A   1      32.875  32.478  27.353  1.00  0.00     0.118 C 
BRANCH  24  25
ATOM     25  N   UNL A   1      32.528  33.868  27.620  1.00  0.00    -0.352 N 
ATOM     26  C   UNL A   1      33.047  34.743  28.546  1.00  0.00     0.251 C 
ATOM     27  H   UNL A   1      31.814  34.238  27.051  1.00  0.00     0.163 HD
ATOM     28  O   UNL A   1      32.522  35.836  28.726  1.00  0.00    -0.269 OA
BRANCH  26  29
ATOM     29  C   UNL A   1      34.223  34.348  29.347  1.00  0.00     0.039 A 
ATOM     30  C   UNL A   1      34.031  33.728  30.585  1.00  0.00     0.014 A 
ATOM     31  C   UNL A   1      35.515  34.562  28.862  1.00  0.00     0.014 A 
ATOM     32  C   UNL A   1      35.131  33.236  31.291  1.00  0.00     0.010 A 
ATOM     33  C   UNL A   1      36.599  33.999  29.523  1.00  0.00     0.010 A 
ATOM     34  C   UNL A   1      36.418  33.323  30.740  1.00  0.00    -0.014 A 
BRANCH  34  35
ATOM     35  C   UNL A   1      37.605  32.720  31.397  1.00  0.00     0.031 A 
ATOM     36  C   UNL A   1      38.300  31.556  30.748  1.00  0.00     0.074 A 
ATOM     37  C   UNL A   1      37.983  33.137  32.620  1.00  0.00     0.049 A 
ATOM     38  N   UNL A   1      39.218  30.761  31.234  1.00  0.00    -0.248 NA
ATOM     39  C   UNL A   1      37.875  31.224  29.379  1.00  0.00     0.031 C 
ATOM     40  C   UNL A   1      37.377  34.241  33.367  1.00  0.00     0.029 A 
ATOM     41  N   UNL A   1      38.956  32.661  33.464  1.00  0.00    -0.354 N 
ATOM     42  C   UNL A   1      39.459  29.818  30.243  1.00  0.00     0.074 A 
ATOM     43  C   UNL A   1      38.556  30.111  29.151  1.00  0.00     0.031 C 
ATOM     44  C   UNL A   1      38.002  34.368  34.548  1.00  0.00     0.029 A 
ATOM     45  C   UNL A   1      39.014  33.323  34.666  1.00  0.00     0.049 A 
ATOM     46  H   UNL A   1      39.556  31.916  33.229  1.00  0.00     0.167 HD
ATOM     47  C   UNL A   1      40.365  28.811  30.237  1.00  0.00     0.037 A 
ATOM     48  C   UNL A   1      39.783  33.098  35.748  1.00  0.00     0.037 A 
ATOM     49  C   UNL A   1      41.277  28.539  31.316  1.00  0.00     0.049 A 
ATOM     50  C   UNL A   1      40.759  31.953  35.731  1.00  0.00     0.074 A 
ATOM     51  C   UNL A   1      42.259  27.569  31.394  1.00  0.00     0.029 A 
ATOM     52  N   UNL A   1      41.316  29.246  32.511  1.00  0.00    -0.354 N 
ATOM     53  N   UNL A   1      41.005  31.088  34.779  1.00  0.00    -0.248 NA
ATOM     54  C   UNL A   1      41.566  31.754  36.944  1.00  0.00     0.031 C 
ATOM     55  C   UNL A   1      42.868  27.663  32.650  1.00  0.00     0.029 A 
ATOM     56  C   UNL A   1      42.298  28.723  33.337  1.00  0.00     0.049 A 
ATOM     57  H   UNL A   1      40.733  30.006  32.737  1.00  0.00     0.167 HD
ATOM     58  C   UNL A   1      42.016  30.267  35.258  1.00  0.00     0.074 A 
ATOM     59  C   UNL A   1      42.340  30.739  36.589  1.00  0.00     0.031 C 
ATOM     60  C   UNL A   1      42.625  29.220  34.649  1.00  0.00     0.037 A 
BRANCH  47  61
ATOM     61  C   UNL A   1      40.403  27.928  29.023  1.00  0.00     0.064 A 
ATOM     62  C   UNL A   1      41.183  28.250  27.903  1.00  0.00     0.173 A 
ATOM     63  C   UNL A   1      39.654  26.742  28.980  1.00  0.00     0.173 A 
ATOM     64  F   UNL A   1      41.907  29.380  27.887  1.00  0.00    -0.203 F 
ATOM     65  C   UNL A   1      41.181  27.442  26.769  1.00  0.00     0.198 A 
ATOM     66  C   UNL A   1      39.681  25.917  27.859  1.00  0.00     0.198 A 
ATOM     67  F   UNL A   1      38.895  26.381  30.025  1.00  0.00    -0.203 F 
ATOM     68  F   UNL A   1      41.884  27.805  25.688  1.00  0.00    -0.200 F 
ATOM     69  C   UNL A   1      40.434  26.274  26.750  1.00  0.00     0.200 A 
ATOM     70  F   UNL A   1      38.969  24.782  27.846  1.00  0.00    -0.200 F 
ATOM     71  F   UNL A   1      40.433  25.496  25.658  1.00  0.00    -0.200 F 
ENDBRANCH  47  61
BRANCH  48  72
ATOM     72  C   UNL A   1      39.680  33.993  36.930  1.00  0.00     0.064 A 
ATOM     73  C   UNL A   1      40.383  35.205  36.969  1.00  0.00     0.173 A 
ATOM     74  C   UNL A   1      38.882  33.665  38.036  1.00  0.00     0.173 A 
ATOM     75  F   UNL A   1      41.177  35.550  35.944  1.00  0.00    -0.203 F 
ATOM     76  C   UNL A   1      40.305  36.048  38.074  1.00  0.00     0.198 A 
ATOM     77  C   UNL A   1      38.785  34.521  39.130  1.00  0.00     0.198 A 
ATOM     78  F   UNL A   1      38.187  32.519  38.047  1.00  0.00    -0.203 F 
ATOM     79  F   UNL A   1      41.020  37.181  38.101  1.00  0.00    -0.200 F 
ATOM     80  C   UNL A   1      39.501  35.709  39.152  1.00  0.00     0.200 A 
ATOM     81  F   UNL A   1      37.997  34.197  40.165  1.00  0.00    -0.200 F 
ATOM     82  F   UNL A   1      39.423  36.523  40.214  1.00  0.00    -0.200 F 
ENDBRANCH  48  72
BRANCH  60  83
ATOM     83  C   UNL A   1      43.747  28.549  35.384  1.00  0.00     0.064 A 
ATOM     84  C   UNL A   1      43.522  27.463  36.244  1.00  0.00     0.173 A 
ATOM     85  C   UNL A   1      45.070  28.965  35.179  1.00  0.00     0.173 A 
ATOM     86  F   UNL A   1      42.273  27.039  36.485  1.00  0.00    -0.203 F 
ATOM     87  C   UNL A   1      44.584  26.829  36.884  1.00  0.00     0.198 A 
ATOM     88  C   UNL A   1      46.131  28.311  35.799  1.00  0.00     0.198 A 
ATOM     89  F   UNL A   1      45.337  29.994  34.363  1.00  0.00    -0.203 F 
ATOM     90  F   UNL A   1      44.346  25.819  37.731  1.00  0.00    -0.200 F 
ATOM     91  C   UNL A   1      45.887  27.247  36.655  1.00  0.00     0.200 A 
ATOM     92  F   UNL A   1      47.390  28.707  35.566  1.00  0.00    -0.200 F 
ATOM     93  F   UNL A   1      46.908  26.627  37.262  1.00  0.00    -0.200 F 
ENDBRANCH  60  83
ENDBRANCH  34  35
ENDBRANCH  26  29
ENDBRANCH  24  25
ENDBRANCH   1  24
TORSDOF 12
ENDMDL
