MODEL 1
REMARK VINA RESULT:     -13.5      0.000      0.000
REMARK SMILES O=C(CNC(=O)[C@@H](CC1=c2ccccc2=NC1)N1C(=O)N=C2C=CC=C[C@H]2C1=O)NCCCNC(=O)c1ccc(-c2c3nc(c(-c4c(F)c(F)c(F)c(F)c4F)c4ccc([nH]4)c(-c4c(F)c(F)c(F)c(F)c4F)c4nc(c(-c5c(F)c(F)c(F)c(F)c5F)c5ccc2[nH]5)C=C4)C=C3)cc1
REMARK SMILES IDX 31 1 30 2 1 3 2 4 3 6 4 7 5 8 6 10 7 11 8 12 9 13 10 14
REMARK SMILES IDX 17 15 11 16 15 17 16 18 12 19 14 20 13 21 18 22 19 23 28 24
REMARK SMILES IDX 21 25 20 26 27 27 29 28 22 29 26 30 23 31 25 32 24 33 32 34
REMARK SMILES IDX 33 35 34 36 35 37 36 39 37 40 38 41 99 42 39 43 98 44 40 45
REMARK SMILES IDX 41 46 42 47 92 48 43 49 97 50 91 51 93 52 44 53 96 54 90 55
REMARK SMILES IDX 89 56 45 58 77 59 57 60 76 61 58 62 61 63 75 64 94 65 59 66
REMARK SMILES IDX 60 67 74 69 95 70 62 71 46 72 47 73 55 74 48 75 49 76 53 77
REMARK SMILES IDX 56 78 50 79 51 80 54 81 52 82 78 83 79 84 87 85 80 86 81 87
REMARK SMILES IDX 85 88 88 89 82 90 83 91 86 92 84 93 63 94 64 95 72 96 65 97
REMARK SMILES IDX 66 98 70 99 73 100 67 101 68 102 71 103 69 104
REMARK H PARENT 30 5 4 9 34 38 93 57 61 68
REMARK Flexibility Score: inf
ROOT
ATOM      1  C   UNL A   1      34.022  33.798  28.817  1.00  0.00     0.117 C 
ENDROOT
BRANCH   1   2
ATOM      2  N   UNL A   1      33.682  32.628  28.023  1.00  0.00    -0.355 N 
ATOM      3  O   UNL A   1      35.787  31.724  28.081  1.00  0.00    -0.273 OA
ATOM      4  C   UNL A   1      34.604  31.635  27.756  1.00  0.00     0.239 C 
ATOM      5  H   UNL A   1      32.770  32.542  27.664  1.00  0.00     0.163 HD
BRANCH   4   6
ATOM      6  C   UNL A   1      34.030  30.316  27.210  1.00  0.00     0.216 C 
BRANCH   6   7
ATOM      7  N   UNL A   1      33.579  30.272  25.816  1.00  0.00    -0.345 N 
ATOM      8  C   UNL A   1      32.320  29.764  25.520  1.00  0.00     0.244 C 
ATOM      9  H   UNL A   1      34.163  30.601  25.095  1.00  0.00     0.164 HD
ATOM     10  O   UNL A   1      31.376  30.548  25.475  1.00  0.00    -0.273 OA
BRANCH   8  11
ATOM     11  C   UNL A   1      32.268  28.344  24.914  1.00  0.00     0.188 C 
BRANCH  11  12
ATOM     12  C   UNL A   1      33.576  27.521  25.003  1.00  0.00     0.069 C 
BRANCH  12  13
ATOM     13  C   UNL A   1      33.824  26.249  24.235  1.00  0.00    -0.037 C 
ATOM     14  C   UNL A   1      34.218  25.011  24.536  1.00  0.00     0.001 A 
ATOM     15  C   UNL A   1      33.592  26.357  22.748  1.00  0.00     0.174 C 
ATOM     16  C   UNL A   1      34.585  24.278  25.704  1.00  0.00     0.010 A 
ATOM     17  C   UNL A   1      34.269  24.351  23.211  1.00  0.00     0.065 A 
ATOM     18  N   UNL A   1      33.935  25.050  22.172  1.00  0.00    -0.280 NA
ATOM     19  C   UNL A   1      34.943  22.989  25.605  1.00  0.00     0.001 A 
ATOM     20  C   UNL A   1      34.703  22.939  23.173  1.00  0.00     0.028 A 
ATOM     21  C   UNL A   1      35.007  22.318  24.323  1.00  0.00     0.002 A 
ENDBRANCH  12  13
ENDBRANCH  11  12
BRANCH  11  22
ATOM     22  N   UNL A   1      31.100  27.475  25.094  1.00  0.00    -0.249 N 
ATOM     23  C   UNL A   1      30.248  27.368  24.011  1.00  0.00     0.351 C 
ATOM     24  C   UNL A   1      30.981  26.553  26.106  1.00  0.00     0.244 C 
ATOM     25  N   UNL A   1      30.271  26.140  23.402  1.00  0.00    -0.197 NA
ATOM     26  O   UNL A   1      29.647  28.326  23.550  1.00  0.00    -0.246 OA
ATOM     27  C   UNL A   1      30.245  25.276  25.702  1.00  0.00     0.151 C 
ATOM     28  O   UNL A   1      31.364  26.753  27.257  1.00  0.00    -0.273 OA
ATOM     29  C   UNL A   1      30.385  25.116  24.190  1.00  0.00     0.062 C 
ATOM     30  C   UNL A   1      30.773  24.082  26.452  1.00  0.00    -0.007 C 
ATOM     31  C   UNL A   1      30.735  23.802  23.603  1.00  0.00     0.025 C 
ATOM     32  C   UNL A   1      31.207  22.969  25.846  1.00  0.00    -0.003 C 
ATOM     33  C   UNL A   1      31.157  22.825  24.414  1.00  0.00     0.002 C 
ENDBRANCH  11  22
ENDBRANCH   8  11
ENDBRANCH   6   7
ENDBRANCH   4   6
ENDBRANCH   1   2
BRANCH   1  34
ATOM     34  C   UNL A   1      33.116  35.009  28.602  1.00  0.00     0.042 C 
BRANCH  34  35
ATOM     35  C   UNL A   1      33.292  36.147  29.605  1.00  0.00     0.118 C 
BRANCH  35  36
ATOM     36  N   UNL A   1      32.384  36.074  30.740  1.00  0.00    -0.352 N 
ATOM     37  C   UNL A   1      32.541  35.527  31.990  1.00  0.00     0.251 C 
ATOM     38  H   UNL A   1      31.504  36.488  30.585  1.00  0.00     0.163 HD
ATOM     39  O   UNL A   1      31.580  35.515  32.756  1.00  0.00    -0.269 OA
BRANCH  37  40
ATOM     40  C   UNL A   1      33.823  34.921  32.429  1.00  0.00     0.039 A 
ATOM     41  C   UNL A   1      35.033  35.617  32.395  1.00  0.00     0.014 A 
ATOM     42  C   UNL A   1      33.794  33.618  32.944  1.00  0.00     0.014 A 
ATOM     43  C   UNL A   1      36.221  34.972  32.747  1.00  0.00     0.010 A 
ATOM     44  C   UNL A   1      34.977  32.989  33.348  1.00  0.00     0.010 A 
ATOM     45  C   UNL A   1      36.208  33.646  33.212  1.00  0.00    -0.014 A 
BRANCH  45  46
ATOM     46  C   UNL A   1      37.484  32.947  33.522  1.00  0.00     0.031 A 
ATOM     47  C   UNL A   1      38.194  33.206  34.823  1.00  0.00     0.074 A 
ATOM     48  C   UNL A   1      37.995  32.055  32.651  1.00  0.00     0.049 A 
ATOM     49  N   UNL A   1      39.310  32.688  35.276  1.00  0.00    -0.248 NA
ATOM     50  C   UNL A   1      37.571  34.175  35.738  1.00  0.00     0.031 C 
ATOM     51  C   UNL A   1      37.408  31.707  31.358  1.00  0.00     0.029 A 
ATOM     52  N   UNL A   1      39.118  31.268  32.733  1.00  0.00    -0.354 N 
ATOM     53  C   UNL A   1      39.525  33.272  36.517  1.00  0.00     0.074 A 
ATOM     54  C   UNL A   1      38.443  34.207  36.736  1.00  0.00     0.031 C 
ATOM     55  C   UNL A   1      38.153  30.750  30.783  1.00  0.00     0.029 A 
ATOM     56  C   UNL A   1      39.290  30.444  31.647  1.00  0.00     0.049 A 
ATOM     57  H   UNL A   1      39.739  31.292  33.496  1.00  0.00     0.167 HD
ATOM     58  C   UNL A   1      40.523  33.038  37.402  1.00  0.00     0.037 A 
ATOM     59  C   UNL A   1      40.256  29.545  31.378  1.00  0.00     0.037 A 
ATOM     60  C   UNL A   1      41.590  32.094  37.204  1.00  0.00     0.049 A 
ATOM     61  C   UNL A   1      41.374  29.333  32.360  1.00  0.00     0.074 A 
ATOM     62  C   UNL A   1      42.627  31.772  38.064  1.00  0.00     0.029 A 
ATOM     63  N   UNL A   1      41.755  31.315  36.069  1.00  0.00    -0.354 N 
ATOM     64  N   UNL A   1      41.558  29.884  33.534  1.00  0.00    -0.248 NA
ATOM     65  C   UNL A   1      42.426  28.381  31.973  1.00  0.00     0.031 C 
ATOM     66  C   UNL A   1      43.439  30.821  37.436  1.00  0.00     0.029 A 
ATOM     67  C   UNL A   1      42.887  30.526  36.199  1.00  0.00     0.049 A 
ATOM     68  H   UNL A   1      41.156  31.322  35.287  1.00  0.00     0.167 HD
ATOM     69  C   UNL A   1      42.734  29.341  34.031  1.00  0.00     0.074 A 
ATOM     70  C   UNL A   1      43.216  28.403  33.038  1.00  0.00     0.031 C 
ATOM     71  C   UNL A   1      43.359  29.599  35.204  1.00  0.00     0.037 A 
BRANCH  58  72
ATOM     72  C   UNL A   1      40.512  33.817  38.682  1.00  0.00     0.064 A 
ATOM     73  C   UNL A   1      39.742  33.405  39.779  1.00  0.00     0.173 A 
ATOM     74  C   UNL A   1      41.329  34.948  38.836  1.00  0.00     0.173 A 
ATOM     75  F   UNL A   1      38.939  32.336  39.677  1.00  0.00    -0.203 F 
ATOM     76  C   UNL A   1      39.780  34.106  40.983  1.00  0.00     0.198 A 
ATOM     77  C   UNL A   1      41.380  35.633  40.048  1.00  0.00     0.198 A 
ATOM     78  F   UNL A   1      42.088  35.376  37.818  1.00  0.00    -0.203 F 
ATOM     79  F   UNL A   1      39.016  33.710  42.011  1.00  0.00    -0.200 F 
ATOM     80  C   UNL A   1      40.604  35.213  41.118  1.00  0.00     0.200 A 
ATOM     81  F   UNL A   1      42.184  36.696  40.181  1.00  0.00    -0.200 F 
ATOM     82  F   UNL A   1      40.648  35.878  42.281  1.00  0.00    -0.200 F 
ENDBRANCH  58  72
BRANCH  59  83
ATOM     83  C   UNL A   1      40.194  28.759  30.121  1.00  0.00     0.064 A 
ATOM     84  C   UNL A   1      40.794  29.236  28.949  1.00  0.00     0.173 A 
ATOM     85  C   UNL A   1      39.550  27.515  30.069  1.00  0.00     0.173 A 
ATOM     86  F   UNL A   1      41.400  30.433  28.946  1.00  0.00    -0.203 F 
ATOM     87  C   UNL A   1      40.751  28.498  27.768  1.00  0.00     0.198 A 
ATOM     88  C   UNL A   1      39.525  26.768  28.894  1.00  0.00     0.198 A 
ATOM     89  F   UNL A   1      38.957  27.020  31.166  1.00  0.00    -0.203 F 
ATOM     90  F   UNL A   1      41.310  28.987  26.654  1.00  0.00    -0.200 F 
ATOM     91  C   UNL A   1      40.124  27.261  27.744  1.00  0.00     0.200 A 
ATOM     92  F   UNL A   1      38.925  25.570  28.876  1.00  0.00    -0.200 F 
ATOM     93  F   UNL A   1      40.089  26.548  26.611  1.00  0.00    -0.200 F 
ENDBRANCH  59  83
BRANCH  71  94
ATOM     94  C   UNL A   1      44.630  28.860  35.491  1.00  0.00     0.064 A 
ATOM     95  C   UNL A   1      45.878  29.396  35.143  1.00  0.00     0.173 A 
ATOM     96  C   UNL A   1      44.605  27.635  36.175  1.00  0.00     0.173 A 
ATOM     97  F   UNL A   1      45.951  30.557  34.476  1.00  0.00    -0.203 F 
ATOM     98  C   UNL A   1      47.056  28.727  35.462  1.00  0.00     0.198 A 
ATOM     99  C   UNL A   1      45.786  26.980  36.511  1.00  0.00     0.198 A 
ATOM    100  F   UNL A   1      43.435  27.086  36.534  1.00  0.00    -0.203 F 
ATOM    101  F   UNL A   1      48.237  29.245  35.098  1.00  0.00    -0.200 F 
ATOM    102  C   UNL A   1      47.010  27.524  36.153  1.00  0.00     0.200 A 
ATOM    103  F   UNL A   1      45.740  25.823  37.186  1.00  0.00    -0.200 F 
ATOM    104  F   UNL A   1      48.146  26.888  36.469  1.00  0.00    -0.200 F 
ENDBRANCH  71  94
ENDBRANCH  45  46
ENDBRANCH  37  40
ENDBRANCH  35  36
ENDBRANCH  34  35
ENDBRANCH   1  34
TORSDOF 15
ENDMDL
MODEL 2
REMARK VINA RESULT:     -13.5      0.212      7.013
REMARK SMILES O=C(CNC(=O)[C@@H](CC1=c2ccccc2=NC1)N1C(=O)N=C2C=CC=C[C@H]2C1=O)NCCCNC(=O)c1ccc(-c2c3nc(c(-c4c(F)c(F)c(F)c(F)c4F)c4ccc([nH]4)c(-c4c(F)c(F)c(F)c(F)c4F)c4nc(c(-c5c(F)c(F)c(F)c(F)c5F)c5ccc2[nH]5)C=C4)C=C3)cc1
REMARK SMILES IDX 31 1 30 2 1 3 2 4 3 6 4 7 5 8 6 10 7 11 8 12 9 13 10 14
REMARK SMILES IDX 17 15 11 16 15 17 16 18 12 19 14 20 13 21 18 22 19 23 28 24
REMARK SMILES IDX 21 25 20 26 27 27 29 28 22 29 26 30 23 31 25 32 24 33 32 34
REMARK SMILES IDX 33 35 34 36 35 37 36 39 37 40 38 41 99 42 39 43 98 44 40 45
REMARK SMILES IDX 41 46 42 47 92 48 43 49 97 50 91 51 93 52 44 53 96 54 90 55
REMARK SMILES IDX 89 56 45 58 77 59 57 60 76 61 58 62 61 63 75 64 94 65 59 66
REMARK SMILES IDX 60 67 74 69 95 70 62 71 46 72 47 73 55 74 48 75 49 76 53 77
REMARK SMILES IDX 56 78 50 79 51 80 54 81 52 82 78 83 79 84 87 85 80 86 81 87
REMARK SMILES IDX 85 88 88 89 82 90 83 91 86 92 84 93 63 94 64 95 72 96 65 97
REMARK SMILES IDX 66 98 70 99 73 100 67 101 68 102 71 103 69 104
REMARK H PARENT 30 5 4 9 34 38 93 57 61 68
REMARK Flexibility Score: inf
ROOT
ATOM      1  C   UNL A   1      33.967  33.844  28.856  1.00  0.00     0.117 C 
ENDROOT
BRANCH   1   2
ATOM      2  N   UNL A   1      33.684  32.671  28.044  1.00  0.00    -0.355 N 
ATOM      3  O   UNL A   1      35.797  31.798  28.205  1.00  0.00    -0.273 OA
ATOM      4  C   UNL A   1      34.633  31.693  27.822  1.00  0.00     0.239 C 
ATOM      5  H   UNL A   1      32.792  32.572  27.640  1.00  0.00     0.163 HD
BRANCH   4   6
ATOM      6  C   UNL A   1      34.106  30.366  27.246  1.00  0.00     0.216 C 
BRANCH   6   7
ATOM      7  N   UNL A   1      33.622  30.346  25.862  1.00  0.00    -0.345 N 
ATOM      8  C   UNL A   1      32.356  29.845  25.588  1.00  0.00     0.244 C 
ATOM      9  H   UNL A   1      34.189  30.687  25.134  1.00  0.00     0.164 HD
ATOM     10  O   UNL A   1      31.412  30.630  25.579  1.00  0.00    -0.273 OA
BRANCH   8  11
ATOM     11  C   UNL A   1      32.288  28.435  24.960  1.00  0.00     0.188 C 
BRANCH  11  12
ATOM     12  C   UNL A   1      33.575  27.582  25.066  1.00  0.00     0.069 C 
BRANCH  12  13
ATOM     13  C   UNL A   1      33.815  26.320  24.281  1.00  0.00    -0.037 C 
ATOM     14  C   UNL A   1      34.172  25.067  24.569  1.00  0.00     0.001 A 
ATOM     15  C   UNL A   1      33.628  26.461  22.790  1.00  0.00     0.174 C 
ATOM     16  C   UNL A   1      34.490  24.304  25.733  1.00  0.00     0.010 A 
ATOM     17  C   UNL A   1      34.246  24.431  23.234  1.00  0.00     0.065 A 
ATOM     18  N   UNL A   1      33.957  25.156  22.199  1.00  0.00    -0.280 NA
ATOM     19  C   UNL A   1      34.821  23.009  25.619  1.00  0.00     0.001 A 
ATOM     20  C   UNL A   1      34.648  23.010  23.180  1.00  0.00     0.028 A 
ATOM     21  C   UNL A   1      34.905  22.360  24.327  1.00  0.00     0.002 A 
ENDBRANCH  12  13
ENDBRANCH  11  12
BRANCH  11  22
ATOM     22  N   UNL A   1      31.097  27.589  25.102  1.00  0.00    -0.249 N 
ATOM     23  C   UNL A   1      30.264  27.521  24.001  1.00  0.00     0.351 C 
ATOM     24  C   UNL A   1      30.939  26.651  26.092  1.00  0.00     0.244 C 
ATOM     25  N   UNL A   1      30.273  26.304  23.369  1.00  0.00    -0.197 NA
ATOM     26  O   UNL A   1      29.694  28.501  23.547  1.00  0.00    -0.246 OA
ATOM     27  C   UNL A   1      30.183  25.398  25.650  1.00  0.00     0.151 C 
ATOM     28  O   UNL A   1      31.303  26.820  27.254  1.00  0.00    -0.273 OA
ATOM     29  C   UNL A   1      30.349  25.263  24.138  1.00  0.00     0.062 C 
ATOM     30  C   UNL A   1      30.670  24.179  26.386  1.00  0.00    -0.007 C 
ATOM     31  C   UNL A   1      30.681  23.954  23.533  1.00  0.00     0.025 C 
ATOM     32  C   UNL A   1      31.091  23.068  25.768  1.00  0.00    -0.003 C 
ATOM     33  C   UNL A   1      31.066  22.952  24.333  1.00  0.00     0.002 C 
ENDBRANCH  11  22
ENDBRANCH   8  11
ENDBRANCH   6   7
ENDBRANCH   4   6
ENDBRANCH   1   2
BRANCH   1  34
ATOM     34  C   UNL A   1      32.889  34.927  28.822  1.00  0.00     0.042 C 
BRANCH  34  35
ATOM     35  C   UNL A   1      33.210  36.197  29.608  1.00  0.00     0.118 C 
BRANCH  35  36
ATOM     36  N   UNL A   1      32.457  36.326  30.846  1.00  0.00    -0.352 N 
ATOM     37  C   UNL A   1      32.678  35.802  32.097  1.00  0.00     0.251 C 
ATOM     38  H   UNL A   1      31.649  36.885  30.776  1.00  0.00     0.163 HD
ATOM     39  O   UNL A   1      31.836  35.988  32.972  1.00  0.00    -0.269 OA
BRANCH  37  40
ATOM     40  C   UNL A   1      33.881  34.992  32.411  1.00  0.00     0.039 A 
ATOM     41  C   UNL A   1      33.800  33.670  32.855  1.00  0.00     0.014 A 
ATOM     42  C   UNL A   1      35.140  35.570  32.200  1.00  0.00     0.014 A 
ATOM     43  C   UNL A   1      34.962  32.980  33.210  1.00  0.00     0.010 A 
ATOM     44  C   UNL A   1      36.306  34.860  32.504  1.00  0.00     0.010 A 
ATOM     45  C   UNL A   1      36.227  33.573  33.053  1.00  0.00    -0.014 A 
BRANCH  45  46
ATOM     46  C   UNL A   1      37.452  32.855  33.496  1.00  0.00     0.031 A 
ATOM     47  C   UNL A   1      38.084  31.816  32.609  1.00  0.00     0.074 A 
ATOM     48  C   UNL A   1      38.020  33.153  34.680  1.00  0.00     0.049 A 
ATOM     49  N   UNL A   1      39.156  31.091  32.816  1.00  0.00    -0.248 NA
ATOM     50  C   UNL A   1      37.425  31.554  31.320  1.00  0.00     0.031 C 
ATOM     51  C   UNL A   1      37.515  34.140  35.633  1.00  0.00     0.029 A 
ATOM     52  N   UNL A   1      39.157  32.664  35.275  1.00  0.00    -0.354 N 
ATOM     53  C   UNL A   1      39.293  30.286  31.693  1.00  0.00     0.074 A 
ATOM     54  C   UNL A   1      38.180  30.586  30.820  1.00  0.00     0.031 C 
ATOM     55  C   UNL A   1      38.357  34.212  36.676  1.00  0.00     0.029 A 
ATOM     56  C   UNL A   1      39.440  33.251  36.484  1.00  0.00     0.049 A 
ATOM     57  H   UNL A   1      39.717  31.961  34.873  1.00  0.00     0.167 HD
ATOM     58  C   UNL A   1      40.269  29.392  31.406  1.00  0.00     0.037 A 
ATOM     59  C   UNL A   1      40.455  33.036  37.343  1.00  0.00     0.037 A 
ATOM     60  C   UNL A   1      41.393  29.103  32.257  1.00  0.00     0.049 A 
ATOM     61  C   UNL A   1      41.503  32.008  37.019  1.00  0.00     0.074 A 
ATOM     62  C   UNL A   1      42.444  28.231  32.030  1.00  0.00     0.029 A 
ATOM     63  N   UNL A   1      41.615  29.683  33.496  1.00  0.00    -0.354 N 
ATOM     64  N   UNL A   1      41.626  31.264  35.949  1.00  0.00    -0.248 NA
ATOM     65  C   UNL A   1      42.547  31.785  38.030  1.00  0.00     0.031 C 
ATOM     66  C   UNL A   1      43.287  28.260  33.146  1.00  0.00     0.029 A 
ATOM     67  C   UNL A   1      42.778  29.175  34.053  1.00  0.00     0.049 A 
ATOM     68  H   UNL A   1      41.033  30.357  33.917  1.00  0.00     0.167 HD
ATOM     69  C   UNL A   1      42.763  30.493  36.149  1.00  0.00     0.074 A 
ATOM     70  C   UNL A   1      43.305  30.871  37.438  1.00  0.00     0.031 C 
ATOM     71  C   UNL A   1      43.305  29.555  35.337  1.00  0.00     0.037 A 
BRANCH  58  72
ATOM     72  C   UNL A   1      40.171  28.651  30.107  1.00  0.00     0.064 A 
ATOM     73  C   UNL A   1      40.785  29.138  28.944  1.00  0.00     0.173 A 
ATOM     74  C   UNL A   1      39.517  27.412  30.039  1.00  0.00     0.173 A 
ATOM     75  F   UNL A   1      41.414  30.322  28.957  1.00  0.00    -0.203 F 
ATOM     76  C   UNL A   1      40.734  28.415  27.754  1.00  0.00     0.198 A 
ATOM     77  C   UNL A   1      39.486  26.684  28.853  1.00  0.00     0.198 A 
ATOM     78  F   UNL A   1      38.922  26.902  31.127  1.00  0.00    -0.203 F 
ATOM     79  F   UNL A   1      41.304  28.911  26.646  1.00  0.00    -0.200 F 
ATOM     80  C   UNL A   1      40.093  27.187  27.711  1.00  0.00     0.200 A 
ATOM     81  F   UNL A   1      38.876  25.492  28.816  1.00  0.00    -0.200 F 
ATOM     82  F   UNL A   1      40.056  26.488  26.568  1.00  0.00    -0.200 F 
ENDBRANCH  58  72
BRANCH  59  83
ATOM     83  C   UNL A   1      40.537  33.833  38.592  1.00  0.00     0.064 A 
ATOM     84  C   UNL A   1      41.331  34.985  38.656  1.00  0.00     0.173 A 
ATOM     85  C   UNL A   1      39.816  33.469  39.738  1.00  0.00     0.173 A 
ATOM     86  F   UNL A   1      42.057  35.357  37.591  1.00  0.00    -0.203 F 
ATOM     87  C   UNL A   1      41.402  35.745  39.821  1.00  0.00     0.198 A 
ATOM     88  C   UNL A   1      39.871  34.240  40.896  1.00  0.00     0.198 A 
ATOM     89  F   UNL A   1      39.045  32.370  39.725  1.00  0.00    -0.203 F 
ATOM     90  F   UNL A   1      42.189  36.828  39.865  1.00  0.00    -0.200 F 
ATOM     91  C   UNL A   1      40.667  35.376  40.938  1.00  0.00     0.200 A 
ATOM     92  F   UNL A   1      39.154  33.886  41.971  1.00  0.00    -0.200 F 
ATOM     93  F   UNL A   1      40.730  36.110  42.056  1.00  0.00    -0.200 F 
ENDBRANCH  59  83
BRANCH  71  94
ATOM     94  C   UNL A   1      44.552  28.869  35.806  1.00  0.00     0.064 A 
ATOM     95  C   UNL A   1      44.494  27.678  36.543  1.00  0.00     0.173 A 
ATOM     96  C   UNL A   1      45.817  29.372  35.463  1.00  0.00     0.173 A 
ATOM     97  F   UNL A   1      43.308  27.167  36.905  1.00  0.00    -0.203 F 
ATOM     98  C   UNL A   1      45.658  27.018  36.928  1.00  0.00     0.198 A 
ATOM     99  C   UNL A   1      46.977  28.698  35.832  1.00  0.00     0.198 A 
ATOM    100  F   UNL A   1      45.923  30.506  34.754  1.00  0.00    -0.203 F 
ATOM    101  F   UNL A   1      45.579  25.894  37.653  1.00  0.00    -0.200 F 
ATOM    102  C   UNL A   1      46.897  27.525  36.565  1.00  0.00     0.200 A 
ATOM    103  F   UNL A   1      48.174  29.183  35.474  1.00  0.00    -0.200 F 
ATOM    104  F   UNL A   1      48.016  26.881  36.927  1.00  0.00    -0.200 F 
ENDBRANCH  71  94
ENDBRANCH  45  46
ENDBRANCH  37  40
ENDBRANCH  35  36
ENDBRANCH  34  35
ENDBRANCH   1  34
TORSDOF 15
ENDMDL
MODEL 3
REMARK VINA RESULT:     -13.4      6.880     11.700
REMARK SMILES O=C(CNC(=O)[C@@H](CC1=c2ccccc2=NC1)N1C(=O)N=C2C=CC=C[C@H]2C1=O)NCCCNC(=O)c1ccc(-c2c3nc(c(-c4c(F)c(F)c(F)c(F)c4F)c4ccc([nH]4)c(-c4c(F)c(F)c(F)c(F)c4F)c4nc(c(-c5c(F)c(F)c(F)c(F)c5F)c5ccc2[nH]5)C=C4)C=C3)cc1
REMARK SMILES IDX 31 1 30 2 1 3 2 4 3 6 4 7 5 8 6 10 7 11 8 12 9 13 10 14
REMARK SMILES IDX 17 15 11 16 15 17 16 18 12 19 14 20 13 21 18 22 19 23 28 24
REMARK SMILES IDX 21 25 20 26 27 27 29 28 22 29 26 30 23 31 25 32 24 33 32 34
REMARK SMILES IDX 33 35 34 36 35 37 36 39 37 40 38 41 99 42 39 43 98 44 40 45
REMARK SMILES IDX 41 46 42 47 92 48 43 49 97 50 91 51 93 52 44 53 96 54 90 55
REMARK SMILES IDX 89 56 45 58 77 59 57 60 76 61 58 62 61 63 75 64 94 65 59 66
REMARK SMILES IDX 60 67 74 69 95 70 62 71 46 72 47 73 55 74 48 75 49 76 53 77
REMARK SMILES IDX 56 78 50 79 51 80 54 81 52 82 78 83 79 84 87 85 80 86 81 87
REMARK SMILES IDX 85 88 88 89 82 90 83 91 86 92 84 93 63 94 64 95 72 96 65 97
REMARK SMILES IDX 66 98 70 99 73 100 67 101 68 102 71 103 69 104
REMARK H PARENT 30 5 4 9 34 38 93 57 61 68
REMARK Flexibility Score: inf
ROOT
ATOM      1  C   UNL A   1      41.291  20.145  26.744  1.00  0.00     0.117 C 
ENDROOT
BRANCH   1   2
ATOM      2  N   UNL A   1      39.939  20.585  26.436  1.00  0.00    -0.355 N 
ATOM      3  O   UNL A   1      40.431  22.822  26.512  1.00  0.00    -0.273 OA
ATOM      4  C   UNL A   1      39.623  21.921  26.291  1.00  0.00     0.239 C 
ATOM      5  H   UNL A   1      39.229  19.912  26.329  1.00  0.00     0.163 HD
BRANCH   4   6
ATOM      6  C   UNL A   1      38.262  22.221  25.638  1.00  0.00     0.216 C 
BRANCH   6   7
ATOM      7  N   UNL A   1      37.062  21.589  26.196  1.00  0.00    -0.345 N 
ATOM      8  C   UNL A   1      36.079  21.113  25.339  1.00  0.00     0.244 C 
ATOM      9  H   UNL A   1      36.956  21.502  27.170  1.00  0.00     0.164 HD
ATOM     10  O   UNL A   1      36.147  19.942  24.973  1.00  0.00    -0.273 OA
BRANCH   8  11
ATOM     11  C   UNL A   1      34.796  21.964  25.212  1.00  0.00     0.188 C 
BRANCH  11  12
ATOM     12  C   UNL A   1      34.814  23.331  25.939  1.00  0.00     0.069 C 
BRANCH  12  13
ATOM     13  C   UNL A   1      33.588  24.171  26.180  1.00  0.00    -0.037 C 
ATOM     14  C   UNL A   1      33.230  25.433  25.937  1.00  0.00     0.001 A 
ATOM     15  C   UNL A   1      32.461  23.453  26.881  1.00  0.00     0.174 C 
ATOM     16  C   UNL A   1      33.802  26.592  25.332  1.00  0.00     0.010 A 
ATOM     17  C   UNL A   1      31.875  25.510  26.530  1.00  0.00     0.065 A 
ATOM     18  N   UNL A   1      31.389  24.440  27.076  1.00  0.00    -0.280 NA
ATOM     19  C   UNL A   1      33.103  27.735  25.273  1.00  0.00     0.001 A 
ATOM     20  C   UNL A   1      31.175  26.810  26.457  1.00  0.00     0.028 A 
ATOM     21  C   UNL A   1      31.778  27.843  25.848  1.00  0.00     0.002 A 
ENDBRANCH  12  13
ENDBRANCH  11  12
BRANCH  11  22
ATOM     22  N   UNL A   1      34.064  22.066  23.944  1.00  0.00    -0.249 N 
ATOM     23  C   UNL A   1      32.926  21.289  23.834  1.00  0.00     0.351 C 
ATOM     24  C   UNL A   1      34.249  23.077  23.033  1.00  0.00     0.244 C 
ATOM     25  N   UNL A   1      31.758  22.009  23.831  1.00  0.00    -0.197 NA
ATOM     26  O   UNL A   1      32.953  20.070  23.889  1.00  0.00    -0.246 OA
ATOM     27  C   UNL A   1      32.974  23.502  22.306  1.00  0.00     0.151 C 
ATOM     28  O   UNL A   1      35.348  23.556  22.763  1.00  0.00    -0.273 OA
ATOM     29  C   UNL A   1      31.787  23.139  23.196  1.00  0.00     0.062 C 
ATOM     30  C   UNL A   1      33.003  24.969  21.968  1.00  0.00    -0.007 C 
ATOM     31  C   UNL A   1      30.688  24.106  23.414  1.00  0.00     0.025 C 
ATOM     32  C   UNL A   1      32.031  25.822  22.320  1.00  0.00    -0.003 C 
ATOM     33  C   UNL A   1      30.856  25.374  23.021  1.00  0.00     0.002 C 
ENDBRANCH  11  22
ENDBRANCH   8  11
ENDBRANCH   6   7
ENDBRANCH   4   6
ENDBRANCH   1   2
BRANCH   1  34
ATOM     34  C   UNL A   1      41.897  19.170  25.736  1.00  0.00     0.042 C 
BRANCH  34  35
ATOM     35  C   UNL A   1      43.297  18.662  26.074  1.00  0.00     0.118 C 
BRANCH  35  36
ATOM     36  N   UNL A   1      44.166  18.521  24.915  1.00  0.00    -0.352 N 
ATOM     37  C   UNL A   1      44.913  19.447  24.228  1.00  0.00     0.251 C 
ATOM     38  H   UNL A   1      44.229  17.605  24.562  1.00  0.00     0.163 HD
ATOM     39  O   UNL A   1      45.505  19.091  23.212  1.00  0.00    -0.269 OA
BRANCH  37  40
ATOM     40  C   UNL A   1      44.997  20.865  24.654  1.00  0.00     0.039 A 
ATOM     41  C   UNL A   1      44.552  21.918  23.852  1.00  0.00     0.014 A 
ATOM     42  C   UNL A   1      45.497  21.141  25.934  1.00  0.00     0.014 A 
ATOM     43  C   UNL A   1      44.727  23.240  24.272  1.00  0.00     0.010 A 
ATOM     44  C   UNL A   1      45.622  22.462  26.377  1.00  0.00     0.010 A 
ATOM     45  C   UNL A   1      45.278  23.526  25.532  1.00  0.00    -0.014 A 
BRANCH  45  46
ATOM     46  C   UNL A   1      45.521  24.935  25.942  1.00  0.00     0.031 A 
ATOM     47  C   UNL A   1      44.410  25.752  26.545  1.00  0.00     0.074 A 
ATOM     48  C   UNL A   1      46.745  25.479  25.803  1.00  0.00     0.049 A 
ATOM     49  N   UNL A   1      44.429  26.991  26.971  1.00  0.00    -0.248 NA
ATOM     50  C   UNL A   1      43.103  25.091  26.689  1.00  0.00     0.031 C 
ATOM     51  C   UNL A   1      47.910  24.800  25.238  1.00  0.00     0.029 A 
ATOM     52  N   UNL A   1      47.215  26.724  26.141  1.00  0.00    -0.354 N 
ATOM     53  C   UNL A   1      43.144  27.259  27.422  1.00  0.00     0.074 A 
ATOM     54  C   UNL A   1      42.358  26.066  27.191  1.00  0.00     0.031 C 
ATOM     55  C   UNL A   1      48.970  25.622  25.303  1.00  0.00     0.029 A 
ATOM     56  C   UNL A   1      48.552  26.898  25.877  1.00  0.00     0.049 A 
ATOM     57  H   UNL A   1      46.648  27.426  26.536  1.00  0.00     0.167 HD
ATOM     58  C   UNL A   1      42.665  28.389  27.994  1.00  0.00     0.037 A 
ATOM     59  C   UNL A   1      49.350  27.964  26.074  1.00  0.00     0.037 A 
ATOM     60  C   UNL A   1      43.442  29.572  28.250  1.00  0.00     0.049 A 
ATOM     61  C   UNL A   1      48.783  29.221  26.674  1.00  0.00     0.074 A 
ATOM     62  C   UNL A   1      43.043  30.753  28.854  1.00  0.00     0.029 A 
ATOM     63  N   UNL A   1      44.781  29.723  27.922  1.00  0.00    -0.354 N 
ATOM     64  N   UNL A   1      47.569  29.455  27.106  1.00  0.00    -0.248 NA
ATOM     65  C   UNL A   1      49.697  30.365  26.803  1.00  0.00     0.031 C 
ATOM     66  C   UNL A   1      44.131  31.631  28.862  1.00  0.00     0.029 A 
ATOM     67  C   UNL A   1      45.218  30.984  28.295  1.00  0.00     0.049 A 
ATOM     68  H   UNL A   1      45.337  29.036  27.489  1.00  0.00     0.167 HD
ATOM     69  C   UNL A   1      47.574  30.764  27.568  1.00  0.00     0.074 A 
ATOM     70  C   UNL A   1      48.918  31.271  27.379  1.00  0.00     0.031 C 
ATOM     71  C   UNL A   1      46.555  31.480  28.098  1.00  0.00     0.037 A 
BRANCH  58  72
ATOM     72  C   UNL A   1      41.220  28.406  28.393  1.00  0.00     0.064 A 
ATOM     73  C   UNL A   1      40.808  27.965  29.658  1.00  0.00     0.173 A 
ATOM     74  C   UNL A   1      40.248  28.931  27.528  1.00  0.00     0.173 A 
ATOM     75  F   UNL A   1      41.699  27.447  30.516  1.00  0.00    -0.203 F 
ATOM     76  C   UNL A   1      39.469  28.035  30.039  1.00  0.00     0.198 A 
ATOM     77  C   UNL A   1      38.915  29.019  27.920  1.00  0.00     0.198 A 
ATOM     78  F   UNL A   1      40.594  29.372  26.310  1.00  0.00    -0.203 F 
ATOM     79  F   UNL A   1      39.093  27.583  31.243  1.00  0.00    -0.200 F 
ATOM     80  C   UNL A   1      38.526  28.569  29.173  1.00  0.00     0.200 A 
ATOM     81  F   UNL A   1      38.006  29.544  27.088  1.00  0.00    -0.200 F 
ATOM     82  F   UNL A   1      37.242  28.647  29.547  1.00  0.00    -0.200 F 
ENDBRANCH  58  72
BRANCH  59  83
ATOM     83  C   UNL A   1      50.786  27.880  25.712  1.00  0.00     0.064 A 
ATOM     84  C   UNL A   1      51.758  27.634  26.691  1.00  0.00     0.173 A 
ATOM     85  C   UNL A   1      51.214  28.028  24.386  1.00  0.00     0.173 A 
ATOM     86  F   UNL A   1      51.396  27.510  27.977  1.00  0.00    -0.203 F 
ATOM     87  C   UNL A   1      53.107  27.540  26.357  1.00  0.00     0.198 A 
ATOM     88  C   UNL A   1      52.561  27.914  24.049  1.00  0.00     0.198 A 
ATOM     89  F   UNL A   1      50.320  28.269  23.415  1.00  0.00    -0.203 F 
ATOM     90  F   UNL A   1      54.019  27.331  27.314  1.00  0.00    -0.200 F 
ATOM     91  C   UNL A   1      53.506  27.673  25.035  1.00  0.00     0.200 A 
ATOM     92  F   UNL A   1      52.943  28.035  22.770  1.00  0.00    -0.200 F 
ATOM     93  F   UNL A   1      54.803  27.576  24.712  1.00  0.00    -0.200 F 
ENDBRANCH  59  83
BRANCH  71  94
ATOM     94  C   UNL A   1      46.842  32.888  28.520  1.00  0.00     0.064 A 
ATOM     95  C   UNL A   1      47.294  33.183  29.814  1.00  0.00     0.173 A 
ATOM     96  C   UNL A   1      46.726  33.946  27.605  1.00  0.00     0.173 A 
ATOM     97  F   UNL A   1      47.407  32.206  30.727  1.00  0.00    -0.203 F 
ATOM     98  C   UNL A   1      47.611  34.488  30.181  1.00  0.00     0.198 A 
ATOM     99  C   UNL A   1      47.063  35.246  27.969  1.00  0.00     0.198 A 
ATOM    100  F   UNL A   1      46.303  33.713  26.353  1.00  0.00    -0.203 F 
ATOM    101  F   UNL A   1      48.016  34.751  31.430  1.00  0.00    -0.200 F 
ATOM    102  C   UNL A   1      47.502  35.517  29.256  1.00  0.00     0.200 A 
ATOM    103  F   UNL A   1      46.967  36.238  27.073  1.00  0.00    -0.200 F 
ATOM    104  F   UNL A   1      47.819  36.770  29.608  1.00  0.00    -0.200 F 
ENDBRANCH  71  94
ENDBRANCH  45  46
ENDBRANCH  37  40
ENDBRANCH  35  36
ENDBRANCH  34  35
ENDBRANCH   1  34
TORSDOF 15
ENDMDL
