MODEL 1
REMARK VINA RESULT:     -13.7      0.000      0.000
REMARK SMILES CC[C@@H](Sc1nnc2ccc3ccccc3n12)C(=O)Nc1cccc(C(=O)NCCCNC(=O)c2ccc(-c3c4nc(c(-c5c(F)c(F)c(F)c(F)c5F)c5ccc([nH]5)c(-c5c(F)c(F)c(F)c(F)c5F)c5nc(c(-c6c(F)c(F)c(F)c(F)c6F)c6ccc3[nH]6)C=C5)C=C4)cc2)c1
REMARK SMILES IDX 29 1 28 2 26 3 27 4 25 6 21 7 22 8 98 9 23 10 24 11 20 12
REMARK SMILES IDX 18 13 19 14 3 16 2 17 1 18 4 19 5 20 6 21 17 22 7 23 8 24
REMARK SMILES IDX 16 25 9 26 11 27 15 28 10 29 12 30 14 31 13 32 30 33 31 34
REMARK SMILES IDX 32 35 33 36 34 38 35 39 36 40 97 41 37 42 96 43 38 44 39 45
REMARK SMILES IDX 40 46 90 47 41 48 95 49 89 50 91 51 42 52 94 53 88 54 87 55
REMARK SMILES IDX 43 57 75 58 55 59 74 60 56 61 59 62 73 63 92 64 57 65 58 66
REMARK SMILES IDX 72 68 93 69 60 70 44 71 45 72 53 73 46 74 47 75 51 76 54 77
REMARK SMILES IDX 48 78 49 79 52 80 50 81 76 82 77 83 85 84 78 85 79 86 83 87
REMARK SMILES IDX 86 88 80 89 81 90 84 91 82 92 61 93 62 94 70 95 63 96 64 97
REMARK SMILES IDX 68 98 71 99 65 100 66 101 69 102 67 103
REMARK H PARENT 28 5 20 15 32 37 91 56 59 67
REMARK Flexibility Score: inf
ROOT
ATOM      1  C   UNL A   1      32.237  30.250  26.881  1.00  0.00     0.118 C 
ENDROOT
BRANCH   1   2
ATOM      2  N   UNL A   1      33.045  29.513  25.932  1.00  0.00    -0.352 N 
ATOM      3  C   UNL A   1      32.802  28.470  25.077  1.00  0.00     0.251 C 
ATOM      4  O   UNL A   1      33.749  28.121  24.365  1.00  0.00    -0.269 OA
ATOM      5  H   UNL A   1      33.975  29.831  25.893  1.00  0.00     0.163 HD
BRANCH   3   6
ATOM      6  C   UNL A   1      31.518  27.716  24.983  1.00  0.00     0.041 A 
ATOM      7  C   UNL A   1      29.964  25.993  25.672  1.00  0.00     0.041 A 
ATOM      8  C   UNL A   1      29.161  26.265  24.579  1.00  0.00     0.026 A 
ATOM      9  C   UNL A   1      31.016  26.859  25.963  1.00  0.00     0.040 A 
ATOM     10  C   UNL A   1      29.570  27.193  23.627  1.00  0.00     0.003 A 
ATOM     11  C   UNL A   1      30.779  27.864  23.798  1.00  0.00     0.014 A 
BRANCH   7  12
ATOM     12  N   UNL A   1      29.797  24.874  26.501  1.00  0.00    -0.325 N 
ATOM     13  C   UNL A   1      30.438  23.656  26.452  1.00  0.00     0.237 C 
ATOM     14  O   UNL A   1      30.304  22.939  27.456  1.00  0.00    -0.273 OA
ATOM     15  H   UNL A   1      29.128  24.973  27.216  1.00  0.00     0.169 HD
BRANCH  13  16
ATOM     16  C   UNL A   1      31.358  23.166  25.298  1.00  0.00     0.144 C 
BRANCH  16  17
ATOM     17  C   UNL A   1      30.901  23.711  23.940  1.00  0.00     0.021 C 
ATOM     18  C   UNL A   1      31.962  24.306  23.025  1.00  0.00     0.005 C 
ENDBRANCH  16  17
BRANCH  16  19
ATOM     19  S   UNL A   1      33.109  23.300  25.880  1.00  0.00    -0.072 SA
BRANCH  19  20
ATOM     20  C   UNL A   1      33.851  21.808  25.426  1.00  0.00     0.196 A 
ATOM     21  N   UNL A   1      33.148  20.832  24.895  1.00  0.00    -0.122 NA
ATOM     22  N   UNL A   1      35.203  21.478  25.408  1.00  0.00    -0.270 N 
ATOM     23  N   UNL A   1      33.983  19.789  24.627  1.00  0.00    -0.129 NA
ATOM     24  C   UNL A   1      35.204  20.165  24.929  1.00  0.00     0.161 A 
ATOM     25  C   UNL A   1      36.419  22.162  25.723  1.00  0.00     0.057 A 
ATOM     26  C   UNL A   1      36.416  19.447  24.810  1.00  0.00     0.050 A 
ATOM     27  C   UNL A   1      37.619  21.436  25.528  1.00  0.00    -0.001 A 
ATOM     28  C   UNL A   1      36.489  23.483  26.170  1.00  0.00     0.027 A 
ATOM     29  C   UNL A   1      37.585  20.038  25.086  1.00  0.00     0.014 A 
ATOM     30  C   UNL A   1      38.860  22.044  25.751  1.00  0.00     0.010 A 
ATOM     31  C   UNL A   1      37.740  24.078  26.393  1.00  0.00     0.002 A 
ATOM     32  C   UNL A   1      38.919  23.368  26.178  1.00  0.00     0.001 A 
ENDBRANCH  19  20
ENDBRANCH  16  19
ENDBRANCH  13  16
ENDBRANCH   7  12
ENDBRANCH   3   6
ENDBRANCH   1   2
BRANCH   1  33
ATOM     33  C   UNL A   1      32.797  31.612  27.257  1.00  0.00     0.042 C 
BRANCH  33  34
ATOM     34  C   UNL A   1      34.274  31.647  27.622  1.00  0.00     0.118 C 
BRANCH  34  35
ATOM     35  N   UNL A   1      34.542  31.792  29.036  1.00  0.00    -0.352 N 
ATOM     36  C   UNL A   1      35.613  31.531  29.836  1.00  0.00     0.251 C 
ATOM     37  H   UNL A   1      33.778  32.165  29.533  1.00  0.00     0.163 HD
ATOM     38  O   UNL A   1      35.542  31.966  30.995  1.00  0.00    -0.269 OA
BRANCH  36  39
ATOM     39  C   UNL A   1      36.784  30.697  29.466  1.00  0.00     0.039 A 
ATOM     40  C   UNL A   1      36.750  29.333  29.175  1.00  0.00     0.014 A 
ATOM     41  C   UNL A   1      38.036  31.328  29.588  1.00  0.00     0.014 A 
ATOM     42  C   UNL A   1      37.914  28.578  29.227  1.00  0.00     0.010 A 
ATOM     43  C   UNL A   1      39.207  30.590  29.591  1.00  0.00     0.010 A 
ATOM     44  C   UNL A   1      39.126  29.205  29.514  1.00  0.00    -0.014 A 
BRANCH  44  45
ATOM     45  C   UNL A   1      40.298  28.376  29.749  1.00  0.00     0.031 A 
ATOM     46  C   UNL A   1      40.719  28.231  31.169  1.00  0.00     0.074 A 
ATOM     47  C   UNL A   1      40.905  27.723  28.737  1.00  0.00     0.049 A 
ATOM     48  N   UNL A   1      41.856  28.540  31.705  1.00  0.00    -0.248 NA
ATOM     49  C   UNL A   1      39.709  27.772  32.135  1.00  0.00     0.031 C 
ATOM     50  C   UNL A   1      40.485  27.591  27.339  1.00  0.00     0.029 A 
ATOM     51  N   UNL A   1      42.027  26.956  28.786  1.00  0.00    -0.354 N 
ATOM     52  C   UNL A   1      41.760  28.199  33.054  1.00  0.00     0.074 A 
ATOM     53  C   UNL A   1      40.386  27.828  33.283  1.00  0.00     0.031 C 
ATOM     54  C   UNL A   1      41.209  26.618  26.742  1.00  0.00     0.029 A 
ATOM     55  C   UNL A   1      42.229  26.160  27.669  1.00  0.00     0.049 A 
ATOM     56  H   UNL A   1      42.645  26.966  29.552  1.00  0.00     0.167 HD
ATOM     57  C   UNL A   1      42.853  28.108  33.861  1.00  0.00     0.037 A 
ATOM     58  C   UNL A   1      43.132  25.155  27.559  1.00  0.00     0.037 A 
ATOM     59  C   UNL A   1      43.986  28.789  33.298  1.00  0.00     0.049 A 
ATOM     60  C   UNL A   1      44.172  25.386  28.596  1.00  0.00     0.074 A 
ATOM     61  C   UNL A   1      44.274  30.112  33.027  1.00  0.00     0.029 A 
ATOM     62  N   UNL A   1      44.908  28.059  32.590  1.00  0.00    -0.354 N 
ATOM     63  N   UNL A   1      45.014  26.383  28.556  1.00  0.00    -0.248 NA
ATOM     64  C   UNL A   1      43.956  24.803  29.914  1.00  0.00     0.031 C 
ATOM     65  C   UNL A   1      45.000  30.088  31.800  1.00  0.00     0.029 A 
ATOM     66  C   UNL A   1      45.159  28.752  31.431  1.00  0.00     0.049 A 
ATOM     67  H   UNL A   1      45.313  27.202  32.861  1.00  0.00     0.167 HD
ATOM     68  C   UNL A   1      45.112  26.820  29.869  1.00  0.00     0.074 A 
ATOM     69  C   UNL A   1      44.493  25.766  30.671  1.00  0.00     0.031 C 
ATOM     70  C   UNL A   1      45.419  28.118  30.163  1.00  0.00     0.037 A 
BRANCH  57  71
ATOM     71  C   UNL A   1      42.976  27.189  35.047  1.00  0.00     0.064 A 
ATOM     72  C   UNL A   1      43.327  27.709  36.309  1.00  0.00     0.173 A 
ATOM     73  C   UNL A   1      43.034  25.784  34.929  1.00  0.00     0.173 A 
ATOM     74  F   UNL A   1      43.323  29.032  36.530  1.00  0.00    -0.203 F 
ATOM     75  C   UNL A   1      43.765  26.886  37.351  1.00  0.00     0.198 A 
ATOM     76  C   UNL A   1      43.423  24.963  35.986  1.00  0.00     0.198 A 
ATOM     77  F   UNL A   1      42.821  25.165  33.761  1.00  0.00    -0.203 F 
ATOM     78  F   UNL A   1      44.193  27.433  38.497  1.00  0.00    -0.200 F 
ATOM     79  C   UNL A   1      43.818  25.514  37.186  1.00  0.00     0.200 A 
ATOM     80  F   UNL A   1      43.482  23.636  35.801  1.00  0.00    -0.200 F 
ATOM     81  F   UNL A   1      44.290  24.727  38.163  1.00  0.00    -0.200 F 
ENDBRANCH  57  71
BRANCH  58  82
ATOM     82  C   UNL A   1      42.964  23.861  26.855  1.00  0.00     0.064 A 
ATOM     83  C   UNL A   1      43.731  23.536  25.725  1.00  0.00     0.173 A 
ATOM     84  C   UNL A   1      42.230  22.808  27.437  1.00  0.00     0.173 A 
ATOM     85  F   UNL A   1      44.497  24.467  25.140  1.00  0.00    -0.203 F 
ATOM     86  C   UNL A   1      43.773  22.231  25.219  1.00  0.00     0.198 A 
ATOM     87  C   UNL A   1      42.268  21.509  26.927  1.00  0.00     0.198 A 
ATOM     88  F   UNL A   1      41.535  22.995  28.567  1.00  0.00    -0.203 F 
ATOM     89  F   UNL A   1      44.559  21.944  24.172  1.00  0.00    -0.200 F 
ATOM     90  C   UNL A   1      43.048  21.217  25.826  1.00  0.00     0.200 A 
ATOM     91  F   UNL A   1      41.592  20.532  27.549  1.00  0.00    -0.200 F 
ATOM     92  F   UNL A   1      43.134  19.957  25.377  1.00  0.00    -0.200 F 
ENDBRANCH  58  82
BRANCH  70  93
ATOM     93  C   UNL A   1      45.808  29.014  29.018  1.00  0.00     0.064 A 
ATOM     94  C   UNL A   1      44.877  29.751  28.264  1.00  0.00     0.173 A 
ATOM     95  C   UNL A   1      47.164  29.258  28.774  1.00  0.00     0.173 A 
ATOM     96  F   UNL A   1      43.568  29.668  28.521  1.00  0.00    -0.203 F 
ATOM     97  C   UNL A   1      45.281  30.643  27.274  1.00  0.00     0.198 A 
ATOM     98  C   UNL A   1      47.569  30.180  27.808  1.00  0.00     0.198 A 
ATOM     99  F   UNL A   1      48.100  28.641  29.510  1.00  0.00    -0.203 F 
ATOM    100  F   UNL A   1      44.366  31.321  26.566  1.00  0.00    -0.200 F 
ATOM    101  C   UNL A   1      46.629  30.861  27.050  1.00  0.00     0.200 A 
ATOM    102  F   UNL A   1      48.874  30.429  27.634  1.00  0.00    -0.200 F 
ATOM    103  F   UNL A   1      47.023  31.747  26.125  1.00  0.00    -0.200 F 
ENDBRANCH  70  93
ENDBRANCH  44  45
ENDBRANCH  36  39
ENDBRANCH  34  35
ENDBRANCH  33  34
ENDBRANCH   1  33
TORSDOF 15
ENDMDL
MODEL 2
REMARK VINA RESULT:     -13.6      1.257      2.053
REMARK SMILES CC[C@@H](Sc1nnc2ccc3ccccc3n12)C(=O)Nc1cccc(C(=O)NCCCNC(=O)c2ccc(-c3c4nc(c(-c5c(F)c(F)c(F)c(F)c5F)c5ccc([nH]5)c(-c5c(F)c(F)c(F)c(F)c5F)c5nc(c(-c6c(F)c(F)c(F)c(F)c6F)c6ccc3[nH]6)C=C5)C=C4)cc2)c1
REMARK SMILES IDX 29 1 28 2 26 3 27 4 25 6 21 7 22 8 98 9 23 10 24 11 20 12
REMARK SMILES IDX 18 13 19 14 3 16 2 17 1 18 4 19 5 20 6 21 17 22 7 23 8 24
REMARK SMILES IDX 16 25 9 26 11 27 15 28 10 29 12 30 14 31 13 32 30 33 31 34
REMARK SMILES IDX 32 35 33 36 34 38 35 39 36 40 97 41 37 42 96 43 38 44 39 45
REMARK SMILES IDX 40 46 90 47 41 48 95 49 89 50 91 51 42 52 94 53 88 54 87 55
REMARK SMILES IDX 43 57 75 58 55 59 74 60 56 61 59 62 73 63 92 64 57 65 58 66
REMARK SMILES IDX 72 68 93 69 60 70 44 71 45 72 53 73 46 74 47 75 51 76 54 77
REMARK SMILES IDX 48 78 49 79 52 80 50 81 76 82 77 83 85 84 78 85 79 86 83 87
REMARK SMILES IDX 86 88 80 89 81 90 84 91 82 92 61 93 62 94 70 95 63 96 64 97
REMARK SMILES IDX 68 98 71 99 65 100 66 101 69 102 67 103
REMARK H PARENT 28 5 20 15 32 37 91 56 59 67
REMARK Flexibility Score: inf
ROOT
ATOM      1  C   UNL A   1      32.222  29.402  26.222  1.00  0.00     0.118 C 
ENDROOT
BRANCH   1   2
ATOM      2  N   UNL A   1      31.383  29.985  25.196  1.00  0.00    -0.352 N 
ATOM      3  C   UNL A   1      30.689  29.480  24.127  1.00  0.00     0.251 C 
ATOM      4  O   UNL A   1      30.028  30.295  23.476  1.00  0.00    -0.269 OA
ATOM      5  H   UNL A   1      31.290  30.961  25.286  1.00  0.00     0.163 HD
BRANCH   3   6
ATOM      6  C   UNL A   1      30.716  28.057  23.679  1.00  0.00     0.041 A 
ATOM      7  C   UNL A   1      30.340  25.686  23.981  1.00  0.00     0.041 A 
ATOM      8  C   UNL A   1      30.997  25.419  22.794  1.00  0.00     0.026 A 
ATOM      9  C   UNL A   1      30.034  27.008  24.296  1.00  0.00     0.040 A 
ATOM     10  C   UNL A   1      31.602  26.451  22.085  1.00  0.00     0.003 A 
ATOM     11  C   UNL A   1      31.518  27.756  22.567  1.00  0.00     0.014 A 
BRANCH   7  12
ATOM     12  N   UNL A   1      29.980  24.698  24.910  1.00  0.00    -0.325 N 
ATOM     13  C   UNL A   1      30.766  24.054  25.839  1.00  0.00     0.237 C 
ATOM     14  O   UNL A   1      30.153  23.423  26.715  1.00  0.00    -0.273 OA
ATOM     15  H   UNL A   1      29.034  24.427  24.894  1.00  0.00     0.169 HD
BRANCH  13  16
ATOM     16  C   UNL A   1      32.317  24.130  25.917  1.00  0.00     0.144 C 
BRANCH  16  17
ATOM     17  C   UNL A   1      32.801  25.564  26.169  1.00  0.00     0.021 C 
ATOM     18  C   UNL A   1      33.848  26.131  25.221  1.00  0.00     0.005 C 
ENDBRANCH  16  17
BRANCH  16  19
ATOM     19  S   UNL A   1      32.900  22.697  26.931  1.00  0.00    -0.072 SA
BRANCH  19  20
ATOM     20  C   UNL A   1      34.512  22.390  26.393  1.00  0.00     0.196 A 
ATOM     21  N   UNL A   1      35.491  23.223  26.669  1.00  0.00    -0.122 NA
ATOM     22  N   UNL A   1      35.023  21.253  25.773  1.00  0.00    -0.270 N 
ATOM     23  N   UNL A   1      36.646  22.731  26.137  1.00  0.00    -0.129 NA
ATOM     24  C   UNL A   1      36.375  21.562  25.603  1.00  0.00     0.161 A 
ATOM     25  C   UNL A   1      34.484  19.993  25.363  1.00  0.00     0.057 A 
ATOM     26  C   UNL A   1      37.240  20.655  24.951  1.00  0.00     0.050 A 
ATOM     27  C   UNL A   1      35.393  19.081  24.774  1.00  0.00    -0.001 A 
ATOM     28  C   UNL A   1      33.153  19.609  25.535  1.00  0.00     0.027 A 
ATOM     29  C   UNL A   1      36.792  19.459  24.550  1.00  0.00     0.014 A 
ATOM     30  C   UNL A   1      34.970  17.800  24.398  1.00  0.00     0.010 A 
ATOM     31  C   UNL A   1      32.742  18.324  25.151  1.00  0.00     0.002 A 
ATOM     32  C   UNL A   1      33.645  17.421  24.593  1.00  0.00     0.001 A 
ENDBRANCH  19  20
ENDBRANCH  16  19
ENDBRANCH  13  16
ENDBRANCH   7  12
ENDBRANCH   3   6
ENDBRANCH   1   2
BRANCH   1  33
ATOM     33  C   UNL A   1      33.710  29.642  26.028  1.00  0.00     0.042 C 
BRANCH  33  34
ATOM     34  C   UNL A   1      34.555  29.645  27.295  1.00  0.00     0.118 C 
BRANCH  34  35
ATOM     35  N   UNL A   1      34.416  30.833  28.108  1.00  0.00    -0.352 N 
ATOM     36  C   UNL A   1      35.236  31.505  28.963  1.00  0.00     0.251 C 
ATOM     37  H   UNL A   1      33.529  31.252  28.024  1.00  0.00     0.163 HD
ATOM     38  O   UNL A   1      34.830  32.611  29.346  1.00  0.00    -0.269 OA
BRANCH  36  39
ATOM     39  C   UNL A   1      36.500  30.979  29.540  1.00  0.00     0.039 A 
ATOM     40  C   UNL A   1      37.765  31.541  29.368  1.00  0.00     0.014 A 
ATOM     41  C   UNL A   1      36.401  29.723  30.166  1.00  0.00     0.014 A 
ATOM     42  C   UNL A   1      38.904  30.784  29.606  1.00  0.00     0.010 A 
ATOM     43  C   UNL A   1      37.533  28.981  30.453  1.00  0.00     0.010 A 
ATOM     44  C   UNL A   1      38.773  29.477  30.073  1.00  0.00    -0.014 A 
BRANCH  44  45
ATOM     45  C   UNL A   1      39.962  28.640  30.136  1.00  0.00     0.031 A 
ATOM     46  C   UNL A   1      40.574  28.479  31.483  1.00  0.00     0.074 A 
ATOM     47  C   UNL A   1      40.419  27.994  29.044  1.00  0.00     0.049 A 
ATOM     48  N   UNL A   1      41.777  28.776  31.859  1.00  0.00    -0.248 NA
ATOM     49  C   UNL A   1      39.705  28.014  32.575  1.00  0.00     0.031 C 
ATOM     50  C   UNL A   1      39.808  27.879  27.716  1.00  0.00     0.029 A 
ATOM     51  N   UNL A   1      41.532  27.222  28.929  1.00  0.00    -0.354 N 
ATOM     52  C   UNL A   1      41.866  28.421  33.205  1.00  0.00     0.074 A 
ATOM     53  C   UNL A   1      40.535  28.054  33.618  1.00  0.00     0.031 C 
ATOM     54  C   UNL A   1      40.437  26.909  27.015  1.00  0.00     0.029 A 
ATOM     55  C   UNL A   1      41.572  26.437  27.787  1.00  0.00     0.049 A 
ATOM     56  H   UNL A   1      42.250  27.221  29.602  1.00  0.00     0.167 HD
ATOM     57  C   UNL A   1      43.060  28.318  33.852  1.00  0.00     0.037 A 
ATOM     58  C   UNL A   1      42.446  25.429  27.543  1.00  0.00     0.037 A 
ATOM     59  C   UNL A   1      44.108  28.999  33.143  1.00  0.00     0.049 A 
ATOM     60  C   UNL A   1      43.621  25.645  28.428  1.00  0.00     0.074 A 
ATOM     61  C   UNL A   1      44.363  30.324  32.848  1.00  0.00     0.029 A 
ATOM     62  N   UNL A   1      44.919  28.272  32.307  1.00  0.00    -0.354 N 
ATOM     63  N   UNL A   1      44.455  26.638  28.282  1.00  0.00    -0.248 NA
ATOM     64  C   UNL A   1      43.586  25.049  29.758  1.00  0.00     0.031 C 
ATOM     65  C   UNL A   1      44.912  30.309  31.532  1.00  0.00     0.029 A 
ATOM     66  C   UNL A   1      45.011  28.976  31.132  1.00  0.00     0.049 A 
ATOM     67  H   UNL A   1      45.352  27.411  32.512  1.00  0.00     0.167 HD
ATOM     68  C   UNL A   1      44.736  27.060  29.573  1.00  0.00     0.074 A 
ATOM     69  C   UNL A   1      44.228  26.001  30.443  1.00  0.00     0.031 C 
ATOM     70  C   UNL A   1      45.089  28.354  29.833  1.00  0.00     0.037 A 
BRANCH  57  71
ATOM     71  C   UNL A   1      43.340  27.385  35.000  1.00  0.00     0.064 A 
ATOM     72  C   UNL A   1      43.695  27.907  36.261  1.00  0.00     0.173 A 
ATOM     73  C   UNL A   1      43.545  25.999  34.834  1.00  0.00     0.173 A 
ATOM     74  F   UNL A   1      43.558  29.215  36.524  1.00  0.00    -0.203 F 
ATOM     75  C   UNL A   1      44.270  27.108  37.254  1.00  0.00     0.198 A 
ATOM     76  C   UNL A   1      44.072  25.198  35.845  1.00  0.00     0.198 A 
ATOM     77  F   UNL A   1      43.343  25.392  33.658  1.00  0.00    -0.203 F 
ATOM     78  F   UNL A   1      44.694  27.668  38.396  1.00  0.00    -0.200 F 
ATOM     79  C   UNL A   1      44.464  25.756  37.043  1.00  0.00     0.200 A 
ATOM     80  F   UNL A   1      44.266  23.891  35.615  1.00  0.00    -0.200 F 
ATOM     81  F   UNL A   1      45.066  25.000  37.971  1.00  0.00    -0.200 F 
ENDBRANCH  57  71
BRANCH  58  82
ATOM     82  C   UNL A   1      42.174  24.143  26.857  1.00  0.00     0.064 A 
ATOM     83  C   UNL A   1      43.138  23.527  26.044  1.00  0.00     0.173 A 
ATOM     84  C   UNL A   1      41.053  23.361  27.199  1.00  0.00     0.173 A 
ATOM     85  F   UNL A   1      44.259  24.184  25.713  1.00  0.00    -0.203 F 
ATOM     86  C   UNL A   1      42.996  22.203  25.613  1.00  0.00     0.198 A 
ATOM     87  C   UNL A   1      40.909  22.042  26.763  1.00  0.00     0.198 A 
ATOM     88  F   UNL A   1      40.118  23.825  28.039  1.00  0.00    -0.203 F 
ATOM     89  F   UNL A   1      43.963  21.628  24.884  1.00  0.00    -0.200 F 
ATOM     90  C   UNL A   1      41.886  21.459  25.981  1.00  0.00     0.200 A 
ATOM     91  F   UNL A   1      39.848  21.324  27.159  1.00  0.00    -0.200 F 
ATOM     92  F   UNL A   1      41.777  20.173  25.617  1.00  0.00    -0.200 F 
ENDBRANCH  58  82
BRANCH  70  93
ATOM     93  C   UNL A   1      45.321  29.260  28.655  1.00  0.00     0.064 A 
ATOM     94  C   UNL A   1      44.298  30.008  28.043  1.00  0.00     0.173 A 
ATOM     95  C   UNL A   1      46.632  29.503  28.229  1.00  0.00     0.173 A 
ATOM     96  F   UNL A   1      43.037  29.926  28.476  1.00  0.00    -0.203 F 
ATOM     97  C   UNL A   1      44.567  30.908  27.015  1.00  0.00     0.198 A 
ATOM     98  C   UNL A   1      46.904  30.432  27.226  1.00  0.00     0.198 A 
ATOM     99  F   UNL A   1      47.658  28.875  28.824  1.00  0.00    -0.203 F 
ATOM    100  F   UNL A   1      43.566  31.596  26.445  1.00  0.00    -0.200 F 
ATOM    101  C   UNL A   1      45.872  31.123  26.610  1.00  0.00     0.200 A 
ATOM    102  F   UNL A   1      48.174  30.679  26.876  1.00  0.00    -0.200 F 
ATOM    103  F   UNL A   1      46.139  32.018  25.648  1.00  0.00    -0.200 F 
ENDBRANCH  70  93
ENDBRANCH  44  45
ENDBRANCH  36  39
ENDBRANCH  34  35
ENDBRANCH  33  34
ENDBRANCH   1  33
TORSDOF 15
ENDMDL
MODEL 3
REMARK VINA RESULT:     -13.6      1.713      3.471
REMARK SMILES CC[C@@H](Sc1nnc2ccc3ccccc3n12)C(=O)Nc1cccc(C(=O)NCCCNC(=O)c2ccc(-c3c4nc(c(-c5c(F)c(F)c(F)c(F)c5F)c5ccc([nH]5)c(-c5c(F)c(F)c(F)c(F)c5F)c5nc(c(-c6c(F)c(F)c(F)c(F)c6F)c6ccc3[nH]6)C=C5)C=C4)cc2)c1
REMARK SMILES IDX 29 1 28 2 26 3 27 4 25 6 21 7 22 8 98 9 23 10 24 11 20 12
REMARK SMILES IDX 18 13 19 14 3 16 2 17 1 18 4 19 5 20 6 21 17 22 7 23 8 24
REMARK SMILES IDX 16 25 9 26 11 27 15 28 10 29 12 30 14 31 13 32 30 33 31 34
REMARK SMILES IDX 32 35 33 36 34 38 35 39 36 40 97 41 37 42 96 43 38 44 39 45
REMARK SMILES IDX 40 46 90 47 41 48 95 49 89 50 91 51 42 52 94 53 88 54 87 55
REMARK SMILES IDX 43 57 75 58 55 59 74 60 56 61 59 62 73 63 92 64 57 65 58 66
REMARK SMILES IDX 72 68 93 69 60 70 44 71 45 72 53 73 46 74 47 75 51 76 54 77
REMARK SMILES IDX 48 78 49 79 52 80 50 81 76 82 77 83 85 84 78 85 79 86 83 87
REMARK SMILES IDX 86 88 80 89 81 90 84 91 82 92 61 93 62 94 70 95 63 96 64 97
REMARK SMILES IDX 68 98 71 99 65 100 66 101 69 102 67 103
REMARK H PARENT 28 5 20 15 32 37 91 56 59 67
REMARK Flexibility Score: inf
ROOT
ATOM      1  C   UNL A   1      33.952  30.899  27.851  1.00  0.00     0.118 C 
ENDROOT
BRANCH   1   2
ATOM      2  N   UNL A   1      32.842  30.995  26.926  1.00  0.00    -0.352 N 
ATOM      3  C   UNL A   1      32.124  30.083  26.198  1.00  0.00     0.251 C 
ATOM      4  O   UNL A   1      31.190  30.537  25.530  1.00  0.00    -0.269 OA
ATOM      5  H   UNL A   1      32.535  31.920  26.791  1.00  0.00     0.163 HD
BRANCH   3   6
ATOM      6  C   UNL A   1      32.415  28.622  26.122  1.00  0.00     0.041 A 
ATOM      7  C   UNL A   1      31.827  26.283  26.334  1.00  0.00     0.041 A 
ATOM      8  C   UNL A   1      33.146  25.922  26.124  1.00  0.00     0.026 A 
ATOM      9  C   UNL A   1      31.454  27.609  26.126  1.00  0.00     0.040 A 
ATOM     10  C   UNL A   1      34.126  26.900  26.007  1.00  0.00     0.003 A 
ATOM     11  C   UNL A   1      33.767  28.245  26.076  1.00  0.00     0.014 A 
BRANCH   7  12
ATOM     12  N   UNL A   1      30.836  25.392  26.771  1.00  0.00    -0.325 N 
ATOM     13  C   UNL A   1      30.674  24.059  26.467  1.00  0.00     0.237 C 
ATOM     14  O   UNL A   1      29.882  23.436  27.192  1.00  0.00    -0.273 OA
ATOM     15  H   UNL A   1      30.164  25.773  27.380  1.00  0.00     0.169 HD
BRANCH  13  16
ATOM     16  C   UNL A   1      31.453  23.283  25.368  1.00  0.00     0.144 C 
BRANCH  16  17
ATOM     17  C   UNL A   1      31.598  21.797  25.720  1.00  0.00     0.021 C 
ATOM     18  C   UNL A   1      32.195  20.877  24.665  1.00  0.00     0.005 C 
ENDBRANCH  16  17
BRANCH  16  19
ATOM     19  S   UNL A   1      30.826  23.853  23.725  1.00  0.00    -0.072 SA
BRANCH  19  20
ATOM     20  C   UNL A   1      32.018  24.961  23.145  1.00  0.00     0.196 A 
ATOM     21  N   UNL A   1      33.207  24.543  22.768  1.00  0.00    -0.122 NA
ATOM     22  N   UNL A   1      31.886  26.318  22.868  1.00  0.00    -0.270 N 
ATOM     23  N   UNL A   1      33.934  25.618  22.350  1.00  0.00    -0.129 NA
ATOM     24  C   UNL A   1      33.156  26.675  22.407  1.00  0.00     0.161 A 
ATOM     25  C   UNL A   1      30.819  27.268  22.937  1.00  0.00     0.057 A 
ATOM     26  C   UNL A   1      33.441  28.015  22.060  1.00  0.00     0.050 A 
ATOM     27  C   UNL A   1      31.121  28.586  22.518  1.00  0.00    -0.001 A 
ATOM     28  C   UNL A   1      29.520  26.969  23.353  1.00  0.00     0.027 A 
ATOM     29  C   UNL A   1      32.480  28.946  22.101  1.00  0.00     0.014 A 
ATOM     30  C   UNL A   1      30.124  29.569  22.491  1.00  0.00     0.010 A 
ATOM     31  C   UNL A   1      28.532  27.964  23.325  1.00  0.00     0.002 A 
ATOM     32  C   UNL A   1      28.828  29.255  22.890  1.00  0.00     0.001 A 
ENDBRANCH  19  20
ENDBRANCH  16  19
ENDBRANCH  13  16
ENDBRANCH   7  12
ENDBRANCH   3   6
ENDBRANCH   1   2
BRANCH   1  33
ATOM     33  C   UNL A   1      34.956  32.036  27.747  1.00  0.00     0.042 C 
BRANCH  33  34
ATOM     34  C   UNL A   1      34.776  33.176  28.740  1.00  0.00     0.118 C 
BRANCH  34  35
ATOM     35  N   UNL A   1      34.767  32.769  30.128  1.00  0.00    -0.352 N 
ATOM     36  C   UNL A   1      35.579  31.997  30.901  1.00  0.00     0.251 C 
ATOM     37  H   UNL A   1      34.001  33.135  30.628  1.00  0.00     0.163 HD
ATOM     38  O   UNL A   1      35.353  32.024  32.120  1.00  0.00    -0.269 OA
BRANCH  36  39
ATOM     39  C   UNL A   1      36.622  31.067  30.398  1.00  0.00     0.039 A 
ATOM     40  C   UNL A   1      36.522  29.675  30.366  1.00  0.00     0.014 A 
ATOM     41  C   UNL A   1      37.860  31.660  30.088  1.00  0.00     0.014 A 
ATOM     42  C   UNL A   1      37.665  28.896  30.252  1.00  0.00     0.010 A 
ATOM     43  C   UNL A   1      38.997  30.888  29.923  1.00  0.00     0.010 A 
ATOM     44  C   UNL A   1      38.906  29.515  30.110  1.00  0.00    -0.014 A 
BRANCH  44  45
ATOM     45  C   UNL A   1      40.105  28.692  30.182  1.00  0.00     0.031 A 
ATOM     46  C   UNL A   1      40.701  28.527  31.535  1.00  0.00     0.074 A 
ATOM     47  C   UNL A   1      40.584  28.061  29.091  1.00  0.00     0.049 A 
ATOM     48  N   UNL A   1      41.895  28.837  31.930  1.00  0.00    -0.248 NA
ATOM     49  C   UNL A   1      39.824  28.043  32.612  1.00  0.00     0.031 C 
ATOM     50  C   UNL A   1      39.992  27.949  27.754  1.00  0.00     0.029 A 
ATOM     51  N   UNL A   1      41.708  27.304  28.985  1.00  0.00    -0.354 N 
ATOM     52  C   UNL A   1      41.971  28.472  33.274  1.00  0.00     0.074 A 
ATOM     53  C   UNL A   1      40.639  28.085  33.667  1.00  0.00     0.031 C 
ATOM     54  C   UNL A   1      40.643  26.992  27.054  1.00  0.00     0.029 A 
ATOM     55  C   UNL A   1      41.774  26.529  27.838  1.00  0.00     0.049 A 
ATOM     56  H   UNL A   1      42.418  27.307  29.667  1.00  0.00     0.167 HD
ATOM     57  C   UNL A   1      43.157  28.378  33.936  1.00  0.00     0.037 A 
ATOM     58  C   UNL A   1      42.663  25.534  27.597  1.00  0.00     0.037 A 
ATOM     59  C   UNL A   1      44.206  29.078  33.247  1.00  0.00     0.049 A 
ATOM     60  C   UNL A   1      43.823  25.757  28.499  1.00  0.00     0.074 A 
ATOM     61  C   UNL A   1      44.448  30.409  32.966  1.00  0.00     0.029 A 
ATOM     62  N   UNL A   1      45.037  28.369  32.416  1.00  0.00    -0.354 N 
ATOM     63  N   UNL A   1      44.647  26.761  28.372  1.00  0.00    -0.248 NA
ATOM     64  C   UNL A   1      43.778  25.150  29.824  1.00  0.00     0.031 C 
ATOM     65  C   UNL A   1      45.015  30.411  31.657  1.00  0.00     0.029 A 
ATOM     66  C   UNL A   1      45.136  29.083  31.248  1.00  0.00     0.049 A 
ATOM     67  H   UNL A   1      45.478  27.511  32.620  1.00  0.00     0.167 HD
ATOM     68  C   UNL A   1      44.906  27.177  29.670  1.00  0.00     0.074 A 
ATOM     69  C   UNL A   1      44.399  26.105  30.524  1.00  0.00     0.031 C 
ATOM     70  C   UNL A   1      45.238  28.473  29.946  1.00  0.00     0.037 A 
BRANCH  57  71
ATOM     71  C   UNL A   1      43.434  27.440  35.081  1.00  0.00     0.064 A 
ATOM     72  C   UNL A   1      43.801  27.955  36.340  1.00  0.00     0.173 A 
ATOM     73  C   UNL A   1      43.623  26.053  34.910  1.00  0.00     0.173 A 
ATOM     74  F   UNL A   1      43.679  29.263  36.608  1.00  0.00    -0.203 F 
ATOM     75  C   UNL A   1      44.373  27.148  37.329  1.00  0.00     0.198 A 
ATOM     76  C   UNL A   1      44.148  25.243  35.916  1.00  0.00     0.198 A 
ATOM     77  F   UNL A   1      43.409  25.451  33.734  1.00  0.00    -0.203 F 
ATOM     78  F   UNL A   1      44.809  27.701  38.470  1.00  0.00    -0.200 F 
ATOM     79  C   UNL A   1      44.552  25.794  37.113  1.00  0.00     0.200 A 
ATOM     80  F   UNL A   1      44.327  23.935  35.682  1.00  0.00    -0.200 F 
ATOM     81  F   UNL A   1      45.151  25.029  38.036  1.00  0.00    -0.200 F 
ENDBRANCH  57  71
BRANCH  58  82
ATOM     82  C   UNL A   1      42.416  24.250  26.897  1.00  0.00     0.064 A 
ATOM     83  C   UNL A   1      43.272  23.791  25.884  1.00  0.00     0.173 A 
ATOM     84  C   UNL A   1      41.481  23.320  27.393  1.00  0.00     0.173 A 
ATOM     85  F   UNL A   1      44.224  24.596  25.390  1.00  0.00    -0.203 F 
ATOM     86  C   UNL A   1      43.205  22.477  25.407  1.00  0.00     0.198 A 
ATOM     87  C   UNL A   1      41.411  22.011  26.913  1.00  0.00     0.198 A 
ATOM     88  F   UNL A   1      40.677  23.632  28.419  1.00  0.00    -0.203 F 
ATOM     89  F   UNL A   1      44.075  22.056  24.477  1.00  0.00    -0.200 F 
ATOM     90  C   UNL A   1      42.281  21.585  25.929  1.00  0.00     0.200 A 
ATOM     91  F   UNL A   1      40.537  21.151  27.456  1.00  0.00    -0.200 F 
ATOM     92  F   UNL A   1      42.256  20.311  25.515  1.00  0.00    -0.200 F 
ENDBRANCH  58  82
BRANCH  70  93
ATOM     93  C   UNL A   1      45.475  29.391  28.778  1.00  0.00     0.064 A 
ATOM     94  C   UNL A   1      44.451  30.131  28.159  1.00  0.00     0.173 A 
ATOM     95  C   UNL A   1      46.788  29.653  28.370  1.00  0.00     0.173 A 
ATOM     96  F   UNL A   1      43.185  30.031  28.574  1.00  0.00    -0.203 F 
ATOM     97  C   UNL A   1      44.722  31.044  27.142  1.00  0.00     0.198 A 
ATOM     98  C   UNL A   1      47.061  30.594  27.379  1.00  0.00     0.198 A 
ATOM     99  F   UNL A   1      47.813  29.034  28.974  1.00  0.00    -0.203 F 
ATOM    100  F   UNL A   1      43.720  31.724  26.564  1.00  0.00    -0.200 F 
ATOM    101  C   UNL A   1      46.029  31.278  26.755  1.00  0.00     0.200 A 
ATOM    102  F   UNL A   1      48.333  30.860  27.047  1.00  0.00    -0.200 F 
ATOM    103  F   UNL A   1      46.298  32.184  25.804  1.00  0.00    -0.200 F 
ENDBRANCH  70  93
ENDBRANCH  44  45
ENDBRANCH  36  39
ENDBRANCH  34  35
ENDBRANCH  33  34
ENDBRANCH   1  33
TORSDOF 15
ENDMDL
