MODEL 1
REMARK VINA RESULT:     -13.6      0.000      0.000
REMARK SMILES O=C1C[C@@H](C(=O)NCCCNC(=O)c2ccc(-c3c4nc(c(-c5c(F)c(F)c(F)c(F)c5F)c5ccc([nH]5)c(-c5c(F)c(F)c(F)c(F)c5F)c5nc(c(-c6c(F)c(F)c(F)c(F)c6F)c6ccc3[nH]6)C=C5)C=C4)cc2)C2(CC[NH+](Cc3c[nH]nc3-c3ccc(Cl)cc3)CC2)N1
REMARK SMILES IDX 8 1 7 2 5 3 6 4 4 6 1 7 2 8 3 9 96 10 77 11 78 13 95 14
REMARK SMILES IDX 79 15 94 16 80 17 81 19 82 20 83 21 86 22 84 23 85 24 87 26
REMARK SMILES IDX 88 27 93 28 89 29 92 30 90 31 91 32 9 33 10 34 11 35 12 36
REMARK SMILES IDX 13 38 14 39 15 40 76 41 16 42 75 43 17 44 18 45 19 46 69 47
REMARK SMILES IDX 20 48 74 49 68 50 70 51 21 52 73 53 67 54 66 55 22 57 54 58
REMARK SMILES IDX 34 59 53 60 35 61 38 62 52 63 71 64 36 65 37 66 51 68 72 69
REMARK SMILES IDX 39 70 23 71 24 72 32 73 25 74 26 75 30 76 33 77 27 78 28 79
REMARK SMILES IDX 31 80 29 81 55 82 56 83 64 84 57 85 58 86 62 87 65 88 59 89
REMARK SMILES IDX 60 90 63 91 61 92 40 93 41 94 49 95 42 96 43 97 47 98 50 99
REMARK SMILES IDX 44 100 45 101 48 102 46 103
REMARK H PARENT 7 5 96 12 80 18 84 25 11 37 70 56 38 67
REMARK Flexibility Score: inf
ROOT
ATOM      1  C   UNL A   1      35.384  20.431  24.973  1.00  0.00     0.117 C 
ENDROOT
BRANCH   1   2
ATOM      2  N   UNL A   1      33.951  20.192  24.880  1.00  0.00    -0.356 N 
ATOM      3  C   UNL A   1      32.851  20.936  25.160  1.00  0.00     0.226 C 
ATOM      4  O   UNL A   1      31.762  20.390  24.944  1.00  0.00    -0.275 OA
ATOM      5  H   UNL A   1      33.732  19.295  24.539  1.00  0.00     0.163 HD
BRANCH   3   6
ATOM      6  C   UNL A   1      32.861  22.336  25.773  1.00  0.00     0.114 C 
ATOM      7  O   UNL A   1      29.892  23.388  27.464  1.00  0.00    -0.275 OA
ATOM      8  C   UNL A   1      30.856  23.197  26.748  1.00  0.00     0.221 C 
ATOM      9  C   UNL A   1      32.102  22.427  27.103  1.00  0.00     0.116 C 
ATOM     10  N   UNL A   1      30.967  23.630  25.445  1.00  0.00    -0.349 N 
ATOM     11  C   UNL A   1      32.312  23.488  24.904  1.00  0.00     0.063 C 
ATOM     12  H   UNL A   1      30.214  23.999  24.931  1.00  0.00     0.164 HD
ATOM     13  C   UNL A   1      32.264  23.180  23.398  1.00  0.00     0.091 C 
ATOM     14  C   UNL A   1      33.042  24.828  25.224  1.00  0.00     0.091 C 
ATOM     15  C   UNL A   1      33.511  23.601  22.638  1.00  0.00     0.264 C 
ATOM     16  C   UNL A   1      34.111  25.280  24.231  1.00  0.00     0.264 C 
ATOM     17  N   UNL A   1      33.825  25.000  22.834  1.00  0.00    -0.331 N 
ATOM     18  H   UNL A   1      34.709  25.173  22.356  1.00  0.00     0.348 HD
BRANCH  17  19
ATOM     19  C   UNL A   1      33.069  25.984  22.044  1.00  0.00     0.303 C 
BRANCH  19  20
ATOM     20  C   UNL A   1      33.163  27.409  22.496  1.00  0.00     0.052 A 
ATOM     21  C   UNL A   1      34.243  28.259  22.330  1.00  0.00     0.115 A 
ATOM     22  C   UNL A   1      32.149  28.267  23.057  1.00  0.00     0.101 A 
ATOM     23  N   UNL A   1      33.916  29.437  22.921  1.00  0.00    -0.285 N 
ATOM     24  N   UNL A   1      32.661  29.469  23.375  1.00  0.00    -0.175 NA
ATOM     25  H   UNL A   1      34.542  30.192  23.006  1.00  0.00     0.189 HD
BRANCH  22  26
ATOM     26  C   UNL A   1      30.718  28.035  23.266  1.00  0.00     0.003 A 
ATOM     27  C   UNL A   1      29.815  29.047  22.907  1.00  0.00     0.012 A 
ATOM     28  C   UNL A   1      30.217  26.863  23.841  1.00  0.00     0.012 A 
ATOM     29  C   UNL A   1      28.438  28.874  23.082  1.00  0.00     0.021 A 
ATOM     30  C   UNL A   1      28.839  26.683  24.011  1.00  0.00     0.021 A 
ATOM     31  C   UNL A   1      27.956  27.688  23.626  1.00  0.00     0.041 A 
ATOM     32  Cl  UNL A   1      26.264  27.463  23.833  1.00  0.00    -0.084 Cl
ENDBRANCH  22  26
ENDBRANCH  19  20
ENDBRANCH  17  19
ENDBRANCH   3   6
ENDBRANCH   1   2
BRANCH   1  33
ATOM     33  C   UNL A   1      35.791  21.882  24.722  1.00  0.00     0.042 C 
BRANCH  33  34
ATOM     34  C   UNL A   1      36.859  22.392  25.682  1.00  0.00     0.118 C 
BRANCH  34  35
ATOM     35  N   UNL A   1      37.816  21.349  26.019  1.00  0.00    -0.352 N 
ATOM     36  C   UNL A   1      39.157  21.430  26.289  1.00  0.00     0.251 C 
ATOM     37  H   UNL A   1      37.439  20.439  26.060  1.00  0.00     0.163 HD
ATOM     38  O   UNL A   1      39.846  20.416  26.224  1.00  0.00    -0.269 OA
BRANCH  36  39
ATOM     39  C   UNL A   1      39.777  22.716  26.671  1.00  0.00     0.039 A 
ATOM     40  C   UNL A   1      39.420  23.872  25.970  1.00  0.00     0.014 A 
ATOM     41  C   UNL A   1      40.764  22.779  27.659  1.00  0.00     0.014 A 
ATOM     42  C   UNL A   1      40.030  25.088  26.279  1.00  0.00     0.010 A 
ATOM     43  C   UNL A   1      41.303  24.008  28.031  1.00  0.00     0.010 A 
ATOM     44  C   UNL A   1      40.961  25.171  27.328  1.00  0.00    -0.014 A 
BRANCH  44  45
ATOM     45  C   UNL A   1      41.604  26.463  27.678  1.00  0.00     0.031 A 
ATOM     46  C   UNL A   1      43.011  26.756  27.227  1.00  0.00     0.074 A 
ATOM     47  C   UNL A   1      40.933  27.355  28.431  1.00  0.00     0.049 A 
ATOM     48  N   UNL A   1      43.748  27.815  27.451  1.00  0.00    -0.248 NA
ATOM     49  C   UNL A   1      43.691  25.713  26.443  1.00  0.00     0.031 C 
ATOM     50  C   UNL A   1      39.584  27.164  28.966  1.00  0.00     0.029 A 
ATOM     51  N   UNL A   1      41.293  28.602  28.879  1.00  0.00    -0.354 N 
ATOM     52  C   UNL A   1      44.975  27.556  26.853  1.00  0.00     0.074 A 
ATOM     53  C   UNL A   1      44.907  26.220  26.305  1.00  0.00     0.031 C 
ATOM     54  C   UNL A   1      39.215  28.267  29.636  1.00  0.00     0.029 A 
ATOM     55  C   UNL A   1      40.316  29.224  29.618  1.00  0.00     0.049 A 
ATOM     56  H   UNL A   1      42.168  29.011  28.689  1.00  0.00     0.167 HD
ATOM     57  C   UNL A   1      46.053  28.369  26.751  1.00  0.00     0.037 A 
ATOM     58  C   UNL A   1      40.314  30.430  30.218  1.00  0.00     0.037 A 
ATOM     59  C   UNL A   1      46.103  29.709  27.271  1.00  0.00     0.049 A 
ATOM     60  C   UNL A   1      41.533  31.306  30.095  1.00  0.00     0.074 A 
ATOM     61  C   UNL A   1      47.120  30.642  27.158  1.00  0.00     0.029 A 
ATOM     62  N   UNL A   1      45.094  30.307  28.013  1.00  0.00    -0.354 N 
ATOM     63  N   UNL A   1      42.654  31.085  29.452  1.00  0.00    -0.248 NA
ATOM     64  C   UNL A   1      41.481  32.606  30.779  1.00  0.00     0.031 C 
ATOM     65  C   UNL A   1      46.753  31.778  27.884  1.00  0.00     0.029 A 
ATOM     66  C   UNL A   1      45.478  31.583  28.392  1.00  0.00     0.049 A 
ATOM     67  H   UNL A   1      44.232  29.885  28.237  1.00  0.00     0.167 HD
ATOM     68  C   UNL A   1      43.424  32.228  29.622  1.00  0.00     0.074 A 
ATOM     69  C   UNL A   1      42.634  33.148  30.413  1.00  0.00     0.031 C 
ATOM     70  C   UNL A   1      44.673  32.492  29.166  1.00  0.00     0.037 A 
BRANCH  57  71
ATOM     71  C   UNL A   1      47.271  27.838  26.049  1.00  0.00     0.064 A 
ATOM     72  C   UNL A   1      47.379  27.836  24.649  1.00  0.00     0.173 A 
ATOM     73  C   UNL A   1      48.373  27.381  26.790  1.00  0.00     0.173 A 
ATOM     74  F   UNL A   1      46.352  28.254  23.893  1.00  0.00    -0.203 F 
ATOM     75  C   UNL A   1      48.530  27.372  24.019  1.00  0.00     0.198 A 
ATOM     76  C   UNL A   1      49.535  26.949  26.156  1.00  0.00     0.198 A 
ATOM     77  F   UNL A   1      48.328  27.366  28.130  1.00  0.00    -0.203 F 
ATOM     78  F   UNL A   1      48.591  27.337  22.680  1.00  0.00    -0.200 F 
ATOM     79  C   UNL A   1      49.611  26.939  24.771  1.00  0.00     0.200 A 
ATOM     80  F   UNL A   1      50.584  26.547  26.886  1.00  0.00    -0.200 F 
ATOM     81  F   UNL A   1      50.724  26.509  24.162  1.00  0.00    -0.200 F 
ENDBRANCH  57  71
BRANCH  58  82
ATOM     82  C   UNL A   1      39.117  30.895  30.968  1.00  0.00     0.064 A 
ATOM     83  C   UNL A   1      38.996  30.666  32.346  1.00  0.00     0.173 A 
ATOM     84  C   UNL A   1      38.056  31.546  30.322  1.00  0.00     0.173 A 
ATOM     85  F   UNL A   1      39.975  30.030  33.007  1.00  0.00    -0.203 F 
ATOM     86  C   UNL A   1      37.847  31.037  33.042  1.00  0.00     0.198 A 
ATOM     87  C   UNL A   1      36.922  31.950  31.026  1.00  0.00     0.198 A 
ATOM     88  F   UNL A   1      38.119  31.796  29.006  1.00  0.00    -0.203 F 
ATOM     89  F   UNL A   1      37.732  30.745  34.345  1.00  0.00    -0.200 F 
ATOM     90  C   UNL A   1      36.812  31.681  32.382  1.00  0.00     0.200 A 
ATOM     91  F   UNL A   1      35.930  32.587  30.387  1.00  0.00    -0.200 F 
ATOM     92  F   UNL A   1      35.706  32.034  33.050  1.00  0.00    -0.200 F 
ENDBRANCH  58  82
BRANCH  70  93
ATOM     93  C   UNL A   1      45.244  33.849  29.465  1.00  0.00     0.064 A 
ATOM     94  C   UNL A   1      46.026  34.088  30.605  1.00  0.00     0.173 A 
ATOM     95  C   UNL A   1      45.038  34.914  28.575  1.00  0.00     0.173 A 
ATOM     96  F   UNL A   1      46.242  33.106  31.494  1.00  0.00    -0.203 F 
ATOM     97  C   UNL A   1      46.553  35.351  30.858  1.00  0.00     0.198 A 
ATOM     98  C   UNL A   1      45.598  36.166  28.813  1.00  0.00     0.198 A 
ATOM     99  F   UNL A   1      44.306  34.737  27.465  1.00  0.00    -0.203 F 
ATOM    100  F   UNL A   1      47.250  35.571  31.982  1.00  0.00    -0.200 F 
ATOM    101  C   UNL A   1      46.347  36.386  29.959  1.00  0.00     0.200 A 
ATOM    102  F   UNL A   1      45.413  37.159  27.932  1.00  0.00    -0.200 F 
ATOM    103  F   UNL A   1      46.864  37.599  30.199  1.00  0.00    -0.200 F 
ENDBRANCH  70  93
ENDBRANCH  44  45
ENDBRANCH  36  39
ENDBRANCH  34  35
ENDBRANCH  33  34
ENDBRANCH   1  33
TORSDOF 13
ENDMDL
MODEL 2
REMARK VINA RESULT:     -13.4      4.371      9.672
REMARK SMILES O=C1C[C@@H](C(=O)NCCCNC(=O)c2ccc(-c3c4nc(c(-c5c(F)c(F)c(F)c(F)c5F)c5ccc([nH]5)c(-c5c(F)c(F)c(F)c(F)c5F)c5nc(c(-c6c(F)c(F)c(F)c(F)c6F)c6ccc3[nH]6)C=C5)C=C4)cc2)C2(CC[NH+](Cc3c[nH]nc3-c3ccc(Cl)cc3)CC2)N1
REMARK SMILES IDX 8 1 7 2 5 3 6 4 4 6 1 7 2 8 3 9 96 10 77 11 78 13 95 14
REMARK SMILES IDX 79 15 94 16 80 17 81 19 82 20 83 21 86 22 84 23 85 24 87 26
REMARK SMILES IDX 88 27 93 28 89 29 92 30 90 31 91 32 9 33 10 34 11 35 12 36
REMARK SMILES IDX 13 38 14 39 15 40 76 41 16 42 75 43 17 44 18 45 19 46 69 47
REMARK SMILES IDX 20 48 74 49 68 50 70 51 21 52 73 53 67 54 66 55 22 57 54 58
REMARK SMILES IDX 34 59 53 60 35 61 38 62 52 63 71 64 36 65 37 66 51 68 72 69
REMARK SMILES IDX 39 70 23 71 24 72 32 73 25 74 26 75 30 76 33 77 27 78 28 79
REMARK SMILES IDX 31 80 29 81 55 82 56 83 64 84 57 85 58 86 62 87 65 88 59 89
REMARK SMILES IDX 60 90 63 91 61 92 40 93 41 94 49 95 42 96 43 97 47 98 50 99
REMARK SMILES IDX 44 100 45 101 48 102 46 103
REMARK H PARENT 7 5 96 12 80 18 84 25 11 37 70 56 38 67
REMARK Flexibility Score: inf
ROOT
ATOM      1  C   UNL A   1      33.184  28.728  22.933  1.00  0.00     0.117 C 
ENDROOT
BRANCH   1   2
ATOM      2  N   UNL A   1      33.422  27.712  21.917  1.00  0.00    -0.356 N 
ATOM      3  C   UNL A   1      32.772  26.581  21.545  1.00  0.00     0.226 C 
ATOM      4  O   UNL A   1      33.278  25.952  20.608  1.00  0.00    -0.275 OA
ATOM      5  H   UNL A   1      34.230  27.885  21.383  1.00  0.00     0.163 HD
BRANCH   3   6
ATOM      6  C   UNL A   1      31.532  26.005  22.229  1.00  0.00     0.114 C 
ATOM      7  O   UNL A   1      30.169  27.873  24.956  1.00  0.00    -0.275 OA
ATOM      8  C   UNL A   1      30.672  27.081  24.183  1.00  0.00     0.221 C 
ATOM      9  C   UNL A   1      30.531  27.076  22.682  1.00  0.00     0.116 C 
ATOM     10  N   UNL A   1      31.506  26.047  24.546  1.00  0.00    -0.349 N 
ATOM     11  C   UNL A   1      31.762  25.107  23.464  1.00  0.00     0.063 C 
ATOM     12  H   UNL A   1      31.890  25.952  25.446  1.00  0.00     0.164 HD
ATOM     13  C   UNL A   1      33.182  24.527  23.570  1.00  0.00     0.091 C 
ATOM     14  C   UNL A   1      30.653  24.016  23.577  1.00  0.00     0.091 C 
ATOM     15  C   UNL A   1      33.346  23.163  22.920  1.00  0.00     0.264 C 
ATOM     16  C   UNL A   1      31.030  22.606  23.126  1.00  0.00     0.264 C 
ATOM     17  N   UNL A   1      32.392  22.198  23.423  1.00  0.00    -0.331 N 
ATOM     18  H   UNL A   1      32.524  21.344  22.882  1.00  0.00     0.348 HD
BRANCH  17  19
ATOM     19  C   UNL A   1      32.686  21.563  24.718  1.00  0.00     0.303 C 
BRANCH  19  20
ATOM     20  C   UNL A   1      33.601  20.378  24.682  1.00  0.00     0.052 A 
ATOM     21  C   UNL A   1      33.305  19.120  24.185  1.00  0.00     0.115 A 
ATOM     22  C   UNL A   1      35.004  20.286  25.001  1.00  0.00     0.101 A 
ATOM     23  N   UNL A   1      34.400  18.345  24.387  1.00  0.00    -0.285 N 
ATOM     24  N   UNL A   1      35.440  19.019  24.884  1.00  0.00    -0.175 NA
ATOM     25  H   UNL A   1      34.426  17.381  24.186  1.00  0.00     0.189 HD
BRANCH  22  26
ATOM     26  C   UNL A   1      35.966  21.329  25.363  1.00  0.00     0.003 A 
ATOM     27  C   UNL A   1      37.335  21.031  25.300  1.00  0.00     0.012 A 
ATOM     28  C   UNL A   1      35.576  22.599  25.801  1.00  0.00     0.012 A 
ATOM     29  C   UNL A   1      38.295  21.992  25.631  1.00  0.00     0.021 A 
ATOM     30  C   UNL A   1      36.534  23.567  26.126  1.00  0.00     0.021 A 
ATOM     31  C   UNL A   1      37.889  23.260  26.034  1.00  0.00     0.041 A 
ATOM     32  Cl  UNL A   1      39.062  24.453  26.431  1.00  0.00    -0.084 Cl
ENDBRANCH  22  26
ENDBRANCH  19  20
ENDBRANCH  17  19
ENDBRANCH   3   6
ENDBRANCH   1   2
BRANCH   1  33
ATOM     33  C   UNL A   1      34.187  28.702  24.086  1.00  0.00     0.042 C 
BRANCH  33  34
ATOM     34  C   UNL A   1      33.538  28.781  25.462  1.00  0.00     0.118 C 
BRANCH  34  35
ATOM     35  N   UNL A   1      33.177  30.148  25.805  1.00  0.00    -0.352 N 
ATOM     36  C   UNL A   1      33.553  30.923  26.871  1.00  0.00     0.251 C 
ATOM     37  H   UNL A   1      32.565  30.586  25.170  1.00  0.00     0.163 HD
ATOM     38  O   UNL A   1      32.891  31.916  27.157  1.00  0.00    -0.269 OA
BRANCH  36  39
ATOM     39  C   UNL A   1      34.753  30.587  27.667  1.00  0.00     0.039 A 
ATOM     40  C   UNL A   1      35.823  31.486  27.686  1.00  0.00     0.014 A 
ATOM     41  C   UNL A   1      34.864  29.360  28.328  1.00  0.00     0.014 A 
ATOM     42  C   UNL A   1      36.986  31.167  28.388  1.00  0.00     0.010 A 
ATOM     43  C   UNL A   1      35.985  29.084  29.105  1.00  0.00     0.010 A 
ATOM     44  C   UNL A   1      37.069  29.974  29.124  1.00  0.00    -0.014 A 
BRANCH  44  45
ATOM     45  C   UNL A   1      38.294  29.631  29.890  1.00  0.00     0.031 A 
ATOM     46  C   UNL A   1      38.514  30.206  31.264  1.00  0.00     0.074 A 
ATOM     47  C   UNL A   1      39.222  28.830  29.332  1.00  0.00     0.049 A 
ATOM     48  N   UNL A   1      39.527  30.041  32.077  1.00  0.00    -0.248 NA
ATOM     49  C   UNL A   1      37.472  31.105  31.786  1.00  0.00     0.031 C 
ATOM     50  C   UNL A   1      39.141  28.250  27.991  1.00  0.00     0.029 A 
ATOM     51  N   UNL A   1      40.416  28.364  29.823  1.00  0.00    -0.354 N 
ATOM     52  C   UNL A   1      39.251  30.827  33.190  1.00  0.00     0.074 A 
ATOM     53  C   UNL A   1      38.006  31.512  32.928  1.00  0.00     0.031 C 
ATOM     54  C   UNL A   1      40.218  27.477  27.780  1.00  0.00     0.029 A 
ATOM     55  C   UNL A   1      41.087  27.542  28.950  1.00  0.00     0.049 A 
ATOM     56  H   UNL A   1      40.759  28.597  30.716  1.00  0.00     0.167 HD
ATOM     57  C   UNL A   1      39.962  30.947  34.336  1.00  0.00     0.037 A 
ATOM     58  C   UNL A   1      42.272  26.916  29.080  1.00  0.00     0.037 A 
ATOM     59  C   UNL A   1      41.186  30.237  34.603  1.00  0.00     0.049 A 
ATOM     60  C   UNL A   1      43.044  27.078  30.363  1.00  0.00     0.074 A 
ATOM     61  C   UNL A   1      41.945  30.232  35.760  1.00  0.00     0.029 A 
ATOM     62  N   UNL A   1      41.834  29.411  33.695  1.00  0.00    -0.354 N 
ATOM     63  N   UNL A   1      42.730  27.753  31.442  1.00  0.00    -0.248 NA
ATOM     64  C   UNL A   1      44.336  26.383  30.447  1.00  0.00     0.031 C 
ATOM     65  C   UNL A   1      43.085  29.456  35.531  1.00  0.00     0.029 A 
ATOM     66  C   UNL A   1      43.001  28.919  34.255  1.00  0.00     0.049 A 
ATOM     67  H   UNL A   1      41.511  29.207  32.787  1.00  0.00     0.167 HD
ATOM     68  C   UNL A   1      43.763  27.536  32.344  1.00  0.00     0.074 A 
ATOM     69  C   UNL A   1      44.705  26.651  31.691  1.00  0.00     0.031 C 
ATOM     70  C   UNL A   1      43.920  28.026  33.598  1.00  0.00     0.037 A 
BRANCH  57  71
ATOM     71  C   UNL A   1      39.440  31.877  35.395  1.00  0.00     0.064 A 
ATOM     72  C   UNL A   1      38.576  31.436  36.409  1.00  0.00     0.173 A 
ATOM     73  C   UNL A   1      39.859  33.216  35.430  1.00  0.00     0.173 A 
ATOM     74  F   UNL A   1      38.138  30.167  36.419  1.00  0.00    -0.203 F 
ATOM     75  C   UNL A   1      38.132  32.305  37.401  1.00  0.00     0.198 A 
ATOM     76  C   UNL A   1      39.438  34.074  36.443  1.00  0.00     0.198 A 
ATOM     77  F   UNL A   1      40.689  33.691  34.489  1.00  0.00    -0.203 F 
ATOM     78  F   UNL A   1      37.271  31.871  38.333  1.00  0.00    -0.200 F 
ATOM     79  C   UNL A   1      38.570  33.619  37.424  1.00  0.00     0.200 A 
ATOM     80  F   UNL A   1      39.876  35.340  36.472  1.00  0.00    -0.200 F 
ATOM     81  F   UNL A   1      38.153  34.450  38.389  1.00  0.00    -0.200 F 
ENDBRANCH  57  71
BRANCH  58  82
ATOM     82  C   UNL A   1      42.795  26.060  27.982  1.00  0.00     0.064 A 
ATOM     83  C   UNL A   1      43.668  26.581  27.016  1.00  0.00     0.173 A 
ATOM     84  C   UNL A   1      42.410  24.717  27.853  1.00  0.00     0.173 A 
ATOM     85  F   UNL A   1      44.051  27.865  27.083  1.00  0.00    -0.203 F 
ATOM     86  C   UNL A   1      44.107  25.804  25.945  1.00  0.00     0.198 A 
ATOM     87  C   UNL A   1      42.879  23.930  26.802  1.00  0.00     0.198 A 
ATOM     88  F   UNL A   1      41.581  24.165  28.751  1.00  0.00    -0.203 F 
ATOM     89  F   UNL A   1      44.887  26.348  25.001  1.00  0.00    -0.200 F 
ATOM     90  C   UNL A   1      43.715  24.479  25.841  1.00  0.00     0.200 A 
ATOM     91  F   UNL A   1      42.510  22.645  26.714  1.00  0.00    -0.200 F 
ATOM     92  F   UNL A   1      44.133  23.733  24.810  1.00  0.00    -0.200 F 
ENDBRANCH  58  82
BRANCH  70  93
ATOM     93  C   UNL A   1      45.128  27.575  34.369  1.00  0.00     0.064 A 
ATOM     94  C   UNL A   1      45.117  26.406  35.145  1.00  0.00     0.173 A 
ATOM     95  C   UNL A   1      46.324  28.305  34.297  1.00  0.00     0.173 A 
ATOM     96  F   UNL A   1      43.994  25.680  35.257  1.00  0.00    -0.203 F 
ATOM     97  C   UNL A   1      46.251  26.003  35.845  1.00  0.00     0.198 A 
ATOM     98  C   UNL A   1      47.466  27.877  34.969  1.00  0.00     0.198 A 
ATOM     99  F   UNL A   1      46.392  29.425  33.562  1.00  0.00    -0.203 F 
ATOM    100  F   UNL A   1      46.201  24.914  36.625  1.00  0.00    -0.200 F 
ATOM    101  C   UNL A   1      47.426  26.732  35.750  1.00  0.00     0.200 A 
ATOM    102  F   UNL A   1      48.606  28.574  34.859  1.00  0.00    -0.200 F 
ATOM    103  F   UNL A   1      48.519  26.336  36.416  1.00  0.00    -0.200 F 
ENDBRANCH  70  93
ENDBRANCH  44  45
ENDBRANCH  36  39
ENDBRANCH  34  35
ENDBRANCH  33  34
ENDBRANCH   1  33
TORSDOF 13
ENDMDL
MODEL 3
REMARK VINA RESULT:     -13.3      4.785     10.119
REMARK SMILES O=C1C[C@@H](C(=O)NCCCNC(=O)c2ccc(-c3c4nc(c(-c5c(F)c(F)c(F)c(F)c5F)c5ccc([nH]5)c(-c5c(F)c(F)c(F)c(F)c5F)c5nc(c(-c6c(F)c(F)c(F)c(F)c6F)c6ccc3[nH]6)C=C5)C=C4)cc2)C2(CC[NH+](Cc3c[nH]nc3-c3ccc(Cl)cc3)CC2)N1
REMARK SMILES IDX 8 1 7 2 5 3 6 4 4 6 1 7 2 8 3 9 96 10 77 11 78 13 95 14
REMARK SMILES IDX 79 15 94 16 80 17 81 19 82 20 83 21 86 22 84 23 85 24 87 26
REMARK SMILES IDX 88 27 93 28 89 29 92 30 90 31 91 32 9 33 10 34 11 35 12 36
REMARK SMILES IDX 13 38 14 39 15 40 76 41 16 42 75 43 17 44 18 45 19 46 69 47
REMARK SMILES IDX 20 48 74 49 68 50 70 51 21 52 73 53 67 54 66 55 22 57 54 58
REMARK SMILES IDX 34 59 53 60 35 61 38 62 52 63 71 64 36 65 37 66 51 68 72 69
REMARK SMILES IDX 39 70 23 71 24 72 32 73 25 74 26 75 30 76 33 77 27 78 28 79
REMARK SMILES IDX 31 80 29 81 55 82 56 83 64 84 57 85 58 86 62 87 65 88 59 89
REMARK SMILES IDX 60 90 63 91 61 92 40 93 41 94 49 95 42 96 43 97 47 98 50 99
REMARK SMILES IDX 44 100 45 101 48 102 46 103
REMARK H PARENT 7 5 96 12 80 18 84 25 11 37 70 56 38 67
REMARK Flexibility Score: inf
ROOT
ATOM      1  C   UNL A   1      31.786  30.805  26.629  1.00  0.00     0.117 C 
ENDROOT
BRANCH   1   2
ATOM      2  N   UNL A   1      31.130  30.347  25.412  1.00  0.00    -0.356 N 
ATOM      3  C   UNL A   1      31.422  29.403  24.482  1.00  0.00     0.226 C 
ATOM      4  O   UNL A   1      30.606  29.284  23.560  1.00  0.00    -0.275 OA
ATOM      5  H   UNL A   1      30.291  30.826  25.224  1.00  0.00     0.163 HD
BRANCH   3   6
ATOM      6  C   UNL A   1      32.688  28.547  24.456  1.00  0.00     0.114 C 
ATOM      7  O   UNL A   1      34.111  27.854  21.250  1.00  0.00    -0.275 OA
ATOM      8  C   UNL A   1      33.594  27.869  22.350  1.00  0.00     0.221 C 
ATOM      9  C   UNL A   1      33.690  28.970  23.374  1.00  0.00     0.116 C 
ATOM     10  N   UNL A   1      32.783  26.876  22.854  1.00  0.00    -0.349 N 
ATOM     11  C   UNL A   1      32.505  27.025  24.275  1.00  0.00     0.063 C 
ATOM     12  H   UNL A   1      32.427  26.139  22.308  1.00  0.00     0.164 HD
ATOM     13  C   UNL A   1      31.095  26.511  24.612  1.00  0.00     0.091 C 
ATOM     14  C   UNL A   1      33.629  26.234  25.013  1.00  0.00     0.091 C 
ATOM     15  C   UNL A   1      30.926  26.058  26.052  1.00  0.00     0.264 C 
ATOM     16  C   UNL A   1      33.253  25.597  26.350  1.00  0.00     0.264 C 
ATOM     17  N   UNL A   1      31.905  25.062  26.431  1.00  0.00    -0.331 N 
ATOM     18  H   UNL A   1      31.768  24.876  27.424  1.00  0.00     0.348 HD
BRANCH  17  19
ATOM     19  C   UNL A   1      31.657  23.673  26.015  1.00  0.00     0.303 C 
BRANCH  19  20
ATOM     20  C   UNL A   1      31.872  23.367  24.564  1.00  0.00     0.052 A 
ATOM     21  C   UNL A   1      31.004  23.648  23.523  1.00  0.00     0.115 A 
ATOM     22  C   UNL A   1      33.044  22.864  23.892  1.00  0.00     0.101 A 
ATOM     23  N   UNL A   1      31.574  23.167  22.389  1.00  0.00    -0.285 N 
ATOM     24  N   UNL A   1      32.803  22.682  22.581  1.00  0.00    -0.175 NA
ATOM     25  H   UNL A   1      31.126  23.176  21.513  1.00  0.00     0.189 HD
BRANCH  22  26
ATOM     26  C   UNL A   1      34.388  22.591  24.403  1.00  0.00     0.003 A 
ATOM     27  C   UNL A   1      35.479  23.237  23.802  1.00  0.00     0.012 A 
ATOM     28  C   UNL A   1      34.634  21.688  25.442  1.00  0.00     0.012 A 
ATOM     29  C   UNL A   1      36.784  23.014  24.255  1.00  0.00     0.021 A 
ATOM     30  C   UNL A   1      35.937  21.467  25.904  1.00  0.00     0.021 A 
ATOM     31  C   UNL A   1      37.005  22.135  25.311  1.00  0.00     0.041 A 
ATOM     32  Cl  UNL A   1      38.604  21.865  25.883  1.00  0.00    -0.084 Cl
ENDBRANCH  22  26
ENDBRANCH  19  20
ENDBRANCH  17  19
ENDBRANCH   3   6
ENDBRANCH   1   2
BRANCH   1  33
ATOM     33  C   UNL A   1      31.571  32.288  26.931  1.00  0.00     0.042 C 
BRANCH  33  34
ATOM     34  C   UNL A   1      32.864  33.091  26.995  1.00  0.00     0.118 C 
BRANCH  34  35
ATOM     35  N   UNL A   1      32.691  34.323  27.750  1.00  0.00    -0.352 N 
ATOM     36  C   UNL A   1      33.191  34.691  28.972  1.00  0.00     0.251 C 
ATOM     37  H   UNL A   1      32.125  35.000  27.313  1.00  0.00     0.163 HD
ATOM     38  O   UNL A   1      32.670  35.621  29.580  1.00  0.00    -0.269 OA
BRANCH  36  39
ATOM     39  C   UNL A   1      34.357  33.993  29.555  1.00  0.00     0.039 A 
ATOM     40  C   UNL A   1      35.641  34.394  29.176  1.00  0.00     0.014 A 
ATOM     41  C   UNL A   1      34.194  32.898  30.408  1.00  0.00     0.014 A 
ATOM     42  C   UNL A   1      36.755  33.717  29.675  1.00  0.00     0.010 A 
ATOM     43  C   UNL A   1      35.306  32.285  30.979  1.00  0.00     0.010 A 
ATOM     44  C   UNL A   1      36.598  32.671  30.598  1.00  0.00    -0.014 A 
BRANCH  44  45
ATOM     45  C   UNL A   1      37.777  31.954  31.149  1.00  0.00     0.031 A 
ATOM     46  C   UNL A   1      38.282  32.277  32.531  1.00  0.00     0.074 A 
ATOM     47  C   UNL A   1      38.410  31.039  30.391  1.00  0.00     0.049 A 
ATOM     48  N   UNL A   1      39.305  31.775  33.175  1.00  0.00    -0.248 NA
ATOM     49  C   UNL A   1      37.560  33.318  33.279  1.00  0.00     0.031 C 
ATOM     50  C   UNL A   1      38.041  30.675  29.022  1.00  0.00     0.029 A 
ATOM     51  N   UNL A   1      39.497  30.247  30.662  1.00  0.00    -0.354 N 
ATOM     52  C   UNL A   1      39.357  32.450  34.389  1.00  0.00     0.074 A 
ATOM     53  C   UNL A   1      38.300  33.435  34.372  1.00  0.00     0.031 C 
ATOM     54  C   UNL A   1      38.862  29.707  28.587  1.00  0.00     0.029 A 
ATOM     55  C   UNL A   1      39.843  29.413  29.627  1.00  0.00     0.049 A 
ATOM     56  H   UNL A   1      39.983  30.274  31.518  1.00  0.00     0.167 HD
ATOM     57  C   UNL A   1      40.197  32.249  35.432  1.00  0.00     0.037 A 
ATOM     58  C   UNL A   1      40.842  28.516  29.528  1.00  0.00     0.037 A 
ATOM     59  C   UNL A   1      41.227  31.245  35.454  1.00  0.00     0.049 A 
ATOM     60  C   UNL A   1      41.767  28.324  30.702  1.00  0.00     0.074 A 
ATOM     61  C   UNL A   1      42.084  30.911  36.489  1.00  0.00     0.029 A 
ATOM     62  N   UNL A   1      41.547  30.417  34.387  1.00  0.00    -0.354 N 
ATOM     63  N   UNL A   1      41.750  28.906  31.877  1.00  0.00    -0.248 NA
ATOM     64  C   UNL A   1      42.847  27.342  30.536  1.00  0.00     0.031 C 
ATOM     65  C   UNL A   1      42.963  29.927  36.027  1.00  0.00     0.029 A 
ATOM     66  C   UNL A   1      42.610  29.597  34.728  1.00  0.00     0.049 A 
ATOM     67  H   UNL A   1      41.086  30.415  33.517  1.00  0.00     0.167 HD
ATOM     68  C   UNL A   1      42.790  28.337  32.600  1.00  0.00     0.074 A 
ATOM     69  C   UNL A   1      43.405  27.350  31.738  1.00  0.00     0.031 C 
ATOM     70  C   UNL A   1      43.200  28.608  33.863  1.00  0.00     0.037 A 
BRANCH  57  71
ATOM     71  C   UNL A   1      40.042  33.129  36.640  1.00  0.00     0.064 A 
ATOM     72  C   UNL A   1      39.137  32.822  37.669  1.00  0.00     0.173 A 
ATOM     73  C   UNL A   1      40.853  34.263  36.800  1.00  0.00     0.173 A 
ATOM     74  F   UNL A   1      38.331  31.754  37.564  1.00  0.00    -0.203 F 
ATOM     75  C   UNL A   1      39.033  33.630  38.798  1.00  0.00     0.198 A 
ATOM     76  C   UNL A   1      40.769  35.051  37.946  1.00  0.00     0.198 A 
ATOM     77  F   UNL A   1      41.739  34.601  35.852  1.00  0.00    -0.203 F 
ATOM     78  F   UNL A   1      38.129  33.342  39.746  1.00  0.00    -0.200 F 
ATOM     79  C   UNL A   1      39.855  34.737  38.941  1.00  0.00     0.200 A 
ATOM     80  F   UNL A   1      41.576  36.110  38.089  1.00  0.00    -0.200 F 
ATOM     81  F   UNL A   1      39.764  35.505  40.035  1.00  0.00    -0.200 F 
ENDBRANCH  57  71
BRANCH  58  82
ATOM     82  C   UNL A   1      41.013  27.713  28.288  1.00  0.00     0.064 A 
ATOM     83  C   UNL A   1      40.405  26.457  28.152  1.00  0.00     0.173 A 
ATOM     84  C   UNL A   1      41.812  28.167  27.227  1.00  0.00     0.173 A 
ATOM     85  F   UNL A   1      39.646  25.970  29.145  1.00  0.00    -0.203 F 
ATOM     86  C   UNL A   1      40.618  25.670  27.021  1.00  0.00     0.198 A 
ATOM     87  C   UNL A   1      41.995  27.394  26.081  1.00  0.00     0.198 A 
ATOM     88  F   UNL A   1      42.414  29.362  27.301  1.00  0.00    -0.203 F 
ATOM     89  F   UNL A   1      40.077  24.446  26.949  1.00  0.00    -0.200 F 
ATOM     90  C   UNL A   1      41.409  26.141  25.985  1.00  0.00     0.200 A 
ATOM     91  F   UNL A   1      42.748  27.860  25.075  1.00  0.00    -0.200 F 
ATOM     92  F   UNL A   1      41.617  25.383  24.901  1.00  0.00    -0.200 F 
ENDBRANCH  58  82
BRANCH  70  93
ATOM     93  C   UNL A   1      44.335  27.790  34.411  1.00  0.00     0.064 A 
ATOM     94  C   UNL A   1      45.666  28.226  34.333  1.00  0.00     0.173 A 
ATOM     95  C   UNL A   1      44.080  26.571  35.058  1.00  0.00     0.173 A 
ATOM     96  F   UNL A   1      45.965  29.378  33.712  1.00  0.00    -0.203 F 
ATOM     97  C   UNL A   1      46.702  27.456  34.854  1.00  0.00     0.198 A 
ATOM     98  C   UNL A   1      45.115  25.823  35.611  1.00  0.00     0.198 A 
ATOM     99  F   UNL A   1      42.824  26.113  35.168  1.00  0.00    -0.203 F 
ATOM    100  F   UNL A   1      47.971  27.865  34.718  1.00  0.00    -0.200 F 
ATOM    101  C   UNL A   1      46.426  26.261  35.501  1.00  0.00     0.200 A 
ATOM    102  F   UNL A   1      44.843  24.678  36.252  1.00  0.00    -0.200 F 
ATOM    103  F   UNL A   1      47.424  25.527  36.012  1.00  0.00    -0.200 F 
ENDBRANCH  70  93
ENDBRANCH  44  45
ENDBRANCH  36  39
ENDBRANCH  34  35
ENDBRANCH  33  34
ENDBRANCH   1  33
TORSDOF 13
ENDMDL
