MODEL 1
REMARK VINA RESULT:     -13.5      0.000      0.000
REMARK SMILES Cc1ccc([C@H](CC2CCCC2)C(=O)NCCCNC(=O)c2ccc(-c3c4nc(c(-c5c(F)c(F)c(F)c(F)c5F)c5ccc([nH]5)c(-c5c(F)c(F)c(F)c(F)c5F)c5nc(c(-c6c(F)c(F)c(F)c(F)c6F)c6ccc3[nH]6)C=C5)C=C4)cc2)cc1
REMARK SMILES IDX 17 1 16 2 15 3 13 4 14 5 6 7 5 8 1 9 2 10 3 11 86 12 4 13
REMARK SMILES IDX 85 14 7 15 8 16 9 17 12 18 10 19 11 20 18 21 19 22 20 23
REMARK SMILES IDX 21 25 22 26 23 27 84 28 24 29 83 30 25 31 26 32 27 33 77 34
REMARK SMILES IDX 28 35 82 36 76 37 78 38 29 39 81 40 75 41 74 42 30 44 62 45
REMARK SMILES IDX 42 46 61 47 43 48 46 49 60 50 79 51 44 52 45 53 59 55 80 56
REMARK SMILES IDX 47 57 31 58 32 59 40 60 33 61 34 62 38 63 41 64 35 65 36 66
REMARK SMILES IDX 39 67 37 68 63 69 64 70 72 71 65 72 66 73 70 74 73 75 67 76
REMARK SMILES IDX 68 77 71 78 69 79 48 80 49 81 57 82 50 83 51 84 55 85 58 86
REMARK SMILES IDX 52 87 53 88 56 89 54 90
REMARK H PARENT 15 6 19 24 78 43 46 54
REMARK Flexibility Score: inf
ROOT
ATOM      1  C   UNL A   1      37.733  21.299  24.624  1.00  0.00     0.042 C 
ENDROOT
BRANCH   1   2
ATOM      2  C   UNL A   1      36.626  20.343  25.025  1.00  0.00     0.117 C 
BRANCH   2   3
ATOM      3  N   UNL A   1      35.683  20.938  25.966  1.00  0.00    -0.356 N 
ATOM      4  C   UNL A   1      34.328  21.104  25.859  1.00  0.00     0.227 C 
ATOM      5  O   UNL A   1      33.732  21.504  26.864  1.00  0.00    -0.274 OA
ATOM      6  H   UNL A   1      36.080  21.269  26.803  1.00  0.00     0.163 HD
BRANCH   4   7
ATOM      7  C   UNL A   1      33.572  20.851  24.547  1.00  0.00     0.109 C 
BRANCH   7   8
ATOM      8  C   UNL A   1      33.186  22.113  23.754  1.00  0.00    -0.036 A 
ATOM      9  C   UNL A   1      31.976  26.020  22.352  1.00  0.00     0.044 C 
ATOM     10  C   UNL A   1      32.386  24.637  22.758  1.00  0.00    -0.051 A 
ATOM     11  C   UNL A   1      31.431  23.687  23.121  1.00  0.00     0.004 A 
ATOM     12  C   UNL A   1      33.732  24.264  22.746  1.00  0.00     0.004 A 
ATOM     13  C   UNL A   1      31.827  22.440  23.607  1.00  0.00     0.005 A 
ATOM     14  C   UNL A   1      34.121  23.001  23.203  1.00  0.00     0.005 A 
ENDBRANCH   7   8
BRANCH   7  15
ATOM     15  C   UNL A   1      32.347  19.921  24.794  1.00  0.00     0.022 C 
BRANCH  15  16
ATOM     16  C   UNL A   1      32.570  18.439  24.466  1.00  0.00    -0.010 C 
ATOM     17  C   UNL A   1      33.905  18.101  23.804  1.00  0.00     0.003 C 
ATOM     18  C   UNL A   1      32.647  17.602  25.749  1.00  0.00     0.003 C 
ATOM     19  C   UNL A   1      34.070  16.601  24.048  1.00  0.00     0.000 C 
ATOM     20  C   UNL A   1      33.282  16.287  25.319  1.00  0.00     0.000 C 
ENDBRANCH  15  16
ENDBRANCH   7  15
ENDBRANCH   4   7
ENDBRANCH   2   3
ENDBRANCH   1   2
BRANCH   1  21
ATOM     21  C   UNL A   1      38.149  22.217  25.755  1.00  0.00     0.118 C 
BRANCH  21  22
ATOM     22  N   UNL A   1      39.548  22.093  26.159  1.00  0.00    -0.352 N 
ATOM     23  C   UNL A   1      40.439  23.071  26.584  1.00  0.00     0.251 C 
ATOM     24  H   UNL A   1      39.914  21.180  26.124  1.00  0.00     0.163 HD
ATOM     25  O   UNL A   1      41.587  22.783  26.848  1.00  0.00    -0.269 OA
BRANCH  23  26
ATOM     26  C   UNL A   1      39.931  24.441  26.859  1.00  0.00     0.039 A 
ATOM     27  C   UNL A   1      40.493  25.509  26.146  1.00  0.00     0.014 A 
ATOM     28  C   UNL A   1      39.129  24.688  27.964  1.00  0.00     0.014 A 
ATOM     29  C   UNL A   1      40.488  26.780  26.715  1.00  0.00     0.010 A 
ATOM     30  C   UNL A   1      39.263  25.897  28.605  1.00  0.00     0.010 A 
ATOM     31  C   UNL A   1      39.999  26.924  28.008  1.00  0.00    -0.014 A 
BRANCH  31  32
ATOM     32  C   UNL A   1      40.247  28.075  28.861  1.00  0.00     0.031 A 
ATOM     33  C   UNL A   1      39.299  29.209  28.833  1.00  0.00     0.074 A 
ATOM     34  C   UNL A   1      41.230  28.010  29.788  1.00  0.00     0.049 A 
ATOM     35  N   UNL A   1      39.515  30.344  29.401  1.00  0.00    -0.248 NA
ATOM     36  C   UNL A   1      38.042  29.178  28.089  1.00  0.00     0.031 C 
ATOM     37  C   UNL A   1      41.399  28.857  30.967  1.00  0.00     0.029 A 
ATOM     38  N   UNL A   1      42.419  27.259  29.731  1.00  0.00    -0.354 N 
ATOM     39  C   UNL A   1      38.343  31.062  29.363  1.00  0.00     0.074 A 
ATOM     40  C   UNL A   1      37.509  30.355  28.429  1.00  0.00     0.031 C 
ATOM     41  C   UNL A   1      42.686  28.827  31.343  1.00  0.00     0.029 A 
ATOM     42  C   UNL A   1      43.405  28.089  30.322  1.00  0.00     0.049 A 
ATOM     43  H   UNL A   1      42.540  26.354  29.363  1.00  0.00     0.167 HD
ATOM     44  C   UNL A   1      38.196  32.093  30.241  1.00  0.00     0.037 A 
ATOM     45  C   UNL A   1      44.441  28.594  29.589  1.00  0.00     0.037 A 
ATOM     46  C   UNL A   1      39.497  32.453  30.815  1.00  0.00     0.049 A 
ATOM     47  C   UNL A   1      44.497  30.104  29.569  1.00  0.00     0.074 A 
ATOM     48  C   UNL A   1      40.085  32.256  32.052  1.00  0.00     0.029 A 
ATOM     49  N   UNL A   1      40.515  32.864  29.956  1.00  0.00    -0.354 N 
ATOM     50  N   UNL A   1      43.479  30.875  29.838  1.00  0.00    -0.248 NA
ATOM     51  C   UNL A   1      45.696  30.862  29.227  1.00  0.00     0.031 C 
ATOM     52  C   UNL A   1      41.484  32.471  31.906  1.00  0.00     0.029 A 
ATOM     53  C   UNL A   1      41.738  32.836  30.595  1.00  0.00     0.049 A 
ATOM     54  H   UNL A   1      40.380  33.137  29.019  1.00  0.00     0.167 HD
ATOM     55  C   UNL A   1      43.848  32.188  29.700  1.00  0.00     0.074 A 
ATOM     56  C   UNL A   1      45.251  32.126  29.335  1.00  0.00     0.031 C 
ATOM     57  C   UNL A   1      42.958  33.209  29.888  1.00  0.00     0.037 A 
BRANCH  44  58
ATOM     58  C   UNL A   1      36.875  32.650  30.749  1.00  0.00     0.064 A 
ATOM     59  C   UNL A   1      36.113  33.516  29.930  1.00  0.00     0.173 A 
ATOM     60  C   UNL A   1      36.357  32.492  32.054  1.00  0.00     0.173 A 
ATOM     61  F   UNL A   1      36.461  33.760  28.660  1.00  0.00    -0.203 F 
ATOM     62  C   UNL A   1      34.971  34.186  30.389  1.00  0.00     0.198 A 
ATOM     63  C   UNL A   1      35.198  33.135  32.501  1.00  0.00     0.198 A 
ATOM     64  F   UNL A   1      36.956  31.747  32.983  1.00  0.00    -0.203 F 
ATOM     65  F   UNL A   1      34.327  35.037  29.578  1.00  0.00    -0.200 F 
ATOM     66  C   UNL A   1      34.513  33.996  31.676  1.00  0.00     0.200 A 
ATOM     67  F   UNL A   1      34.772  32.929  33.756  1.00  0.00    -0.200 F 
ATOM     68  F   UNL A   1      33.428  34.642  32.121  1.00  0.00    -0.200 F 
ENDBRANCH  44  58
BRANCH  45  69
ATOM     69  C   UNL A   1      44.850  27.699  28.474  1.00  0.00     0.064 A 
ATOM     70  C   UNL A   1      45.555  26.522  28.795  1.00  0.00     0.173 A 
ATOM     71  C   UNL A   1      44.226  27.757  27.223  1.00  0.00     0.173 A 
ATOM     72  F   UNL A   1      46.175  26.418  29.982  1.00  0.00    -0.203 F 
ATOM     73  C   UNL A   1      45.518  25.405  27.965  1.00  0.00     0.198 A 
ATOM     74  C   UNL A   1      44.208  26.641  26.383  1.00  0.00     0.198 A 
ATOM     75  F   UNL A   1      43.522  28.841  26.865  1.00  0.00    -0.203 F 
ATOM     76  F   UNL A   1      46.089  24.258  28.360  1.00  0.00    -0.200 F 
ATOM     77  C   UNL A   1      44.816  25.456  26.773  1.00  0.00     0.200 A 
ATOM     78  F   UNL A   1      43.504  26.677  25.242  1.00  0.00    -0.200 F 
ATOM     79  F   UNL A   1      44.685  24.352  26.023  1.00  0.00    -0.200 F 
ENDBRANCH  45  69
BRANCH  57  80
ATOM     80  C   UNL A   1      43.161  34.661  29.502  1.00  0.00     0.064 A 
ATOM     81  C   UNL A   1      43.375  35.704  30.421  1.00  0.00     0.173 A 
ATOM     82  C   UNL A   1      43.297  35.027  28.138  1.00  0.00     0.173 A 
ATOM     83  F   UNL A   1      43.410  35.480  31.740  1.00  0.00    -0.203 F 
ATOM     84  C   UNL A   1      43.634  37.016  30.009  1.00  0.00     0.198 A 
ATOM     85  C   UNL A   1      43.619  36.322  27.734  1.00  0.00     0.198 A 
ATOM     86  F   UNL A   1      43.153  34.130  27.152  1.00  0.00    -0.203 F 
ATOM     87  F   UNL A   1      43.785  37.980  30.929  1.00  0.00    -0.200 F 
ATOM     88  C   UNL A   1      43.769  37.323  28.670  1.00  0.00     0.200 A 
ATOM     89  F   UNL A   1      43.806  36.586  26.433  1.00  0.00    -0.200 F 
ATOM     90  F   UNL A   1      44.067  38.570  28.284  1.00  0.00    -0.200 F 
ENDBRANCH  57  80
ENDBRANCH  31  32
ENDBRANCH  23  26
ENDBRANCH  21  22
ENDBRANCH   1  21
TORSDOF 13
ENDMDL
MODEL 2
REMARK VINA RESULT:     -13.4      3.956     10.201
REMARK SMILES Cc1ccc([C@H](CC2CCCC2)C(=O)NCCCNC(=O)c2ccc(-c3c4nc(c(-c5c(F)c(F)c(F)c(F)c5F)c5ccc([nH]5)c(-c5c(F)c(F)c(F)c(F)c5F)c5nc(c(-c6c(F)c(F)c(F)c(F)c6F)c6ccc3[nH]6)C=C5)C=C4)cc2)cc1
REMARK SMILES IDX 17 1 16 2 15 3 13 4 14 5 6 7 5 8 1 9 2 10 3 11 86 12 4 13
REMARK SMILES IDX 85 14 7 15 8 16 9 17 12 18 10 19 11 20 18 21 19 22 20 23
REMARK SMILES IDX 21 25 22 26 23 27 84 28 24 29 83 30 25 31 26 32 27 33 77 34
REMARK SMILES IDX 28 35 82 36 76 37 78 38 29 39 81 40 75 41 74 42 30 44 62 45
REMARK SMILES IDX 42 46 61 47 43 48 46 49 60 50 79 51 44 52 45 53 59 55 80 56
REMARK SMILES IDX 47 57 31 58 32 59 40 60 33 61 34 62 38 63 41 64 35 65 36 66
REMARK SMILES IDX 39 67 37 68 63 69 64 70 72 71 65 72 66 73 70 74 73 75 67 76
REMARK SMILES IDX 68 77 71 78 69 79 48 80 49 81 57 82 50 83 51 84 55 85 58 86
REMARK SMILES IDX 52 87 53 88 56 89 54 90
REMARK H PARENT 15 6 19 24 78 43 46 54
REMARK Flexibility Score: inf
ROOT
ATOM      1  C   UNL A   1      32.618  30.756  27.085  1.00  0.00     0.042 C 
ENDROOT
BRANCH   1   2
ATOM      2  C   UNL A   1      32.088  30.026  25.866  1.00  0.00     0.117 C 
BRANCH   2   3
ATOM      3  N   UNL A   1      33.119  29.783  24.862  1.00  0.00    -0.356 N 
ATOM      4  C   UNL A   1      33.239  28.761  23.960  1.00  0.00     0.227 C 
ATOM      5  O   UNL A   1      34.130  28.865  23.111  1.00  0.00    -0.274 OA
ATOM      6  H   UNL A   1      33.836  30.457  24.829  1.00  0.00     0.163 HD
BRANCH   4   7
ATOM      7  C   UNL A   1      32.344  27.515  24.010  1.00  0.00     0.109 C 
BRANCH   7   8
ATOM      8  C   UNL A   1      33.089  26.168  24.018  1.00  0.00    -0.036 A 
ATOM      9  C   UNL A   1      35.781  22.821  23.515  1.00  0.00     0.044 C 
ATOM     10  C   UNL A   1      34.791  23.926  23.721  1.00  0.00    -0.051 A 
ATOM     11  C   UNL A   1      33.840  24.224  22.745  1.00  0.00     0.004 A 
ATOM     12  C   UNL A   1      34.780  24.656  24.912  1.00  0.00     0.004 A 
ATOM     13  C   UNL A   1      32.997  25.327  22.895  1.00  0.00     0.005 A 
ATOM     14  C   UNL A   1      33.910  25.739  25.071  1.00  0.00     0.005 A 
ENDBRANCH   7   8
BRANCH   7  15
ATOM     15  C   UNL A   1      31.263  27.575  22.891  1.00  0.00     0.022 C 
BRANCH  15  16
ATOM     16  C   UNL A   1      30.130  28.583  23.125  1.00  0.00    -0.010 C 
ATOM     17  C   UNL A   1      29.923  29.616  22.019  1.00  0.00     0.003 C 
ATOM     18  C   UNL A   1      28.767  27.878  23.139  1.00  0.00     0.003 C 
ATOM     19  C   UNL A   1      28.502  30.127  22.249  1.00  0.00     0.000 C 
ATOM     20  C   UNL A   1      27.750  28.995  22.946  1.00  0.00     0.000 C 
ENDBRANCH  15  16
ENDBRANCH   7  15
ENDBRANCH   4   7
ENDBRANCH   2   3
ENDBRANCH   1   2
BRANCH   1  21
ATOM     21  C   UNL A   1      34.060  30.407  27.391  1.00  0.00     0.118 C 
BRANCH  21  22
ATOM     22  N   UNL A   1      34.797  31.441  28.115  1.00  0.00    -0.352 N 
ATOM     23  C   UNL A   1      35.996  31.353  28.811  1.00  0.00     0.251 C 
ATOM     24  H   UNL A   1      34.381  32.333  28.108  1.00  0.00     0.163 HD
ATOM     25  O   UNL A   1      36.445  32.322  29.387  1.00  0.00    -0.269 OA
BRANCH  23  26
ATOM     26  C   UNL A   1      36.798  30.104  28.715  1.00  0.00     0.039 A 
ATOM     27  C   UNL A   1      36.935  29.317  29.866  1.00  0.00     0.014 A 
ATOM     28  C   UNL A   1      37.602  29.866  27.609  1.00  0.00     0.014 A 
ATOM     29  C   UNL A   1      38.059  28.507  30.002  1.00  0.00     0.010 A 
ATOM     30  C   UNL A   1      38.789  29.200  27.802  1.00  0.00     0.010 A 
ATOM     31  C   UNL A   1      39.045  28.573  29.025  1.00  0.00    -0.014 A 
BRANCH  31  32
ATOM     32  C   UNL A   1      40.405  28.083  29.190  1.00  0.00     0.031 A 
ATOM     33  C   UNL A   1      40.730  26.708  28.760  1.00  0.00     0.074 A 
ATOM     34  C   UNL A   1      41.377  28.947  29.560  1.00  0.00     0.049 A 
ATOM     35  N   UNL A   1      41.841  26.113  29.024  1.00  0.00    -0.248 NA
ATOM     36  C   UNL A   1      39.784  25.850  28.048  1.00  0.00     0.031 C 
ATOM     37  C   UNL A   1      42.822  28.777  29.414  1.00  0.00     0.029 A 
ATOM     38  N   UNL A   1      41.245  30.108  30.346  1.00  0.00    -0.354 N 
ATOM     39  C   UNL A   1      41.882  24.953  28.286  1.00  0.00     0.074 A 
ATOM     40  C   UNL A   1      40.538  24.774  27.807  1.00  0.00     0.031 C 
ATOM     41  C   UNL A   1      43.444  29.566  30.302  1.00  0.00     0.029 A 
ATOM     42  C   UNL A   1      42.414  30.141  31.148  1.00  0.00     0.049 A 
ATOM     43  H   UNL A   1      40.504  30.755  30.340  1.00  0.00     0.167 HD
ATOM     44  C   UNL A   1      43.097  24.374  28.073  1.00  0.00     0.037 A 
ATOM     45  C   UNL A   1      42.352  29.986  32.503  1.00  0.00     0.037 A 
ATOM     46  C   UNL A   1      44.087  24.930  29.000  1.00  0.00     0.049 A 
ATOM     47  C   UNL A   1      43.140  28.805  33.020  1.00  0.00     0.074 A 
ATOM     48  C   UNL A   1      45.141  25.816  28.858  1.00  0.00     0.029 A 
ATOM     49  N   UNL A   1      43.869  24.796  30.371  1.00  0.00    -0.354 N 
ATOM     50  N   UNL A   1      43.499  27.788  32.284  1.00  0.00    -0.248 NA
ATOM     51  C   UNL A   1      43.569  28.667  34.408  1.00  0.00     0.031 C 
ATOM     52  C   UNL A   1      45.498  26.279  30.156  1.00  0.00     0.029 A 
ATOM     53  C   UNL A   1      44.690  25.645  31.084  1.00  0.00     0.049 A 
ATOM     54  H   UNL A   1      43.217  24.179  30.775  1.00  0.00     0.167 HD
ATOM     55  C   UNL A   1      44.169  26.876  33.056  1.00  0.00     0.074 A 
ATOM     56  C   UNL A   1      44.204  27.482  34.374  1.00  0.00     0.031 C 
ATOM     57  C   UNL A   1      44.626  25.694  32.541  1.00  0.00     0.037 A 
BRANCH  44  58
ATOM     58  C   UNL A   1      43.460  23.465  26.908  1.00  0.00     0.064 A 
ATOM     59  C   UNL A   1      43.055  22.110  26.920  1.00  0.00     0.173 A 
ATOM     60  C   UNL A   1      44.299  23.804  25.824  1.00  0.00     0.173 A 
ATOM     61  F   UNL A   1      42.245  21.632  27.874  1.00  0.00    -0.203 F 
ATOM     62  C   UNL A   1      43.484  21.181  25.962  1.00  0.00     0.198 A 
ATOM     63  C   UNL A   1      44.699  22.884  24.849  1.00  0.00     0.198 A 
ATOM     64  F   UNL A   1      44.813  25.023  25.663  1.00  0.00    -0.203 F 
ATOM     65  F   UNL A   1      43.108  19.898  26.063  1.00  0.00    -0.200 F 
ATOM     66  C   UNL A   1      44.306  21.567  24.925  1.00  0.00     0.200 A 
ATOM     67  F   UNL A   1      45.496  23.288  23.848  1.00  0.00    -0.200 F 
ATOM     68  F   UNL A   1      44.726  20.681  24.013  1.00  0.00    -0.200 F 
ENDBRANCH  44  58
BRANCH  45  69
ATOM     69  C   UNL A   1      41.084  30.500  33.085  1.00  0.00     0.064 A 
ATOM     70  C   UNL A   1      40.928  31.896  33.199  1.00  0.00     0.173 A 
ATOM     71  C   UNL A   1      39.927  29.715  33.127  1.00  0.00     0.173 A 
ATOM     72  F   UNL A   1      42.007  32.694  33.169  1.00  0.00    -0.203 F 
ATOM     73  C   UNL A   1      39.666  32.486  33.213  1.00  0.00     0.198 A 
ATOM     74  C   UNL A   1      38.663  30.310  33.162  1.00  0.00     0.198 A 
ATOM     75  F   UNL A   1      40.006  28.382  33.003  1.00  0.00    -0.203 F 
ATOM     76  F   UNL A   1      39.552  33.821  33.190  1.00  0.00    -0.200 F 
ATOM     77  C   UNL A   1      38.534  31.692  33.161  1.00  0.00     0.200 A 
ATOM     78  F   UNL A   1      37.565  29.545  33.081  1.00  0.00    -0.200 F 
ATOM     79  F   UNL A   1      37.322  32.256  33.063  1.00  0.00    -0.200 F 
ENDBRANCH  45  69
BRANCH  57  80
ATOM     80  C   UNL A   1      45.125  24.501  33.332  1.00  0.00     0.064 A 
ATOM     81  C   UNL A   1      44.387  23.323  33.543  1.00  0.00     0.173 A 
ATOM     82  C   UNL A   1      46.468  24.458  33.788  1.00  0.00     0.173 A 
ATOM     83  F   UNL A   1      43.153  23.171  33.050  1.00  0.00    -0.203 F 
ATOM     84  C   UNL A   1      44.924  22.220  34.215  1.00  0.00     0.198 A 
ATOM     85  C   UNL A   1      47.019  23.331  34.400  1.00  0.00     0.198 A 
ATOM     86  F   UNL A   1      47.300  25.496  33.626  1.00  0.00    -0.203 F 
ATOM     87  F   UNL A   1      44.160  21.139  34.429  1.00  0.00    -0.200 F 
ATOM     88  C   UNL A   1      46.241  22.218  34.632  1.00  0.00     0.200 A 
ATOM     89  F   UNL A   1      48.316  23.328  34.742  1.00  0.00    -0.200 F 
ATOM     90  F   UNL A   1      46.764  21.140  35.230  1.00  0.00    -0.200 F 
ENDBRANCH  57  80
ENDBRANCH  31  32
ENDBRANCH  23  26
ENDBRANCH  21  22
ENDBRANCH   1  21
TORSDOF 13
ENDMDL
MODEL 3
REMARK VINA RESULT:     -13.4      0.883      1.537
REMARK SMILES Cc1ccc([C@H](CC2CCCC2)C(=O)NCCCNC(=O)c2ccc(-c3c4nc(c(-c5c(F)c(F)c(F)c(F)c5F)c5ccc([nH]5)c(-c5c(F)c(F)c(F)c(F)c5F)c5nc(c(-c6c(F)c(F)c(F)c(F)c6F)c6ccc3[nH]6)C=C5)C=C4)cc2)cc1
REMARK SMILES IDX 17 1 16 2 15 3 13 4 14 5 6 7 5 8 1 9 2 10 3 11 86 12 4 13
REMARK SMILES IDX 85 14 7 15 8 16 9 17 12 18 10 19 11 20 18 21 19 22 20 23
REMARK SMILES IDX 21 25 22 26 23 27 84 28 24 29 83 30 25 31 26 32 27 33 77 34
REMARK SMILES IDX 28 35 82 36 76 37 78 38 29 39 81 40 75 41 74 42 30 44 62 45
REMARK SMILES IDX 42 46 61 47 43 48 46 49 60 50 79 51 44 52 45 53 59 55 80 56
REMARK SMILES IDX 47 57 31 58 32 59 40 60 33 61 34 62 38 63 41 64 35 65 36 66
REMARK SMILES IDX 39 67 37 68 63 69 64 70 72 71 65 72 66 73 70 74 73 75 67 76
REMARK SMILES IDX 68 77 71 78 69 79 48 80 49 81 57 82 50 83 51 84 55 85 58 86
REMARK SMILES IDX 52 87 53 88 56 89 54 90
REMARK H PARENT 15 6 19 24 78 43 46 54
REMARK Flexibility Score: inf
ROOT
ATOM      1  C   UNL A   1      37.662  21.866  24.674  1.00  0.00     0.042 C 
ENDROOT
BRANCH   1   2
ATOM      2  C   UNL A   1      36.884  20.680  25.213  1.00  0.00     0.117 C 
BRANCH   2   3
ATOM      3  N   UNL A   1      35.796  21.078  26.100  1.00  0.00    -0.356 N 
ATOM      4  C   UNL A   1      34.464  21.243  25.832  1.00  0.00     0.227 C 
ATOM      5  O   UNL A   1      33.719  21.441  26.796  1.00  0.00    -0.274 OA
ATOM      6  H   UNL A   1      36.060  21.252  27.032  1.00  0.00     0.163 HD
BRANCH   4   7
ATOM      7  C   UNL A   1      33.909  21.229  24.400  1.00  0.00     0.109 C 
BRANCH   7   8
ATOM      8  C   UNL A   1      33.304  22.559  23.914  1.00  0.00    -0.036 A 
ATOM      9  C   UNL A   1      31.777  25.957  21.721  1.00  0.00     0.044 C 
ATOM     10  C   UNL A   1      32.303  24.827  22.552  1.00  0.00    -0.051 A 
ATOM     11  C   UNL A   1      33.670  24.698  22.797  1.00  0.00     0.004 A 
ATOM     12  C   UNL A   1      31.429  23.902  23.126  1.00  0.00     0.004 A 
ATOM     13  C   UNL A   1      34.163  23.580  23.474  1.00  0.00     0.005 A 
ATOM     14  C   UNL A   1      31.925  22.802  23.833  1.00  0.00     0.005 A 
ENDBRANCH   7   8
BRANCH   7  15
ATOM     15  C   UNL A   1      32.923  20.037  24.210  1.00  0.00     0.022 C 
BRANCH  15  16
ATOM     16  C   UNL A   1      33.509  18.648  24.497  1.00  0.00    -0.010 C 
ATOM     17  C   UNL A   1      32.846  17.873  25.634  1.00  0.00     0.003 C 
ATOM     18  C   UNL A   1      33.278  17.704  23.311  1.00  0.00     0.003 C 
ATOM     19  C   UNL A   1      33.251  16.421  25.379  1.00  0.00     0.000 C 
ATOM     20  C   UNL A   1      33.501  16.308  23.876  1.00  0.00     0.000 C 
ENDBRANCH  15  16
ENDBRANCH   7  15
ENDBRANCH   4   7
ENDBRANCH   2   3
ENDBRANCH   1   2
BRANCH   1  21
ATOM     21  C   UNL A   1      38.064  22.841  25.760  1.00  0.00     0.118 C 
BRANCH  21  22
ATOM     22  N   UNL A   1      39.431  22.680  26.249  1.00  0.00    -0.352 N 
ATOM     23  C   UNL A   1      40.322  23.635  26.725  1.00  0.00     0.251 C 
ATOM     24  H   UNL A   1      39.773  21.757  26.240  1.00  0.00     0.163 HD
ATOM     25  O   UNL A   1      41.444  23.315  27.060  1.00  0.00    -0.269 OA
BRANCH  23  26
ATOM     26  C   UNL A   1      39.838  25.020  26.964  1.00  0.00     0.039 A 
ATOM     27  C   UNL A   1      40.403  26.057  26.209  1.00  0.00     0.014 A 
ATOM     28  C   UNL A   1      39.058  25.314  28.073  1.00  0.00     0.014 A 
ATOM     29  C   UNL A   1      40.425  27.345  26.736  1.00  0.00     0.010 A 
ATOM     30  C   UNL A   1      39.219  26.540  28.673  1.00  0.00     0.010 A 
ATOM     31  C   UNL A   1      39.959  27.537  28.032  1.00  0.00    -0.014 A 
BRANCH  31  32
ATOM     32  C   UNL A   1      40.237  28.712  28.843  1.00  0.00     0.031 A 
ATOM     33  C   UNL A   1      39.224  29.784  28.927  1.00  0.00     0.074 A 
ATOM     34  C   UNL A   1      41.329  28.718  29.642  1.00  0.00     0.049 A 
ATOM     35  N   UNL A   1      39.436  30.937  29.459  1.00  0.00    -0.248 NA
ATOM     36  C   UNL A   1      37.889  29.667  28.343  1.00  0.00     0.031 C 
ATOM     37  C   UNL A   1      41.587  29.588  30.788  1.00  0.00     0.029 A 
ATOM     38  N   UNL A   1      42.547  28.041  29.442  1.00  0.00    -0.354 N 
ATOM     39  C   UNL A   1      38.225  31.581  29.562  1.00  0.00     0.074 A 
ATOM     40  C   UNL A   1      37.329  30.813  28.741  1.00  0.00     0.031 C 
ATOM     41  C   UNL A   1      42.910  29.642  31.003  1.00  0.00     0.029 A 
ATOM     42  C   UNL A   1      43.543  28.937  29.903  1.00  0.00     0.049 A 
ATOM     43  H   UNL A   1      42.678  27.141  29.065  1.00  0.00     0.167 HD
ATOM     44  C   UNL A   1      38.123  32.612  30.447  1.00  0.00     0.037 A 
ATOM     45  C   UNL A   1      44.448  29.497  29.047  1.00  0.00     0.037 A 
ATOM     46  C   UNL A   1      39.459  33.057  30.856  1.00  0.00     0.049 A 
ATOM     47  C   UNL A   1      44.406  31.007  29.015  1.00  0.00     0.074 A 
ATOM     48  C   UNL A   1      40.206  32.912  32.012  1.00  0.00     0.029 A 
ATOM     49  N   UNL A   1      40.337  33.520  29.876  1.00  0.00    -0.354 N 
ATOM     50  N   UNL A   1      43.382  31.717  29.403  1.00  0.00    -0.248 NA
ATOM     51  C   UNL A   1      45.504  31.834  28.524  1.00  0.00     0.031 C 
ATOM     52  C   UNL A   1      41.560  33.211  31.695  1.00  0.00     0.029 A 
ATOM     53  C   UNL A   1      41.627  33.576  30.361  1.00  0.00     0.049 A 
ATOM     54  H   UNL A   1      40.071  33.774  28.963  1.00  0.00     0.167 HD
ATOM     55  C   UNL A   1      43.648  33.048  29.216  1.00  0.00     0.074 A 
ATOM     56  C   UNL A   1      44.997  33.069  28.681  1.00  0.00     0.031 C 
ATOM     57  C   UNL A   1      42.726  34.015  29.507  1.00  0.00     0.037 A 
BRANCH  44  58
ATOM     58  C   UNL A   1      36.841  33.092  31.113  1.00  0.00     0.064 A 
ATOM     59  C   UNL A   1      35.892  33.828  30.365  1.00  0.00     0.173 A 
ATOM     60  C   UNL A   1      36.533  32.987  32.487  1.00  0.00     0.173 A 
ATOM     61  F   UNL A   1      36.032  34.006  29.045  1.00  0.00    -0.203 F 
ATOM     62  C   UNL A   1      34.771  34.432  30.947  1.00  0.00     0.198 A 
ATOM     63  C   UNL A   1      35.394  33.562  33.062  1.00  0.00     0.198 A 
ATOM     64  F   UNL A   1      37.325  32.365  33.360  1.00  0.00    -0.203 F 
ATOM     65  F   UNL A   1      33.940  35.164  30.191  1.00  0.00    -0.200 F 
ATOM     66  C   UNL A   1      34.520  34.300  32.297  1.00  0.00     0.200 A 
ATOM     67  F   UNL A   1      35.172  33.414  34.376  1.00  0.00    -0.200 F 
ATOM     68  F   UNL A   1      33.454  34.883  32.859  1.00  0.00    -0.200 F 
ENDBRANCH  44  58
BRANCH  45  69
ATOM     69  C   UNL A   1      44.773  28.616  27.894  1.00  0.00     0.064 A 
ATOM     70  C   UNL A   1      45.593  27.495  28.129  1.00  0.00     0.173 A 
ATOM     71  C   UNL A   1      43.990  28.613  26.733  1.00  0.00     0.173 A 
ATOM     72  F   UNL A   1      46.366  27.451  29.226  1.00  0.00    -0.203 F 
ATOM     73  C   UNL A   1      45.529  26.366  27.316  1.00  0.00     0.198 A 
ATOM     74  C   UNL A   1      43.944  27.485  25.909  1.00  0.00     0.198 A 
ATOM     75  F   UNL A   1      43.173  29.640  26.463  1.00  0.00    -0.203 F 
ATOM     76  F   UNL A   1      46.225  25.267  27.641  1.00  0.00    -0.200 F 
ATOM     77  C   UNL A   1      44.678  26.351  26.225  1.00  0.00     0.200 A 
ATOM     78  F   UNL A   1      43.099  27.456  24.868  1.00  0.00    -0.200 F 
ATOM     79  F   UNL A   1      44.530  25.229  25.504  1.00  0.00    -0.200 F 
ENDBRANCH  45  69
BRANCH  57  80
ATOM     80  C   UNL A   1      42.789  35.472  29.094  1.00  0.00     0.064 A 
ATOM     81  C   UNL A   1      42.118  36.011  27.982  1.00  0.00     0.173 A 
ATOM     82  C   UNL A   1      43.431  36.424  29.926  1.00  0.00     0.173 A 
ATOM     83  F   UNL A   1      41.360  35.251  27.184  1.00  0.00    -0.203 F 
ATOM     84  C   UNL A   1      42.147  37.379  27.688  1.00  0.00     0.198 A 
ATOM     85  C   UNL A   1      43.402  37.794  29.665  1.00  0.00     0.198 A 
ATOM     86  F   UNL A   1      44.083  36.059  31.040  1.00  0.00    -0.203 F 
ATOM     87  F   UNL A   1      41.528  37.833  26.589  1.00  0.00    -0.200 F 
ATOM     88  C   UNL A   1      42.776  38.271  28.534  1.00  0.00     0.200 A 
ATOM     89  F   UNL A   1      43.967  38.648  30.531  1.00  0.00    -0.200 F 
ATOM     90  F   UNL A   1      42.757  39.585  28.275  1.00  0.00    -0.200 F 
ENDBRANCH  57  80
ENDBRANCH  31  32
ENDBRANCH  23  26
ENDBRANCH  21  22
ENDBRANCH   1  21
TORSDOF 13
ENDMDL
