MODEL 1
REMARK VINA RESULT:     -14.2      0.000      0.000
REMARK SMILES Cc1cc(C(=O)NCCCNC(=O)c2ccc(-c3c4nc(c(-c5c(F)c(F)c(F)c(F)c5F)c5ccc([nH]5)c(-c5c(F)c(F)c(F)c(F)c5F)c5nc(c(-c6c(F)c(F)c(F)c(F)c6F)c6ccc3[nH]6)C=C5)C=C4)cc2)ccc1NC(=O)N1C[C@@H](C)[C@H](C)C1
REMARK SMILES IDX 9 1 8 2 7 3 5 4 6 5 4 7 1 8 2 9 3 10 79 11 78 12 77 13 80 14
REMARK SMILES IDX 81 15 82 17 83 18 84 19 89 20 85 21 87 22 86 23 88 24 10 25
REMARK SMILES IDX 11 26 12 27 13 29 14 30 15 31 76 32 16 33 75 34 17 35 18 36
REMARK SMILES IDX 19 37 69 38 20 39 74 40 68 41 70 42 21 43 73 44 67 45 66 46
REMARK SMILES IDX 22 48 54 49 34 50 53 51 35 52 38 53 52 54 71 55 36 56 37 57
REMARK SMILES IDX 51 59 72 60 39 61 23 62 24 63 32 64 25 65 26 66 30 67 33 68
REMARK SMILES IDX 27 69 28 70 31 71 29 72 55 73 56 74 64 75 57 76 58 77 62 78
REMARK SMILES IDX 65 79 59 80 60 81 63 82 61 83 40 84 41 85 49 86 42 87 43 88
REMARK SMILES IDX 47 89 50 90 44 91 45 92 48 93 46 94
REMARK H PARENT 7 6 80 16 11 28 70 47 38 58
REMARK Flexibility Score: inf
ROOT
ATOM      1  C   UNL A   1      39.277  21.298  26.110  1.00  0.00     0.042 C 
ENDROOT
BRANCH   1   2
ATOM      2  C   UNL A   1      37.954  20.978  25.412  1.00  0.00     0.118 C 
BRANCH   2   3
ATOM      3  N   UNL A   1      37.702  21.820  24.241  1.00  0.00    -0.352 N 
ATOM      4  C   UNL A   1      36.590  22.569  23.895  1.00  0.00     0.251 C 
ATOM      5  O   UNL A   1      36.682  23.385  22.982  1.00  0.00    -0.269 OA
ATOM      6  H   UNL A   1      38.442  21.860  23.593  1.00  0.00     0.163 HD
BRANCH   4   7
ATOM      7  C   UNL A   1      35.309  22.440  24.635  1.00  0.00     0.040 A 
ATOM      8  C   UNL A   1      32.204  20.260  24.592  1.00  0.00     0.046 C 
ATOM      9  C   UNL A   1      33.083  21.447  24.871  1.00  0.00    -0.027 A 
ATOM     10  C   UNL A   1      34.363  21.477  24.269  1.00  0.00     0.019 A 
ATOM     11  C   UNL A   1      32.742  22.477  25.764  1.00  0.00     0.045 A 
ATOM     12  C   UNL A   1      33.767  23.260  26.288  1.00  0.00     0.027 A 
ATOM     13  C   UNL A   1      35.042  23.216  25.750  1.00  0.00     0.016 A 
BRANCH  11  14
ATOM     14  N   UNL A   1      31.412  22.716  26.165  1.00  0.00    -0.308 N 
ATOM     15  C   UNL A   1      30.792  23.923  26.370  1.00  0.00     0.321 C 
ATOM     16  H   UNL A   1      30.859  21.917  26.318  1.00  0.00     0.171 HD
ATOM     17  O   UNL A   1      29.893  24.000  27.207  1.00  0.00    -0.248 OA
ATOM     18  N   UNL A   1      31.190  25.005  25.618  1.00  0.00    -0.324 N 
ATOM     19  C   UNL A   1      31.092  26.356  26.134  1.00  0.00     0.125 C 
ATOM     20  C   UNL A   1      31.319  24.997  24.164  1.00  0.00     0.125 C 
ATOM     21  C   UNL A   1      30.886  27.248  24.913  1.00  0.00     0.010 C 
ATOM     22  C   UNL A   1      31.555  26.461  23.770  1.00  0.00     0.010 C 
ATOM     23  C   UNL A   1      31.475  28.639  25.101  1.00  0.00     0.010 C 
ATOM     24  C   UNL A   1      30.995  26.820  22.395  1.00  0.00     0.010 C 
ENDBRANCH  11  14
ENDBRANCH   4   7
ENDBRANCH   2   3
ENDBRANCH   1   2
BRANCH   1  25
ATOM     25  C   UNL A   1      39.509  22.766  26.412  1.00  0.00     0.118 C 
BRANCH  25  26
ATOM     26  N   UNL A   1      40.900  23.133  26.667  1.00  0.00    -0.352 N 
ATOM     27  C   UNL A   1      41.412  24.383  26.981  1.00  0.00     0.251 C 
ATOM     28  H   UNL A   1      41.557  22.402  26.606  1.00  0.00     0.163 HD
ATOM     29  O   UNL A   1      42.611  24.541  27.201  1.00  0.00    -0.269 OA
BRANCH  27  30
ATOM     30  C   UNL A   1      40.459  25.495  27.203  1.00  0.00     0.039 A 
ATOM     31  C   UNL A   1      40.715  26.684  26.513  1.00  0.00     0.014 A 
ATOM     32  C   UNL A   1      39.661  25.491  28.340  1.00  0.00     0.014 A 
ATOM     33  C   UNL A   1      40.472  27.893  27.152  1.00  0.00     0.010 A 
ATOM     34  C   UNL A   1      39.539  26.675  29.034  1.00  0.00     0.010 A 
ATOM     35  C   UNL A   1      40.024  27.862  28.471  1.00  0.00    -0.014 A 
BRANCH  35  36
ATOM     36  C   UNL A   1      40.020  29.027  29.338  1.00  0.00     0.031 A 
ATOM     37  C   UNL A   1      38.975  30.042  29.129  1.00  0.00     0.074 A 
ATOM     38  C   UNL A   1      40.915  29.159  30.342  1.00  0.00     0.049 A 
ATOM     39  N   UNL A   1      39.073  31.270  29.497  1.00  0.00    -0.248 NA
ATOM     40  C   UNL A   1      37.745  29.749  28.409  1.00  0.00     0.031 C 
ATOM     41  C   UNL A   1      40.881  30.128  31.434  1.00  0.00     0.029 A 
ATOM     42  N   UNL A   1      42.162  28.529  30.483  1.00  0.00    -0.354 N 
ATOM     43  C   UNL A   1      37.845  31.861  29.313  1.00  0.00     0.074 A 
ATOM     44  C   UNL A   1      37.083  30.899  28.553  1.00  0.00     0.031 C 
ATOM     45  C   UNL A   1      42.116  30.260  31.940  1.00  0.00     0.029 A 
ATOM     46  C   UNL A   1      43.011  29.484  31.107  1.00  0.00     0.049 A 
ATOM     47  H   UNL A   1      42.400  27.615  30.205  1.00  0.00     0.167 HD
ATOM     48  C   UNL A   1      37.593  33.045  29.943  1.00  0.00     0.037 A 
ATOM     49  C   UNL A   1      44.116  29.965  30.462  1.00  0.00     0.037 A 
ATOM     50  C   UNL A   1      38.800  33.540  30.617  1.00  0.00     0.049 A 
ATOM     51  C   UNL A   1      44.033  31.436  30.118  1.00  0.00     0.074 A 
ATOM     52  C   UNL A   1      39.265  33.495  31.922  1.00  0.00     0.029 A 
ATOM     53  N   UNL A   1      39.890  33.900  29.843  1.00  0.00    -0.354 N 
ATOM     54  N   UNL A   1      43.029  32.210  30.427  1.00  0.00    -0.248 NA
ATOM     55  C   UNL A   1      45.028  32.116  29.290  1.00  0.00     0.031 C 
ATOM     56  C   UNL A   1      40.654  33.828  31.913  1.00  0.00     0.029 A 
ATOM     57  C   UNL A   1      41.025  34.098  30.609  1.00  0.00     0.049 A 
ATOM     58  H   UNL A   1      39.861  34.003  28.865  1.00  0.00     0.167 HD
ATOM     59  C   UNL A   1      43.193  33.431  29.829  1.00  0.00     0.074 A 
ATOM     60  C   UNL A   1      44.450  33.314  29.110  1.00  0.00     0.031 C 
ATOM     61  C   UNL A   1      42.272  34.435  29.936  1.00  0.00     0.037 A 
BRANCH  48  62
ATOM     62  C   UNL A   1      36.210  33.627  30.163  1.00  0.00     0.064 A 
ATOM     63  C   UNL A   1      35.444  34.074  29.064  1.00  0.00     0.173 A 
ATOM     64  C   UNL A   1      35.599  33.837  31.415  1.00  0.00     0.173 A 
ATOM     65  F   UNL A   1      35.833  33.846  27.803  1.00  0.00    -0.203 F 
ATOM     66  C   UNL A   1      34.243  34.775  29.216  1.00  0.00     0.198 A 
ATOM     67  C   UNL A   1      34.426  34.584  31.572  1.00  0.00     0.198 A 
ATOM     68  F   UNL A   1      36.064  33.270  32.531  1.00  0.00    -0.203 F 
ATOM     69  F   UNL A   1      33.569  35.180  28.130  1.00  0.00    -0.200 F 
ATOM     70  C   UNL A   1      33.753  35.064  30.471  1.00  0.00     0.200 A 
ATOM     71  F   UNL A   1      33.952  34.824  32.804  1.00  0.00    -0.200 F 
ATOM     72  F   UNL A   1      32.625  35.771  30.620  1.00  0.00    -0.200 F 
ENDBRANCH  48  62
BRANCH  49  73
ATOM     73  C   UNL A   1      44.756  28.910  29.624  1.00  0.00     0.064 A 
ATOM     74  C   UNL A   1      44.515  28.989  28.238  1.00  0.00     0.173 A 
ATOM     75  C   UNL A   1      45.935  28.292  30.050  1.00  0.00     0.173 A 
ATOM     76  F   UNL A   1      43.366  29.516  27.786  1.00  0.00    -0.203 F 
ATOM     77  C   UNL A   1      45.537  28.740  27.330  1.00  0.00     0.198 A 
ATOM     78  C   UNL A   1      46.932  27.982  29.129  1.00  0.00     0.198 A 
ATOM     79  F   UNL A   1      46.193  28.136  31.357  1.00  0.00    -0.203 F 
ATOM     80  F   UNL A   1      45.375  29.061  26.038  1.00  0.00    -0.200 F 
ATOM     81  C   UNL A   1      46.764  28.287  27.785  1.00  0.00     0.200 A 
ATOM     82  F   UNL A   1      48.103  27.497  29.562  1.00  0.00    -0.200 F 
ATOM     83  F   UNL A   1      47.797  28.200  26.936  1.00  0.00    -0.200 F 
ENDBRANCH  49  73
BRANCH  61  84
ATOM     84  C   UNL A   1      42.479  35.818  29.365  1.00  0.00     0.064 A 
ATOM     85  C   UNL A   1      41.955  36.210  28.121  1.00  0.00     0.173 A 
ATOM     86  C   UNL A   1      43.293  36.779  30.007  1.00  0.00     0.173 A 
ATOM     87  F   UNL A   1      41.302  35.339  27.339  1.00  0.00    -0.203 F 
ATOM     88  C   UNL A   1      42.115  37.505  27.624  1.00  0.00     0.198 A 
ATOM     89  C   UNL A   1      43.504  38.052  29.478  1.00  0.00     0.198 A 
ATOM     90  F   UNL A   1      43.903  36.529  31.172  1.00  0.00    -0.203 F 
ATOM     91  F   UNL A   1      41.518  37.854  26.476  1.00  0.00    -0.200 F 
ATOM     92  C   UNL A   1      42.888  38.427  28.304  1.00  0.00     0.200 A 
ATOM     93  F   UNL A   1      44.300  38.913  30.126  1.00  0.00    -0.200 F 
ATOM     94  F   UNL A   1      43.047  39.666  27.825  1.00  0.00    -0.200 F 
ENDBRANCH  61  84
ENDBRANCH  35  36
ENDBRANCH  27  30
ENDBRANCH  25  26
ENDBRANCH   1  25
TORSDOF 11
ENDMDL
MODEL 2
REMARK VINA RESULT:     -14.2      3.784      9.883
REMARK SMILES Cc1cc(C(=O)NCCCNC(=O)c2ccc(-c3c4nc(c(-c5c(F)c(F)c(F)c(F)c5F)c5ccc([nH]5)c(-c5c(F)c(F)c(F)c(F)c5F)c5nc(c(-c6c(F)c(F)c(F)c(F)c6F)c6ccc3[nH]6)C=C5)C=C4)cc2)ccc1NC(=O)N1C[C@@H](C)[C@H](C)C1
REMARK SMILES IDX 9 1 8 2 7 3 5 4 6 5 4 7 1 8 2 9 3 10 79 11 78 12 77 13 80 14
REMARK SMILES IDX 81 15 82 17 83 18 84 19 89 20 85 21 87 22 86 23 88 24 10 25
REMARK SMILES IDX 11 26 12 27 13 29 14 30 15 31 76 32 16 33 75 34 17 35 18 36
REMARK SMILES IDX 19 37 69 38 20 39 74 40 68 41 70 42 21 43 73 44 67 45 66 46
REMARK SMILES IDX 22 48 54 49 34 50 53 51 35 52 38 53 52 54 71 55 36 56 37 57
REMARK SMILES IDX 51 59 72 60 39 61 23 62 24 63 32 64 25 65 26 66 30 67 33 68
REMARK SMILES IDX 27 69 28 70 31 71 29 72 55 73 56 74 64 75 57 76 58 77 62 78
REMARK SMILES IDX 65 79 59 80 60 81 63 82 61 83 40 84 41 85 49 86 42 87 43 88
REMARK SMILES IDX 47 89 50 90 44 91 45 92 48 93 46 94
REMARK H PARENT 7 6 80 16 11 28 70 47 38 58
REMARK Flexibility Score: inf
ROOT
ATOM      1  C   UNL A   1      32.337  30.816  26.529  1.00  0.00     0.042 C 
ENDROOT
BRANCH   1   2
ATOM      2  C   UNL A   1      32.314  29.883  25.317  1.00  0.00     0.118 C 
BRANCH   2   3
ATOM      3  N   UNL A   1      31.140  30.077  24.463  1.00  0.00    -0.352 N 
ATOM      4  C   UNL A   1      30.332  29.154  23.823  1.00  0.00     0.251 C 
ATOM      5  O   UNL A   1      29.262  29.525  23.347  1.00  0.00    -0.269 OA
ATOM      6  H   UNL A   1      30.884  31.017  24.320  1.00  0.00     0.163 HD
BRANCH   4   7
ATOM      7  C   UNL A   1      30.708  27.718  23.744  1.00  0.00     0.040 A 
ATOM      8  C   UNL A   1      32.844  25.453  21.576  1.00  0.00     0.046 C 
ATOM      9  C   UNL A   1      31.776  25.866  22.551  1.00  0.00    -0.027 A 
ATOM     10  C   UNL A   1      31.537  27.251  22.719  1.00  0.00     0.019 A 
ATOM     11  C   UNL A   1      31.074  24.964  23.367  1.00  0.00     0.045 A 
ATOM     12  C   UNL A   1      30.463  25.455  24.517  1.00  0.00     0.027 A 
ATOM     13  C   UNL A   1      30.313  26.817  24.716  1.00  0.00     0.016 A 
BRANCH  11  14
ATOM     14  N   UNL A   1      30.998  23.587  23.076  1.00  0.00    -0.308 N 
ATOM     15  C   UNL A   1      31.996  22.648  23.149  1.00  0.00     0.321 C 
ATOM     16  H   UNL A   1      30.118  23.258  22.781  1.00  0.00     0.171 HD
ATOM     17  O   UNL A   1      31.971  21.686  22.382  1.00  0.00    -0.248 OA
ATOM     18  N   UNL A   1      32.984  22.809  24.094  1.00  0.00    -0.324 N 
ATOM     19  C   UNL A   1      34.324  22.302  23.873  1.00  0.00     0.125 C 
ATOM     20  C   UNL A   1      32.739  23.073  25.509  1.00  0.00     0.125 C 
ATOM     21  C   UNL A   1      34.874  21.980  25.260  1.00  0.00     0.010 C 
ATOM     22  C   UNL A   1      34.109  22.942  26.188  1.00  0.00     0.010 C 
ATOM     23  C   UNL A   1      36.384  22.151  25.343  1.00  0.00     0.010 C 
ATOM     24  C   UNL A   1      34.027  22.439  27.629  1.00  0.00     0.010 C 
ENDBRANCH  11  14
ENDBRANCH   4   7
ENDBRANCH   2   3
ENDBRANCH   1   2
BRANCH   1  25
ATOM     25  C   UNL A   1      33.279  30.404  27.643  1.00  0.00     0.118 C 
BRANCH  25  26
ATOM     26  N   UNL A   1      34.117  31.478  28.174  1.00  0.00    -0.352 N 
ATOM     27  C   UNL A   1      35.406  31.387  28.677  1.00  0.00     0.251 C 
ATOM     28  H   UNL A   1      33.716  32.377  28.175  1.00  0.00     0.163 HD
ATOM     29  O   UNL A   1      36.007  32.387  29.065  1.00  0.00    -0.269 OA
BRANCH  27  30
ATOM     30  C   UNL A   1      36.104  30.084  28.591  1.00  0.00     0.039 A 
ATOM     31  C   UNL A   1      36.510  29.511  29.799  1.00  0.00     0.014 A 
ATOM     32  C   UNL A   1      36.696  29.708  27.392  1.00  0.00     0.014 A 
ATOM     33  C   UNL A   1      37.725  28.841  29.846  1.00  0.00     0.010 A 
ATOM     34  C   UNL A   1      37.960  29.163  27.451  1.00  0.00     0.010 A 
ATOM     35  C   UNL A   1      38.504  28.810  28.692  1.00  0.00    -0.014 A 
BRANCH  35  36
ATOM     36  C   UNL A   1      39.902  28.413  28.685  1.00  0.00     0.031 A 
ATOM     37  C   UNL A   1      40.220  27.004  28.404  1.00  0.00     0.074 A 
ATOM     38  C   UNL A   1      40.889  29.316  28.881  1.00  0.00     0.049 A 
ATOM     39  N   UNL A   1      41.309  26.422  28.763  1.00  0.00    -0.248 NA
ATOM     40  C   UNL A   1      39.277  26.115  27.743  1.00  0.00     0.031 C 
ATOM     41  C   UNL A   1      42.319  29.122  28.656  1.00  0.00     0.029 A 
ATOM     42  N   UNL A   1      40.807  30.573  29.501  1.00  0.00    -0.354 N 
ATOM     43  C   UNL A   1      41.338  25.184  28.164  1.00  0.00     0.074 A 
ATOM     44  C   UNL A   1      40.014  25.009  27.616  1.00  0.00     0.031 C 
ATOM     45  C   UNL A   1      43.001  30.029  29.371  1.00  0.00     0.029 A 
ATOM     46  C   UNL A   1      42.042  30.750  30.183  1.00  0.00     0.049 A 
ATOM     47  H   UNL A   1      40.050  31.201  29.470  1.00  0.00     0.167 HD
ATOM     48  C   UNL A   1      42.528  24.519  28.104  1.00  0.00     0.037 A 
ATOM     49  C   UNL A   1      42.078  30.864  31.546  1.00  0.00     0.037 A 
ATOM     50  C   UNL A   1      43.565  25.243  28.850  1.00  0.00     0.049 A 
ATOM     51  C   UNL A   1      42.767  29.709  32.239  1.00  0.00     0.074 A 
ATOM     52  C   UNL A   1      44.582  26.115  28.494  1.00  0.00     0.029 A 
ATOM     53  N   UNL A   1      43.424  25.372  30.222  1.00  0.00    -0.354 N 
ATOM     54  N   UNL A   1      43.319  28.701  31.621  1.00  0.00    -0.248 NA
ATOM     55  C   UNL A   1      42.779  29.547  33.691  1.00  0.00     0.031 C 
ATOM     56  C   UNL A   1      45.041  26.772  29.675  1.00  0.00     0.029 A 
ATOM     57  C   UNL A   1      44.322  26.283  30.750  1.00  0.00     0.049 A 
ATOM     58  H   UNL A   1      42.765  24.875  30.757  1.00  0.00     0.167 HD
ATOM     59  C   UNL A   1      43.702  27.758  32.536  1.00  0.00     0.074 A 
ATOM     60  C   UNL A   1      43.322  28.326  33.819  1.00  0.00     0.031 C 
ATOM     61  C   UNL A   1      44.269  26.568  32.177  1.00  0.00     0.037 A 
BRANCH  48  62
ATOM     62  C   UNL A   1      42.821  23.358  27.172  1.00  0.00     0.064 A 
ATOM     63  C   UNL A   1      42.262  22.086  27.424  1.00  0.00     0.173 A 
ATOM     64  C   UNL A   1      43.683  23.399  26.058  1.00  0.00     0.173 A 
ATOM     65  F   UNL A   1      41.337  21.906  28.376  1.00  0.00    -0.203 F 
ATOM     66  C   UNL A   1      42.631  20.944  26.707  1.00  0.00     0.198 A 
ATOM     67  C   UNL A   1      44.094  22.250  25.374  1.00  0.00     0.198 A 
ATOM     68  F   UNL A   1      44.107  24.553  25.536  1.00  0.00    -0.203 F 
ATOM     69  F   UNL A   1      42.068  19.764  27.002  1.00  0.00    -0.200 F 
ATOM     70  C   UNL A   1      43.576  21.019  25.706  1.00  0.00     0.200 A 
ATOM     71  F   UNL A   1      44.992  22.354  24.382  1.00  0.00    -0.200 F 
ATOM     72  F   UNL A   1      43.961  19.919  25.045  1.00  0.00    -0.200 F 
ENDBRANCH  48  62
BRANCH  49  73
ATOM     73  C   UNL A   1      40.889  31.602  32.059  1.00  0.00     0.064 A 
ATOM     74  C   UNL A   1      39.900  30.822  32.689  1.00  0.00     0.173 A 
ATOM     75  C   UNL A   1      41.001  32.945  32.432  1.00  0.00     0.173 A 
ATOM     76  F   UNL A   1      39.713  29.545  32.317  1.00  0.00    -0.203 F 
ATOM     77  C   UNL A   1      39.270  31.279  33.841  1.00  0.00     0.198 A 
ATOM     78  C   UNL A   1      40.317  33.418  33.548  1.00  0.00     0.198 A 
ATOM     79  F   UNL A   1      41.884  33.752  31.827  1.00  0.00    -0.203 F 
ATOM     80  F   UNL A   1      38.526  30.437  34.574  1.00  0.00    -0.200 F 
ATOM     81  C   UNL A   1      39.523  32.561  34.299  1.00  0.00     0.200 A 
ATOM     82  F   UNL A   1      40.521  34.674  33.965  1.00  0.00    -0.200 F 
ATOM     83  F   UNL A   1      39.046  32.948  35.490  1.00  0.00    -0.200 F 
ENDBRANCH  49  73
BRANCH  61  84
ATOM     84  C   UNL A   1      44.786  25.558  33.174  1.00  0.00     0.064 A 
ATOM     85  C   UNL A   1      43.952  24.922  34.110  1.00  0.00     0.173 A 
ATOM     86  C   UNL A   1      46.162  25.257  33.291  1.00  0.00     0.173 A 
ATOM     87  F   UNL A   1      42.654  25.243  34.211  1.00  0.00    -0.203 F 
ATOM     88  C   UNL A   1      44.433  23.958  34.998  1.00  0.00     0.198 A 
ATOM     89  C   UNL A   1      46.651  24.340  34.220  1.00  0.00     0.198 A 
ATOM     90  F   UNL A   1      47.083  25.827  32.503  1.00  0.00    -0.203 F 
ATOM     91  F   UNL A   1      43.579  23.315  35.807  1.00  0.00    -0.200 F 
ATOM     92  C   UNL A   1      45.783  23.665  35.051  1.00  0.00     0.200 A 
ATOM     93  F   UNL A   1      47.969  24.109  34.293  1.00  0.00    -0.200 F 
ATOM     94  F   UNL A   1      46.245  22.745  35.906  1.00  0.00    -0.200 F 
ENDBRANCH  61  84
ENDBRANCH  35  36
ENDBRANCH  27  30
ENDBRANCH  25  26
ENDBRANCH   1  25
TORSDOF 11
ENDMDL
MODEL 3
REMARK VINA RESULT:     -14.1      4.127     10.252
REMARK SMILES Cc1cc(C(=O)NCCCNC(=O)c2ccc(-c3c4nc(c(-c5c(F)c(F)c(F)c(F)c5F)c5ccc([nH]5)c(-c5c(F)c(F)c(F)c(F)c5F)c5nc(c(-c6c(F)c(F)c(F)c(F)c6F)c6ccc3[nH]6)C=C5)C=C4)cc2)ccc1NC(=O)N1C[C@@H](C)[C@H](C)C1
REMARK SMILES IDX 9 1 8 2 7 3 5 4 6 5 4 7 1 8 2 9 3 10 79 11 78 12 77 13 80 14
REMARK SMILES IDX 81 15 82 17 83 18 84 19 89 20 85 21 87 22 86 23 88 24 10 25
REMARK SMILES IDX 11 26 12 27 13 29 14 30 15 31 76 32 16 33 75 34 17 35 18 36
REMARK SMILES IDX 19 37 69 38 20 39 74 40 68 41 70 42 21 43 73 44 67 45 66 46
REMARK SMILES IDX 22 48 54 49 34 50 53 51 35 52 38 53 52 54 71 55 36 56 37 57
REMARK SMILES IDX 51 59 72 60 39 61 23 62 24 63 32 64 25 65 26 66 30 67 33 68
REMARK SMILES IDX 27 69 28 70 31 71 29 72 55 73 56 74 64 75 57 76 58 77 62 78
REMARK SMILES IDX 65 79 59 80 60 81 63 82 61 83 40 84 41 85 49 86 42 87 43 88
REMARK SMILES IDX 47 89 50 90 44 91 45 92 48 93 46 94
REMARK H PARENT 7 6 80 16 11 28 70 47 38 58
REMARK Flexibility Score: inf
ROOT
ATOM      1  C   UNL A   1      33.444  31.857  27.576  1.00  0.00     0.042 C 
ENDROOT
BRANCH   1   2
ATOM      2  C   UNL A   1      32.412  31.039  26.797  1.00  0.00     0.118 C 
BRANCH   2   3
ATOM      3  N   UNL A   1      31.932  29.867  27.533  1.00  0.00    -0.352 N 
ATOM      4  C   UNL A   1      31.811  28.546  27.138  1.00  0.00     0.251 C 
ATOM      5  O   UNL A   1      31.605  27.685  27.990  1.00  0.00    -0.269 OA
ATOM      6  H   UNL A   1      31.649  30.047  28.458  1.00  0.00     0.163 HD
BRANCH   4   7
ATOM      7  C   UNL A   1      31.974  28.145  25.717  1.00  0.00     0.040 A 
ATOM      8  C   UNL A   1      29.951  28.160  22.507  1.00  0.00     0.046 C 
ATOM      9  C   UNL A   1      31.019  27.775  23.492  1.00  0.00    -0.027 A 
ATOM     10  C   UNL A   1      30.922  28.292  24.806  1.00  0.00     0.019 A 
ATOM     11  C   UNL A   1      32.150  27.012  23.157  1.00  0.00     0.045 A 
ATOM     12  C   UNL A   1      33.267  27.094  23.984  1.00  0.00     0.027 A 
ATOM     13  C   UNL A   1      33.185  27.683  25.234  1.00  0.00     0.016 A 
BRANCH  11  14
ATOM     14  N   UNL A   1      32.198  26.202  22.005  1.00  0.00    -0.308 N 
ATOM     15  C   UNL A   1      32.881  25.026  21.823  1.00  0.00     0.321 C 
ATOM     16  H   UNL A   1      31.676  26.519  21.234  1.00  0.00     0.171 HD
ATOM     17  O   UNL A   1      33.287  24.737  20.698  1.00  0.00    -0.248 OA
ATOM     18  N   UNL A   1      33.075  24.201  22.908  1.00  0.00    -0.324 N 
ATOM     19  C   UNL A   1      34.232  23.331  22.994  1.00  0.00     0.125 C 
ATOM     20  C   UNL A   1      32.018  23.774  23.821  1.00  0.00     0.125 C 
ATOM     21  C   UNL A   1      33.782  22.131  23.822  1.00  0.00     0.010 C 
ATOM     22  C   UNL A   1      32.659  22.700  24.709  1.00  0.00     0.010 C 
ATOM     23  C   UNL A   1      34.920  21.518  24.626  1.00  0.00     0.010 C 
ATOM     24  C   UNL A   1      31.673  21.631  25.178  1.00  0.00     0.010 C 
ENDBRANCH  11  14
ENDBRANCH   4   7
ENDBRANCH   2   3
ENDBRANCH   1   2
BRANCH   1  25
ATOM     25  C   UNL A   1      34.703  31.107  27.964  1.00  0.00     0.118 C 
BRANCH  25  26
ATOM     26  N   UNL A   1      35.516  31.753  28.993  1.00  0.00    -0.352 N 
ATOM     27  C   UNL A   1      36.637  31.252  29.637  1.00  0.00     0.251 C 
ATOM     28  H   UNL A   1      35.231  32.656  29.263  1.00  0.00     0.163 HD
ATOM     29  O   UNL A   1      37.245  31.924  30.468  1.00  0.00    -0.269 OA
BRANCH  27  30
ATOM     30  C   UNL A   1      37.182  29.950  29.188  1.00  0.00     0.039 A 
ATOM     31  C   UNL A   1      37.436  29.002  30.182  1.00  0.00     0.014 A 
ATOM     32  C   UNL A   1      37.804  29.864  27.949  1.00  0.00     0.014 A 
ATOM     33  C   UNL A   1      38.559  28.193  30.063  1.00  0.00     0.010 A 
ATOM     34  C   UNL A   1      38.988  29.164  27.880  1.00  0.00     0.010 A 
ATOM     35  C   UNL A   1      39.404  28.397  28.976  1.00  0.00    -0.014 A 
BRANCH  35  36
ATOM     36  C   UNL A   1      40.743  27.839  28.892  1.00  0.00     0.031 A 
ATOM     37  C   UNL A   1      40.878  26.409  28.572  1.00  0.00     0.074 A 
ATOM     38  C   UNL A   1      41.838  28.615  29.052  1.00  0.00     0.049 A 
ATOM     39  N   UNL A   1      41.906  25.695  28.867  1.00  0.00    -0.248 NA
ATOM     40  C   UNL A   1      39.806  25.651  27.945  1.00  0.00     0.031 C 
ATOM     41  C   UNL A   1      43.223  28.260  28.752  1.00  0.00     0.029 A 
ATOM     42  N   UNL A   1      41.935  29.859  29.695  1.00  0.00    -0.354 N 
ATOM     43  C   UNL A   1      41.759  24.476  28.248  1.00  0.00     0.074 A 
ATOM     44  C   UNL A   1      40.399  24.470  27.764  1.00  0.00     0.031 C 
ATOM     45  C   UNL A   1      44.040  29.065  29.446  1.00  0.00     0.029 A 
ATOM     46  C   UNL A   1      43.214  29.875  30.317  1.00  0.00     0.049 A 
ATOM     47  H   UNL A   1      41.257  30.573  29.712  1.00  0.00     0.167 HD
ATOM     48  C   UNL A   1      42.858  23.677  28.116  1.00  0.00     0.037 A 
ATOM     49  C   UNL A   1      43.329  29.954  31.678  1.00  0.00     0.037 A 
ATOM     50  C   UNL A   1      44.008  24.258  28.821  1.00  0.00     0.049 A 
ATOM     51  C   UNL A   1      43.909  28.712  32.316  1.00  0.00     0.074 A 
ATOM     52  C   UNL A   1      45.102  25.012  28.428  1.00  0.00     0.029 A 
ATOM     53  N   UNL A   1      43.950  24.372  30.200  1.00  0.00    -0.354 N 
ATOM     54  N   UNL A   1      44.307  27.659  31.656  1.00  0.00    -0.248 NA
ATOM     55  C   UNL A   1      43.972  28.517  33.764  1.00  0.00     0.031 C 
ATOM     56  C   UNL A   1      45.693  25.585  29.595  1.00  0.00     0.029 A 
ATOM     57  C   UNL A   1      44.974  25.159  30.697  1.00  0.00     0.049 A 
ATOM     58  H   UNL A   1      43.263  23.945  30.760  1.00  0.00     0.167 HD
ATOM     59  C   UNL A   1      44.620  26.658  32.535  1.00  0.00     0.074 A 
ATOM     60  C   UNL A   1      44.372  27.239  33.844  1.00  0.00     0.031 C 
ATOM     61  C   UNL A   1      45.024  25.418  32.129  1.00  0.00     0.037 A 
BRANCH  48  62
ATOM     62  C   UNL A   1      42.966  22.511  27.152  1.00  0.00     0.064 A 
ATOM     63  C   UNL A   1      42.180  21.354  27.346  1.00  0.00     0.173 A 
ATOM     64  C   UNL A   1      43.855  22.428  26.063  1.00  0.00     0.173 A 
ATOM     65  F   UNL A   1      41.209  21.315  28.269  1.00  0.00    -0.203 F 
ATOM     66  C   UNL A   1      42.360  20.185  26.599  1.00  0.00     0.198 A 
ATOM     67  C   UNL A   1      44.073  21.245  25.350  1.00  0.00     0.198 A 
ATOM     68  F   UNL A   1      44.494  23.501  25.591  1.00  0.00    -0.203 F 
ATOM     69  F   UNL A   1      41.586  19.117  26.840  1.00  0.00    -0.200 F 
ATOM     70  C   UNL A   1      43.333  20.118  25.625  1.00  0.00     0.200 A 
ATOM     71  F   UNL A   1      45.005  21.214  24.384  1.00  0.00    -0.200 F 
ATOM     72  F   UNL A   1      43.535  18.986  24.937  1.00  0.00    -0.200 F 
ENDBRANCH  48  62
BRANCH  49  73
ATOM     73  C   UNL A   1      42.262  30.816  32.262  1.00  0.00     0.064 A 
ATOM     74  C   UNL A   1      41.195  30.141  32.888  1.00  0.00     0.173 A 
ATOM     75  C   UNL A   1      42.561  32.112  32.692  1.00  0.00     0.173 A 
ATOM     76  F   UNL A   1      40.832  28.920  32.464  1.00  0.00    -0.203 F 
ATOM     77  C   UNL A   1      40.661  30.619  34.079  1.00  0.00     0.198 A 
ATOM     78  C   UNL A   1      41.974  32.615  33.850  1.00  0.00     0.198 A 
ATOM     79  F   UNL A   1      43.527  32.826  32.096  1.00  0.00    -0.203 F 
ATOM     80  F   UNL A   1      39.831  29.848  34.796  1.00  0.00    -0.200 F 
ATOM     81  C   UNL A   1      41.093  31.833  34.586  1.00  0.00     0.200 A 
ATOM     82  F   UNL A   1      42.354  33.812  34.317  1.00  0.00    -0.200 F 
ATOM     83  F   UNL A   1      40.704  32.220  35.808  1.00  0.00    -0.200 F 
ENDBRANCH  49  73
BRANCH  61  84
ATOM     84  C   UNL A   1      45.465  24.333  33.082  1.00  0.00     0.064 A 
ATOM     85  C   UNL A   1      44.619  23.283  33.479  1.00  0.00     0.173 A 
ATOM     86  C   UNL A   1      46.732  24.357  33.710  1.00  0.00     0.173 A 
ATOM     87  F   UNL A   1      43.340  23.238  33.082  1.00  0.00    -0.203 F 
ATOM     88  C   UNL A   1      45.052  22.261  34.327  1.00  0.00     0.198 A 
ATOM     89  C   UNL A   1      47.141  23.369  34.605  1.00  0.00     0.198 A 
ATOM     90  F   UNL A   1      47.624  25.326  33.472  1.00  0.00    -0.203 F 
ATOM     91  F   UNL A   1      44.235  21.235  34.601  1.00  0.00    -0.200 F 
ATOM     92  C   UNL A   1      46.315  22.303  34.888  1.00  0.00     0.200 A 
ATOM     93  F   UNL A   1      48.348  23.456  35.180  1.00  0.00    -0.200 F 
ATOM     94  F   UNL A   1      46.727  21.327  35.706  1.00  0.00    -0.200 F 
ENDBRANCH  61  84
ENDBRANCH  35  36
ENDBRANCH  27  30
ENDBRANCH  25  26
ENDBRANCH   1  25
TORSDOF 11
ENDMDL
