MODEL 1
REMARK VINA RESULT:     -14.0      0.000      0.000
REMARK SMILES Cc1ccc(/C=C(\NC(=O)c2cccc(C)c2)C(=O)OCCOC(=O)c2ccc(-c3c4nc(c(-c5c(F)c(F)c(F)c(F)c5F)c5ccc([nH]5)c(-c5c(F)c(F)c(F)c(F)c5F)c5nc(c(-c6c(F)c(F)c(F)c(F)c6F)c6ccc3[nH]6)C=C5)C=C4)cc2)cc1
REMARK SMILES IDX 21 1 20 2 18 3 19 4 7 5 6 6 5 7 1 8 2 9 3 10 90 11 4 12
REMARK SMILES IDX 89 13 8 14 9 15 10 17 11 18 12 19 17 20 13 21 15 22 14 23
REMARK SMILES IDX 16 24 22 25 23 26 24 27 25 28 26 29 27 30 88 31 28 32 87 33
REMARK SMILES IDX 29 34 30 35 31 36 81 37 32 38 86 39 80 40 82 41 33 42 85 43
REMARK SMILES IDX 79 44 78 45 34 47 66 48 46 49 65 50 47 51 50 52 64 53 83 54
REMARK SMILES IDX 48 55 49 56 63 58 84 59 51 60 35 61 36 62 44 63 37 64 38 65
REMARK SMILES IDX 42 66 45 67 39 68 40 69 43 70 41 71 67 72 68 73 76 74 69 75
REMARK SMILES IDX 70 76 74 77 77 78 71 79 72 80 75 81 73 82 52 83 53 84 61 85
REMARK SMILES IDX 54 86 55 87 59 88 62 89 56 90 57 91 60 92 58 93
REMARK H PARENT 8 16 82 46 50 57
REMARK Flexibility Score: inf
ROOT
ATOM      1  C   UNL A   1      32.990  28.982  25.768  1.00  0.00     0.275 C 
ENDROOT
BRANCH   1   2
ATOM      2  O   UNL A   1      31.866  28.113  25.490  1.00  0.00    -0.457 OA
BRANCH   2   3
ATOM      3  C   UNL A   1      32.177  27.097  24.661  1.00  0.00     0.354 C 
ATOM      4  O   UNL A   1      31.893  27.072  23.474  1.00  0.00    -0.244 OA
BRANCH   3   5
ATOM      5  C   UNL A   1      32.872  25.950  25.273  1.00  0.00     0.128 C 
ATOM      6  C   UNL A   1      34.033  25.606  24.662  1.00  0.00     0.042 C 
BRANCH   6   7
ATOM      7  C   UNL A   1      34.967  24.445  24.751  1.00  0.00    -0.023 A 
ATOM      8  C   UNL A   1      37.708  21.048  24.639  1.00  0.00     0.044 C 
ATOM      9  C   UNL A   1      36.755  22.211  24.669  1.00  0.00    -0.051 A 
ATOM     10  C   UNL A   1      36.577  22.959  25.838  1.00  0.00     0.004 A 
ATOM     11  C   UNL A   1      36.041  22.587  23.534  1.00  0.00     0.004 A 
ATOM     12  C   UNL A   1      35.707  24.069  25.875  1.00  0.00     0.008 A 
ATOM     13  C   UNL A   1      35.167  23.684  23.578  1.00  0.00     0.008 A 
ENDBRANCH   6   7
BRANCH   5  14
ATOM     14  N   UNL A   1      32.274  25.253  26.294  1.00  0.00    -0.316 N 
ATOM     15  C   UNL A   1      31.677  24.011  26.413  1.00  0.00     0.255 C 
ATOM     16  H   UNL A   1      32.269  25.755  27.141  1.00  0.00     0.170 HD
ATOM     17  O   UNL A   1      30.793  23.956  27.280  1.00  0.00    -0.269 OA
BRANCH  15  18
ATOM     18  C   UNL A   1      32.006  22.718  25.713  1.00  0.00     0.040 A 
ATOM     19  C   UNL A   1      32.884  21.853  26.385  1.00  0.00     0.014 A 
ATOM     20  C   UNL A   1      31.738  22.411  24.374  1.00  0.00     0.017 A 
ATOM     21  C   UNL A   1      33.486  20.764  25.743  1.00  0.00     0.001 A 
ATOM     22  C   UNL A   1      32.314  21.302  23.714  1.00  0.00    -0.050 A 
ATOM     23  C   UNL A   1      33.212  20.497  24.407  1.00  0.00     0.003 A 
ATOM     24  C   UNL A   1      32.071  21.023  22.257  1.00  0.00     0.044 C 
ENDBRANCH  15  18
ENDBRANCH   5  14
ENDBRANCH   3   5
ENDBRANCH   2   3
ENDBRANCH   1   2
BRANCH   1  25
ATOM     25  C   UNL A   1      33.624  28.715  27.142  1.00  0.00     0.275 C 
BRANCH  25  26
ATOM     26  O   UNL A   1      35.024  29.038  27.179  1.00  0.00    -0.458 OA
BRANCH  26  27
ATOM     27  C   UNL A   1      35.419  30.288  27.546  1.00  0.00     0.338 C 
ATOM     28  O   UNL A   1      34.744  31.300  27.502  1.00  0.00    -0.246 OA
BRANCH  27  29
ATOM     29  C   UNL A   1      36.676  30.132  28.345  1.00  0.00     0.060 A 
ATOM     30  C   UNL A   1      36.656  29.396  29.549  1.00  0.00     0.016 A 
ATOM     31  C   UNL A   1      37.864  30.284  27.648  1.00  0.00     0.016 A 
ATOM     32  C   UNL A   1      37.773  28.626  29.940  1.00  0.00     0.010 A 
ATOM     33  C   UNL A   1      38.881  29.415  27.947  1.00  0.00     0.010 A 
ATOM     34  C   UNL A   1      38.878  28.578  29.096  1.00  0.00    -0.014 A 
BRANCH  34  35
ATOM     35  C   UNL A   1      40.134  27.820  29.266  1.00  0.00     0.031 A 
ATOM     36  C   UNL A   1      40.418  26.410  28.855  1.00  0.00     0.074 A 
ATOM     37  C   UNL A   1      41.155  28.666  29.558  1.00  0.00     0.049 A 
ATOM     38  N   UNL A   1      41.622  25.936  28.853  1.00  0.00    -0.248 NA
ATOM     39  C   UNL A   1      39.469  25.405  28.369  1.00  0.00     0.031 C 
ATOM     40  C   UNL A   1      42.596  28.555  29.399  1.00  0.00     0.029 A 
ATOM     41  N   UNL A   1      41.007  29.905  30.213  1.00  0.00    -0.354 N 
ATOM     42  C   UNL A   1      41.669  24.761  28.134  1.00  0.00     0.074 A 
ATOM     43  C   UNL A   1      40.286  24.450  27.877  1.00  0.00     0.031 C 
ATOM     44  C   UNL A   1      43.185  29.441  30.226  1.00  0.00     0.029 A 
ATOM     45  C   UNL A   1      42.123  30.017  31.042  1.00  0.00     0.049 A 
ATOM     46  H   UNL A   1      40.273  30.552  30.107  1.00  0.00     0.167 HD
ATOM     47  C   UNL A   1      42.908  24.292  27.787  1.00  0.00     0.037 A 
ATOM     48  C   UNL A   1      41.918  29.809  32.377  1.00  0.00     0.037 A 
ATOM     49  C   UNL A   1      43.914  24.927  28.636  1.00  0.00     0.049 A 
ATOM     50  C   UNL A   1      42.713  28.619  32.838  1.00  0.00     0.074 A 
ATOM     51  C   UNL A   1      44.893  25.881  28.440  1.00  0.00     0.029 A 
ATOM     52  N   UNL A   1      43.796  24.746  30.010  1.00  0.00    -0.354 N 
ATOM     53  N   UNL A   1      42.964  27.573  32.094  1.00  0.00    -0.248 NA
ATOM     54  C   UNL A   1      43.385  28.579  34.127  1.00  0.00     0.031 C 
ATOM     55  C   UNL A   1      45.252  26.383  29.725  1.00  0.00     0.029 A 
ATOM     56  C   UNL A   1      44.525  25.696  30.686  1.00  0.00     0.049 A 
ATOM     57  H   UNL A   1      43.266  24.035  30.439  1.00  0.00     0.167 HD
ATOM     58  C   UNL A   1      43.902  26.804  32.722  1.00  0.00     0.074 A 
ATOM     59  C   UNL A   1      44.097  27.446  34.011  1.00  0.00     0.031 C 
ATOM     60  C   UNL A   1      44.506  25.730  32.138  1.00  0.00     0.037 A 
BRANCH  47  61
ATOM     61  C   UNL A   1      43.312  23.366  26.649  1.00  0.00     0.064 A 
ATOM     62  C   UNL A   1      43.046  21.972  26.739  1.00  0.00     0.173 A 
ATOM     63  C   UNL A   1      44.086  23.738  25.535  1.00  0.00     0.173 A 
ATOM     64  F   UNL A   1      42.305  21.465  27.735  1.00  0.00    -0.203 F 
ATOM     65  C   UNL A   1      43.545  21.039  25.822  1.00  0.00     0.198 A 
ATOM     66  C   UNL A   1      44.557  22.802  24.597  1.00  0.00     0.198 A 
ATOM     67  F   UNL A   1      44.441  25.010  25.326  1.00  0.00    -0.203 F 
ATOM     68  F   UNL A   1      43.302  19.731  26.000  1.00  0.00    -0.200 F 
ATOM     69  C   UNL A   1      44.300  21.454  24.749  1.00  0.00     0.200 A 
ATOM     70  F   UNL A   1      45.287  23.217  23.551  1.00  0.00    -0.200 F 
ATOM     71  F   UNL A   1      44.784  20.562  23.872  1.00  0.00    -0.200 F 
ENDBRANCH  47  61
BRANCH  48  72
ATOM     72  C   UNL A   1      40.522  30.184  32.805  1.00  0.00     0.064 A 
ATOM     73  C   UNL A   1      40.105  31.523  32.593  1.00  0.00     0.173 A 
ATOM     74  C   UNL A   1      39.508  29.237  33.005  1.00  0.00     0.173 A 
ATOM     75  F   UNL A   1      41.021  32.481  32.374  1.00  0.00    -0.203 F 
ATOM     76  C   UNL A   1      38.759  31.863  32.451  1.00  0.00     0.198 A 
ATOM     77  C   UNL A   1      38.155  29.592  32.899  1.00  0.00     0.198 A 
ATOM     78  F   UNL A   1      39.812  27.948  33.212  1.00  0.00    -0.203 F 
ATOM     79  F   UNL A   1      38.417  33.115  32.108  1.00  0.00    -0.200 F 
ATOM     80  C   UNL A   1      37.785  30.893  32.586  1.00  0.00     0.200 A 
ATOM     81  F   UNL A   1      37.204  28.655  33.024  1.00  0.00    -0.200 F 
ATOM     82  F   UNL A   1      36.494  31.202  32.384  1.00  0.00    -0.200 F 
ENDBRANCH  48  72
BRANCH  60  83
ATOM     83  C   UNL A   1      45.216  24.647  32.902  1.00  0.00     0.064 A 
ATOM     84  C   UNL A   1      46.498  24.822  33.453  1.00  0.00     0.173 A 
ATOM     85  C   UNL A   1      44.549  23.455  33.265  1.00  0.00     0.173 A 
ATOM     86  F   UNL A   1      47.169  25.973  33.307  1.00  0.00    -0.203 F 
ATOM     87  C   UNL A   1      47.107  23.837  34.226  1.00  0.00     0.198 A 
ATOM     88  C   UNL A   1      45.137  22.500  34.092  1.00  0.00     0.198 A 
ATOM     89  F   UNL A   1      43.298  23.197  32.860  1.00  0.00    -0.203 F 
ATOM     90  F   UNL A   1      48.352  24.031  34.680  1.00  0.00    -0.200 F 
ATOM     91  C   UNL A   1      46.425  22.681  34.552  1.00  0.00     0.200 A 
ATOM     92  F   UNL A   1      44.439  21.417  34.458  1.00  0.00    -0.200 F 
ATOM     93  F   UNL A   1      46.999  21.756  35.332  1.00  0.00    -0.200 F 
ENDBRANCH  60  83
ENDBRANCH  34  35
ENDBRANCH  27  29
ENDBRANCH  26  27
ENDBRANCH  25  26
ENDBRANCH   1  25
TORSDOF 14
ENDMDL
MODEL 2
REMARK VINA RESULT:     -14.0      3.574      9.712
REMARK SMILES Cc1ccc(/C=C(\NC(=O)c2cccc(C)c2)C(=O)OCCOC(=O)c2ccc(-c3c4nc(c(-c5c(F)c(F)c(F)c(F)c5F)c5ccc([nH]5)c(-c5c(F)c(F)c(F)c(F)c5F)c5nc(c(-c6c(F)c(F)c(F)c(F)c6F)c6ccc3[nH]6)C=C5)C=C4)cc2)cc1
REMARK SMILES IDX 21 1 20 2 18 3 19 4 7 5 6 6 5 7 1 8 2 9 3 10 90 11 4 12
REMARK SMILES IDX 89 13 8 14 9 15 10 17 11 18 12 19 17 20 13 21 15 22 14 23
REMARK SMILES IDX 16 24 22 25 23 26 24 27 25 28 26 29 27 30 88 31 28 32 87 33
REMARK SMILES IDX 29 34 30 35 31 36 81 37 32 38 86 39 80 40 82 41 33 42 85 43
REMARK SMILES IDX 79 44 78 45 34 47 66 48 46 49 65 50 47 51 50 52 64 53 83 54
REMARK SMILES IDX 48 55 49 56 63 58 84 59 51 60 35 61 36 62 44 63 37 64 38 65
REMARK SMILES IDX 42 66 45 67 39 68 40 69 43 70 41 71 67 72 68 73 76 74 69 75
REMARK SMILES IDX 70 76 74 77 77 78 71 79 72 80 75 81 73 82 52 83 53 84 61 85
REMARK SMILES IDX 54 86 55 87 59 88 62 89 56 90 57 91 60 92 58 93
REMARK H PARENT 8 16 82 46 50 57
REMARK Flexibility Score: inf
ROOT
ATOM      1  C   UNL A   1      35.834  22.721  25.598  1.00  0.00     0.275 C 
ENDROOT
BRANCH   1   2
ATOM      2  O   UNL A   1      34.873  22.446  24.551  1.00  0.00    -0.457 OA
BRANCH   2   3
ATOM      3  C   UNL A   1      33.692  23.065  24.743  1.00  0.00     0.354 C 
ATOM      4  O   UNL A   1      32.639  22.480  24.946  1.00  0.00    -0.244 OA
BRANCH   3   5
ATOM      5  C   UNL A   1      33.710  24.536  24.660  1.00  0.00     0.128 C 
ATOM      6  C   UNL A   1      33.330  25.168  25.799  1.00  0.00     0.042 C 
BRANCH   6   7
ATOM      7  C   UNL A   1      32.988  26.575  26.160  1.00  0.00    -0.023 A 
ATOM      8  C   UNL A   1      32.279  30.797  27.017  1.00  0.00     0.044 C 
ATOM      9  C   UNL A   1      32.536  29.345  26.727  1.00  0.00    -0.051 A 
ATOM     10  C   UNL A   1      31.538  28.386  26.934  1.00  0.00     0.004 A 
ATOM     11  C   UNL A   1      33.764  28.916  26.228  1.00  0.00     0.004 A 
ATOM     12  C   UNL A   1      31.755  27.023  26.641  1.00  0.00     0.008 A 
ATOM     13  C   UNL A   1      33.980  27.558  25.949  1.00  0.00     0.008 A 
ENDBRANCH   6   7
BRANCH   5  14
ATOM     14  N   UNL A   1      33.974  25.152  23.461  1.00  0.00    -0.316 N 
ATOM     15  C   UNL A   1      33.217  25.825  22.519  1.00  0.00     0.255 C 
ATOM     16  H   UNL A   1      34.925  25.101  23.213  1.00  0.00     0.170 HD
ATOM     17  O   UNL A   1      33.658  25.744  21.363  1.00  0.00    -0.269 OA
BRANCH  15  18
ATOM     18  C   UNL A   1      32.006  26.701  22.711  1.00  0.00     0.040 A 
ATOM     19  C   UNL A   1      32.246  28.082  22.794  1.00  0.00     0.014 A 
ATOM     20  C   UNL A   1      30.723  26.272  23.067  1.00  0.00     0.017 A 
ATOM     21  C   UNL A   1      31.265  28.977  23.241  1.00  0.00     0.001 A 
ATOM     22  C   UNL A   1      29.711  27.161  23.495  1.00  0.00    -0.050 A 
ATOM     23  C   UNL A   1      30.006  28.516  23.604  1.00  0.00     0.003 A 
ATOM     24  C   UNL A   1      28.358  26.679  23.939  1.00  0.00     0.044 C 
ENDBRANCH  15  18
ENDBRANCH   5  14
ENDBRANCH   3   5
ENDBRANCH   2   3
ENDBRANCH   1   2
BRANCH   1  25
ATOM     25  C   UNL A   1      37.096  23.426  25.079  1.00  0.00     0.275 C 
BRANCH  25  26
ATOM     26  O   UNL A   1      37.812  24.117  26.117  1.00  0.00    -0.458 OA
BRANCH  26  27
ATOM     27  C   UNL A   1      38.915  23.544  26.672  1.00  0.00     0.338 C 
ATOM     28  O   UNL A   1      39.273  22.390  26.538  1.00  0.00    -0.246 OA
BRANCH  27  29
ATOM     29  C   UNL A   1      39.788  24.659  27.158  1.00  0.00     0.060 A 
ATOM     30  C   UNL A   1      40.266  25.626  26.247  1.00  0.00     0.016 A 
ATOM     31  C   UNL A   1      39.686  24.972  28.505  1.00  0.00     0.016 A 
ATOM     32  C   UNL A   1      40.431  26.971  26.645  1.00  0.00     0.010 A 
ATOM     33  C   UNL A   1      39.694  26.300  28.842  1.00  0.00     0.010 A 
ATOM     34  C   UNL A   1      40.076  27.330  27.941  1.00  0.00    -0.014 A 
BRANCH  34  35
ATOM     35  C   UNL A   1      40.119  28.666  28.570  1.00  0.00     0.031 A 
ATOM     36  C   UNL A   1      39.075  29.737  28.524  1.00  0.00     0.074 A 
ATOM     37  C   UNL A   1      41.106  28.713  29.501  1.00  0.00     0.049 A 
ATOM     38  N   UNL A   1      39.132  30.770  29.300  1.00  0.00    -0.248 NA
ATOM     39  C   UNL A   1      37.867  29.782  27.697  1.00  0.00     0.031 C 
ATOM     40  C   UNL A   1      41.312  29.554  30.669  1.00  0.00     0.029 A 
ATOM     41  N   UNL A   1      42.279  27.933  29.466  1.00  0.00    -0.354 N 
ATOM     42  C   UNL A   1      37.918  31.423  29.312  1.00  0.00     0.074 A 
ATOM     43  C   UNL A   1      37.164  30.784  28.264  1.00  0.00     0.031 C 
ATOM     44  C   UNL A   1      42.619  29.515  30.996  1.00  0.00     0.029 A 
ATOM     45  C   UNL A   1      43.290  28.770  29.938  1.00  0.00     0.049 A 
ATOM     46  H   UNL A   1      42.365  26.998  29.172  1.00  0.00     0.167 HD
ATOM     47  C   UNL A   1      37.720  32.352  30.299  1.00  0.00     0.037 A 
ATOM     48  C   UNL A   1      44.151  29.277  29.005  1.00  0.00     0.037 A 
ATOM     49  C   UNL A   1      39.014  32.743  30.853  1.00  0.00     0.049 A 
ATOM     50  C   UNL A   1      44.047  30.776  28.974  1.00  0.00     0.074 A 
ATOM     51  C   UNL A   1      39.673  32.514  32.046  1.00  0.00     0.029 A 
ATOM     52  N   UNL A   1      39.945  33.293  29.977  1.00  0.00    -0.354 N 
ATOM     53  N   UNL A   1      42.943  31.439  29.202  1.00  0.00    -0.248 NA
ATOM     54  C   UNL A   1      45.208  31.637  28.806  1.00  0.00     0.031 C 
ATOM     55  C   UNL A   1      41.053  32.792  31.821  1.00  0.00     0.029 A 
ATOM     56  C   UNL A   1      41.209  33.231  30.515  1.00  0.00     0.049 A 
ATOM     57  H   UNL A   1      39.728  33.674  29.095  1.00  0.00     0.167 HD
ATOM     58  C   UNL A   1      43.249  32.764  29.339  1.00  0.00     0.074 A 
ATOM     59  C   UNL A   1      44.667  32.845  29.033  1.00  0.00     0.031 C 
ATOM     60  C   UNL A   1      42.349  33.703  29.749  1.00  0.00     0.037 A 
BRANCH  47  61
ATOM     61  C   UNL A   1      36.421  32.875  30.894  1.00  0.00     0.064 A 
ATOM     62  C   UNL A   1      35.625  33.800  30.164  1.00  0.00     0.173 A 
ATOM     63  C   UNL A   1      35.978  32.641  32.209  1.00  0.00     0.173 A 
ATOM     64  F   UNL A   1      35.909  34.112  28.891  1.00  0.00    -0.203 F 
ATOM     65  C   UNL A   1      34.519  34.458  30.715  1.00  0.00     0.198 A 
ATOM     66  C   UNL A   1      34.847  33.278  32.749  1.00  0.00     0.198 A 
ATOM     67  F   UNL A   1      36.635  31.815  33.029  1.00  0.00    -0.203 F 
ATOM     68  F   UNL A   1      33.848  35.363  29.985  1.00  0.00    -0.200 F 
ATOM     69  C   UNL A   1      34.128  34.196  32.009  1.00  0.00     0.200 A 
ATOM     70  F   UNL A   1      34.469  33.012  34.008  1.00  0.00    -0.200 F 
ATOM     71  F   UNL A   1      33.073  34.829  32.541  1.00  0.00    -0.200 F 
ENDBRANCH  47  61
BRANCH  48  72
ATOM     72  C   UNL A   1      44.315  28.357  27.822  1.00  0.00     0.064 A 
ATOM     73  C   UNL A   1      44.850  27.066  28.060  1.00  0.00     0.173 A 
ATOM     74  C   UNL A   1      43.616  28.533  26.620  1.00  0.00     0.173 A 
ATOM     75  F   UNL A   1      45.515  26.818  29.201  1.00  0.00    -0.203 F 
ATOM     76  C   UNL A   1      44.581  25.988  27.215  1.00  0.00     0.198 A 
ATOM     77  C   UNL A   1      43.380  27.454  25.755  1.00  0.00     0.198 A 
ATOM     78  F   UNL A   1      43.076  29.721  26.314  1.00  0.00    -0.203 F 
ATOM     79  F   UNL A   1      44.985  24.754  27.554  1.00  0.00    -0.200 F 
ATOM     80  C   UNL A   1      43.830  26.179  26.072  1.00  0.00     0.200 A 
ATOM     81  F   UNL A   1      42.647  27.631  24.646  1.00  0.00    -0.200 F 
ATOM     82  F   UNL A   1      43.511  25.133  25.293  1.00  0.00    -0.200 F 
ENDBRANCH  48  72
BRANCH  60  83
ATOM     83  C   UNL A   1      42.519  35.181  29.529  1.00  0.00     0.064 A 
ATOM     84  C   UNL A   1      43.407  35.964  30.286  1.00  0.00     0.173 A 
ATOM     85  C   UNL A   1      41.924  35.825  28.419  1.00  0.00     0.173 A 
ATOM     86  F   UNL A   1      44.146  35.429  31.269  1.00  0.00    -0.203 F 
ATOM     87  C   UNL A   1      43.611  37.315  30.016  1.00  0.00     0.198 A 
ATOM     88  C   UNL A   1      42.182  37.160  28.114  1.00  0.00     0.198 A 
ATOM     89  F   UNL A   1      41.109  35.172  27.580  1.00  0.00    -0.203 F 
ATOM     90  F   UNL A   1      44.426  38.029  30.804  1.00  0.00    -0.200 F 
ATOM     91  C   UNL A   1      43.006  37.910  28.927  1.00  0.00     0.200 A 
ATOM     92  F   UNL A   1      41.643  37.706  27.015  1.00  0.00    -0.200 F 
ATOM     93  F   UNL A   1      43.239  39.199  28.645  1.00  0.00    -0.200 F 
ENDBRANCH  60  83
ENDBRANCH  34  35
ENDBRANCH  27  29
ENDBRANCH  26  27
ENDBRANCH  25  26
ENDBRANCH   1  25
TORSDOF 14
ENDMDL
MODEL 3
REMARK VINA RESULT:     -13.6      0.779      1.454
REMARK SMILES Cc1ccc(/C=C(\NC(=O)c2cccc(C)c2)C(=O)OCCOC(=O)c2ccc(-c3c4nc(c(-c5c(F)c(F)c(F)c(F)c5F)c5ccc([nH]5)c(-c5c(F)c(F)c(F)c(F)c5F)c5nc(c(-c6c(F)c(F)c(F)c(F)c6F)c6ccc3[nH]6)C=C5)C=C4)cc2)cc1
REMARK SMILES IDX 21 1 20 2 18 3 19 4 7 5 6 6 5 7 1 8 2 9 3 10 90 11 4 12
REMARK SMILES IDX 89 13 8 14 9 15 10 17 11 18 12 19 17 20 13 21 15 22 14 23
REMARK SMILES IDX 16 24 22 25 23 26 24 27 25 28 26 29 27 30 88 31 28 32 87 33
REMARK SMILES IDX 29 34 30 35 31 36 81 37 32 38 86 39 80 40 82 41 33 42 85 43
REMARK SMILES IDX 79 44 78 45 34 47 66 48 46 49 65 50 47 51 50 52 64 53 83 54
REMARK SMILES IDX 48 55 49 56 63 58 84 59 51 60 35 61 36 62 44 63 37 64 38 65
REMARK SMILES IDX 42 66 45 67 39 68 40 69 43 70 41 71 67 72 68 73 76 74 69 75
REMARK SMILES IDX 70 76 74 77 77 78 71 79 72 80 75 81 73 82 52 83 53 84 61 85
REMARK SMILES IDX 54 86 55 87 59 88 62 89 56 90 57 91 60 92 58 93
REMARK H PARENT 8 16 82 46 50 57
REMARK Flexibility Score: inf
ROOT
ATOM      1  C   UNL A   1      32.494  28.770  25.933  1.00  0.00     0.275 C 
ENDROOT
BRANCH   1   2
ATOM      2  O   UNL A   1      31.479  27.764  25.707  1.00  0.00    -0.457 OA
BRANCH   2   3
ATOM      3  C   UNL A   1      31.853  26.828  24.814  1.00  0.00     0.354 C 
ATOM      4  O   UNL A   1      31.509  26.824  23.642  1.00  0.00    -0.244 OA
BRANCH   3   5
ATOM      5  C   UNL A   1      32.702  25.740  25.332  1.00  0.00     0.128 C 
ATOM      6  C   UNL A   1      33.818  25.500  24.601  1.00  0.00     0.042 C 
BRANCH   6   7
ATOM      7  C   UNL A   1      34.851  24.422  24.574  1.00  0.00    -0.023 A 
ATOM      8  C   UNL A   1      37.866  21.279  24.867  1.00  0.00     0.044 C 
ATOM      9  C   UNL A   1      36.836  22.369  24.774  1.00  0.00    -0.051 A 
ATOM     10  C   UNL A   1      36.132  22.589  23.585  1.00  0.00     0.004 A 
ATOM     11  C   UNL A   1      36.540  23.176  25.870  1.00  0.00     0.004 A 
ATOM     12  C   UNL A   1      35.143  23.591  23.490  1.00  0.00     0.008 A 
ATOM     13  C   UNL A   1      35.564  24.179  25.769  1.00  0.00     0.008 A 
ENDBRANCH   6   7
BRANCH   5  14
ATOM     14  N   UNL A   1      32.274  24.986  26.399  1.00  0.00    -0.316 N 
ATOM     15  C   UNL A   1      31.786  23.702  26.556  1.00  0.00     0.255 C 
ATOM     16  H   UNL A   1      32.326  25.476  27.251  1.00  0.00     0.170 HD
ATOM     17  O   UNL A   1      31.010  23.569  27.513  1.00  0.00    -0.269 OA
BRANCH  15  18
ATOM     18  C   UNL A   1      32.129  22.446  25.796  1.00  0.00     0.040 A 
ATOM     19  C   UNL A   1      33.080  21.601  26.391  1.00  0.00     0.014 A 
ATOM     20  C   UNL A   1      31.799  22.169  24.465  1.00  0.00     0.017 A 
ATOM     21  C   UNL A   1      33.689  20.559  25.680  1.00  0.00     0.001 A 
ATOM     22  C   UNL A   1      32.382  21.106  23.739  1.00  0.00    -0.050 A 
ATOM     23  C   UNL A   1      33.351  20.321  24.354  1.00  0.00     0.003 A 
ATOM     24  C   UNL A   1      32.068  20.861  22.289  1.00  0.00     0.044 C 
ENDBRANCH  15  18
ENDBRANCH   5  14
ENDBRANCH   3   5
ENDBRANCH   2   3
ENDBRANCH   1   2
BRANCH   1  25
ATOM     25  C   UNL A   1      33.229  28.586  27.270  1.00  0.00     0.275 C 
BRANCH  25  26
ATOM     26  O   UNL A   1      34.615  28.963  27.198  1.00  0.00    -0.458 OA
BRANCH  26  27
ATOM     27  C   UNL A   1      34.972  30.259  27.408  1.00  0.00     0.338 C 
ATOM     28  O   UNL A   1      34.244  31.231  27.329  1.00  0.00    -0.246 OA
BRANCH  27  29
ATOM     29  C   UNL A   1      36.299  30.240  28.102  1.00  0.00     0.060 A 
ATOM     30  C   UNL A   1      36.409  29.676  29.392  1.00  0.00     0.016 A 
ATOM     31  C   UNL A   1      37.416  30.317  27.285  1.00  0.00     0.016 A 
ATOM     32  C   UNL A   1      37.579  28.990  29.780  1.00  0.00     0.010 A 
ATOM     33  C   UNL A   1      38.482  29.517  27.606  1.00  0.00     0.010 A 
ATOM     34  C   UNL A   1      38.606  28.847  28.852  1.00  0.00    -0.014 A 
BRANCH  34  35
ATOM     35  C   UNL A   1      39.896  28.145  29.009  1.00  0.00     0.031 A 
ATOM     36  C   UNL A   1      40.195  26.704  28.737  1.00  0.00     0.074 A 
ATOM     37  C   UNL A   1      40.908  29.043  29.124  1.00  0.00     0.049 A 
ATOM     38  N   UNL A   1      41.410  26.262  28.694  1.00  0.00    -0.248 NA
ATOM     39  C   UNL A   1      39.247  25.627  28.441  1.00  0.00     0.031 C 
ATOM     40  C   UNL A   1      42.335  28.949  28.867  1.00  0.00     0.029 A 
ATOM     41  N   UNL A   1      40.768  30.344  29.646  1.00  0.00    -0.354 N 
ATOM     42  C   UNL A   1      41.443  25.014  28.109  1.00  0.00     0.074 A 
ATOM     43  C   UNL A   1      40.056  24.643  27.996  1.00  0.00     0.031 C 
ATOM     44  C   UNL A   1      42.955  29.938  29.542  1.00  0.00     0.029 A 
ATOM     45  C   UNL A   1      41.938  30.577  30.368  1.00  0.00     0.049 A 
ATOM     46  H   UNL A   1      40.008  30.957  29.526  1.00  0.00     0.167 HD
ATOM     47  C   UNL A   1      42.667  24.539  27.722  1.00  0.00     0.037 A 
ATOM     48  C   UNL A   1      41.840  30.518  31.730  1.00  0.00     0.037 A 
ATOM     49  C   UNL A   1      43.712  25.291  28.414  1.00  0.00     0.049 A 
ATOM     50  C   UNL A   1      42.705  29.407  32.258  1.00  0.00     0.074 A 
ATOM     51  C   UNL A   1      44.642  26.241  28.037  1.00  0.00     0.029 A 
ATOM     52  N   UNL A   1      43.703  25.265  29.805  1.00  0.00    -0.354 N 
ATOM     53  N   UNL A   1      42.935  28.290  31.618  1.00  0.00    -0.248 NA
ATOM     54  C   UNL A   1      43.473  29.530  33.488  1.00  0.00     0.031 C 
ATOM     55  C   UNL A   1      45.078  26.894  29.227  1.00  0.00     0.029 A 
ATOM     56  C   UNL A   1      44.448  26.304  30.312  1.00  0.00     0.049 A 
ATOM     57  H   UNL A   1      43.230  24.595  30.350  1.00  0.00     0.167 HD
ATOM     58  C   UNL A   1      43.942  27.620  32.254  1.00  0.00     0.074 A 
ATOM     59  C   UNL A   1      44.211  28.409  33.444  1.00  0.00     0.031 C 
ATOM     60  C   UNL A   1      44.536  26.502  31.748  1.00  0.00     0.037 A 
BRANCH  47  61
ATOM     61  C   UNL A   1      43.017  23.500  26.667  1.00  0.00     0.064 A 
ATOM     62  C   UNL A   1      42.792  22.120  26.927  1.00  0.00     0.173 A 
ATOM     63  C   UNL A   1      43.703  23.759  25.467  1.00  0.00     0.173 A 
ATOM     64  F   UNL A   1      42.133  21.714  28.022  1.00  0.00    -0.203 F 
ATOM     65  C   UNL A   1      43.250  21.099  26.085  1.00  0.00     0.198 A 
ATOM     66  C   UNL A   1      44.133  22.734  24.607  1.00  0.00     0.198 A 
ATOM     67  F   UNL A   1      44.011  25.006  25.096  1.00  0.00    -0.203 F 
ATOM     68  F   UNL A   1      43.052  19.816  26.422  1.00  0.00    -0.200 F 
ATOM     69  C   UNL A   1      43.921  21.406  24.922  1.00  0.00     0.200 A 
ATOM     70  F   UNL A   1      44.779  23.042  23.472  1.00  0.00    -0.200 F 
ATOM     71  F   UNL A   1      44.365  20.431  24.117  1.00  0.00    -0.200 F 
ENDBRANCH  47  61
BRANCH  48  72
ATOM     72  C   UNL A   1      40.468  30.904  32.220  1.00  0.00     0.064 A 
ATOM     73  C   UNL A   1      39.592  29.863  32.616  1.00  0.00     0.173 A 
ATOM     74  C   UNL A   1      40.161  32.191  32.685  1.00  0.00     0.173 A 
ATOM     75  F   UNL A   1      39.835  28.600  32.225  1.00  0.00    -0.203 F 
ATOM     76  C   UNL A   1      38.559  30.073  33.531  1.00  0.00     0.198 A 
ATOM     77  C   UNL A   1      39.098  32.404  33.576  1.00  0.00     0.198 A 
ATOM     78  F   UNL A   1      40.936  33.234  32.360  1.00  0.00    -0.203 F 
ATOM     79  F   UNL A   1      37.846  29.033  33.990  1.00  0.00    -0.200 F 
ATOM     80  C   UNL A   1      38.325  31.342  34.025  1.00  0.00     0.200 A 
ATOM     81  F   UNL A   1      38.868  33.632  34.064  1.00  0.00    -0.200 F 
ATOM     82  F   UNL A   1      37.378  31.538  34.956  1.00  0.00    -0.200 F 
ENDBRANCH  48  72
BRANCH  60  83
ATOM     83  C   UNL A   1      45.337  25.531  32.571  1.00  0.00     0.064 A 
ATOM     84  C   UNL A   1      46.699  25.721  32.858  1.00  0.00     0.173 A 
ATOM     85  C   UNL A   1      44.708  24.465  33.256  1.00  0.00     0.173 A 
ATOM     86  F   UNL A   1      47.369  26.785  32.390  1.00  0.00    -0.203 F 
ATOM     87  C   UNL A   1      47.405  24.854  33.688  1.00  0.00     0.198 A 
ATOM     88  C   UNL A   1      45.403  23.639  34.136  1.00  0.00     0.198 A 
ATOM     89  F   UNL A   1      43.397  24.218  33.120  1.00  0.00    -0.203 F 
ATOM     90  F   UNL A   1      48.716  25.049  33.883  1.00  0.00    -0.200 F 
ATOM     91  C   UNL A   1      46.756  23.819  34.333  1.00  0.00     0.200 A 
ATOM     92  F   UNL A   1      44.747  22.683  34.808  1.00  0.00    -0.200 F 
ATOM     93  F   UNL A   1      47.430  23.014  35.165  1.00  0.00    -0.200 F 
ENDBRANCH  60  83
ENDBRANCH  34  35
ENDBRANCH  27  29
ENDBRANCH  26  27
ENDBRANCH  25  26
ENDBRANCH   1  25
TORSDOF 14
ENDMDL
