MODEL 1
REMARK VINA RESULT:     -13.1      0.000      0.000
REMARK SMILES CCN1C(=O)C[C@@H](C(=O)Nc2cccc(C(=O)OCCOC(=O)c3ccc(-c4c5nc(c(-c6c(F)c(F)c(F)c(F)c6F)c6ccc([nH]6)c(-c6c(F)c(F)c(F)c(F)c6F)c6nc(c(-c7c(F)c(F)c(F)c(F)c7F)c7ccc4[nH]7)C=C6)C=C5)cc3)c2)S/C1=[NH+]/c1ccccc1
REMARK SMILES IDX 19 1 18 2 16 3 17 4 15 5 11 6 12 7 87 8 13 9 14 10 10 11
REMARK SMILES IDX 8 12 9 13 7 15 3 16 4 17 89 18 5 19 6 20 88 21 90 22 2 24
REMARK SMILES IDX 1 25 91 26 92 27 96 28 93 29 95 30 94 31 20 32 21 33 22 34
REMARK SMILES IDX 23 35 24 36 25 37 86 38 26 39 85 40 27 41 28 42 29 43 79 44
REMARK SMILES IDX 30 45 84 46 78 47 80 48 31 49 83 50 77 51 76 52 32 54 64 55
REMARK SMILES IDX 44 56 63 57 45 58 48 59 62 60 81 61 46 62 47 63 61 65 82 66
REMARK SMILES IDX 49 67 33 68 34 69 42 70 35 71 36 72 40 73 43 74 37 75 38 76
REMARK SMILES IDX 41 77 39 78 65 79 66 80 74 81 67 82 68 83 72 84 75 85 69 86
REMARK SMILES IDX 70 87 73 88 71 89 50 90 51 91 59 92 52 93 53 94 57 95 60 96
REMARK SMILES IDX 54 97 55 98 58 99 56 100
REMARK H PARENT 10 14 90 23 80 53 48 64
REMARK Flexibility Score: inf
ROOT
ATOM      1  C   UNL A   1      42.563  20.490  26.156  1.00  0.00     0.275 C 
ENDROOT
BRANCH   1   2
ATOM      2  O   UNL A   1      41.165  20.643  25.837  1.00  0.00    -0.458 OA
BRANCH   2   3
ATOM      3  C   UNL A   1      40.436  21.255  26.794  1.00  0.00     0.338 C 
ATOM      4  O   UNL A   1      40.602  21.138  28.001  1.00  0.00    -0.246 OA
BRANCH   3   5
ATOM      5  C   UNL A   1      39.331  22.065  26.242  1.00  0.00     0.062 A 
ATOM      6  C   UNL A   1      37.166  22.009  25.211  1.00  0.00     0.042 A 
ATOM      7  C   UNL A   1      36.919  23.327  25.598  1.00  0.00     0.026 A 
ATOM      8  C   UNL A   1      38.420  21.444  25.402  1.00  0.00     0.041 A 
ATOM      9  C   UNL A   1      37.864  23.994  26.372  1.00  0.00     0.003 A 
ATOM     10  C   UNL A   1      39.037  23.337  26.747  1.00  0.00     0.016 A 
BRANCH   6  11
ATOM     11  N   UNL A   1      36.101  21.226  24.762  1.00  0.00    -0.325 N 
ATOM     12  C   UNL A   1      34.748  21.464  24.869  1.00  0.00     0.238 C 
ATOM     13  O   UNL A   1      33.993  20.543  24.532  1.00  0.00    -0.273 OA
ATOM     14  H   UNL A   1      36.350  20.390  24.306  1.00  0.00     0.169 HD
BRANCH  12  15
ATOM     15  C   UNL A   1      34.146  22.846  25.243  1.00  0.00     0.160 C 
ATOM     16  N   UNL A   1      31.914  24.804  25.001  1.00  0.00    -0.191 N 
ATOM     17  C   UNL A   1      32.140  24.060  26.145  1.00  0.00     0.311 C 
ATOM     18  C   UNL A   1      32.962  25.169  24.166  1.00  0.00     0.319 C 
ATOM     19  O   UNL A   1      31.714  24.382  27.253  1.00  0.00    -0.247 OA
ATOM     20  C   UNL A   1      32.812  22.740  25.937  1.00  0.00     0.153 C 
ATOM     21  S   UNL A   1      34.258  24.017  23.888  1.00  0.00    -0.024 SA
ATOM     22  N   UNL A   1      33.150  26.269  23.508  1.00  0.00    -0.235 N 
ATOM     23  H   UNL A   1      33.827  26.258  22.793  1.00  0.00     0.313 HD
BRANCH  16  24
ATOM     24  C   UNL A   1      30.592  25.440  24.915  1.00  0.00     0.243 C 
ATOM     25  C   UNL A   1      29.828  25.094  23.632  1.00  0.00     0.054 C 
ENDBRANCH  16  24
BRANCH  22  26
ATOM     26  C   UNL A   1      32.471  27.470  23.728  1.00  0.00     0.125 A 
ATOM     27  C   UNL A   1      32.590  28.118  24.960  1.00  0.00     0.051 A 
ATOM     28  C   UNL A   1      31.552  27.966  22.795  1.00  0.00     0.051 A 
ATOM     29  C   UNL A   1      31.849  29.273  25.234  1.00  0.00     0.004 A 
ATOM     30  C   UNL A   1      30.823  29.126  23.057  1.00  0.00     0.004 A 
ATOM     31  C   UNL A   1      30.973  29.780  24.277  1.00  0.00     0.000 A 
ENDBRANCH  22  26
ENDBRANCH  12  15
ENDBRANCH   6  11
ENDBRANCH   3   5
ENDBRANCH   2   3
ENDBRANCH   1   2
BRANCH   1  32
ATOM     32  C   UNL A   1      43.418  21.500  25.390  1.00  0.00     0.275 C 
BRANCH  32  33
ATOM     33  O   UNL A   1      42.661  22.681  25.054  1.00  0.00    -0.458 OA
BRANCH  33  34
ATOM     34  C   UNL A   1      43.376  23.828  25.022  1.00  0.00     0.338 C 
ATOM     35  O   UNL A   1      44.306  24.106  24.285  1.00  0.00    -0.246 OA
BRANCH  34  36
ATOM     36  C   UNL A   1      42.837  24.800  25.985  1.00  0.00     0.060 A 
ATOM     37  C   UNL A   1      43.103  26.151  25.797  1.00  0.00     0.016 A 
ATOM     38  C   UNL A   1      42.245  24.372  27.168  1.00  0.00     0.016 A 
ATOM     39  C   UNL A   1      42.902  27.066  26.817  1.00  0.00     0.010 A 
ATOM     40  C   UNL A   1      41.903  25.318  28.142  1.00  0.00     0.010 A 
ATOM     41  C   UNL A   1      42.250  26.673  27.985  1.00  0.00    -0.014 A 
BRANCH  41  42
ATOM     42  C   UNL A   1      41.917  27.684  29.021  1.00  0.00     0.031 A 
ATOM     43  C   UNL A   1      42.768  27.804  30.252  1.00  0.00     0.074 A 
ATOM     44  C   UNL A   1      40.842  28.483  28.857  1.00  0.00     0.049 A 
ATOM     45  N   UNL A   1      42.514  28.426  31.373  1.00  0.00    -0.248 NA
ATOM     46  C   UNL A   1      44.074  27.125  30.224  1.00  0.00     0.031 C 
ATOM     47  C   UNL A   1      39.981  28.525  27.670  1.00  0.00     0.029 A 
ATOM     48  N   UNL A   1      40.278  29.412  29.697  1.00  0.00    -0.354 N 
ATOM     49  C   UNL A   1      43.590  28.155  32.208  1.00  0.00     0.074 A 
ATOM     50  C   UNL A   1      44.511  27.327  31.460  1.00  0.00     0.031 C 
ATOM     51  C   UNL A   1      39.019  29.440  27.848  1.00  0.00     0.029 A 
ATOM     52  C   UNL A   1      39.117  29.958  29.204  1.00  0.00     0.049 A 
ATOM     53  H   UNL A   1      40.666  29.661  30.567  1.00  0.00     0.167 HD
ATOM     54  C   UNL A   1      43.773  28.557  33.487  1.00  0.00     0.037 A 
ATOM     55  C   UNL A   1      38.187  30.726  29.801  1.00  0.00     0.037 A 
ATOM     56  C   UNL A   1      42.867  29.427  34.191  1.00  0.00     0.049 A 
ATOM     57  C   UNL A   1      38.374  31.080  31.248  1.00  0.00     0.074 A 
ATOM     58  C   UNL A   1      42.981  29.935  35.472  1.00  0.00     0.029 A 
ATOM     59  N   UNL A   1      41.678  29.916  33.670  1.00  0.00    -0.354 N 
ATOM     60  N   UNL A   1      39.380  30.805  32.043  1.00  0.00    -0.248 NA
ATOM     61  C   UNL A   1      37.285  31.825  31.893  1.00  0.00     0.031 C 
ATOM     62  C   UNL A   1      41.831  30.678  35.750  1.00  0.00     0.029 A 
ATOM     63  C   UNL A   1      41.027  30.684  34.621  1.00  0.00     0.049 A 
ATOM     64  H   UNL A   1      41.346  29.742  32.759  1.00  0.00     0.167 HD
ATOM     65  C   UNL A   1      39.055  31.359  33.272  1.00  0.00     0.074 A 
ATOM     66  C   UNL A   1      37.769  32.005  33.113  1.00  0.00     0.031 C 
ATOM     67  C   UNL A   1      39.752  31.328  34.433  1.00  0.00     0.037 A 
BRANCH  54  68
ATOM     68  C   UNL A   1      44.960  28.026  34.236  1.00  0.00     0.064 A 
ATOM     69  C   UNL A   1      46.176  28.720  34.308  1.00  0.00     0.173 A 
ATOM     70  C   UNL A   1      44.848  26.825  34.958  1.00  0.00     0.173 A 
ATOM     71  F   UNL A   1      46.341  29.865  33.628  1.00  0.00    -0.203 F 
ATOM     72  C   UNL A   1      47.238  28.227  35.062  1.00  0.00     0.198 A 
ATOM     73  C   UNL A   1      45.900  26.350  35.734  1.00  0.00     0.198 A 
ATOM     74  F   UNL A   1      43.705  26.122  34.926  1.00  0.00    -0.203 F 
ATOM     75  F   UNL A   1      48.402  28.890  35.091  1.00  0.00    -0.200 F 
ATOM     76  C   UNL A   1      47.096  27.049  35.783  1.00  0.00     0.200 A 
ATOM     77  F   UNL A   1      45.755  25.220  36.439  1.00  0.00    -0.200 F 
ATOM     78  F   UNL A   1      48.114  26.587  36.523  1.00  0.00    -0.200 F 
ENDBRANCH  54  68
BRANCH  55  79
ATOM     79  C   UNL A   1      36.962  31.141  29.063  1.00  0.00     0.064 A 
ATOM     80  C   UNL A   1      36.791  32.467  28.644  1.00  0.00     0.173 A 
ATOM     81  C   UNL A   1      35.928  30.233  28.786  1.00  0.00     0.173 A 
ATOM     82  F   UNL A   1      37.738  33.379  28.905  1.00  0.00    -0.203 F 
ATOM     83  C   UNL A   1      35.624  32.874  27.999  1.00  0.00     0.198 A 
ATOM     84  C   UNL A   1      34.779  30.631  28.106  1.00  0.00     0.198 A 
ATOM     85  F   UNL A   1      36.037  28.951  29.165  1.00  0.00    -0.203 F 
ATOM     86  F   UNL A   1      35.461  34.160  27.663  1.00  0.00    -0.200 F 
ATOM     87  C   UNL A   1      34.622  31.954  27.725  1.00  0.00     0.200 A 
ATOM     88  F   UNL A   1      33.823  29.735  27.827  1.00  0.00    -0.200 F 
ATOM     89  F   UNL A   1      33.500  32.346  27.104  1.00  0.00    -0.200 F 
ENDBRANCH  55  79
BRANCH  67  90
ATOM     90  C   UNL A   1      39.157  32.042  35.610  1.00  0.00     0.064 A 
ATOM     91  C   UNL A   1      38.354  31.371  36.542  1.00  0.00     0.173 A 
ATOM     92  C   UNL A   1      39.437  33.397  35.832  1.00  0.00     0.173 A 
ATOM     93  F   UNL A   1      38.040  30.079  36.360  1.00  0.00    -0.203 F 
ATOM     94  C   UNL A   1      37.838  32.038  37.650  1.00  0.00     0.198 A 
ATOM     95  C   UNL A   1      38.948  34.052  36.958  1.00  0.00     0.198 A 
ATOM     96  F   UNL A   1      40.203  34.080  34.969  1.00  0.00    -0.203 F 
ATOM     97  F   UNL A   1      37.038  31.390  38.507  1.00  0.00    -0.200 F 
ATOM     98  C   UNL A   1      38.146  33.375  37.863  1.00  0.00     0.200 A 
ATOM     99  F   UNL A   1      39.258  35.339  37.169  1.00  0.00    -0.200 F 
ATOM    100  F   UNL A   1      37.663  34.011  38.938  1.00  0.00    -0.200 F 
ENDBRANCH  67  90
ENDBRANCH  41  42
ENDBRANCH  34  36
ENDBRANCH  33  34
ENDBRANCH  32  33
ENDBRANCH   1  32
TORSDOF 15
ENDMDL
MODEL 2
REMARK VINA RESULT:     -13.0      3.035      9.067
REMARK SMILES CCN1C(=O)C[C@@H](C(=O)Nc2cccc(C(=O)OCCOC(=O)c3ccc(-c4c5nc(c(-c6c(F)c(F)c(F)c(F)c6F)c6ccc([nH]6)c(-c6c(F)c(F)c(F)c(F)c6F)c6nc(c(-c7c(F)c(F)c(F)c(F)c7F)c7ccc4[nH]7)C=C6)C=C5)cc3)c2)S/C1=[NH+]/c1ccccc1
REMARK SMILES IDX 19 1 18 2 16 3 17 4 15 5 11 6 12 7 87 8 13 9 14 10 10 11
REMARK SMILES IDX 8 12 9 13 7 15 3 16 4 17 89 18 5 19 6 20 88 21 90 22 2 24
REMARK SMILES IDX 1 25 91 26 92 27 96 28 93 29 95 30 94 31 20 32 21 33 22 34
REMARK SMILES IDX 23 35 24 36 25 37 86 38 26 39 85 40 27 41 28 42 29 43 79 44
REMARK SMILES IDX 30 45 84 46 78 47 80 48 31 49 83 50 77 51 76 52 32 54 64 55
REMARK SMILES IDX 44 56 63 57 45 58 48 59 62 60 81 61 46 62 47 63 61 65 82 66
REMARK SMILES IDX 49 67 33 68 34 69 42 70 35 71 36 72 40 73 43 74 37 75 38 76
REMARK SMILES IDX 41 77 39 78 65 79 66 80 74 81 67 82 68 83 72 84 75 85 69 86
REMARK SMILES IDX 70 87 73 88 71 89 50 90 51 91 59 92 52 93 53 94 57 95 60 96
REMARK SMILES IDX 54 97 55 98 58 99 56 100
REMARK H PARENT 10 14 90 23 80 53 48 64
REMARK Flexibility Score: inf
ROOT
ATOM      1  C   UNL A   1      33.141  31.630  27.662  1.00  0.00     0.275 C 
ENDROOT
BRANCH   1   2
ATOM      2  O   UNL A   1      34.191  30.950  26.942  1.00  0.00    -0.458 OA
BRANCH   2   3
ATOM      3  C   UNL A   1      34.256  29.622  27.172  1.00  0.00     0.338 C 
ATOM      4  O   UNL A   1      35.132  29.047  27.802  1.00  0.00    -0.246 OA
BRANCH   3   5
ATOM      5  C   UNL A   1      33.163  28.874  26.514  1.00  0.00     0.062 A 
ATOM      6  C   UNL A   1      32.470  27.741  24.517  1.00  0.00     0.042 A 
ATOM      7  C   UNL A   1      31.493  27.039  25.223  1.00  0.00     0.026 A 
ATOM      8  C   UNL A   1      33.189  28.757  25.133  1.00  0.00     0.041 A 
ATOM      9  C   UNL A   1      31.398  27.211  26.602  1.00  0.00     0.003 A 
ATOM     10  C   UNL A   1      32.278  28.078  27.250  1.00  0.00     0.016 A 
BRANCH   6  11
ATOM     11  N   UNL A   1      32.811  27.315  23.232  1.00  0.00    -0.325 N 
ATOM     12  C   UNL A   1      33.297  26.091  22.828  1.00  0.00     0.238 C 
ATOM     13  O   UNL A   1      33.675  26.003  21.652  1.00  0.00    -0.273 OA
ATOM     14  H   UNL A   1      32.687  27.980  22.516  1.00  0.00     0.169 HD
BRANCH  12  15
ATOM     15  C   UNL A   1      33.257  24.816  23.713  1.00  0.00     0.160 C 
ATOM     16  N   UNL A   1      34.470  22.206  24.480  1.00  0.00    -0.191 N 
ATOM     17  C   UNL A   1      34.547  23.334  25.277  1.00  0.00     0.311 C 
ATOM     18  C   UNL A   1      33.387  21.999  23.636  1.00  0.00     0.319 C 
ATOM     19  O   UNL A   1      34.771  23.290  26.487  1.00  0.00    -0.247 OA
ATOM     20  C   UNL A   1      34.495  24.642  24.555  1.00  0.00     0.153 C 
ATOM     21  S   UNL A   1      32.699  23.378  22.795  1.00  0.00    -0.024 SA
ATOM     22  N   UNL A   1      32.774  20.899  23.334  1.00  0.00    -0.235 N 
ATOM     23  H   UNL A   1      32.181  20.912  22.548  1.00  0.00     0.313 HD
BRANCH  16  24
ATOM     24  C   UNL A   1      35.407  21.127  24.825  1.00  0.00     0.243 C 
ATOM     25  C   UNL A   1      36.840  21.383  24.346  1.00  0.00     0.054 C 
ENDBRANCH  16  24
BRANCH  22  26
ATOM     26  C   UNL A   1      32.882  19.693  24.032  1.00  0.00     0.125 A 
ATOM     27  C   UNL A   1      33.174  18.515  23.342  1.00  0.00     0.051 A 
ATOM     28  C   UNL A   1      32.556  19.611  25.392  1.00  0.00     0.051 A 
ATOM     29  C   UNL A   1      33.199  17.285  24.006  1.00  0.00     0.004 A 
ATOM     30  C   UNL A   1      32.594  18.389  26.063  1.00  0.00     0.004 A 
ATOM     31  C   UNL A   1      32.918  17.225  25.369  1.00  0.00     0.000 A 
ENDBRANCH  22  26
ENDBRANCH  12  15
ENDBRANCH   6  11
ENDBRANCH   3   5
ENDBRANCH   2   3
ENDBRANCH   1   2
BRANCH   1  32
ATOM     32  C   UNL A   1      33.113  33.120  27.322  1.00  0.00     0.275 C 
BRANCH  32  33
ATOM     33  O   UNL A   1      32.310  33.858  28.266  1.00  0.00    -0.458 OA
BRANCH  33  34
ATOM     34  C   UNL A   1      32.922  34.926  28.825  1.00  0.00     0.338 C 
ATOM     35  O   UNL A   1      32.551  36.087  28.815  1.00  0.00    -0.246 OA
BRANCH  34  36
ATOM     36  C   UNL A   1      34.126  34.506  29.558  1.00  0.00     0.060 A 
ATOM     37  C   UNL A   1      35.373  34.728  28.985  1.00  0.00     0.016 A 
ATOM     38  C   UNL A   1      34.023  33.725  30.703  1.00  0.00     0.016 A 
ATOM     39  C   UNL A   1      36.502  34.083  29.463  1.00  0.00     0.010 A 
ATOM     40  C   UNL A   1      35.185  33.194  31.275  1.00  0.00     0.010 A 
ATOM     41  C   UNL A   1      36.435  33.349  30.646  1.00  0.00    -0.014 A 
BRANCH  41  42
ATOM     42  C   UNL A   1      37.674  32.771  31.227  1.00  0.00     0.031 A 
ATOM     43  C   UNL A   1      38.395  31.669  30.507  1.00  0.00     0.074 A 
ATOM     44  C   UNL A   1      38.139  33.229  32.408  1.00  0.00     0.049 A 
ATOM     45  N   UNL A   1      39.325  30.864  30.949  1.00  0.00    -0.248 NA
ATOM     46  C   UNL A   1      38.012  31.431  29.105  1.00  0.00     0.031 C 
ATOM     47  C   UNL A   1      37.579  34.352  33.169  1.00  0.00     0.029 A 
ATOM     48  N   UNL A   1      39.186  32.803  33.185  1.00  0.00    -0.354 N 
ATOM     49  C   UNL A   1      39.587  29.982  29.910  1.00  0.00     0.074 A 
ATOM     50  C   UNL A   1      38.732  30.358  28.806  1.00  0.00     0.031 C 
ATOM     51  C   UNL A   1      38.296  34.536  34.284  1.00  0.00     0.029 A 
ATOM     52  C   UNL A   1      39.284  33.473  34.383  1.00  0.00     0.049 A 
ATOM     53  H   UNL A   1      39.806  32.087  32.914  1.00  0.00     0.167 HD
ATOM     54  C   UNL A   1      40.457  28.945  29.898  1.00  0.00     0.037 A 
ATOM     55  C   UNL A   1      40.029  33.214  35.474  1.00  0.00     0.037 A 
ATOM     56  C   UNL A   1      41.337  28.625  30.991  1.00  0.00     0.049 A 
ATOM     57  C   UNL A   1      40.918  32.004  35.462  1.00  0.00     0.074 A 
ATOM     58  C   UNL A   1      42.292  27.627  31.065  1.00  0.00     0.029 A 
ATOM     59  N   UNL A   1      41.368  29.299  32.203  1.00  0.00    -0.354 N 
ATOM     60  N   UNL A   1      41.148  31.157  34.488  1.00  0.00    -0.248 NA
ATOM     61  C   UNL A   1      41.627  31.693  36.709  1.00  0.00     0.031 C 
ATOM     62  C   UNL A   1      42.855  27.656  32.344  1.00  0.00     0.029 A 
ATOM     63  C   UNL A   1      42.294  28.710  33.048  1.00  0.00     0.049 A 
ATOM     64  H   UNL A   1      40.813  30.081  32.429  1.00  0.00     0.167 HD
ATOM     65  C   UNL A   1      42.042  30.227  34.997  1.00  0.00     0.074 A 
ATOM     66  C   UNL A   1      42.330  30.626  36.359  1.00  0.00     0.031 C 
ATOM     67  C   UNL A   1      42.572  29.135  34.396  1.00  0.00     0.037 A 
BRANCH  54  68
ATOM     68  C   UNL A   1      40.472  28.043  28.698  1.00  0.00     0.064 A 
ATOM     69  C   UNL A   1      41.229  28.328  27.553  1.00  0.00     0.173 A 
ATOM     70  C   UNL A   1      39.765  26.829  28.731  1.00  0.00     0.173 A 
ATOM     71  F   UNL A   1      41.913  29.479  27.465  1.00  0.00    -0.203 F 
ATOM     72  C   UNL A   1      41.267  27.439  26.482  1.00  0.00     0.198 A 
ATOM     73  C   UNL A   1      39.829  25.930  27.671  1.00  0.00     0.198 A 
ATOM     74  F   UNL A   1      39.028  26.506  29.805  1.00  0.00    -0.203 F 
ATOM     75  F   UNL A   1      41.970  27.745  25.383  1.00  0.00    -0.200 F 
ATOM     76  C   UNL A   1      40.577  26.236  26.545  1.00  0.00     0.200 A 
ATOM     77  F   UNL A   1      39.172  24.764  27.743  1.00  0.00    -0.200 F 
ATOM     78  F   UNL A   1      40.630  25.374  25.520  1.00  0.00    -0.200 F 
ENDBRANCH  54  68
BRANCH  55  79
ATOM     79  C   UNL A   1      39.905  34.062  36.691  1.00  0.00     0.064 A 
ATOM     80  C   UNL A   1      39.034  33.707  37.729  1.00  0.00     0.173 A 
ATOM     81  C   UNL A   1      40.628  35.258  36.830  1.00  0.00     0.173 A 
ATOM     82  F   UNL A   1      38.301  32.588  37.634  1.00  0.00    -0.203 F 
ATOM     83  C   UNL A   1      38.873  34.523  38.847  1.00  0.00     0.198 A 
ATOM     84  C   UNL A   1      40.497  36.053  37.966  1.00  0.00     0.198 A 
ATOM     85  F   UNL A   1      41.475  35.650  35.867  1.00  0.00    -0.203 F 
ATOM     86  F   UNL A   1      37.989  34.189  39.796  1.00  0.00    -0.200 F 
ATOM     87  C   UNL A   1      39.610  35.693  38.967  1.00  0.00     0.200 A 
ATOM     88  F   UNL A   1      41.225  37.172  38.086  1.00  0.00    -0.200 F 
ATOM     89  F   UNL A   1      39.455  36.477  40.043  1.00  0.00    -0.200 F 
ENDBRANCH  55  79
BRANCH  67  90
ATOM     90  C   UNL A   1      43.542  28.316  35.194  1.00  0.00     0.064 A 
ATOM     91  C   UNL A   1      43.122  27.203  35.936  1.00  0.00     0.173 A 
ATOM     92  C   UNL A   1      44.910  28.619  35.172  1.00  0.00     0.173 A 
ATOM     93  F   UNL A   1      41.820  26.887  36.004  1.00  0.00    -0.203 F 
ATOM     94  C   UNL A   1      44.040  26.430  36.642  1.00  0.00     0.198 A 
ATOM     95  C   UNL A   1      45.828  27.824  35.852  1.00  0.00     0.198 A 
ATOM     96  F   UNL A   1      45.359  29.673  34.474  1.00  0.00    -0.203 F 
ATOM     97  F   UNL A   1      43.614  25.395  37.379  1.00  0.00    -0.200 F 
ATOM     98  C   UNL A   1      45.393  26.734  36.589  1.00  0.00     0.200 A 
ATOM     99  F   UNL A   1      47.136  28.111  35.788  1.00  0.00    -0.200 F 
ATOM    100  F   UNL A   1      46.276  25.980  37.256  1.00  0.00    -0.200 F 
ENDBRANCH  67  90
ENDBRANCH  41  42
ENDBRANCH  34  36
ENDBRANCH  33  34
ENDBRANCH  32  33
ENDBRANCH   1  32
TORSDOF 15
ENDMDL
MODEL 3
REMARK VINA RESULT:     -12.9      3.581      9.289
REMARK SMILES CCN1C(=O)C[C@@H](C(=O)Nc2cccc(C(=O)OCCOC(=O)c3ccc(-c4c5nc(c(-c6c(F)c(F)c(F)c(F)c6F)c6ccc([nH]6)c(-c6c(F)c(F)c(F)c(F)c6F)c6nc(c(-c7c(F)c(F)c(F)c(F)c7F)c7ccc4[nH]7)C=C6)C=C5)cc3)c2)S/C1=[NH+]/c1ccccc1
REMARK SMILES IDX 19 1 18 2 16 3 17 4 15 5 11 6 12 7 87 8 13 9 14 10 10 11
REMARK SMILES IDX 8 12 9 13 7 15 3 16 4 17 89 18 5 19 6 20 88 21 90 22 2 24
REMARK SMILES IDX 1 25 91 26 92 27 96 28 93 29 95 30 94 31 20 32 21 33 22 34
REMARK SMILES IDX 23 35 24 36 25 37 86 38 26 39 85 40 27 41 28 42 29 43 79 44
REMARK SMILES IDX 30 45 84 46 78 47 80 48 31 49 83 50 77 51 76 52 32 54 64 55
REMARK SMILES IDX 44 56 63 57 45 58 48 59 62 60 81 61 46 62 47 63 61 65 82 66
REMARK SMILES IDX 49 67 33 68 34 69 42 70 35 71 36 72 40 73 43 74 37 75 38 76
REMARK SMILES IDX 41 77 39 78 65 79 66 80 74 81 67 82 68 83 72 84 75 85 69 86
REMARK SMILES IDX 70 87 73 88 71 89 50 90 51 91 59 92 52 93 53 94 57 95 60 96
REMARK SMILES IDX 54 97 55 98 58 99 56 100
REMARK H PARENT 10 14 90 23 80 53 48 64
REMARK Flexibility Score: inf
ROOT
ATOM      1  C   UNL A   1      34.023  35.376  28.848  1.00  0.00     0.275 C 
ENDROOT
BRANCH   1   2
ATOM      2  O   UNL A   1      33.939  33.977  29.187  1.00  0.00    -0.458 OA
BRANCH   2   3
ATOM      3  C   UNL A   1      35.071  33.278  28.958  1.00  0.00     0.338 C 
ATOM      4  O   UNL A   1      36.211  33.687  29.132  1.00  0.00    -0.246 OA
BRANCH   3   5
ATOM      5  C   UNL A   1      34.811  31.938  28.393  1.00  0.00     0.062 A 
ATOM      6  C   UNL A   1      33.298  30.602  27.096  1.00  0.00     0.042 A 
ATOM      7  C   UNL A   1      34.309  29.683  26.815  1.00  0.00     0.026 A 
ATOM      8  C   UNL A   1      33.517  31.633  28.001  1.00  0.00     0.041 A 
ATOM      9  C   UNL A   1      35.600  29.933  27.275  1.00  0.00     0.003 A 
ATOM     10  C   UNL A   1      35.858  31.093  28.005  1.00  0.00     0.016 A 
BRANCH   6  11
ATOM     11  N   UNL A   1      32.117  30.555  26.352  1.00  0.00    -0.325 N 
ATOM     12  C   UNL A   1      31.757  29.673  25.357  1.00  0.00     0.238 C 
ATOM     13  O   UNL A   1      30.719  29.931  24.734  1.00  0.00    -0.273 OA
ATOM     14  H   UNL A   1      31.451  31.247  26.568  1.00  0.00     0.169 HD
BRANCH  12  15
ATOM     15  C   UNL A   1      32.494  28.333  25.089  1.00  0.00     0.160 C 
ATOM     16  N   UNL A   1      32.406  25.535  24.071  1.00  0.00    -0.191 N 
ATOM     17  C   UNL A   1      33.029  26.563  23.389  1.00  0.00     0.311 C 
ATOM     18  C   UNL A   1      32.326  25.541  25.458  1.00  0.00     0.319 C 
ATOM     19  O   UNL A   1      33.896  26.377  22.535  1.00  0.00    -0.247 OA
ATOM     20  C   UNL A   1      32.480  27.931  23.636  1.00  0.00     0.153 C 
ATOM     21  S   UNL A   1      32.041  27.068  26.278  1.00  0.00    -0.024 SA
ATOM     22  N   UNL A   1      32.414  24.557  26.295  1.00  0.00    -0.235 N 
ATOM     23  H   UNL A   1      32.105  24.717  27.216  1.00  0.00     0.313 HD
BRANCH  16  24
ATOM     24  C   UNL A   1      32.144  24.323  23.282  1.00  0.00     0.243 C 
ATOM     25  C   UNL A   1      30.653  24.003  23.126  1.00  0.00     0.054 C 
ENDBRANCH  16  24
BRANCH  22  26
ATOM     26  C   UNL A   1      32.914  23.285  26.000  1.00  0.00     0.125 A 
ATOM     27  C   UNL A   1      34.280  23.114  25.764  1.00  0.00     0.051 A 
ATOM     28  C   UNL A   1      32.055  22.200  25.788  1.00  0.00     0.051 A 
ATOM     29  C   UNL A   1      34.787  21.869  25.380  1.00  0.00     0.004 A 
ATOM     30  C   UNL A   1      32.557  20.952  25.420  1.00  0.00     0.004 A 
ATOM     31  C   UNL A   1      33.925  20.787  25.217  1.00  0.00     0.000 A 
ENDBRANCH  22  26
ENDBRANCH  12  15
ENDBRANCH   6  11
ENDBRANCH   3   5
ENDBRANCH   2   3
ENDBRANCH   1   2
BRANCH   1  32
ATOM     32  C   UNL A   1      32.903  36.175  29.514  1.00  0.00     0.275 C 
BRANCH  32  33
ATOM     33  O   UNL A   1      32.350  35.464  30.641  1.00  0.00    -0.458 OA
BRANCH  33  34
ATOM     34  C   UNL A   1      32.670  35.973  31.851  1.00  0.00     0.338 C 
ATOM     35  O   UNL A   1      32.150  36.915  32.424  1.00  0.00    -0.246 OA
BRANCH  34  36
ATOM     36  C   UNL A   1      33.734  35.177  32.482  1.00  0.00     0.060 A 
ATOM     37  C   UNL A   1      35.029  35.681  32.498  1.00  0.00     0.016 A 
ATOM     38  C   UNL A   1      33.499  33.865  32.876  1.00  0.00     0.016 A 
ATOM     39  C   UNL A   1      36.110  34.861  32.783  1.00  0.00     0.010 A 
ATOM     40  C   UNL A   1      34.574  33.078  33.307  1.00  0.00     0.010 A 
ATOM     41  C   UNL A   1      35.894  33.563  33.242  1.00  0.00    -0.014 A 
BRANCH  41  42
ATOM     42  C   UNL A   1      37.048  32.732  33.673  1.00  0.00     0.031 A 
ATOM     43  C   UNL A   1      37.693  32.980  35.005  1.00  0.00     0.074 A 
ATOM     44  C   UNL A   1      37.520  31.765  32.858  1.00  0.00     0.049 A 
ATOM     45  N   UNL A   1      38.844  32.556  35.457  1.00  0.00    -0.248 NA
ATOM     46  C   UNL A   1      36.952  33.828  35.953  1.00  0.00     0.031 C 
ATOM     47  C   UNL A   1      36.933  31.367  31.575  1.00  0.00     0.029 A 
ATOM     48  N   UNL A   1      38.613  30.943  32.982  1.00  0.00    -0.354 N 
ATOM     49  C   UNL A   1      38.998  33.140  36.707  1.00  0.00     0.074 A 
ATOM     50  C   UNL A   1      37.816  33.936  36.954  1.00  0.00     0.031 C 
ATOM     51  C   UNL A   1      37.654  30.371  31.044  1.00  0.00     0.029 A 
ATOM     52  C   UNL A   1      38.821  30.145  31.882  1.00  0.00     0.049 A 
ATOM     53  H   UNL A   1      39.191  30.927  33.779  1.00  0.00     0.167 HD
ATOM     54  C   UNL A   1      40.046  33.024  37.556  1.00  0.00     0.037 A 
ATOM     55  C   UNL A   1      39.873  29.377  31.543  1.00  0.00     0.037 A 
ATOM     56  C   UNL A   1      41.187  32.182  37.310  1.00  0.00     0.049 A 
ATOM     57  C   UNL A   1      41.058  29.340  32.464  1.00  0.00     0.074 A 
ATOM     58  C   UNL A   1      42.281  31.953  38.126  1.00  0.00     0.029 A 
ATOM     59  N   UNL A   1      41.380  31.430  36.161  1.00  0.00    -0.354 N 
ATOM     60  N   UNL A   1      41.213  29.911  33.634  1.00  0.00    -0.248 NA
ATOM     61  C   UNL A   1      42.228  28.581  32.005  1.00  0.00     0.031 C 
ATOM     62  C   UNL A   1      43.165  31.114  37.442  1.00  0.00     0.029 A 
ATOM     63  C   UNL A   1      42.597  30.771  36.226  1.00  0.00     0.049 A 
ATOM     64  H   UNL A   1      40.746  31.373  35.409  1.00  0.00     0.167 HD
ATOM     65  C   UNL A   1      42.486  29.563  34.060  1.00  0.00     0.074 A 
ATOM     66  C   UNL A   1      43.054  28.714  33.034  1.00  0.00     0.031 C 
ATOM     67  C   UNL A   1      43.133  29.920  35.195  1.00  0.00     0.037 A 
BRANCH  54  68
ATOM     68  C   UNL A   1      40.047  33.861  38.802  1.00  0.00     0.064 A 
ATOM     69  C   UNL A   1      39.443  33.436  39.994  1.00  0.00     0.173 A 
ATOM     70  C   UNL A   1      40.734  35.087  38.817  1.00  0.00     0.173 A 
ATOM     71  F   UNL A   1      38.763  32.279  40.030  1.00  0.00    -0.203 F 
ATOM     72  C   UNL A   1      39.514  34.211  41.148  1.00  0.00     0.198 A 
ATOM     73  C   UNL A   1      40.829  35.844  39.980  1.00  0.00     0.198 A 
ATOM     74  F   UNL A   1      41.334  35.539  37.705  1.00  0.00    -0.203 F 
ATOM     75  F   UNL A   1      38.902  33.802  42.267  1.00  0.00    -0.200 F 
ATOM     76  C   UNL A   1      40.216  35.409  41.145  1.00  0.00     0.200 A 
ATOM     77  F   UNL A   1      41.519  36.993  39.976  1.00  0.00    -0.200 F 
ATOM     78  F   UNL A   1      40.300  36.143  42.262  1.00  0.00    -0.200 F 
ENDBRANCH  54  68
BRANCH  55  79
ATOM     79  C   UNL A   1      39.889  28.649  30.243  1.00  0.00     0.064 A 
ATOM     80  C   UNL A   1      39.332  27.369  30.130  1.00  0.00     0.173 A 
ATOM     81  C   UNL A   1      40.484  29.203  29.099  1.00  0.00     0.173 A 
ATOM     82  F   UNL A   1      38.773  26.785  31.200  1.00  0.00    -0.203 F 
ATOM     83  C   UNL A   1      39.390  26.661  28.931  1.00  0.00     0.198 A 
ATOM     84  C   UNL A   1      40.508  28.511  27.890  1.00  0.00     0.198 A 
ATOM     85  F   UNL A   1      41.036  30.424  29.149  1.00  0.00    -0.203 F 
ATOM     86  F   UNL A   1      38.903  25.415  28.867  1.00  0.00    -0.200 F 
ATOM     87  C   UNL A   1      39.973  27.235  27.811  1.00  0.00     0.200 A 
ATOM     88  F   UNL A   1      41.054  29.078  26.806  1.00  0.00    -0.200 F 
ATOM     89  F   UNL A   1      40.028  26.554  26.657  1.00  0.00    -0.200 F 
ENDBRANCH  55  79
BRANCH  67  90
ATOM     90  C   UNL A   1      44.511  29.367  35.402  1.00  0.00     0.064 A 
ATOM     91  C   UNL A   1      45.646  30.023  34.905  1.00  0.00     0.173 A 
ATOM     92  C   UNL A   1      44.700  28.195  36.149  1.00  0.00     0.173 A 
ATOM     93  F   UNL A   1      45.514  31.136  34.166  1.00  0.00    -0.203 F 
ATOM     94  C   UNL A   1      46.921  29.517  35.137  1.00  0.00     0.198 A 
ATOM     95  C   UNL A   1      45.978  27.711  36.407  1.00  0.00     0.198 A 
ATOM     96  F   UNL A   1      43.644  27.534  36.648  1.00  0.00    -0.203 F 
ATOM     97  F   UNL A   1      47.990  30.136  34.618  1.00  0.00    -0.200 F 
ATOM     98  C   UNL A   1      47.087  28.368  35.898  1.00  0.00     0.200 A 
ATOM     99  F   UNL A   1      46.136  26.610  37.155  1.00  0.00    -0.200 F 
ATOM    100  F   UNL A   1      48.316  27.891  36.134  1.00  0.00    -0.200 F 
ENDBRANCH  67  90
ENDBRANCH  41  42
ENDBRANCH  34  36
ENDBRANCH  33  34
ENDBRANCH  32  33
ENDBRANCH   1  32
TORSDOF 15
ENDMDL
