MODEL 1
REMARK VINA RESULT:     -12.6      0.000      0.000
REMARK SMILES CCOc1ccc2[nH]c(C)c/c(=N\c3cccc(C(=O)OCCOC(=O)c4ccc(-c5c6nc(c(-c7c(F)c(F)c(F)c(F)c7F)c7ccc([nH]7)c(-c7c(F)c(F)c(F)c(F)c7F)c7nc(c(-c8c(F)c(F)c(F)c(F)c8F)c8ccc5[nH]8)C=C7)C=C6)cc4)c3)c2c1
REMARK SMILES IDX 22 1 21 2 19 3 20 4 18 5 14 6 15 7 90 8 16 9 17 10 13 11
REMARK SMILES IDX 4 12 5 13 92 14 6 15 91 16 7 17 12 18 8 19 11 20 9 21 10 23
REMARK SMILES IDX 3 24 2 25 1 26 23 27 24 28 25 29 26 30 27 31 28 32 89 33
REMARK SMILES IDX 29 34 88 35 30 36 31 37 32 38 82 39 33 40 87 41 81 42 83 43
REMARK SMILES IDX 34 44 86 45 80 46 79 47 35 49 67 50 47 51 66 52 48 53 51 54
REMARK SMILES IDX 65 55 84 56 49 57 50 58 64 60 85 61 52 62 36 63 37 64 45 65
REMARK SMILES IDX 38 66 39 67 43 68 46 69 40 70 41 71 44 72 42 73 68 74 69 75
REMARK SMILES IDX 77 76 70 77 71 78 75 79 78 80 72 81 73 82 76 83 74 84 53 85
REMARK SMILES IDX 54 86 62 87 55 88 56 89 60 90 63 91 57 92 58 93 61 94 59 95
REMARK H PARENT 8 22 83 48 51 59
REMARK Flexibility Score: inf
ROOT
ATOM      1  C   UNL A   1      42.282  19.126  26.388  1.00  0.00     0.275 C 
ENDROOT
BRANCH   1   2
ATOM      2  O   UNL A   1      41.885  20.394  25.831  1.00  0.00    -0.458 OA
BRANCH   2   3
ATOM      3  C   UNL A   1      41.693  21.408  26.712  1.00  0.00     0.338 C 
ATOM      4  O   UNL A   1      42.507  21.837  27.507  1.00  0.00    -0.246 OA
BRANCH   3   5
ATOM      5  C   UNL A   1      40.356  22.029  26.512  1.00  0.00     0.062 A 
ATOM      6  C   UNL A   1      38.040  21.953  25.812  1.00  0.00     0.065 A 
ATOM      7  C   UNL A   1      37.920  23.321  26.084  1.00  0.00     0.028 A 
ATOM      8  C   UNL A   1      39.259  21.308  26.029  1.00  0.00     0.044 A 
ATOM      9  C   UNL A   1      39.007  24.047  26.566  1.00  0.00     0.003 A 
ATOM     10  C   UNL A   1      40.214  23.395  26.804  1.00  0.00     0.016 A 
BRANCH   6  11
ATOM     11  N   UNL A   1      36.930  21.208  25.396  1.00  0.00    -0.248 NA
ATOM     12  C   UNL A   1      33.634  18.764  24.405  1.00  0.00     0.120 A 
ATOM     13  C   UNL A   1      32.422  19.371  24.086  1.00  0.00     0.048 A 
ATOM     14  C   UNL A   1      34.757  19.534  24.696  1.00  0.00     0.059 A 
ATOM     15  C   UNL A   1      32.336  20.762  24.010  1.00  0.00     0.030 A 
ATOM     16  C   UNL A   1      34.667  20.931  24.631  1.00  0.00     0.027 A 
ATOM     17  C   UNL A   1      33.454  21.554  24.283  1.00  0.00     0.048 A 
ATOM     18  C   UNL A   1      35.844  21.791  24.980  1.00  0.00     0.075 A 
ATOM     19  N   UNL A   1      33.362  22.949  24.233  1.00  0.00    -0.359 N 
ATOM     20  C   UNL A   1      35.646  23.270  24.829  1.00  0.00     0.050 A 
ATOM     21  C   UNL A   1      34.441  23.760  24.490  1.00  0.00     0.014 A 
ATOM     22  H   UNL A   1      32.497  23.361  24.008  1.00  0.00     0.166 HD
ATOM     23  C   UNL A   1      34.216  25.243  24.382  1.00  0.00     0.064 C 
BRANCH  12  24
ATOM     24  O   UNL A   1      33.693  17.407  24.557  1.00  0.00    -0.494 OA
BRANCH  24  25
ATOM     25  C   UNL A   1      32.595  16.896  25.322  1.00  0.00     0.226 C 
ATOM     26  C   UNL A   1      32.746  15.402  25.567  1.00  0.00     0.049 C 
ENDBRANCH  24  25
ENDBRANCH  12  24
ENDBRANCH   6  11
ENDBRANCH   3   5
ENDBRANCH   2   3
ENDBRANCH   1   2
BRANCH   1  27
ATOM     27  C   UNL A   1      43.379  18.473  25.545  1.00  0.00     0.275 C 
BRANCH  27  28
ATOM     28  O   UNL A   1      43.663  19.257  24.370  1.00  0.00    -0.458 OA
BRANCH  28  29
ATOM     29  C   UNL A   1      44.943  19.667  24.226  1.00  0.00     0.338 C 
ATOM     30  O   UNL A   1      45.876  19.060  23.718  1.00  0.00    -0.246 OA
BRANCH  29  31
ATOM     31  C   UNL A   1      45.035  21.063  24.670  1.00  0.00     0.060 A 
ATOM     32  C   UNL A   1      44.590  22.118  23.875  1.00  0.00     0.016 A 
ATOM     33  C   UNL A   1      45.561  21.308  25.937  1.00  0.00     0.016 A 
ATOM     34  C   UNL A   1      44.722  23.430  24.347  1.00  0.00     0.010 A 
ATOM     35  C   UNL A   1      45.666  22.608  26.419  1.00  0.00     0.010 A 
ATOM     36  C   UNL A   1      45.272  23.687  25.617  1.00  0.00    -0.014 A 
BRANCH  36  37
ATOM     37  C   UNL A   1      45.456  25.074  26.120  1.00  0.00     0.031 A 
ATOM     38  C   UNL A   1      46.810  25.734  26.054  1.00  0.00     0.074 A 
ATOM     39  C   UNL A   1      44.422  25.724  26.685  1.00  0.00     0.049 A 
ATOM     40  N   UNL A   1      47.175  26.920  26.474  1.00  0.00    -0.248 NA
ATOM     41  C   UNL A   1      47.903  24.946  25.462  1.00  0.00     0.031 C 
ATOM     42  C   UNL A   1      43.080  25.172  26.870  1.00  0.00     0.029 A 
ATOM     43  N   UNL A   1      44.338  26.990  27.210  1.00  0.00    -0.354 N 
ATOM     44  C   UNL A   1      48.536  27.013  26.211  1.00  0.00     0.074 A 
ATOM     45  C   UNL A   1      48.943  25.746  25.645  1.00  0.00     0.031 C 
ATOM     46  C   UNL A   1      42.296  26.107  27.430  1.00  0.00     0.029 A 
ATOM     47  C   UNL A   1      43.085  27.312  27.670  1.00  0.00     0.049 A 
ATOM     48  H   UNL A   1      45.104  27.607  27.253  1.00  0.00     0.167 HD
ATOM     49  C   UNL A   1      49.365  28.070  26.396  1.00  0.00     0.037 A 
ATOM     50  C   UNL A   1      42.625  28.453  28.217  1.00  0.00     0.037 A 
ATOM     51  C   UNL A   1      48.952  29.343  26.926  1.00  0.00     0.049 A 
ATOM     52  C   UNL A   1      43.559  29.620  28.388  1.00  0.00     0.074 A 
ATOM     53  C   UNL A   1      49.702  30.495  27.091  1.00  0.00     0.029 A 
ATOM     54  N   UNL A   1      47.670  29.634  27.372  1.00  0.00    -0.354 N 
ATOM     55  N   UNL A   1      44.829  29.716  28.082  1.00  0.00    -0.248 NA
ATOM     56  C   UNL A   1      42.990  30.841  28.979  1.00  0.00     0.031 C 
ATOM     57  C   UNL A   1      48.884  31.473  27.667  1.00  0.00     0.029 A 
ATOM     58  C   UNL A   1      47.613  30.945  27.824  1.00  0.00     0.049 A 
ATOM     59  H   UNL A   1      46.915  29.004  27.368  1.00  0.00     0.167 HD
ATOM     60  C   UNL A   1      45.210  31.003  28.432  1.00  0.00     0.074 A 
ATOM     61  C   UNL A   1      44.028  31.664  28.946  1.00  0.00     0.031 C 
ATOM     62  C   UNL A   1      46.433  31.584  28.344  1.00  0.00     0.037 A 
BRANCH  49  63
ATOM     63  C   UNL A   1      50.804  27.906  25.999  1.00  0.00     0.064 A 
ATOM     64  C   UNL A   1      51.791  27.592  26.946  1.00  0.00     0.173 A 
ATOM     65  C   UNL A   1      51.194  28.003  24.655  1.00  0.00     0.173 A 
ATOM     66  F   UNL A   1      51.473  27.492  28.245  1.00  0.00    -0.203 F 
ATOM     67  C   UNL A   1      53.117  27.405  26.565  1.00  0.00     0.198 A 
ATOM     68  C   UNL A   1      52.516  27.787  24.273  1.00  0.00     0.198 A 
ATOM     69  F   UNL A   1      50.289  28.292  23.708  1.00  0.00    -0.203 F 
ATOM     70  F   UNL A   1      54.049  27.144  27.493  1.00  0.00    -0.200 F 
ATOM     71  C   UNL A   1      53.478  27.495  25.229  1.00  0.00     0.200 A 
ATOM     72  F   UNL A   1      52.859  27.857  22.980  1.00  0.00    -0.200 F 
ATOM     73  F   UNL A   1      54.751  27.299  24.862  1.00  0.00    -0.200 F 
ENDBRANCH  49  63
BRANCH  50  74
ATOM     74  C   UNL A   1      41.193  28.561  28.595  1.00  0.00     0.064 A 
ATOM     75  C   UNL A   1      40.768  28.225  29.888  1.00  0.00     0.173 A 
ATOM     76  C   UNL A   1      40.226  29.017  27.687  1.00  0.00     0.173 A 
ATOM     77  F   UNL A   1      41.654  27.763  30.784  1.00  0.00    -0.203 F 
ATOM     78  C   UNL A   1      39.429  28.331  30.257  1.00  0.00     0.198 A 
ATOM     79  C   UNL A   1      38.891  29.147  28.065  1.00  0.00     0.198 A 
ATOM     80  F   UNL A   1      40.581  29.354  26.439  1.00  0.00    -0.203 F 
ATOM     81  F   UNL A   1      39.046  27.972  31.489  1.00  0.00    -0.200 F 
ATOM     82  C   UNL A   1      38.493  28.800  29.348  1.00  0.00     0.200 A 
ATOM     83  F   UNL A   1      37.990  29.614  27.189  1.00  0.00    -0.200 F 
ATOM     84  F   UNL A   1      37.207  28.913  29.707  1.00  0.00    -0.200 F 
ENDBRANCH  50  74
BRANCH  62  85
ATOM     85  C   UNL A   1      46.555  33.003  28.820  1.00  0.00     0.064 A 
ATOM     86  C   UNL A   1      46.365  34.083  27.945  1.00  0.00     0.173 A 
ATOM     87  C   UNL A   1      46.824  33.286  30.166  1.00  0.00     0.173 A 
ATOM     88  F   UNL A   1      46.119  33.864  26.645  1.00  0.00    -0.203 F 
ATOM     89  C   UNL A   1      46.466  35.396  28.397  1.00  0.00     0.198 A 
ATOM     90  C   UNL A   1      46.896  34.600  30.621  1.00  0.00     0.198 A 
ATOM     91  F   UNL A   1      47.007  32.288  31.045  1.00  0.00    -0.203 F 
ATOM     92  F   UNL A   1      46.328  36.412  27.535  1.00  0.00    -0.200 F 
ATOM     93  C   UNL A   1      46.725  35.653  29.736  1.00  0.00     0.200 A 
ATOM     94  F   UNL A   1      47.133  34.847  31.918  1.00  0.00    -0.200 F 
ATOM     95  F   UNL A   1      46.816  36.918  30.171  1.00  0.00    -0.200 F 
ENDBRANCH  62  85
ENDBRANCH  36  37
ENDBRANCH  29  31
ENDBRANCH  28  29
ENDBRANCH  27  28
ENDBRANCH   1  27
TORSDOF 14
ENDMDL
MODEL 2
REMARK VINA RESULT:     -12.6      0.408      1.961
REMARK SMILES CCOc1ccc2[nH]c(C)c/c(=N\c3cccc(C(=O)OCCOC(=O)c4ccc(-c5c6nc(c(-c7c(F)c(F)c(F)c(F)c7F)c7ccc([nH]7)c(-c7c(F)c(F)c(F)c(F)c7F)c7nc(c(-c8c(F)c(F)c(F)c(F)c8F)c8ccc5[nH]8)C=C7)C=C6)cc4)c3)c2c1
REMARK SMILES IDX 22 1 21 2 19 3 20 4 18 5 14 6 15 7 90 8 16 9 17 10 13 11
REMARK SMILES IDX 4 12 5 13 92 14 6 15 91 16 7 17 12 18 8 19 11 20 9 21 10 23
REMARK SMILES IDX 3 24 2 25 1 26 23 27 24 28 25 29 26 30 27 31 28 32 89 33
REMARK SMILES IDX 29 34 88 35 30 36 31 37 32 38 82 39 33 40 87 41 81 42 83 43
REMARK SMILES IDX 34 44 86 45 80 46 79 47 35 49 67 50 47 51 66 52 48 53 51 54
REMARK SMILES IDX 65 55 84 56 49 57 50 58 64 60 85 61 52 62 36 63 37 64 45 65
REMARK SMILES IDX 38 66 39 67 43 68 46 69 40 70 41 71 44 72 42 73 68 74 69 75
REMARK SMILES IDX 77 76 70 77 71 78 75 79 78 80 72 81 73 82 76 83 74 84 53 85
REMARK SMILES IDX 54 86 62 87 55 88 56 89 60 90 63 91 57 92 58 93 61 94 59 95
REMARK H PARENT 8 22 83 48 51 59
REMARK Flexibility Score: inf
ROOT
ATOM      1  C   UNL A   1      42.230  19.176  26.354  1.00  0.00     0.275 C 
ENDROOT
BRANCH   1   2
ATOM      2  O   UNL A   1      41.941  20.486  25.829  1.00  0.00    -0.458 OA
BRANCH   2   3
ATOM      3  C   UNL A   1      41.656  21.452  26.738  1.00  0.00     0.338 C 
ATOM      4  O   UNL A   1      42.412  21.893  27.583  1.00  0.00    -0.246 OA
BRANCH   3   5
ATOM      5  C   UNL A   1      40.296  22.007  26.504  1.00  0.00     0.062 A 
ATOM      6  C   UNL A   1      37.997  21.811  25.770  1.00  0.00     0.065 A 
ATOM      7  C   UNL A   1      37.812  23.178  26.010  1.00  0.00     0.028 A 
ATOM      8  C   UNL A   1      39.241  21.227  26.021  1.00  0.00     0.044 A 
ATOM      9  C   UNL A   1      38.857  23.963  26.492  1.00  0.00     0.003 A 
ATOM     10  C   UNL A   1      40.088  23.372  26.762  1.00  0.00     0.016 A 
BRANCH   6  11
ATOM     11  N   UNL A   1      36.930  21.008  25.354  1.00  0.00    -0.248 NA
ATOM     12  C   UNL A   1      33.837  18.341  24.285  1.00  0.00     0.120 A 
ATOM     13  C   UNL A   1      32.518  18.781  24.358  1.00  0.00     0.048 A 
ATOM     14  C   UNL A   1      34.888  19.201  24.588  1.00  0.00     0.059 A 
ATOM     15  C   UNL A   1      32.241  20.108  24.691  1.00  0.00     0.030 A 
ATOM     16  C   UNL A   1      34.610  20.531  24.934  1.00  0.00     0.027 A 
ATOM     17  C   UNL A   1      33.282  20.994  24.983  1.00  0.00     0.048 A 
ATOM     18  C   UNL A   1      35.715  21.473  25.308  1.00  0.00     0.075 A 
ATOM     19  N   UNL A   1      33.004  22.316  25.344  1.00  0.00    -0.359 N 
ATOM     20  C   UNL A   1      35.303  22.882  25.613  1.00  0.00     0.050 A 
ATOM     21  C   UNL A   1      34.002  23.217  25.632  1.00  0.00     0.014 A 
ATOM     22  H   UNL A   1      32.067  22.610  25.391  1.00  0.00     0.166 HD
ATOM     23  C   UNL A   1      33.572  24.614  25.985  1.00  0.00     0.064 C 
BRANCH  12  24
ATOM     24  O   UNL A   1      34.099  17.022  24.039  1.00  0.00    -0.494 OA
BRANCH  24  25
ATOM     25  C   UNL A   1      34.118  16.237  25.237  1.00  0.00     0.226 C 
ATOM     26  C   UNL A   1      32.894  15.336  25.321  1.00  0.00     0.049 C 
ENDBRANCH  24  25
ENDBRANCH  12  24
ENDBRANCH   6  11
ENDBRANCH   3   5
ENDBRANCH   2   3
ENDBRANCH   1   2
BRANCH   1  27
ATOM     27  C   UNL A   1      43.402  18.531  25.611  1.00  0.00     0.275 C 
BRANCH  27  28
ATOM     28  O   UNL A   1      43.677  19.225  24.379  1.00  0.00    -0.458 OA
BRANCH  28  29
ATOM     29  C   UNL A   1      44.951  19.639  24.204  1.00  0.00     0.338 C 
ATOM     30  O   UNL A   1      45.874  19.034  23.676  1.00  0.00    -0.246 OA
BRANCH  29  31
ATOM     31  C   UNL A   1      45.049  21.037  24.641  1.00  0.00     0.060 A 
ATOM     32  C   UNL A   1      44.628  22.091  23.832  1.00  0.00     0.016 A 
ATOM     33  C   UNL A   1      45.555  21.284  25.916  1.00  0.00     0.016 A 
ATOM     34  C   UNL A   1      44.764  23.405  24.298  1.00  0.00     0.010 A 
ATOM     35  C   UNL A   1      45.665  22.586  26.391  1.00  0.00     0.010 A 
ATOM     36  C   UNL A   1      45.294  23.664  25.576  1.00  0.00    -0.014 A 
BRANCH  36  37
ATOM     37  C   UNL A   1      45.483  25.052  26.074  1.00  0.00     0.031 A 
ATOM     38  C   UNL A   1      46.838  25.708  26.004  1.00  0.00     0.074 A 
ATOM     39  C   UNL A   1      44.452  25.707  26.638  1.00  0.00     0.049 A 
ATOM     40  N   UNL A   1      47.207  26.895  26.419  1.00  0.00    -0.248 NA
ATOM     41  C   UNL A   1      47.928  24.916  25.413  1.00  0.00     0.031 C 
ATOM     42  C   UNL A   1      43.108  25.159  26.827  1.00  0.00     0.029 A 
ATOM     43  N   UNL A   1      44.372  26.975  27.159  1.00  0.00    -0.354 N 
ATOM     44  C   UNL A   1      48.568  26.984  26.154  1.00  0.00     0.074 A 
ATOM     45  C   UNL A   1      48.971  25.714  25.591  1.00  0.00     0.031 C 
ATOM     46  C   UNL A   1      42.327  26.098  27.384  1.00  0.00     0.029 A 
ATOM     47  C   UNL A   1      43.120  27.302  27.619  1.00  0.00     0.049 A 
ATOM     48  H   UNL A   1      45.139  27.590  27.198  1.00  0.00     0.167 HD
ATOM     49  C   UNL A   1      49.400  28.039  26.335  1.00  0.00     0.037 A 
ATOM     50  C   UNL A   1      42.663  28.446  28.163  1.00  0.00     0.037 A 
ATOM     51  C   UNL A   1      48.991  29.315  26.861  1.00  0.00     0.049 A 
ATOM     52  C   UNL A   1      43.601  29.611  28.329  1.00  0.00     0.074 A 
ATOM     53  C   UNL A   1      49.745  30.465  27.021  1.00  0.00     0.029 A 
ATOM     54  N   UNL A   1      47.711  29.611  27.307  1.00  0.00    -0.354 N 
ATOM     55  N   UNL A   1      44.871  29.702  28.020  1.00  0.00    -0.248 NA
ATOM     56  C   UNL A   1      43.036  30.836  28.916  1.00  0.00     0.031 C 
ATOM     57  C   UNL A   1      48.930  31.448  27.594  1.00  0.00     0.029 A 
ATOM     58  C   UNL A   1      47.658  30.923  27.754  1.00  0.00     0.049 A 
ATOM     59  H   UNL A   1      46.953  28.983  27.306  1.00  0.00     0.167 HD
ATOM     60  C   UNL A   1      45.256  30.990  28.365  1.00  0.00     0.074 A 
ATOM     61  C   UNL A   1      44.076  31.656  28.879  1.00  0.00     0.031 C 
ATOM     62  C   UNL A   1      46.480  31.567  28.274  1.00  0.00     0.037 A 
BRANCH  49  63
ATOM     63  C   UNL A   1      50.838  27.870  25.936  1.00  0.00     0.064 A 
ATOM     64  C   UNL A   1      51.247  28.014  24.601  1.00  0.00     0.173 A 
ATOM     65  C   UNL A   1      51.826  27.624  26.900  1.00  0.00     0.173 A 
ATOM     66  F   UNL A   1      50.341  28.245  23.639  1.00  0.00    -0.203 F 
ATOM     67  C   UNL A   1      52.587  27.893  24.244  1.00  0.00     0.198 A 
ATOM     68  C   UNL A   1      53.170  27.532  26.543  1.00  0.00     0.198 A 
ATOM     69  F   UNL A   1      51.492  27.487  28.192  1.00  0.00    -0.203 F 
ATOM     70  F   UNL A   1      52.948  27.996  22.956  1.00  0.00    -0.200 F 
ATOM     71  C   UNL A   1      53.549  27.660  25.216  1.00  0.00     0.200 A 
ATOM     72  F   UNL A   1      54.100  27.324  27.486  1.00  0.00    -0.200 F 
ATOM     73  F   UNL A   1      54.840  27.560  24.872  1.00  0.00    -0.200 F 
ENDBRANCH  49  63
BRANCH  50  74
ATOM     74  C   UNL A   1      41.232  28.559  28.543  1.00  0.00     0.064 A 
ATOM     75  C   UNL A   1      40.282  29.021  27.621  1.00  0.00     0.173 A 
ATOM     76  C   UNL A   1      40.780  28.194  29.819  1.00  0.00     0.173 A 
ATOM     77  F   UNL A   1      40.671  29.403  26.395  1.00  0.00    -0.203 F 
ATOM     78  C   UNL A   1      38.936  29.123  27.963  1.00  0.00     0.198 A 
ATOM     79  C   UNL A   1      39.430  28.271  30.151  1.00  0.00     0.198 A 
ATOM     80  F   UNL A   1      41.648  27.743  30.736  1.00  0.00    -0.203 F 
ATOM     81  F   UNL A   1      38.055  29.598  27.073  1.00  0.00    -0.200 F 
ATOM     82  C   UNL A   1      38.509  28.739  29.225  1.00  0.00     0.200 A 
ATOM     83  F   UNL A   1      39.017  27.887  31.368  1.00  0.00    -0.200 F 
ATOM     84  F   UNL A   1      37.212  28.827  29.550  1.00  0.00    -0.200 F 
ENDBRANCH  50  74
BRANCH  62  85
ATOM     85  C   UNL A   1      46.606  32.987  28.744  1.00  0.00     0.064 A 
ATOM     86  C   UNL A   1      46.963  33.288  30.068  1.00  0.00     0.173 A 
ATOM     87  C   UNL A   1      46.407  34.056  27.859  1.00  0.00     0.173 A 
ATOM     88  F   UNL A   1      47.151  32.301  30.957  1.00  0.00    -0.203 F 
ATOM     89  C   UNL A   1      47.092  34.607  30.492  1.00  0.00     0.198 A 
ATOM     90  C   UNL A   1      46.565  35.373  28.279  1.00  0.00     0.198 A 
ATOM     91  F   UNL A   1      46.071  33.822  26.580  1.00  0.00    -0.203 F 
ATOM     92  F   UNL A   1      47.388  34.872  31.772  1.00  0.00    -0.200 F 
ATOM     93  C   UNL A   1      46.899  35.649  29.596  1.00  0.00     0.200 A 
ATOM     94  F   UNL A   1      46.392  36.379  27.408  1.00  0.00    -0.200 F 
ATOM     95  F   UNL A   1      47.029  36.919  30.005  1.00  0.00    -0.200 F 
ENDBRANCH  62  85
ENDBRANCH  36  37
ENDBRANCH  29  31
ENDBRANCH  28  29
ENDBRANCH  27  28
ENDBRANCH   1  27
TORSDOF 14
ENDMDL
MODEL 3
REMARK VINA RESULT:     -12.5      7.688     12.970
REMARK SMILES CCOc1ccc2[nH]c(C)c/c(=N\c3cccc(C(=O)OCCOC(=O)c4ccc(-c5c6nc(c(-c7c(F)c(F)c(F)c(F)c7F)c7ccc([nH]7)c(-c7c(F)c(F)c(F)c(F)c7F)c7nc(c(-c8c(F)c(F)c(F)c(F)c8F)c8ccc5[nH]8)C=C7)C=C6)cc4)c3)c2c1
REMARK SMILES IDX 22 1 21 2 19 3 20 4 18 5 14 6 15 7 90 8 16 9 17 10 13 11
REMARK SMILES IDX 4 12 5 13 92 14 6 15 91 16 7 17 12 18 8 19 11 20 9 21 10 23
REMARK SMILES IDX 3 24 2 25 1 26 23 27 24 28 25 29 26 30 27 31 28 32 89 33
REMARK SMILES IDX 29 34 88 35 30 36 31 37 32 38 82 39 33 40 87 41 81 42 83 43
REMARK SMILES IDX 34 44 86 45 80 46 79 47 35 49 67 50 47 51 66 52 48 53 51 54
REMARK SMILES IDX 65 55 84 56 49 57 50 58 64 60 85 61 52 62 36 63 37 64 45 65
REMARK SMILES IDX 38 66 39 67 43 68 46 69 40 70 41 71 44 72 42 73 68 74 69 75
REMARK SMILES IDX 77 76 70 77 71 78 75 79 78 80 72 81 73 82 76 83 74 84 53 85
REMARK SMILES IDX 54 86 62 87 55 88 56 89 60 90 63 91 57 92 58 93 61 94 59 95
REMARK H PARENT 8 22 83 48 51 59
REMARK Flexibility Score: inf
ROOT
ATOM      1  C   UNL A   1      33.199  35.068  28.904  1.00  0.00     0.275 C 
ENDROOT
BRANCH   1   2
ATOM      2  O   UNL A   1      33.532  33.778  29.451  1.00  0.00    -0.458 OA
BRANCH   2   3
ATOM      3  C   UNL A   1      34.762  33.292  29.150  1.00  0.00     0.338 C 
ATOM      4  O   UNL A   1      35.828  33.750  29.517  1.00  0.00    -0.246 OA
BRANCH   3   5
ATOM      5  C   UNL A   1      34.651  32.025  28.378  1.00  0.00     0.062 A 
ATOM      6  C   UNL A   1      33.481  30.517  26.890  1.00  0.00     0.065 A 
ATOM      7  C   UNL A   1      34.503  29.574  27.054  1.00  0.00     0.028 A 
ATOM      8  C   UNL A   1      33.559  31.744  27.551  1.00  0.00     0.044 A 
ATOM      9  C   UNL A   1      35.595  29.845  27.875  1.00  0.00     0.003 A 
ATOM     10  C   UNL A   1      35.680  31.079  28.514  1.00  0.00     0.016 A 
BRANCH   6  11
ATOM     11  N   UNL A   1      32.419  30.274  26.011  1.00  0.00    -0.248 NA
ATOM     12  C   UNL A   1      29.328  29.797  23.175  1.00  0.00     0.120 A 
ATOM     13  C   UNL A   1      29.064  28.523  22.679  1.00  0.00     0.048 A 
ATOM     14  C   UNL A   1      30.310  29.992  24.143  1.00  0.00     0.059 A 
ATOM     15  C   UNL A   1      29.753  27.420  23.186  1.00  0.00     0.030 A 
ATOM     16  C   UNL A   1      31.011  28.886  24.643  1.00  0.00     0.027 A 
ATOM     17  C   UNL A   1      30.732  27.590  24.169  1.00  0.00     0.048 A 
ATOM     18  C   UNL A   1      32.104  29.064  25.653  1.00  0.00     0.075 A 
ATOM     19  N   UNL A   1      31.442  26.488  24.657  1.00  0.00    -0.359 N 
ATOM     20  C   UNL A   1      32.751  27.805  26.151  1.00  0.00     0.050 A 
ATOM     21  C   UNL A   1      32.408  26.616  25.628  1.00  0.00     0.014 A 
ATOM     22  H   UNL A   1      31.244  25.595  24.295  1.00  0.00     0.166 HD
ATOM     23  C   UNL A   1      33.083  25.352  26.083  1.00  0.00     0.064 C 
BRANCH  12  24
ATOM     24  O   UNL A   1      28.710  30.882  22.619  1.00  0.00    -0.494 OA
BRANCH  24  25
ATOM     25  C   UNL A   1      28.345  30.661  21.252  1.00  0.00     0.226 C 
ATOM     26  C   UNL A   1      28.007  31.971  20.556  1.00  0.00     0.049 C 
ENDBRANCH  24  25
ENDBRANCH  12  24
ENDBRANCH   6  11
ENDBRANCH   3   5
ENDBRANCH   2   3
ENDBRANCH   1   2
BRANCH   1  27
ATOM     27  C   UNL A   1      32.874  36.070  30.014  1.00  0.00     0.275 C 
BRANCH  27  28
ATOM     28  O   UNL A   1      32.341  35.401  31.174  1.00  0.00    -0.458 OA
BRANCH  28  29
ATOM     29  C   UNL A   1      32.832  35.802  32.367  1.00  0.00     0.338 C 
ATOM     30  O   UNL A   1      32.348  36.608  33.149  1.00  0.00    -0.246 OA
BRANCH  29  31
ATOM     31  C   UNL A   1      34.024  35.001  32.671  1.00  0.00     0.060 A 
ATOM     32  C   UNL A   1      33.933  33.666  33.064  1.00  0.00     0.016 A 
ATOM     33  C   UNL A   1      35.270  35.609  32.525  1.00  0.00     0.016 A 
ATOM     34  C   UNL A   1      35.105  32.960  33.357  1.00  0.00     0.010 A 
ATOM     35  C   UNL A   1      36.437  34.901  32.789  1.00  0.00     0.010 A 
ATOM     36  C   UNL A   1      36.366  33.574  33.234  1.00  0.00    -0.014 A 
BRANCH  36  37
ATOM     37  C   UNL A   1      37.621  32.854  33.578  1.00  0.00     0.031 A 
ATOM     38  C   UNL A   1      38.335  33.144  34.873  1.00  0.00     0.074 A 
ATOM     39  C   UNL A   1      38.149  31.976  32.705  1.00  0.00     0.049 A 
ATOM     40  N   UNL A   1      39.457  32.647  35.330  1.00  0.00    -0.248 NA
ATOM     41  C   UNL A   1      37.721  34.147  35.757  1.00  0.00     0.031 C 
ATOM     42  C   UNL A   1      37.592  31.655  31.391  1.00  0.00     0.029 A 
ATOM     43  N   UNL A   1      39.275  31.194  32.791  1.00  0.00    -0.354 N 
ATOM     44  C   UNL A   1      39.688  33.283  36.543  1.00  0.00     0.074 A 
ATOM     45  C   UNL A   1      38.620  34.241  36.727  1.00  0.00     0.031 C 
ATOM     46  C   UNL A   1      38.354  30.716  30.810  1.00  0.00     0.029 A 
ATOM     47  C   UNL A   1      39.469  30.389  31.696  1.00  0.00     0.049 A 
ATOM     48  H   UNL A   1      39.884  31.210  33.564  1.00  0.00     0.167 HD
ATOM     49  C   UNL A   1      40.683  33.068  37.438  1.00  0.00     0.037 A 
ATOM     50  C   UNL A   1      40.432  29.484  31.440  1.00  0.00     0.037 A 
ATOM     51  C   UNL A   1      41.726  32.089  37.273  1.00  0.00     0.049 A 
ATOM     52  C   UNL A   1      41.512  29.245  32.460  1.00  0.00     0.074 A 
ATOM     53  C   UNL A   1      42.741  31.751  38.152  1.00  0.00     0.029 A 
ATOM     54  N   UNL A   1      41.883  31.284  36.153  1.00  0.00    -0.354 N 
ATOM     55  N   UNL A   1      41.686  29.812  33.628  1.00  0.00    -0.248 NA
ATOM     56  C   UNL A   1      42.527  28.235  32.125  1.00  0.00     0.031 C 
ATOM     57  C   UNL A   1      43.532  30.766  37.551  1.00  0.00     0.029 A 
ATOM     58  C   UNL A   1      42.987  30.460  36.315  1.00  0.00     0.049 A 
ATOM     59  H   UNL A   1      41.298  31.297  35.362  1.00  0.00     0.167 HD
ATOM     60  C   UNL A   1      42.821  29.224  34.172  1.00  0.00     0.074 A 
ATOM     61  C   UNL A   1      43.276  28.234  33.218  1.00  0.00     0.031 C 
ATOM     62  C   UNL A   1      43.435  29.488  35.351  1.00  0.00     0.037 A 
BRANCH  49  63
ATOM     63  C   UNL A   1      40.682  33.889  38.695  1.00  0.00     0.064 A 
ATOM     64  C   UNL A   1      39.958  33.487  39.829  1.00  0.00     0.173 A 
ATOM     65  C   UNL A   1      41.457  35.054  38.793  1.00  0.00     0.173 A 
ATOM     66  F   UNL A   1      39.197  32.384  39.787  1.00  0.00    -0.203 F 
ATOM     67  C   UNL A   1      39.991  34.235  41.003  1.00  0.00     0.198 A 
ATOM     68  C   UNL A   1      41.511  35.784  39.979  1.00  0.00     0.198 A 
ATOM     69  F   UNL A   1      42.176  35.478  37.743  1.00  0.00    -0.203 F 
ATOM     70  F   UNL A   1      39.260  33.851  42.060  1.00  0.00    -0.200 F 
ATOM     71  C   UNL A   1      40.773  35.377  41.081  1.00  0.00     0.200 A 
ATOM     72  F   UNL A   1      42.281  36.878  40.058  1.00  0.00    -0.200 F 
ATOM     73  F   UNL A   1      40.816  36.085  42.217  1.00  0.00    -0.200 F 
ENDBRANCH  49  63
BRANCH  50  74
ATOM     74  C   UNL A   1      40.389  28.700  30.179  1.00  0.00     0.064 A 
ATOM     75  C   UNL A   1      41.075  29.142  29.039  1.00  0.00     0.173 A 
ATOM     76  C   UNL A   1      39.682  27.493  30.089  1.00  0.00     0.173 A 
ATOM     77  F   UNL A   1      41.747  30.302  29.071  1.00  0.00    -0.203 F 
ATOM     78  C   UNL A   1      41.049  28.410  27.854  1.00  0.00     0.198 A 
ATOM     79  C   UNL A   1      39.677  26.749  28.911  1.00  0.00     0.198 A 
ATOM     80  F   UNL A   1      39.011  27.026  31.152  1.00  0.00    -0.203 F 
ATOM     81  F   UNL A   1      41.686  28.872  26.770  1.00  0.00    -0.200 F 
ATOM     82  C   UNL A   1      40.357  27.210  27.793  1.00  0.00     0.200 A 
ATOM     83  F   UNL A   1      39.019  25.582  28.859  1.00  0.00    -0.200 F 
ATOM     84  F   UNL A   1      40.341  26.501  26.656  1.00  0.00    -0.200 F 
ENDBRANCH  50  74
BRANCH  62  85
ATOM     85  C   UNL A   1      44.670  28.698  35.674  1.00  0.00     0.064 A 
ATOM     86  C   UNL A   1      44.597  27.482  36.369  1.00  0.00     0.173 A 
ATOM     87  C   UNL A   1      45.933  29.139  35.252  1.00  0.00     0.173 A 
ATOM     88  F   UNL A   1      43.413  27.025  36.805  1.00  0.00    -0.203 F 
ATOM     89  C   UNL A   1      45.745  26.749  36.651  1.00  0.00     0.198 A 
ATOM     90  C   UNL A   1      47.076  28.389  35.511  1.00  0.00     0.198 A 
ATOM     91  F   UNL A   1      46.057  30.292  34.578  1.00  0.00    -0.203 F 
ATOM     92  F   UNL A   1      45.657  25.613  37.357  1.00  0.00    -0.200 F 
ATOM     93  C   UNL A   1      46.983  27.199  36.217  1.00  0.00     0.200 A 
ATOM     94  F   UNL A   1      48.271  28.819  35.079  1.00  0.00    -0.200 F 
ATOM     95  F   UNL A   1      48.088  26.488  36.485  1.00  0.00    -0.200 F 
ENDBRANCH  62  85
ENDBRANCH  36  37
ENDBRANCH  29  31
ENDBRANCH  28  29
ENDBRANCH  27  28
ENDBRANCH   1  27
TORSDOF 14
ENDMDL
