MODEL 1
REMARK VINA RESULT:     -11.4      0.000      0.000
REMARK SMILES CC(C)NC(=O)C[N@@H+]1CCC[C@H]1C(=O)OCCOC(=O)c1ccc(-c2c3nc(c(-c4c(F)c(F)c(F)c(F)c4F)c4ccc([nH]4)c(-c4c(F)c(F)c(F)c(F)c4F)c4nc(c(-c5c(F)c(F)c(F)c(F)c5F)c5ccc2[nH]5)C=C4)C=C3)cc1
REMARK SMILES IDX 16 1 15 2 13 3 14 4 12 5 8 6 9 7 10 9 11 10 7 11 5 12 4 13
REMARK SMILES IDX 6 15 2 16 1 17 3 18 17 19 18 20 19 21 20 22 21 23 22 24
REMARK SMILES IDX 83 25 23 26 82 27 24 28 25 29 26 30 76 31 27 32 81 33 75 34
REMARK SMILES IDX 77 35 28 36 80 37 74 38 73 39 29 41 61 42 41 43 60 44 42 45
REMARK SMILES IDX 45 46 59 47 78 48 43 49 44 50 58 52 79 53 46 54 30 55 31 56
REMARK SMILES IDX 39 57 32 58 33 59 37 60 40 61 34 62 35 63 38 64 36 65 62 66
REMARK SMILES IDX 63 67 71 68 64 69 65 70 69 71 72 72 66 73 67 74 70 75 68 76
REMARK SMILES IDX 47 77 48 78 56 79 49 80 50 81 54 82 57 83 51 84 52 85 55 86
REMARK SMILES IDX 53 87
REMARK H PARENT 8 8 4 14 77 40 45 51
REMARK Flexibility Score: inf
ROOT
ATOM      1  C   UNL A   1      31.713  28.473  27.551  1.00  0.00     0.274 C 
ENDROOT
BRANCH   1   2
ATOM      2  O   UNL A   1      31.166  27.207  27.132  1.00  0.00    -0.458 OA
BRANCH   2   3
ATOM      3  C   UNL A   1      31.817  26.641  26.074  1.00  0.00     0.365 C 
ATOM      4  O   UNL A   1      33.037  26.628  25.959  1.00  0.00    -0.245 OA
BRANCH   3   5
ATOM      5  C   UNL A   1      30.827  26.075  25.042  1.00  0.00     0.295 C 
ATOM      6  N   UNL A   1      31.204  26.548  23.683  1.00  0.00    -0.315 N 
ATOM      7  C   UNL A   1      31.359  25.390  22.799  1.00  0.00     0.263 C 
ATOM      8  H   UNL A   1      32.099  27.032  23.747  1.00  0.00     0.349 HD
ATOM      9  C   UNL A   1      30.651  24.251  23.504  1.00  0.00     0.068 C 
ATOM     10  C   UNL A   1      30.872  24.554  24.973  1.00  0.00     0.083 C 
BRANCH   6  11
ATOM     11  C   UNL A   1      30.290  27.569  23.144  1.00  0.00     0.364 C 
BRANCH  11  12
ATOM     12  C   UNL A   1      31.049  28.884  22.923  1.00  0.00     0.275 C 
ATOM     13  N   UNL A   1      30.344  30.055  22.821  1.00  0.00    -0.349 N 
ATOM     14  H   UNL A   1      30.875  30.857  22.611  1.00  0.00     0.163 HD
ATOM     15  O   UNL A   1      32.278  28.916  22.824  1.00  0.00    -0.268 OA
BRANCH  13  16
ATOM     16  C   UNL A   1      28.910  30.267  22.982  1.00  0.00     0.076 C 
ATOM     17  C   UNL A   1      28.645  31.601  23.671  1.00  0.00     0.030 C 
ATOM     18  C   UNL A   1      28.192  30.186  21.640  1.00  0.00     0.030 C 
ENDBRANCH  13  16
ENDBRANCH  11  12
ENDBRANCH   6  11
ENDBRANCH   3   5
ENDBRANCH   2   3
ENDBRANCH   1   2
BRANCH   1  19
ATOM     19  C   UNL A   1      31.617  29.532  26.451  1.00  0.00     0.275 C 
BRANCH  19  20
ATOM     20  O   UNL A   1      32.911  30.087  26.153  1.00  0.00    -0.458 OA
BRANCH  20  21
ATOM     21  C   UNL A   1      33.311  31.100  26.953  1.00  0.00     0.338 C 
ATOM     22  O   UNL A   1      32.690  32.107  27.245  1.00  0.00    -0.246 OA
BRANCH  21  23
ATOM     23  C   UNL A   1      34.667  30.840  27.466  1.00  0.00     0.060 A 
ATOM     24  C   UNL A   1      35.116  29.529  27.630  1.00  0.00     0.016 A 
ATOM     25  C   UNL A   1      35.429  31.907  27.942  1.00  0.00     0.016 A 
ATOM     26  C   UNL A   1      36.293  29.276  28.332  1.00  0.00     0.010 A 
ATOM     27  C   UNL A   1      36.642  31.655  28.591  1.00  0.00     0.010 A 
ATOM     28  C   UNL A   1      37.065  30.335  28.826  1.00  0.00    -0.014 A 
BRANCH  28  29
ATOM     29  C   UNL A   1      38.263  30.068  29.664  1.00  0.00     0.031 A 
ATOM     30  C   UNL A   1      39.385  29.234  29.112  1.00  0.00     0.074 A 
ATOM     31  C   UNL A   1      38.371  30.594  30.898  1.00  0.00     0.049 A 
ATOM     32  N   UNL A   1      40.429  28.732  29.725  1.00  0.00    -0.248 NA
ATOM     33  C   UNL A   1      39.325  28.920  27.675  1.00  0.00     0.031 C 
ATOM     34  C   UNL A   1      37.403  31.491  31.525  1.00  0.00     0.029 A 
ATOM     35  N   UNL A   1      39.360  30.457  31.841  1.00  0.00    -0.354 N 
ATOM     36  C   UNL A   1      41.117  28.004  28.764  1.00  0.00     0.074 A 
ATOM     37  C   UNL A   1      40.381  28.133  27.525  1.00  0.00     0.031 C 
ATOM     38  C   UNL A   1      37.859  31.852  32.735  1.00  0.00     0.029 A 
ATOM     39  C   UNL A   1      39.113  31.152  32.999  1.00  0.00     0.049 A 
ATOM     40  H   UNL A   1      40.167  29.912  31.701  1.00  0.00     0.167 HD
ATOM     41  C   UNL A   1      42.257  27.286  28.907  1.00  0.00     0.037 A 
ATOM     42  C   UNL A   1      39.804  31.195  34.154  1.00  0.00     0.037 A 
ATOM     43  C   UNL A   1      43.013  27.196  30.128  1.00  0.00     0.049 A 
ATOM     44  C   UNL A   1      41.040  30.352  34.306  1.00  0.00     0.074 A 
ATOM     45  C   UNL A   1      44.165  26.472  30.383  1.00  0.00     0.029 A 
ATOM     46  N   UNL A   1      42.700  27.874  31.296  1.00  0.00    -0.354 N 
ATOM     47  N   UNL A   1      41.627  29.579  33.426  1.00  0.00    -0.248 NA
ATOM     48  C   UNL A   1      41.691  30.365  35.624  1.00  0.00     0.031 C 
ATOM     49  C   UNL A   1      44.540  26.698  31.713  1.00  0.00     0.029 A 
ATOM     50  C   UNL A   1      43.635  27.583  32.277  1.00  0.00     0.049 A 
ATOM     51  H   UNL A   1      41.928  28.473  31.412  1.00  0.00     0.167 HD
ATOM     52  C   UNL A   1      42.714  29.016  34.079  1.00  0.00     0.074 A 
ATOM     53  C   UNL A   1      42.718  29.552  35.425  1.00  0.00     0.031 C 
ATOM     54  C   UNL A   1      43.621  28.126  33.609  1.00  0.00     0.037 A 
BRANCH  41  55
ATOM     55  C   UNL A   1      42.731  26.506  27.720  1.00  0.00     0.064 A 
ATOM     56  C   UNL A   1      43.664  27.030  26.815  1.00  0.00     0.173 A 
ATOM     57  C   UNL A   1      42.255  25.204  27.498  1.00  0.00     0.173 A 
ATOM     58  F   UNL A   1      44.134  28.276  26.976  1.00  0.00    -0.203 F 
ATOM     59  C   UNL A   1      44.092  26.285  25.719  1.00  0.00     0.198 A 
ATOM     60  C   UNL A   1      42.700  24.455  26.412  1.00  0.00     0.198 A 
ATOM     61  F   UNL A   1      41.362  24.659  28.337  1.00  0.00    -0.203 F 
ATOM     62  F   UNL A   1      44.955  26.817  24.843  1.00  0.00    -0.200 F 
ATOM     63  C   UNL A   1      43.613  24.997  25.521  1.00  0.00     0.200 A 
ATOM     64  F   UNL A   1      42.241  23.209  26.226  1.00  0.00    -0.200 F 
ATOM     65  F   UNL A   1      44.026  24.282  24.465  1.00  0.00    -0.200 F 
ENDBRANCH  41  55
BRANCH  42  66
ATOM     66  C   UNL A   1      39.318  32.040  35.273  1.00  0.00     0.064 A 
ATOM     67  C   UNL A   1      38.512  31.497  36.282  1.00  0.00     0.173 A 
ATOM     68  C   UNL A   1      39.652  33.399  35.361  1.00  0.00     0.173 A 
ATOM     69  F   UNL A   1      38.140  30.210  36.223  1.00  0.00    -0.203 F 
ATOM     70  C   UNL A   1      38.057  32.284  37.338  1.00  0.00     0.198 A 
ATOM     71  C   UNL A   1      39.218  34.179  36.430  1.00  0.00     0.198 A 
ATOM     72  F   UNL A   1      40.415  33.965  34.415  1.00  0.00    -0.203 F 
ATOM     73  F   UNL A   1      37.259  31.751  38.274  1.00  0.00    -0.200 F 
ATOM     74  C   UNL A   1      38.417  33.621  37.415  1.00  0.00     0.200 A 
ATOM     75  F   UNL A   1      39.574  35.468  36.504  1.00  0.00    -0.200 F 
ATOM     76  F   UNL A   1      37.985  34.376  38.435  1.00  0.00    -0.200 F 
ENDBRANCH  42  66
BRANCH  54  77
ATOM     77  C   UNL A   1      44.698  27.688  34.553  1.00  0.00     0.064 A 
ATOM     78  C   UNL A   1      44.543  26.547  35.353  1.00  0.00     0.173 A 
ATOM     79  C   UNL A   1      45.906  28.395  34.633  1.00  0.00     0.173 A 
ATOM     80  F   UNL A   1      43.398  25.851  35.319  1.00  0.00    -0.203 F 
ATOM     81  C   UNL A   1      45.557  26.136  36.213  1.00  0.00     0.198 A 
ATOM     82  C   UNL A   1      46.925  27.971  35.481  1.00  0.00     0.198 A 
ATOM     83  F   UNL A   1      46.099  29.490  33.885  1.00  0.00    -0.203 F 
ATOM     84  F   UNL A   1      45.378  25.061  36.992  1.00  0.00    -0.200 F 
ATOM     85  C   UNL A   1      46.749  26.845  36.272  1.00  0.00     0.200 A 
ATOM     86  F   UNL A   1      48.078  28.651  35.535  1.00  0.00    -0.200 F 
ATOM     87  F   UNL A   1      47.725  26.447  37.100  1.00  0.00    -0.200 F 
ENDBRANCH  54  77
ENDBRANCH  28  29
ENDBRANCH  21  23
ENDBRANCH  20  21
ENDBRANCH  19  20
ENDBRANCH   1  19
TORSDOF 14
ENDMDL
MODEL 2
REMARK VINA RESULT:     -11.3      0.865      2.024
REMARK SMILES CC(C)NC(=O)C[N@@H+]1CCC[C@H]1C(=O)OCCOC(=O)c1ccc(-c2c3nc(c(-c4c(F)c(F)c(F)c(F)c4F)c4ccc([nH]4)c(-c4c(F)c(F)c(F)c(F)c4F)c4nc(c(-c5c(F)c(F)c(F)c(F)c5F)c5ccc2[nH]5)C=C4)C=C3)cc1
REMARK SMILES IDX 16 1 15 2 13 3 14 4 12 5 8 6 9 7 10 9 11 10 7 11 5 12 4 13
REMARK SMILES IDX 6 15 2 16 1 17 3 18 17 19 18 20 19 21 20 22 21 23 22 24
REMARK SMILES IDX 83 25 23 26 82 27 24 28 25 29 26 30 76 31 27 32 81 33 75 34
REMARK SMILES IDX 77 35 28 36 80 37 74 38 73 39 29 41 61 42 41 43 60 44 42 45
REMARK SMILES IDX 45 46 59 47 78 48 43 49 44 50 58 52 79 53 46 54 30 55 31 56
REMARK SMILES IDX 39 57 32 58 33 59 37 60 40 61 34 62 35 63 38 64 36 65 62 66
REMARK SMILES IDX 63 67 71 68 64 69 65 70 69 71 72 72 66 73 67 74 70 75 68 76
REMARK SMILES IDX 47 77 48 78 56 79 49 80 50 81 54 82 57 83 51 84 52 85 55 86
REMARK SMILES IDX 53 87
REMARK H PARENT 8 8 4 14 77 40 45 51
REMARK Flexibility Score: inf
ROOT
ATOM      1  C   UNL A   1      31.784  28.528  27.228  1.00  0.00     0.274 C 
ENDROOT
BRANCH   1   2
ATOM      2  O   UNL A   1      31.012  27.748  26.293  1.00  0.00    -0.458 OA
BRANCH   2   3
ATOM      3  C   UNL A   1      31.654  26.636  25.833  1.00  0.00     0.365 C 
ATOM      4  O   UNL A   1      31.778  25.607  26.488  1.00  0.00    -0.245 OA
BRANCH   3   5
ATOM      5  C   UNL A   1      32.231  26.861  24.425  1.00  0.00     0.295 C 
ATOM      6  N   UNL A   1      31.546  28.016  23.788  1.00  0.00    -0.315 N 
ATOM      7  C   UNL A   1      32.551  28.988  23.351  1.00  0.00     0.263 C 
ATOM      8  H   UNL A   1      30.945  28.458  24.483  1.00  0.00     0.349 HD
ATOM      9  C   UNL A   1      33.860  28.226  23.328  1.00  0.00     0.068 C 
ATOM     10  C   UNL A   1      33.709  27.230  24.461  1.00  0.00     0.083 C 
BRANCH   6  11
ATOM     11  C   UNL A   1      30.615  27.625  22.715  1.00  0.00     0.364 C 
BRANCH  11  12
ATOM     12  C   UNL A   1      29.169  27.714  23.221  1.00  0.00     0.275 C 
ATOM     13  N   UNL A   1      28.503  28.909  23.139  1.00  0.00    -0.349 N 
ATOM     14  H   UNL A   1      27.604  28.927  23.540  1.00  0.00     0.163 HD
ATOM     15  O   UNL A   1      28.591  26.740  23.710  1.00  0.00    -0.268 OA
BRANCH  13  16
ATOM     16  C   UNL A   1      28.954  30.158  22.536  1.00  0.00     0.076 C 
ATOM     17  C   UNL A   1      28.146  30.461  21.278  1.00  0.00     0.030 C 
ATOM     18  C   UNL A   1      28.874  31.307  23.534  1.00  0.00     0.030 C 
ENDBRANCH  13  16
ENDBRANCH  11  12
ENDBRANCH   6  11
ENDBRANCH   3   5
ENDBRANCH   2   3
ENDBRANCH   1   2
BRANCH   1  19
ATOM     19  C   UNL A   1      31.753  30.020  26.894  1.00  0.00     0.275 C 
BRANCH  19  20
ATOM     20  O   UNL A   1      33.051  30.483  26.476  1.00  0.00    -0.458 OA
BRANCH  20  21
ATOM     21  C   UNL A   1      33.578  31.487  27.211  1.00  0.00     0.338 C 
ATOM     22  O   UNL A   1      33.075  32.568  27.463  1.00  0.00    -0.246 OA
BRANCH  21  23
ATOM     23  C   UNL A   1      34.915  31.112  27.703  1.00  0.00     0.060 A 
ATOM     24  C   UNL A   1      35.206  29.780  27.997  1.00  0.00     0.016 A 
ATOM     25  C   UNL A   1      35.825  32.118  28.030  1.00  0.00     0.016 A 
ATOM     26  C   UNL A   1      36.375  29.455  28.683  1.00  0.00     0.010 A 
ATOM     27  C   UNL A   1      37.027  31.783  28.661  1.00  0.00     0.010 A 
ATOM     28  C   UNL A   1      37.294  30.452  29.029  1.00  0.00    -0.014 A 
BRANCH  28  29
ATOM     29  C   UNL A   1      38.489  30.125  29.850  1.00  0.00     0.031 A 
ATOM     30  C   UNL A   1      39.579  29.269  29.268  1.00  0.00     0.074 A 
ATOM     31  C   UNL A   1      38.623  30.615  31.096  1.00  0.00     0.049 A 
ATOM     32  N   UNL A   1      40.610  28.719  29.859  1.00  0.00    -0.248 NA
ATOM     33  C   UNL A   1      39.498  28.995  27.824  1.00  0.00     0.031 C 
ATOM     34  C   UNL A   1      37.689  31.528  31.753  1.00  0.00     0.029 A 
ATOM     35  N   UNL A   1      39.613  30.422  32.028  1.00  0.00    -0.354 N 
ATOM     36  C   UNL A   1      41.267  27.993  28.875  1.00  0.00     0.074 A 
ATOM     37  C   UNL A   1      40.527  28.178  27.645  1.00  0.00     0.031 C 
ATOM     38  C   UNL A   1      38.166  31.842  32.968  1.00  0.00     0.029 A 
ATOM     39  C   UNL A   1      39.398  31.095  33.204  1.00  0.00     0.049 A 
ATOM     40  H   UNL A   1      40.401  29.855  31.867  1.00  0.00     0.167 HD
ATOM     41  C   UNL A   1      42.384  27.235  28.991  1.00  0.00     0.037 A 
ATOM     42  C   UNL A   1      40.098  31.086  34.354  1.00  0.00     0.037 A 
ATOM     43  C   UNL A   1      43.145  27.090  30.203  1.00  0.00     0.049 A 
ATOM     44  C   UNL A   1      41.306  30.200  34.475  1.00  0.00     0.074 A 
ATOM     45  C   UNL A   1      44.275  26.322  30.430  1.00  0.00     0.029 A 
ATOM     46  N   UNL A   1      42.863  27.747  31.390  1.00  0.00    -0.354 N 
ATOM     47  N   UNL A   1      41.861  29.431  33.571  1.00  0.00    -0.248 NA
ATOM     48  C   UNL A   1      41.967  30.158  35.788  1.00  0.00     0.031 C 
ATOM     49  C   UNL A   1      44.666  26.501  31.762  1.00  0.00     0.029 A 
ATOM     50  C   UNL A   1      43.796  27.401  32.356  1.00  0.00     0.049 A 
ATOM     51  H   UNL A   1      42.112  28.368  31.528  1.00  0.00     0.167 HD
ATOM     52  C   UNL A   1      42.934  28.816  34.201  1.00  0.00     0.074 A 
ATOM     53  C   UNL A   1      42.966  29.317  35.560  1.00  0.00     0.031 C 
ATOM     54  C   UNL A   1      43.809  27.910  33.701  1.00  0.00     0.037 A 
BRANCH  41  55
ATOM     55  C   UNL A   1      42.824  26.471  27.780  1.00  0.00     0.064 A 
ATOM     56  C   UNL A   1      43.774  26.983  26.887  1.00  0.00     0.173 A 
ATOM     57  C   UNL A   1      42.297  25.195  27.524  1.00  0.00     0.173 A 
ATOM     58  F   UNL A   1      44.292  28.205  27.080  1.00  0.00    -0.203 F 
ATOM     59  C   UNL A   1      44.169  26.253  25.768  1.00  0.00     0.198 A 
ATOM     60  C   UNL A   1      42.709  24.460  26.416  1.00  0.00     0.198 A 
ATOM     61  F   UNL A   1      41.386  24.662  28.351  1.00  0.00    -0.203 F 
ATOM     62  F   UNL A   1      45.050  26.776  24.904  1.00  0.00    -0.200 F 
ATOM     63  C   UNL A   1      43.640  24.991  25.537  1.00  0.00     0.200 A 
ATOM     64  F   UNL A   1      42.201  23.239  26.197  1.00  0.00    -0.200 F 
ATOM     65  F   UNL A   1      44.021  24.290  24.459  1.00  0.00    -0.200 F 
ENDBRANCH  41  55
BRANCH  42  66
ATOM     66  C   UNL A   1      39.648  31.917  35.499  1.00  0.00     0.064 A 
ATOM     67  C   UNL A   1      40.210  33.179  35.732  1.00  0.00     0.173 A 
ATOM     68  C   UNL A   1      38.646  31.474  36.374  1.00  0.00     0.173 A 
ATOM     69  F   UNL A   1      41.193  33.631  34.940  1.00  0.00    -0.203 F 
ATOM     70  C   UNL A   1      39.788  33.966  36.801  1.00  0.00     0.198 A 
ATOM     71  C   UNL A   1      38.207  32.271  37.428  1.00  0.00     0.198 A 
ATOM     72  F   UNL A   1      38.083  30.270  36.196  1.00  0.00    -0.203 F 
ATOM     73  F   UNL A   1      40.364  35.155  37.025  1.00  0.00    -0.200 F 
ATOM     74  C   UNL A   1      38.781  33.515  37.643  1.00  0.00     0.200 A 
ATOM     75  F   UNL A   1      37.230  31.835  38.234  1.00  0.00    -0.200 F 
ATOM     76  F   UNL A   1      38.370  34.276  38.667  1.00  0.00    -0.200 F 
ENDBRANCH  42  66
BRANCH  54  77
ATOM     77  C   UNL A   1      44.877  27.412  34.625  1.00  0.00     0.064 A 
ATOM     78  C   UNL A   1      46.094  28.094  34.763  1.00  0.00     0.173 A 
ATOM     79  C   UNL A   1      44.667  26.266  35.405  1.00  0.00     0.173 A 
ATOM     80  F   UNL A   1      46.342  29.186  34.025  1.00  0.00    -0.203 F 
ATOM     81  C   UNL A   1      47.073  27.635  35.639  1.00  0.00     0.198 A 
ATOM     82  C   UNL A   1      45.642  25.820  36.293  1.00  0.00     0.198 A 
ATOM     83  F   UNL A   1      43.517  25.583  35.308  1.00  0.00    -0.203 F 
ATOM     84  F   UNL A   1      48.243  28.283  35.734  1.00  0.00    -0.200 F 
ATOM     85  C   UNL A   1      46.844  26.502  36.408  1.00  0.00     0.200 A 
ATOM     86  F   UNL A   1      45.418  24.730  37.039  1.00  0.00    -0.200 F 
ATOM     87  F   UNL A   1      47.787  26.062  37.252  1.00  0.00    -0.200 F 
ENDBRANCH  54  77
ENDBRANCH  28  29
ENDBRANCH  21  23
ENDBRANCH  20  21
ENDBRANCH  19  20
ENDBRANCH   1  19
TORSDOF 14
ENDMDL
MODEL 3
REMARK VINA RESULT:     -11.2      1.172      2.281
REMARK SMILES CC(C)NC(=O)C[N@@H+]1CCC[C@H]1C(=O)OCCOC(=O)c1ccc(-c2c3nc(c(-c4c(F)c(F)c(F)c(F)c4F)c4ccc([nH]4)c(-c4c(F)c(F)c(F)c(F)c4F)c4nc(c(-c5c(F)c(F)c(F)c(F)c5F)c5ccc2[nH]5)C=C4)C=C3)cc1
REMARK SMILES IDX 16 1 15 2 13 3 14 4 12 5 8 6 9 7 10 9 11 10 7 11 5 12 4 13
REMARK SMILES IDX 6 15 2 16 1 17 3 18 17 19 18 20 19 21 20 22 21 23 22 24
REMARK SMILES IDX 83 25 23 26 82 27 24 28 25 29 26 30 76 31 27 32 81 33 75 34
REMARK SMILES IDX 77 35 28 36 80 37 74 38 73 39 29 41 61 42 41 43 60 44 42 45
REMARK SMILES IDX 45 46 59 47 78 48 43 49 44 50 58 52 79 53 46 54 30 55 31 56
REMARK SMILES IDX 39 57 32 58 33 59 37 60 40 61 34 62 35 63 38 64 36 65 62 66
REMARK SMILES IDX 63 67 71 68 64 69 65 70 69 71 72 72 66 73 67 74 70 75 68 76
REMARK SMILES IDX 47 77 48 78 56 79 49 80 50 81 54 82 57 83 51 84 52 85 55 86
REMARK SMILES IDX 53 87
REMARK H PARENT 8 8 4 14 77 40 45 51
REMARK Flexibility Score: inf
ROOT
ATOM      1  C   UNL A   1      31.545  29.504  25.250  1.00  0.00     0.274 C 
ENDROOT
BRANCH   1   2
ATOM      2  O   UNL A   1      30.758  29.595  24.046  1.00  0.00    -0.458 OA
BRANCH   2   3
ATOM      3  C   UNL A   1      31.250  28.865  23.003  1.00  0.00     0.365 C 
ATOM      4  O   UNL A   1      32.231  29.197  22.348  1.00  0.00    -0.245 OA
BRANCH   3   5
ATOM      5  C   UNL A   1      30.391  27.617  22.735  1.00  0.00     0.295 C 
ATOM      6  N   UNL A   1      31.051  26.425  23.330  1.00  0.00    -0.315 N 
ATOM      7  C   UNL A   1      30.107  25.750  24.223  1.00  0.00     0.263 C 
ATOM      8  H   UNL A   1      31.851  26.739  23.878  1.00  0.00     0.349 HD
ATOM      9  C   UNL A   1      28.741  26.279  23.834  1.00  0.00     0.068 C 
ATOM     10  C   UNL A   1      29.024  27.704  23.403  1.00  0.00     0.083 C 
BRANCH   6  11
ATOM     11  C   UNL A   1      31.644  25.524  22.327  1.00  0.00     0.364 C 
BRANCH  11  12
ATOM     12  C   UNL A   1      33.170  25.680  22.322  1.00  0.00     0.275 C 
ATOM     13  N   UNL A   1      33.917  24.983  23.236  1.00  0.00    -0.349 N 
ATOM     14  H   UNL A   1      34.883  25.173  23.232  1.00  0.00     0.163 HD
ATOM     15  O   UNL A   1      33.744  26.424  21.524  1.00  0.00    -0.268 OA
BRANCH  13  16
ATOM     16  C   UNL A   1      33.467  23.998  24.212  1.00  0.00     0.076 C 
ATOM     17  C   UNL A   1      33.927  22.602  23.807  1.00  0.00     0.030 C 
ATOM     18  C   UNL A   1      33.952  24.355  25.612  1.00  0.00     0.030 C 
ENDBRANCH  13  16
ENDBRANCH  11  12
ENDBRANCH   6  11
ENDBRANCH   3   5
ENDBRANCH   2   3
ENDBRANCH   1   2
BRANCH   1  19
ATOM     19  C   UNL A   1      31.614  30.839  25.993  1.00  0.00     0.275 C 
BRANCH  19  20
ATOM     20  O   UNL A   1      32.470  30.746  27.146  1.00  0.00    -0.458 OA
BRANCH  20  21
ATOM     21  C   UNL A   1      33.234  31.833  27.396  1.00  0.00     0.338 C 
ATOM     22  O   UNL A   1      32.925  33.004  27.267  1.00  0.00    -0.246 OA
BRANCH  21  23
ATOM     23  C   UNL A   1      34.567  31.422  27.869  1.00  0.00     0.060 A 
ATOM     24  C   UNL A   1      34.815  30.089  28.200  1.00  0.00     0.016 A 
ATOM     25  C   UNL A   1      35.523  32.401  28.142  1.00  0.00     0.016 A 
ATOM     26  C   UNL A   1      35.987  29.741  28.868  1.00  0.00     0.010 A 
ATOM     27  C   UNL A   1      36.726  32.041  28.755  1.00  0.00     0.010 A 
ATOM     28  C   UNL A   1      36.952  30.713  29.160  1.00  0.00    -0.014 A 
BRANCH  28  29
ATOM     29  C   UNL A   1      38.153  30.366  29.963  1.00  0.00     0.031 A 
ATOM     30  C   UNL A   1      39.228  29.505  29.359  1.00  0.00     0.074 A 
ATOM     31  C   UNL A   1      38.307  30.842  31.212  1.00  0.00     0.049 A 
ATOM     32  N   UNL A   1      40.260  28.938  29.932  1.00  0.00    -0.248 NA
ATOM     33  C   UNL A   1      39.127  29.246  27.914  1.00  0.00     0.031 C 
ATOM     34  C   UNL A   1      37.390  31.756  31.890  1.00  0.00     0.029 A 
ATOM     35  N   UNL A   1      39.307  30.629  32.130  1.00  0.00    -0.354 N 
ATOM     36  C   UNL A   1      40.898  28.216  28.933  1.00  0.00     0.074 A 
ATOM     37  C   UNL A   1      40.145  28.421  27.714  1.00  0.00     0.031 C 
ATOM     38  C   UNL A   1      37.884  32.053  33.102  1.00  0.00     0.029 A 
ATOM     39  C   UNL A   1      39.112  31.292  33.316  1.00  0.00     0.049 A 
ATOM     40  H   UNL A   1      40.087  30.056  31.954  1.00  0.00     0.167 HD
ATOM     41  C   UNL A   1      42.009  27.446  29.027  1.00  0.00     0.037 A 
ATOM     42  C   UNL A   1      39.826  31.264  34.457  1.00  0.00     0.037 A 
ATOM     43  C   UNL A   1      42.783  27.281  30.229  1.00  0.00     0.049 A 
ATOM     44  C   UNL A   1      41.027  30.365  34.554  1.00  0.00     0.074 A 
ATOM     45  C   UNL A   1      43.908  26.500  30.434  1.00  0.00     0.029 A 
ATOM     46  N   UNL A   1      42.522  27.929  31.426  1.00  0.00    -0.354 N 
ATOM     47  N   UNL A   1      41.563  29.600  33.636  1.00  0.00    -0.248 NA
ATOM     48  C   UNL A   1      41.703  30.304  35.858  1.00  0.00     0.031 C 
ATOM     49  C   UNL A   1      44.317  26.662  31.763  1.00  0.00     0.029 A 
ATOM     50  C   UNL A   1      43.462  27.564  32.376  1.00  0.00     0.049 A 
ATOM     51  H   UNL A   1      41.779  28.555  31.579  1.00  0.00     0.167 HD
ATOM     52  C   UNL A   1      42.637  28.969  34.246  1.00  0.00     0.074 A 
ATOM     53  C   UNL A   1      42.690  29.455  35.610  1.00  0.00     0.031 C 
ATOM     54  C   UNL A   1      43.497  28.059  33.727  1.00  0.00     0.037 A 
BRANCH  41  55
ATOM     55  C   UNL A   1      42.427  26.690  27.804  1.00  0.00     0.064 A 
ATOM     56  C   UNL A   1      43.367  27.205  26.901  1.00  0.00     0.173 A 
ATOM     57  C   UNL A   1      41.888  25.420  27.544  1.00  0.00     0.173 A 
ATOM     58  F   UNL A   1      43.895  28.422  27.098  1.00  0.00    -0.203 F 
ATOM     59  C   UNL A   1      43.741  26.482  25.771  1.00  0.00     0.198 A 
ATOM     60  C   UNL A   1      42.280  24.692  26.424  1.00  0.00     0.198 A 
ATOM     61  F   UNL A   1      40.986  24.885  28.379  1.00  0.00    -0.203 F 
ATOM     62  F   UNL A   1      44.612  27.008  24.899  1.00  0.00    -0.200 F 
ATOM     63  C   UNL A   1      43.201  25.226  25.536  1.00  0.00     0.200 A 
ATOM     64  F   UNL A   1      41.761  23.476  26.202  1.00  0.00    -0.200 F 
ATOM     65  F   UNL A   1      43.563  24.532  24.447  1.00  0.00    -0.200 F 
ENDBRANCH  41  55
BRANCH  42  66
ATOM     66  C   UNL A   1      39.397  32.088  35.615  1.00  0.00     0.064 A 
ATOM     67  C   UNL A   1      38.476  31.591  36.546  1.00  0.00     0.173 A 
ATOM     68  C   UNL A   1      39.903  33.380  35.819  1.00  0.00     0.173 A 
ATOM     69  F   UNL A   1      37.941  30.374  36.374  1.00  0.00    -0.203 F 
ATOM     70  C   UNL A   1      38.074  32.358  37.637  1.00  0.00     0.198 A 
ATOM     71  C   UNL A   1      39.520  34.136  36.924  1.00  0.00     0.198 A 
ATOM     72  F   UNL A   1      40.782  33.902  34.951  1.00  0.00    -0.203 F 
ATOM     73  F   UNL A   1      37.165  31.874  38.496  1.00  0.00    -0.200 F 
ATOM     74  C   UNL A   1      38.603  33.626  37.830  1.00  0.00     0.200 A 
ATOM     75  F   UNL A   1      40.039  35.357  37.110  1.00  0.00    -0.200 F 
ATOM     76  F   UNL A   1      38.221  34.360  38.884  1.00  0.00    -0.200 F 
ENDBRANCH  42  66
BRANCH  54  77
ATOM     77  C   UNL A   1      44.571  27.542  34.633  1.00  0.00     0.064 A 
ATOM     78  C   UNL A   1      44.384  26.378  35.392  1.00  0.00     0.173 A 
ATOM     79  C   UNL A   1      45.809  28.196  34.716  1.00  0.00     0.173 A 
ATOM     80  F   UNL A   1      43.211  25.731  35.355  1.00  0.00    -0.203 F 
ATOM     81  C   UNL A   1      45.396  25.894  36.216  1.00  0.00     0.198 A 
ATOM     82  C   UNL A   1      46.824  27.699  35.528  1.00  0.00     0.198 A 
ATOM     83  F   UNL A   1      46.033  29.311  34.006  1.00  0.00    -0.203 F 
ATOM     84  F   UNL A   1      45.187  24.798  36.958  1.00  0.00    -0.200 F 
ATOM     85  C   UNL A   1      46.616  26.552  36.279  1.00  0.00     0.200 A 
ATOM     86  F   UNL A   1      48.005  28.330  35.584  1.00  0.00    -0.200 F 
ATOM     87  F   UNL A   1      47.590  26.084  37.072  1.00  0.00    -0.200 F 
ENDBRANCH  54  77
ENDBRANCH  28  29
ENDBRANCH  21  23
ENDBRANCH  20  21
ENDBRANCH  19  20
ENDBRANCH   1  19
TORSDOF 14
ENDMDL
