MODEL 1
REMARK VINA RESULT:     -13.7      0.000      0.000
REMARK SMILES Cc1cc(/C=C2\C(=O)N(Cc3ccco3)C(=O)N=C2OCCOC(=O)c2ccc(-c3c4nc(c(-c5c(F)c(F)c(F)c(F)c5F)c5ccc([nH]5)c(-c5c(F)c(F)c(F)c(F)c5F)c5nc(c(-c6c(F)c(F)c(F)c(F)c6F)c6ccc3[nH]6)C=C5)C=C4)cc2)c(C)n1-c1ccc(Cl)c(C(=O)[O-])c1
REMARK SMILES IDX 21 1 20 2 19 3 5 4 6 5 7 6 8 7 9 8 18 9 16 10 17 11 4 12
REMARK SMILES IDX 1 13 2 14 3 15 91 16 89 17 90 18 92 19 93 20 101 21 94 22
REMARK SMILES IDX 97 23 95 24 96 25 98 26 99 27 100 28 10 29 11 30 12 31 15 32
REMARK SMILES IDX 13 33 14 34 22 35 23 36 24 37 25 38 26 39 27 40 88 41 28 42
REMARK SMILES IDX 87 43 29 44 30 45 31 46 81 47 32 48 86 49 80 50 82 51 33 52
REMARK SMILES IDX 85 53 79 54 78 55 34 57 66 58 46 59 65 60 47 61 50 62 64 63
REMARK SMILES IDX 83 64 48 65 49 66 63 68 84 69 51 70 35 71 36 72 44 73 37 74
REMARK SMILES IDX 38 75 42 76 45 77 39 78 40 79 43 80 41 81 67 82 68 83 76 84
REMARK SMILES IDX 69 85 70 86 74 87 77 88 71 89 72 90 75 91 73 92 52 93 53 94
REMARK SMILES IDX 61 95 54 96 55 97 59 98 62 99 56 100 57 101 60 102 58 103
REMARK H PARENT 82 56 50 67
REMARK Flexibility Score: inf
ROOT
ATOM      1  C   UNL A   1      33.637  30.745  27.268  1.00  0.00     0.273 C 
ENDROOT
BRANCH   1   2
ATOM      2  O   UNL A   1      33.495  29.252  27.254  1.00  0.00    -0.473 OA
BRANCH   2   3
ATOM      3  C   UNL A   1      32.586  28.804  26.359  1.00  0.00     0.231 C 
ATOM      4  C   UNL A   1      33.661  26.490  25.937  1.00  0.00     0.029 C 
ATOM      5  C   UNL A   1      32.697  27.433  25.761  1.00  0.00     0.103 C 
ATOM      6  C   UNL A   1      31.555  27.195  24.817  1.00  0.00     0.267 C 
ATOM      7  O   UNL A   1      31.035  26.097  24.650  1.00  0.00    -0.268 OA
ATOM      8  N   UNL A   1      31.167  28.344  24.165  1.00  0.00    -0.250 N 
ATOM      9  N   UNL A   1      31.712  29.666  26.009  1.00  0.00    -0.156 NA
ATOM     10  C   UNL A   1      31.144  29.581  24.781  1.00  0.00     0.354 C 
ATOM     11  O   UNL A   1      30.740  30.581  24.252  1.00  0.00    -0.245 OA
BRANCH   4  12
ATOM     12  C   UNL A   1      33.911  25.232  25.214  1.00  0.00    -0.003 A 
ATOM     13  C   UNL A   1      34.409  23.062  22.171  1.00  0.00     0.065 C 
ATOM     14  C   UNL A   1      34.281  23.733  23.504  1.00  0.00     0.020 A 
ATOM     15  C   UNL A   1      34.138  25.084  23.809  1.00  0.00     0.031 A 
ATOM     16  N   UNL A   1      34.172  23.026  24.690  1.00  0.00    -0.318 N 
ATOM     17  C   UNL A   1      33.854  23.929  25.712  1.00  0.00     0.027 A 
ATOM     18  C   UNL A   1      33.642  23.451  27.105  1.00  0.00     0.065 C 
BRANCH  16  19
ATOM     19  C   UNL A   1      34.365  21.617  24.864  1.00  0.00     0.046 A 
ATOM     20  C   UNL A   1      35.646  21.121  25.111  1.00  0.00     0.028 A 
ATOM     21  C   UNL A   1      33.311  20.722  24.624  1.00  0.00     0.038 A 
ATOM     22  C   UNL A   1      35.902  19.754  25.002  1.00  0.00     0.023 A 
ATOM     23  C   UNL A   1      33.558  19.329  24.534  1.00  0.00     0.018 A 
ATOM     24  C   UNL A   1      34.872  18.858  24.690  1.00  0.00     0.050 A 
ATOM     25  Cl  UNL A   1      35.351  17.207  24.502  1.00  0.00    -0.084 Cl
BRANCH  23  26
ATOM     26  C   UNL A   1      32.435  18.394  24.231  1.00  0.00     0.073 C 
ATOM     27  O   UNL A   1      31.781  17.724  25.006  1.00  0.00    -0.545 OA
ATOM     28  O   UNL A   1      32.151  18.346  22.916  1.00  0.00    -0.545 OA
ENDBRANCH  23  26
ENDBRANCH  16  19
ENDBRANCH   4  12
BRANCH   8  29
ATOM     29  C   UNL A   1      30.793  28.314  22.773  1.00  0.00     0.206 C 
BRANCH  29  30
ATOM     30  C   UNL A   1      29.427  28.827  22.549  1.00  0.00     0.123 A 
ATOM     31  C   UNL A   1      28.202  28.566  23.124  1.00  0.00     0.047 A 
ATOM     32  O   UNL A   1      29.309  29.814  21.621  1.00  0.00    -0.467 OA
ATOM     33  C   UNL A   1      27.279  29.425  22.494  1.00  0.00     0.042 A 
ATOM     34  C   UNL A   1      28.001  30.169  21.593  1.00  0.00     0.195 A 
ENDBRANCH  29  30
ENDBRANCH   8  29
ENDBRANCH   2   3
ENDBRANCH   1   2
BRANCH   1  35
ATOM     35  C   UNL A   1      34.630  31.318  28.371  1.00  0.00     0.274 C 
BRANCH  35  36
ATOM     36  O   UNL A   1      34.320  32.592  29.110  1.00  0.00    -0.458 OA
BRANCH  36  37
ATOM     37  C   UNL A   1      34.826  32.685  30.408  1.00  0.00     0.338 C 
ATOM     38  O   UNL A   1      34.274  33.371  31.267  1.00  0.00    -0.246 OA
BRANCH  37  39
ATOM     39  C   UNL A   1      36.166  31.994  30.805  1.00  0.00     0.060 A 
ATOM     40  C   UNL A   1      37.341  32.157  30.068  1.00  0.00     0.016 A 
ATOM     41  C   UNL A   1      36.193  30.856  31.654  1.00  0.00     0.016 A 
ATOM     42  C   UNL A   1      38.472  31.243  30.202  1.00  0.00     0.010 A 
ATOM     43  C   UNL A   1      37.330  29.919  31.769  1.00  0.00     0.010 A 
ATOM     44  C   UNL A   1      38.521  30.067  31.034  1.00  0.00    -0.014 A 
BRANCH  44  45
ATOM     45  C   UNL A   1      39.566  28.891  30.639  1.00  0.00     0.031 A 
ATOM     46  C   UNL A   1      40.514  28.862  31.790  1.00  0.00     0.074 A 
ATOM     47  C   UNL A   1      39.930  27.967  29.645  1.00  0.00     0.049 A 
ATOM     48  N   UNL A   1      41.177  29.914  32.186  1.00  0.00    -0.248 NA
ATOM     49  C   UNL A   1      40.535  27.726  32.714  1.00  0.00     0.031 C 
ATOM     50  C   UNL A   1      39.294  27.724  28.338  1.00  0.00     0.029 A 
ATOM     51  N   UNL A   1      40.983  26.979  29.576  1.00  0.00    -0.354 N 
ATOM     52  C   UNL A   1      41.961  29.460  33.218  1.00  0.00     0.074 A 
ATOM     53  C   UNL A   1      41.350  28.216  33.648  1.00  0.00     0.031 C 
ATOM     54  C   UNL A   1      39.852  26.659  27.686  1.00  0.00     0.029 A 
ATOM     55  C   UNL A   1      40.976  26.096  28.437  1.00  0.00     0.049 A 
ATOM     56  H   UNL A   1      41.672  26.911  30.276  1.00  0.00     0.167 HD
ATOM     57  C   UNL A   1      43.283  29.787  33.196  1.00  0.00     0.037 A 
ATOM     58  C   UNL A   1      41.813  25.048  28.056  1.00  0.00     0.037 A 
ATOM     59  C   UNL A   1      44.155  28.660  33.029  1.00  0.00     0.049 A 
ATOM     60  C   UNL A   1      43.088  25.133  28.789  1.00  0.00     0.074 A 
ATOM     61  C   UNL A   1      44.194  27.379  33.540  1.00  0.00     0.029 A 
ATOM     62  N   UNL A   1      44.938  28.642  31.893  1.00  0.00    -0.354 N 
ATOM     63  N   UNL A   1      44.029  25.936  28.400  1.00  0.00    -0.248 NA
ATOM     64  C   UNL A   1      43.480  24.194  29.840  1.00  0.00     0.031 C 
ATOM     65  C   UNL A   1      44.538  26.557  32.439  1.00  0.00     0.029 A 
ATOM     66  C   UNL A   1      44.932  27.367  31.379  1.00  0.00     0.049 A 
ATOM     67  H   UNL A   1      45.421  29.412  31.515  1.00  0.00     0.167 HD
ATOM     68  C   UNL A   1      44.876  25.967  29.457  1.00  0.00     0.074 A 
ATOM     69  C   UNL A   1      44.679  24.706  30.138  1.00  0.00     0.031 C 
ATOM     70  C   UNL A   1      45.116  27.202  29.959  1.00  0.00     0.037 A 
BRANCH  57  71
ATOM     71  C   UNL A   1      43.588  31.148  32.658  1.00  0.00     0.064 A 
ATOM     72  C   UNL A   1      44.027  32.144  33.531  1.00  0.00     0.173 A 
ATOM     73  C   UNL A   1      43.381  31.497  31.309  1.00  0.00     0.173 A 
ATOM     74  F   UNL A   1      44.302  31.847  34.810  1.00  0.00    -0.203 F 
ATOM     75  C   UNL A   1      44.199  33.454  33.086  1.00  0.00     0.198 A 
ATOM     76  C   UNL A   1      43.507  32.812  30.879  1.00  0.00     0.198 A 
ATOM     77  F   UNL A   1      43.089  30.555  30.398  1.00  0.00    -0.203 F 
ATOM     78  F   UNL A   1      44.648  34.392  33.932  1.00  0.00    -0.200 F 
ATOM     79  C   UNL A   1      43.910  33.792  31.770  1.00  0.00     0.200 A 
ATOM     80  F   UNL A   1      43.256  33.122  29.600  1.00  0.00    -0.200 F 
ATOM     81  F   UNL A   1      44.048  35.058  31.354  1.00  0.00    -0.200 F 
ENDBRANCH  57  71
BRANCH  58  82
ATOM     82  C   UNL A   1      41.953  23.903  27.014  1.00  0.00     0.064 A 
ATOM     83  C   UNL A   1      42.732  24.084  25.816  1.00  0.00     0.173 A 
ATOM     84  C   UNL A   1      41.739  22.560  27.345  1.00  0.00     0.173 A 
ATOM     85  F   UNL A   1      42.976  25.302  25.317  1.00  0.00    -0.203 F 
ATOM     86  C   UNL A   1      43.349  23.034  25.116  1.00  0.00     0.198 A 
ATOM     87  C   UNL A   1      42.317  21.498  26.602  1.00  0.00     0.198 A 
ATOM     88  F   UNL A   1      41.047  22.247  28.447  1.00  0.00    -0.203 F 
ATOM     89  F   UNL A   1      44.183  23.300  24.097  1.00  0.00    -0.200 F 
ATOM     90  C   UNL A   1      43.152  21.737  25.518  1.00  0.00     0.200 A 
ATOM     91  F   UNL A   1      42.119  20.229  26.986  1.00  0.00    -0.200 F 
ATOM     92  F   UNL A   1      43.779  20.730  24.890  1.00  0.00    -0.200 F 
ENDBRANCH  58  82
BRANCH  70  93
ATOM     93  C   UNL A   1      45.266  28.325  28.931  1.00  0.00     0.064 A 
ATOM     94  C   UNL A   1      44.222  28.973  28.219  1.00  0.00     0.173 A 
ATOM     95  C   UNL A   1      46.566  28.702  28.569  1.00  0.00     0.173 A 
ATOM     96  F   UNL A   1      42.934  28.846  28.566  1.00  0.00    -0.203 F 
ATOM     97  C   UNL A   1      44.472  29.814  27.133  1.00  0.00     0.198 A 
ATOM     98  C   UNL A   1      46.812  29.602  27.529  1.00  0.00     0.198 A 
ATOM     99  F   UNL A   1      47.615  28.207  29.243  1.00  0.00    -0.203 F 
ATOM    100  F   UNL A   1      43.450  30.322  26.425  1.00  0.00    -0.200 F 
ATOM    101  C   UNL A   1      45.769  30.129  26.787  1.00  0.00     0.200 A 
ATOM    102  F   UNL A   1      48.073  29.958  27.249  1.00  0.00    -0.200 F 
ATOM    103  F   UNL A   1      46.015  30.955  25.761  1.00  0.00    -0.200 F 
ENDBRANCH  70  93
ENDBRANCH  44  45
ENDBRANCH  37  39
ENDBRANCH  36  37
ENDBRANCH  35  36
ENDBRANCH   1  35
TORSDOF 15
ENDMDL
MODEL 2
REMARK VINA RESULT:     -13.5      3.624      9.130
REMARK SMILES Cc1cc(/C=C2\C(=O)N(Cc3ccco3)C(=O)N=C2OCCOC(=O)c2ccc(-c3c4nc(c(-c5c(F)c(F)c(F)c(F)c5F)c5ccc([nH]5)c(-c5c(F)c(F)c(F)c(F)c5F)c5nc(c(-c6c(F)c(F)c(F)c(F)c6F)c6ccc3[nH]6)C=C5)C=C4)cc2)c(C)n1-c1ccc(Cl)c(C(=O)[O-])c1
REMARK SMILES IDX 21 1 20 2 19 3 5 4 6 5 7 6 8 7 9 8 18 9 16 10 17 11 4 12
REMARK SMILES IDX 1 13 2 14 3 15 91 16 89 17 90 18 92 19 93 20 101 21 94 22
REMARK SMILES IDX 97 23 95 24 96 25 98 26 99 27 100 28 10 29 11 30 12 31 15 32
REMARK SMILES IDX 13 33 14 34 22 35 23 36 24 37 25 38 26 39 27 40 88 41 28 42
REMARK SMILES IDX 87 43 29 44 30 45 31 46 81 47 32 48 86 49 80 50 82 51 33 52
REMARK SMILES IDX 85 53 79 54 78 55 34 57 66 58 46 59 65 60 47 61 50 62 64 63
REMARK SMILES IDX 83 64 48 65 49 66 63 68 84 69 51 70 35 71 36 72 44 73 37 74
REMARK SMILES IDX 38 75 42 76 45 77 39 78 40 79 43 80 41 81 67 82 68 83 76 84
REMARK SMILES IDX 69 85 70 86 74 87 77 88 71 89 72 90 75 91 73 92 52 93 53 94
REMARK SMILES IDX 61 95 54 96 55 97 59 98 62 99 56 100 57 101 60 102 58 103
REMARK H PARENT 82 56 50 67
REMARK Flexibility Score: inf
ROOT
ATOM      1  C   UNL A   1      38.306  23.409  26.256  1.00  0.00     0.273 C 
ENDROOT
BRANCH   1   2
ATOM      2  O   UNL A   1      37.972  23.397  24.793  1.00  0.00    -0.473 OA
BRANCH   2   3
ATOM      3  C   UNL A   1      36.810  22.766  24.510  1.00  0.00     0.231 C 
ATOM      4  C   UNL A   1      35.261  24.824  24.745  1.00  0.00     0.029 C 
ATOM      5  C   UNL A   1      35.511  23.514  24.474  1.00  0.00     0.103 C 
ATOM      6  C   UNL A   1      34.393  22.578  24.123  1.00  0.00     0.267 C 
ATOM      7  O   UNL A   1      33.413  22.912  23.466  1.00  0.00    -0.268 OA
ATOM      8  N   UNL A   1      34.595  21.311  24.623  1.00  0.00    -0.250 N 
ATOM      9  N   UNL A   1      36.907  21.501  24.380  1.00  0.00    -0.156 NA
ATOM     10  C   UNL A   1      35.841  20.715  24.667  1.00  0.00     0.354 C 
ATOM     11  O   UNL A   1      36.027  19.586  25.032  1.00  0.00    -0.245 OA
BRANCH   4  12
ATOM     12  C   UNL A   1      33.985  25.536  24.924  1.00  0.00    -0.003 A 
ATOM     13  C   UNL A   1      30.440  25.980  26.128  1.00  0.00     0.065 C 
ATOM     14  C   UNL A   1      31.837  26.035  25.594  1.00  0.00     0.020 A 
ATOM     15  C   UNL A   1      32.877  25.119  25.728  1.00  0.00     0.031 A 
ATOM     16  N   UNL A   1      32.273  27.034  24.740  1.00  0.00    -0.318 N 
ATOM     17  C   UNL A   1      33.540  26.682  24.259  1.00  0.00     0.027 A 
ATOM     18  C   UNL A   1      34.254  27.556  23.290  1.00  0.00     0.065 C 
BRANCH  16  19
ATOM     19  C   UNL A   1      31.569  28.237  24.405  1.00  0.00     0.046 A 
ATOM     20  C   UNL A   1      31.863  29.420  25.085  1.00  0.00     0.028 A 
ATOM     21  C   UNL A   1      30.479  28.199  23.522  1.00  0.00     0.038 A 
ATOM     22  C   UNL A   1      31.011  30.519  24.980  1.00  0.00     0.023 A 
ATOM     23  C   UNL A   1      29.620  29.319  23.392  1.00  0.00     0.018 A 
ATOM     24  C   UNL A   1      29.878  30.468  24.159  1.00  0.00     0.050 A 
ATOM     25  Cl  UNL A   1      28.866  31.870  24.194  1.00  0.00    -0.084 Cl
BRANCH  23  26
ATOM     26  C   UNL A   1      28.437  29.247  22.486  1.00  0.00     0.073 C 
ATOM     27  O   UNL A   1      27.317  28.849  22.736  1.00  0.00    -0.545 OA
ATOM     28  O   UNL A   1      28.710  29.714  21.252  1.00  0.00    -0.545 OA
ENDBRANCH  23  26
ENDBRANCH  16  19
ENDBRANCH   4  12
BRANCH   8  29
ATOM     29  C   UNL A   1      33.500  20.548  25.168  1.00  0.00     0.206 C 
BRANCH  29  30
ATOM     30  C   UNL A   1      33.049  19.483  24.252  1.00  0.00     0.123 A 
ATOM     31  C   UNL A   1      32.435  19.481  23.018  1.00  0.00     0.047 A 
ATOM     32  O   UNL A   1      33.327  18.209  24.639  1.00  0.00    -0.467 OA
ATOM     33  C   UNL A   1      32.309  18.128  22.642  1.00  0.00     0.042 A 
ATOM     34  C   UNL A   1      32.872  17.394  23.657  1.00  0.00     0.195 A 
ENDBRANCH  29  30
ENDBRANCH   8  29
ENDBRANCH   2   3
ENDBRANCH   1   2
BRANCH   1  35
ATOM     35  C   UNL A   1      39.356  22.307  26.717  1.00  0.00     0.274 C 
BRANCH  35  36
ATOM     36  O   UNL A   1      40.408  21.793  25.772  1.00  0.00    -0.458 OA
BRANCH  36  37
ATOM     37  C   UNL A   1      41.720  22.187  26.043  1.00  0.00     0.338 C 
ATOM     38  O   UNL A   1      42.656  21.391  25.992  1.00  0.00    -0.246 OA
BRANCH  37  39
ATOM     39  C   UNL A   1      42.047  23.638  26.512  1.00  0.00     0.060 A 
ATOM     40  C   UNL A   1      41.938  24.037  27.845  1.00  0.00     0.016 A 
ATOM     41  C   UNL A   1      42.063  24.728  25.601  1.00  0.00     0.016 A 
ATOM     42  C   UNL A   1      41.874  25.445  28.228  1.00  0.00     0.010 A 
ATOM     43  C   UNL A   1      41.973  26.150  25.991  1.00  0.00     0.010 A 
ATOM     44  C   UNL A   1      41.861  26.572  27.329  1.00  0.00    -0.014 A 
BRANCH  44  45
ATOM     45  C   UNL A   1      41.218  27.965  27.855  1.00  0.00     0.031 A 
ATOM     46  C   UNL A   1      42.375  28.906  27.859  1.00  0.00     0.074 A 
ATOM     47  C   UNL A   1      40.048  28.579  28.333  1.00  0.00     0.049 A 
ATOM     48  N   UNL A   1      43.478  28.668  28.513  1.00  0.00    -0.248 NA
ATOM     49  C   UNL A   1      42.443  30.011  26.901  1.00  0.00     0.031 C 
ATOM     50  C   UNL A   1      38.715  27.985  28.537  1.00  0.00     0.029 A 
ATOM     51  N   UNL A   1      39.762  29.934  28.748  1.00  0.00    -0.354 N 
ATOM     52  C   UNL A   1      44.252  29.782  28.304  1.00  0.00     0.074 A 
ATOM     53  C   UNL A   1      43.688  30.431  27.136  1.00  0.00     0.031 C 
ATOM     54  C   UNL A   1      37.787  28.920  28.904  1.00  0.00     0.029 A 
ATOM     55  C   UNL A   1      38.390  30.245  29.060  1.00  0.00     0.049 A 
ATOM     56  H   UNL A   1      40.472  30.613  28.812  1.00  0.00     0.167 HD
ATOM     57  C   UNL A   1      44.830  30.360  29.394  1.00  0.00     0.037 A 
ATOM     58  C   UNL A   1      37.765  31.421  29.477  1.00  0.00     0.037 A 
ATOM     59  C   UNL A   1      44.335  31.676  29.682  1.00  0.00     0.049 A 
ATOM     60  C   UNL A   1      38.768  32.363  30.002  1.00  0.00     0.074 A 
ATOM     61  C   UNL A   1      44.012  32.780  28.919  1.00  0.00     0.029 A 
ATOM     62  N   UNL A   1      43.700  31.850  30.894  1.00  0.00    -0.354 N 
ATOM     63  N   UNL A   1      39.218  32.252  31.214  1.00  0.00    -0.248 NA
ATOM     64  C   UNL A   1      39.162  33.592  29.314  1.00  0.00     0.031 C 
ATOM     65  C   UNL A   1      42.813  33.276  29.485  1.00  0.00     0.029 A 
ATOM     66  C   UNL A   1      42.583  32.627  30.694  1.00  0.00     0.049 A 
ATOM     67  H   UNL A   1      43.996  31.482  31.757  1.00  0.00     0.167 HD
ATOM     68  C   UNL A   1      40.306  33.060  31.223  1.00  0.00     0.074 A 
ATOM     69  C   UNL A   1      40.050  34.051  30.201  1.00  0.00     0.031 C 
ATOM     70  C   UNL A   1      41.462  32.455  31.583  1.00  0.00     0.037 A 
BRANCH  57  71
ATOM     71  C   UNL A   1      45.284  29.405  30.450  1.00  0.00     0.064 A 
ATOM     72  C   UNL A   1      46.651  29.206  30.648  1.00  0.00     0.173 A 
ATOM     73  C   UNL A   1      44.387  28.633  31.214  1.00  0.00     0.173 A 
ATOM     74  F   UNL A   1      47.545  29.962  29.994  1.00  0.00    -0.203 F 
ATOM     75  C   UNL A   1      47.106  28.231  31.535  1.00  0.00     0.198 A 
ATOM     76  C   UNL A   1      44.843  27.630  32.062  1.00  0.00     0.198 A 
ATOM     77  F   UNL A   1      43.067  28.873  31.165  1.00  0.00    -0.203 F 
ATOM     78  F   UNL A   1      48.422  28.073  31.734  1.00  0.00    -0.200 F 
ATOM     79  C   UNL A   1      46.203  27.426  32.217  1.00  0.00     0.200 A 
ATOM     80  F   UNL A   1      43.963  26.879  32.738  1.00  0.00    -0.200 F 
ATOM     81  F   UNL A   1      46.645  26.471  33.046  1.00  0.00    -0.200 F 
ENDBRANCH  57  71
BRANCH  58  82
ATOM     82  C   UNL A   1      36.365  32.042  29.737  1.00  0.00     0.064 A 
ATOM     83  C   UNL A   1      35.776  32.017  31.052  1.00  0.00     0.173 A 
ATOM     84  C   UNL A   1      35.807  33.009  28.893  1.00  0.00     0.173 A 
ATOM     85  F   UNL A   1      36.144  31.109  31.965  1.00  0.00    -0.203 F 
ATOM     86  C   UNL A   1      34.838  32.956  31.509  1.00  0.00     0.198 A 
ATOM     87  C   UNL A   1      34.817  33.921  29.341  1.00  0.00     0.198 A 
ATOM     88  F   UNL A   1      36.274  33.156  27.647  1.00  0.00    -0.203 F 
ATOM     89  F   UNL A   1      34.452  32.954  32.796  1.00  0.00    -0.200 F 
ATOM     90  C   UNL A   1      34.366  33.921  30.655  1.00  0.00     0.200 A 
ATOM     91  F   UNL A   1      34.346  34.860  28.506  1.00  0.00    -0.200 F 
ATOM     92  F   UNL A   1      33.510  34.856  31.096  1.00  0.00    -0.200 F 
ENDBRANCH  58  82
BRANCH  70  93
ATOM     93  C   UNL A   1      41.359  31.435  32.720  1.00  0.00     0.064 A 
ATOM     94  C   UNL A   1      40.870  30.105  32.628  1.00  0.00     0.173 A 
ATOM     95  C   UNL A   1      41.686  31.869  34.011  1.00  0.00     0.173 A 
ATOM     96  F   UNL A   1      40.678  29.493  31.452  1.00  0.00    -0.203 F 
ATOM     97  C   UNL A   1      40.592  29.335  33.759  1.00  0.00     0.198 A 
ATOM     98  C   UNL A   1      41.476  31.068  35.136  1.00  0.00     0.198 A 
ATOM     99  F   UNL A   1      42.235  33.081  34.186  1.00  0.00    -0.203 F 
ATOM    100  F   UNL A   1      40.033  28.121  33.627  1.00  0.00    -0.200 F 
ATOM    101  C   UNL A   1      40.895  29.818  35.015  1.00  0.00     0.200 A 
ATOM    102  F   UNL A   1      41.841  31.517  36.344  1.00  0.00    -0.200 F 
ATOM    103  F   UNL A   1      40.654  29.074  36.103  1.00  0.00    -0.200 F 
ENDBRANCH  70  93
ENDBRANCH  44  45
ENDBRANCH  37  39
ENDBRANCH  36  37
ENDBRANCH  35  36
ENDBRANCH   1  35
TORSDOF 15
ENDMDL
MODEL 3
REMARK VINA RESULT:     -13.0      1.262      1.818
REMARK SMILES Cc1cc(/C=C2\C(=O)N(Cc3ccco3)C(=O)N=C2OCCOC(=O)c2ccc(-c3c4nc(c(-c5c(F)c(F)c(F)c(F)c5F)c5ccc([nH]5)c(-c5c(F)c(F)c(F)c(F)c5F)c5nc(c(-c6c(F)c(F)c(F)c(F)c6F)c6ccc3[nH]6)C=C5)C=C4)cc2)c(C)n1-c1ccc(Cl)c(C(=O)[O-])c1
REMARK SMILES IDX 21 1 20 2 19 3 5 4 6 5 7 6 8 7 9 8 18 9 16 10 17 11 4 12
REMARK SMILES IDX 1 13 2 14 3 15 91 16 89 17 90 18 92 19 93 20 101 21 94 22
REMARK SMILES IDX 97 23 95 24 96 25 98 26 99 27 100 28 10 29 11 30 12 31 15 32
REMARK SMILES IDX 13 33 14 34 22 35 23 36 24 37 25 38 26 39 27 40 88 41 28 42
REMARK SMILES IDX 87 43 29 44 30 45 31 46 81 47 32 48 86 49 80 50 82 51 33 52
REMARK SMILES IDX 85 53 79 54 78 55 34 57 66 58 46 59 65 60 47 61 50 62 64 63
REMARK SMILES IDX 83 64 48 65 49 66 63 68 84 69 51 70 35 71 36 72 44 73 37 74
REMARK SMILES IDX 38 75 42 76 45 77 39 78 40 79 43 80 41 81 67 82 68 83 76 84
REMARK SMILES IDX 69 85 70 86 74 87 77 88 71 89 72 90 75 91 73 92 52 93 53 94
REMARK SMILES IDX 61 95 54 96 55 97 59 98 62 99 56 100 57 101 60 102 58 103
REMARK H PARENT 82 56 50 67
REMARK Flexibility Score: inf
ROOT
ATOM      1  C   UNL A   1      34.914  29.746  27.368  1.00  0.00     0.273 C 
ENDROOT
BRANCH   1   2
ATOM      2  O   UNL A   1      33.738  28.974  27.890  1.00  0.00    -0.473 OA
BRANCH   2   3
ATOM      3  C   UNL A   1      32.759  28.797  26.975  1.00  0.00     0.231 C 
ATOM      4  C   UNL A   1      33.490  26.452  26.168  1.00  0.00     0.029 C 
ATOM      5  C   UNL A   1      32.665  27.533  26.173  1.00  0.00     0.103 C 
ATOM      6  C   UNL A   1      31.484  27.601  25.250  1.00  0.00     0.267 C 
ATOM      7  O   UNL A   1      30.812  26.623  24.941  1.00  0.00    -0.268 OA
ATOM      8  N   UNL A   1      31.249  28.879  24.795  1.00  0.00    -0.250 N 
ATOM      9  N   UNL A   1      32.009  29.813  26.793  1.00  0.00    -0.156 NA
ATOM     10  C   UNL A   1      31.411  29.997  25.590  1.00  0.00     0.354 C 
ATOM     11  O   UNL A   1      31.143  31.112  25.234  1.00  0.00    -0.245 OA
BRANCH   4  12
ATOM     12  C   UNL A   1      33.548  25.298  25.254  1.00  0.00    -0.003 A 
ATOM     13  C   UNL A   1      33.641  23.575  21.902  1.00  0.00     0.065 C 
ATOM     14  C   UNL A   1      33.654  24.045  23.324  1.00  0.00     0.020 A 
ATOM     15  C   UNL A   1      33.697  25.340  23.831  1.00  0.00     0.031 A 
ATOM     16  N   UNL A   1      33.504  23.183  24.397  1.00  0.00    -0.318 N 
ATOM     17  C   UNL A   1      33.345  23.951  25.558  1.00  0.00     0.027 A 
ATOM     18  C   UNL A   1      33.131  23.295  26.876  1.00  0.00     0.065 C 
BRANCH  16  19
ATOM     19  C   UNL A   1      33.521  21.751  24.351  1.00  0.00     0.046 A 
ATOM     20  C   UNL A   1      32.315  21.047  24.340  1.00  0.00     0.028 A 
ATOM     21  C   UNL A   1      34.730  21.051  24.484  1.00  0.00     0.038 A 
ATOM     22  C   UNL A   1      32.304  19.673  24.581  1.00  0.00     0.023 A 
ATOM     23  C   UNL A   1      34.729  19.651  24.706  1.00  0.00     0.018 A 
ATOM     24  C   UNL A   1      33.500  18.975  24.788  1.00  0.00     0.050 A 
ATOM     25  Cl  UNL A   1      33.329  17.295  25.160  1.00  0.00    -0.084 Cl
BRANCH  23  26
ATOM     26  C   UNL A   1      36.021  18.928  24.893  1.00  0.00     0.073 C 
ATOM     27  O   UNL A   1      36.211  17.731  24.978  1.00  0.00    -0.545 OA
ATOM     28  O   UNL A   1      37.072  19.768  24.952  1.00  0.00    -0.545 OA
ENDBRANCH  23  26
ENDBRANCH  16  19
ENDBRANCH   4  12
BRANCH   8  29
ATOM     29  C   UNL A   1      30.850  29.115  23.430  1.00  0.00     0.206 C 
BRANCH  29  30
ATOM     30  C   UNL A   1      29.383  29.153  23.274  1.00  0.00     0.123 A 
ATOM     31  C   UNL A   1      28.406  28.184  23.182  1.00  0.00     0.047 A 
ATOM     32  O   UNL A   1      28.817  30.390  23.273  1.00  0.00    -0.467 OA
ATOM     33  C   UNL A   1      27.177  28.870  23.094  1.00  0.00     0.042 A 
ATOM     34  C   UNL A   1      27.479  30.208  23.161  1.00  0.00     0.195 A 
ENDBRANCH  29  30
ENDBRANCH   8  29
ENDBRANCH   2   3
ENDBRANCH   1   2
BRANCH   1  35
ATOM     35  C   UNL A   1      34.834  31.321  27.579  1.00  0.00     0.274 C 
BRANCH  35  36
ATOM     36  O   UNL A   1      34.013  31.914  28.691  1.00  0.00    -0.458 OA
BRANCH  36  37
ATOM     37  C   UNL A   1      34.718  32.643  29.651  1.00  0.00     0.338 C 
ATOM     38  O   UNL A   1      34.393  33.788  29.959  1.00  0.00    -0.246 OA
BRANCH  37  39
ATOM     39  C   UNL A   1      36.008  32.069  30.315  1.00  0.00     0.060 A 
ATOM     40  C   UNL A   1      37.289  32.409  29.879  1.00  0.00     0.016 A 
ATOM     41  C   UNL A   1      35.978  30.879  31.091  1.00  0.00     0.016 A 
ATOM     42  C   UNL A   1      38.462  31.612  30.228  1.00  0.00     0.010 A 
ATOM     43  C   UNL A   1      37.164  30.062  31.421  1.00  0.00     0.010 A 
ATOM     44  C   UNL A   1      38.463  30.389  30.990  1.00  0.00    -0.014 A 
BRANCH  44  45
ATOM     45  C   UNL A   1      39.704  29.363  30.792  1.00  0.00     0.031 A 
ATOM     46  C   UNL A   1      40.588  29.652  31.958  1.00  0.00     0.074 A 
ATOM     47  C   UNL A   1      40.260  28.385  29.950  1.00  0.00     0.049 A 
ATOM     48  N   UNL A   1      41.052  30.844  32.215  1.00  0.00    -0.248 NA
ATOM     49  C   UNL A   1      40.751  28.673  33.035  1.00  0.00     0.031 C 
ATOM     50  C   UNL A   1      39.734  27.861  28.677  1.00  0.00     0.029 A 
ATOM     51  N   UNL A   1      41.462  27.588  30.048  1.00  0.00    -0.354 N 
ATOM     52  C   UNL A   1      41.850  30.674  33.319  1.00  0.00     0.074 A 
ATOM     53  C   UNL A   1      41.431  29.417  33.909  1.00  0.00     0.031 C 
ATOM     54  C   UNL A   1      40.488  26.826  28.197  1.00  0.00     0.029 A 
ATOM     55  C   UNL A   1      41.652  26.568  29.047  1.00  0.00     0.049 A 
ATOM     56  H   UNL A   1      42.119  27.734  30.766  1.00  0.00     0.167 HD
ATOM     57  C   UNL A   1      43.101  31.213  33.281  1.00  0.00     0.037 A 
ATOM     58  C   UNL A   1      42.666  25.634  28.840  1.00  0.00     0.037 A 
ATOM     59  C   UNL A   1      44.152  30.236  33.298  1.00  0.00     0.049 A 
ATOM     60  C   UNL A   1      43.874  26.031  29.583  1.00  0.00     0.074 A 
ATOM     61  C   UNL A   1      44.375  29.063  33.988  1.00  0.00     0.029 A 
ATOM     62  N   UNL A   1      44.979  30.195  32.195  1.00  0.00    -0.354 N 
ATOM     63  N   UNL A   1      44.689  26.921  29.105  1.00  0.00    -0.248 NA
ATOM     64  C   UNL A   1      44.365  25.326  30.766  1.00  0.00     0.031 C 
ATOM     65  C   UNL A   1      44.900  28.167  33.024  1.00  0.00     0.029 A 
ATOM     66  C   UNL A   1      45.206  28.879  31.868  1.00  0.00     0.049 A 
ATOM     67  H   UNL A   1      45.347  30.976  31.722  1.00  0.00     0.167 HD
ATOM     68  C   UNL A   1      45.469  27.239  30.166  1.00  0.00     0.074 A 
ATOM     69  C   UNL A   1      45.448  26.068  31.016  1.00  0.00     0.031 C 
ATOM     70  C   UNL A   1      45.481  28.553  30.492  1.00  0.00     0.037 A 
BRANCH  57  71
ATOM     71  C   UNL A   1      43.204  32.519  32.561  1.00  0.00     0.064 A 
ATOM     72  C   UNL A   1      43.402  33.689  33.295  1.00  0.00     0.173 A 
ATOM     73  C   UNL A   1      43.037  32.635  31.167  1.00  0.00     0.173 A 
ATOM     74  F   UNL A   1      43.632  33.627  34.615  1.00  0.00    -0.203 F 
ATOM     75  C   UNL A   1      43.377  34.934  32.668  1.00  0.00     0.198 A 
ATOM     76  C   UNL A   1      42.965  33.879  30.553  1.00  0.00     0.198 A 
ATOM     77  F   UNL A   1      42.977  31.539  30.394  1.00  0.00    -0.203 F 
ATOM     78  F   UNL A   1      43.597  36.046  33.385  1.00  0.00    -0.200 F 
ATOM     79  C   UNL A   1      43.129  35.028  31.305  1.00  0.00     0.200 A 
ATOM     80  F   UNL A   1      42.756  33.958  29.231  1.00  0.00    -0.200 F 
ATOM     81  F   UNL A   1      43.077  36.229  30.712  1.00  0.00    -0.200 F 
ENDBRANCH  57  71
BRANCH  58  82
ATOM     82  C   UNL A   1      43.040  24.397  27.976  1.00  0.00     0.064 A 
ATOM     83  C   UNL A   1      42.722  23.062  28.416  1.00  0.00     0.173 A 
ATOM     84  C   UNL A   1      43.279  24.491  26.600  1.00  0.00     0.173 A 
ATOM     85  F   UNL A   1      42.530  22.780  29.710  1.00  0.00    -0.203 F 
ATOM     86  C   UNL A   1      42.521  21.978  27.547  1.00  0.00     0.198 A 
ATOM     87  C   UNL A   1      43.131  23.379  25.731  1.00  0.00     0.198 A 
ATOM     88  F   UNL A   1      43.566  25.678  26.053  1.00  0.00    -0.203 F 
ATOM     89  F   UNL A   1      42.077  20.803  28.024  1.00  0.00    -0.200 F 
ATOM     90  C   UNL A   1      42.713  22.140  26.198  1.00  0.00     0.200 A 
ATOM     91  F   UNL A   1      43.327  23.530  24.413  1.00  0.00    -0.200 F 
ATOM     92  F   UNL A   1      42.472  21.125  25.352  1.00  0.00    -0.200 F 
ENDBRANCH  58  82
BRANCH  70  93
ATOM     93  C   UNL A   1      45.494  29.534  29.317  1.00  0.00     0.064 A 
ATOM     94  C   UNL A   1      44.399  29.872  28.478  1.00  0.00     0.173 A 
ATOM     95  C   UNL A   1      46.725  30.093  28.954  1.00  0.00     0.173 A 
ATOM     96  F   UNL A   1      43.135  29.556  28.790  1.00  0.00    -0.203 F 
ATOM     97  C   UNL A   1      44.564  30.589  27.291  1.00  0.00     0.198 A 
ATOM     98  C   UNL A   1      46.874  30.873  27.805  1.00  0.00     0.198 A 
ATOM     99  F   UNL A   1      47.800  29.899  29.734  1.00  0.00    -0.203 F 
ATOM    100  F   UNL A   1      43.516  30.796  26.478  1.00  0.00    -0.200 F 
ATOM    101  C   UNL A   1      45.803  31.089  26.954  1.00  0.00     0.200 A 
ATOM    102  F   UNL A   1      48.066  31.416  27.524  1.00  0.00    -0.200 F 
ATOM    103  F   UNL A   1      45.964  31.799  25.829  1.00  0.00    -0.200 F 
ENDBRANCH  70  93
ENDBRANCH  44  45
ENDBRANCH  37  39
ENDBRANCH  36  37
ENDBRANCH  35  36
ENDBRANCH   1  35
TORSDOF 15
ENDMDL
