MODEL 1
REMARK VINA RESULT:     -10.6      0.000      0.000
REMARK SMILES CCC(CC)(NC(=O)N(C)CCS(C)(=O)=O)C(=O)OCCOC(=O)c1ccc(-c2c3nc(c(-c4c(F)c(F)c(F)c(F)c4F)c4ccc([nH]4)c(-c4c(F)c(F)c(F)c(F)c4F)c4nc(c(-c5c(F)c(F)c(F)c(F)c5F)c5ccc2[nH]5)C=C4)C=C3)cc1
REMARK SMILES IDX 19 1 17 2 18 3 3 4 2 5 1 6 4 7 5 8 6 9 7 10 8 12 9 13 10 14
REMARK SMILES IDX 11 15 12 16 13 17 14 18 15 19 16 20 20 21 21 22 22 23 23 24
REMARK SMILES IDX 24 25 25 26 26 27 87 28 27 29 86 30 28 31 29 32 30 33 80 34
REMARK SMILES IDX 31 35 85 36 79 37 81 38 32 39 84 40 78 41 77 42 33 44 65 45
REMARK SMILES IDX 45 46 64 47 46 48 49 49 63 50 82 51 47 52 48 53 62 55 83 56
REMARK SMILES IDX 50 57 34 58 35 59 43 60 36 61 37 62 41 63 44 64 38 65 39 66
REMARK SMILES IDX 42 67 40 68 66 69 67 70 75 71 68 72 69 73 73 74 76 75 70 76
REMARK SMILES IDX 71 77 74 78 72 79 51 80 52 81 60 82 53 83 54 84 58 85 61 86
REMARK SMILES IDX 55 87 56 88 59 89 57 90
REMARK H PARENT 6 11 81 43 49 54
REMARK Flexibility Score: inf
ROOT
ATOM      1  O   UNL A   1      32.224  27.595  26.088  1.00  0.00    -0.460 OA
ENDROOT
BRANCH   1   2
ATOM      2  C   UNL A   1      31.401  26.520  25.945  1.00  0.00     0.332 C 
ATOM      3  O   UNL A   1      30.624  26.155  26.820  1.00  0.00    -0.249 OA
BRANCH   2   4
ATOM      4  C   UNL A   1      31.652  25.733  24.602  1.00  0.00     0.139 C 
BRANCH   4   5
ATOM      5  C   UNL A   1      31.388  24.214  24.757  1.00  0.00     0.037 C 
ATOM      6  C   UNL A   1      30.993  23.471  23.479  1.00  0.00     0.007 C 
ENDBRANCH   4   5
BRANCH   4   7
ATOM      7  C   UNL A   1      33.146  26.038  24.273  1.00  0.00     0.037 C 
ATOM      8  C   UNL A   1      33.441  26.349  22.809  1.00  0.00     0.007 C 
ENDBRANCH   4   7
BRANCH   4   9
ATOM      9  N   UNL A   1      30.881  26.299  23.469  1.00  0.00    -0.322 N 
ATOM     10  C   UNL A   1      29.649  26.888  23.524  1.00  0.00     0.318 C 
ATOM     11  H   UNL A   1      31.301  26.245  22.581  1.00  0.00     0.166 HD
ATOM     12  O   UNL A   1      28.672  26.326  23.998  1.00  0.00    -0.249 OA
BRANCH  10  13
ATOM     13  N   UNL A   1      29.623  28.150  22.930  1.00  0.00    -0.327 N 
ATOM     14  C   UNL A   1      30.850  28.896  22.640  1.00  0.00     0.148 C 
BRANCH  13  15
ATOM     15  C   UNL A   1      28.356  28.873  22.832  1.00  0.00     0.137 C 
BRANCH  15  16
ATOM     16  C   UNL A   1      28.448  30.245  22.176  1.00  0.00     0.158 C 
BRANCH  16  17
ATOM     17  S   UNL A   1      28.269  31.613  23.308  1.00  0.00     0.149 S 
ATOM     18  C   UNL A   1      28.405  33.048  22.273  1.00  0.00     0.158 C 
ATOM     19  O   UNL A   1      26.903  31.570  23.799  1.00  0.00    -0.229 OA
ATOM     20  O   UNL A   1      29.370  31.629  24.251  1.00  0.00    -0.229 OA
ENDBRANCH  16  17
ENDBRANCH  15  16
ENDBRANCH  13  15
ENDBRANCH  10  13
ENDBRANCH   4   9
ENDBRANCH   2   4
ENDBRANCH   1   2
BRANCH   1  21
ATOM     21  C   UNL A   1      31.739  28.733  26.835  1.00  0.00     0.274 C 
BRANCH  21  22
ATOM     22  C   UNL A   1      31.871  29.985  25.969  1.00  0.00     0.275 C 
BRANCH  22  23
ATOM     23  O   UNL A   1      33.220  30.453  26.099  1.00  0.00    -0.458 OA
BRANCH  23  24
ATOM     24  C   UNL A   1      33.461  31.403  27.028  1.00  0.00     0.338 C 
ATOM     25  O   UNL A   1      32.804  32.413  27.247  1.00  0.00    -0.246 OA
BRANCH  24  26
ATOM     26  C   UNL A   1      34.698  31.014  27.733  1.00  0.00     0.060 A 
ATOM     27  C   UNL A   1      35.641  31.999  28.027  1.00  0.00     0.016 A 
ATOM     28  C   UNL A   1      34.936  29.697  28.114  1.00  0.00     0.016 A 
ATOM     29  C   UNL A   1      36.818  31.688  28.699  1.00  0.00     0.010 A 
ATOM     30  C   UNL A   1      36.088  29.394  28.855  1.00  0.00     0.010 A 
ATOM     31  C   UNL A   1      37.037  30.388  29.161  1.00  0.00    -0.014 A 
BRANCH  31  32
ATOM     32  C   UNL A   1      38.263  30.085  29.948  1.00  0.00     0.031 A 
ATOM     33  C   UNL A   1      39.322  29.187  29.375  1.00  0.00     0.074 A 
ATOM     34  C   UNL A   1      38.445  30.638  31.164  1.00  0.00     0.049 A 
ATOM     35  N   UNL A   1      40.372  28.666  29.957  1.00  0.00    -0.248 NA
ATOM     36  C   UNL A   1      39.174  28.824  27.958  1.00  0.00     0.031 C 
ATOM     37  C   UNL A   1      37.532  31.581  31.814  1.00  0.00     0.029 A 
ATOM     38  N   UNL A   1      39.466  30.490  32.073  1.00  0.00    -0.354 N 
ATOM     39  C   UNL A   1      40.989  27.885  28.990  1.00  0.00     0.074 A 
ATOM     40  C   UNL A   1      40.190  27.991  27.787  1.00  0.00     0.031 C 
ATOM     41  C   UNL A   1      38.039  31.938  33.004  1.00  0.00     0.029 A 
ATOM     42  C   UNL A   1      39.271  31.193  33.239  1.00  0.00     0.049 A 
ATOM     43  H   UNL A   1      40.262  29.934  31.906  1.00  0.00     0.167 HD
ATOM     44  C   UNL A   1      42.121  27.147  29.098  1.00  0.00     0.037 A 
ATOM     45  C   UNL A   1      39.978  31.201  34.386  1.00  0.00     0.037 A 
ATOM     46  C   UNL A   1      42.928  27.066  30.289  1.00  0.00     0.049 A 
ATOM     47  C   UNL A   1      41.203  30.336  34.497  1.00  0.00     0.074 A 
ATOM     48  C   UNL A   1      44.070  26.316  30.512  1.00  0.00     0.029 A 
ATOM     49  N   UNL A   1      42.684  27.778  31.455  1.00  0.00    -0.354 N 
ATOM     50  N   UNL A   1      41.737  29.538  33.604  1.00  0.00    -0.248 NA
ATOM     51  C   UNL A   1      41.918  30.362  35.780  1.00  0.00     0.031 C 
ATOM     52  C   UNL A   1      44.500  26.552  31.823  1.00  0.00     0.029 A 
ATOM     53  C   UNL A   1      43.653  27.482  32.402  1.00  0.00     0.049 A 
ATOM     54  H   UNL A   1      41.933  28.400  31.591  1.00  0.00     0.167 HD
ATOM     55  C   UNL A   1      42.852  28.978  34.211  1.00  0.00     0.074 A 
ATOM     56  C   UNL A   1      42.936  29.550  35.538  1.00  0.00     0.031 C 
ATOM     57  C   UNL A   1      43.723  28.063  33.717  1.00  0.00     0.037 A 
BRANCH  44  58
ATOM     58  C   UNL A   1      42.533  26.338  27.903  1.00  0.00     0.064 A 
ATOM     59  C   UNL A   1      43.448  26.827  26.958  1.00  0.00     0.173 A 
ATOM     60  C   UNL A   1      42.018  25.047  27.712  1.00  0.00     0.173 A 
ATOM     61  F   UNL A   1      43.955  28.062  27.086  1.00  0.00    -0.203 F 
ATOM     62  C   UNL A   1      43.812  26.062  25.853  1.00  0.00     0.198 A 
ATOM     63  C   UNL A   1      42.407  24.274  26.621  1.00  0.00     0.198 A 
ATOM     64  F   UNL A   1      41.143  24.530  28.587  1.00  0.00    -0.203 F 
ATOM     65  F   UNL A   1      44.651  26.568  24.937  1.00  0.00    -0.200 F 
ATOM     66  C   UNL A   1      43.297  24.784  25.689  1.00  0.00     0.200 A 
ATOM     67  F   UNL A   1      41.917  23.035  26.469  1.00  0.00    -0.200 F 
ATOM     68  F   UNL A   1      43.653  24.048  24.626  1.00  0.00    -0.200 F 
ENDBRANCH  44  58
BRANCH  45  69
ATOM     69  C   UNL A   1      39.513  32.016  35.542  1.00  0.00     0.064 A 
ATOM     70  C   UNL A   1      38.608  31.500  36.479  1.00  0.00     0.173 A 
ATOM     71  C   UNL A   1      39.949  33.338  35.719  1.00  0.00     0.173 A 
ATOM     72  F   UNL A   1      38.137  30.251  36.339  1.00  0.00    -0.203 F 
ATOM     73  C   UNL A   1      38.141  32.280  37.536  1.00  0.00     0.198 A 
ATOM     74  C   UNL A   1      39.510  34.105  36.795  1.00  0.00     0.198 A 
ATOM     75  F   UNL A   1      40.811  33.884  34.849  1.00  0.00    -0.203 F 
ATOM     76  F   UNL A   1      37.234  31.780  38.386  1.00  0.00    -0.200 F 
ATOM     77  C   UNL A   1      38.599  33.579  37.697  1.00  0.00     0.200 A 
ATOM     78  F   UNL A   1      39.965  35.356  36.954  1.00  0.00    -0.200 F 
ATOM     79  F   UNL A   1      38.153  34.327  38.716  1.00  0.00    -0.200 F 
ENDBRANCH  45  69
BRANCH  57  80
ATOM     80  C   UNL A   1      44.857  27.654  34.612  1.00  0.00     0.064 A 
ATOM     81  C   UNL A   1      46.079  28.343  34.612  1.00  0.00     0.173 A 
ATOM     82  C   UNL A   1      44.715  26.566  35.485  1.00  0.00     0.173 A 
ATOM     83  F   UNL A   1      46.270  29.379  33.782  1.00  0.00    -0.203 F 
ATOM     84  C   UNL A   1      47.129  27.935  35.431  1.00  0.00     0.198 A 
ATOM     85  C   UNL A   1      45.757  26.179  36.323  1.00  0.00     0.198 A 
ATOM     86  F   UNL A   1      43.564  25.878  35.527  1.00  0.00    -0.203 F 
ATOM     87  F   UNL A   1      48.306  28.573  35.373  1.00  0.00    -0.200 F 
ATOM     88  C   UNL A   1      46.966  26.858  36.288  1.00  0.00     0.200 A 
ATOM     89  F   UNL A   1      45.595  25.145  37.159  1.00  0.00    -0.200 F 
ATOM     90  F   UNL A   1      47.978  26.466  37.073  1.00  0.00    -0.200 F 
ENDBRANCH  57  80
ENDBRANCH  31  32
ENDBRANCH  24  26
ENDBRANCH  23  24
ENDBRANCH  22  23
ENDBRANCH  21  22
ENDBRANCH   1  21
TORSDOF 18
ENDMDL
MODEL 2
REMARK VINA RESULT:     -10.3      0.385      2.013
REMARK SMILES CCC(CC)(NC(=O)N(C)CCS(C)(=O)=O)C(=O)OCCOC(=O)c1ccc(-c2c3nc(c(-c4c(F)c(F)c(F)c(F)c4F)c4ccc([nH]4)c(-c4c(F)c(F)c(F)c(F)c4F)c4nc(c(-c5c(F)c(F)c(F)c(F)c5F)c5ccc2[nH]5)C=C4)C=C3)cc1
REMARK SMILES IDX 19 1 17 2 18 3 3 4 2 5 1 6 4 7 5 8 6 9 7 10 8 12 9 13 10 14
REMARK SMILES IDX 11 15 12 16 13 17 14 18 15 19 16 20 20 21 21 22 22 23 23 24
REMARK SMILES IDX 24 25 25 26 26 27 87 28 27 29 86 30 28 31 29 32 30 33 80 34
REMARK SMILES IDX 31 35 85 36 79 37 81 38 32 39 84 40 78 41 77 42 33 44 65 45
REMARK SMILES IDX 45 46 64 47 46 48 49 49 63 50 82 51 47 52 48 53 62 55 83 56
REMARK SMILES IDX 50 57 34 58 35 59 43 60 36 61 37 62 41 63 44 64 38 65 39 66
REMARK SMILES IDX 42 67 40 68 66 69 67 70 75 71 68 72 69 73 73 74 76 75 70 76
REMARK SMILES IDX 71 77 74 78 72 79 51 80 52 81 60 82 53 83 54 84 58 85 61 86
REMARK SMILES IDX 55 87 56 88 59 89 57 90
REMARK H PARENT 6 11 81 43 49 54
REMARK Flexibility Score: inf
ROOT
ATOM      1  O   UNL A   1      32.092  27.386  26.074  1.00  0.00    -0.460 OA
ENDROOT
BRANCH   1   2
ATOM      2  C   UNL A   1      31.197  26.375  25.902  1.00  0.00     0.332 C 
ATOM      3  O   UNL A   1      30.378  26.059  26.758  1.00  0.00    -0.249 OA
BRANCH   2   4
ATOM      4  C   UNL A   1      31.419  25.584  24.557  1.00  0.00     0.139 C 
BRANCH   4   5
ATOM      5  C   UNL A   1      31.056  24.083  24.694  1.00  0.00     0.037 C 
ATOM      6  C   UNL A   1      32.141  23.185  25.289  1.00  0.00     0.007 C 
ENDBRANCH   4   5
BRANCH   4   7
ATOM      7  C   UNL A   1      32.934  25.795  24.254  1.00  0.00     0.037 C 
ATOM      8  C   UNL A   1      33.401  25.300  22.888  1.00  0.00     0.007 C 
ENDBRANCH   4   7
BRANCH   4   9
ATOM      9  N   UNL A   1      30.704  26.208  23.417  1.00  0.00    -0.322 N 
ATOM     10  C   UNL A   1      29.504  26.859  23.455  1.00  0.00     0.318 C 
ATOM     11  H   UNL A   1      31.140  26.145  22.537  1.00  0.00     0.166 HD
ATOM     12  O   UNL A   1      28.488  26.342  23.899  1.00  0.00    -0.249 OA
BRANCH  10  13
ATOM     13  N   UNL A   1      29.556  28.130  22.882  1.00  0.00    -0.327 N 
ATOM     14  C   UNL A   1      30.828  28.808  22.616  1.00  0.00     0.148 C 
BRANCH  13  15
ATOM     15  C   UNL A   1      28.335  28.927  22.785  1.00  0.00     0.137 C 
BRANCH  15  16
ATOM     16  C   UNL A   1      28.521  30.318  22.192  1.00  0.00     0.158 C 
BRANCH  16  17
ATOM     17  S   UNL A   1      28.367  31.646  23.374  1.00  0.00     0.149 S 
ATOM     18  C   UNL A   1      28.659  33.111  22.417  1.00  0.00     0.158 C 
ATOM     19  O   UNL A   1      26.975  31.677  23.786  1.00  0.00    -0.229 OA
ATOM     20  O   UNL A   1      29.409  31.546  24.377  1.00  0.00    -0.229 OA
ENDBRANCH  16  17
ENDBRANCH  15  16
ENDBRANCH  13  15
ENDBRANCH  10  13
ENDBRANCH   4   9
ENDBRANCH   2   4
ENDBRANCH   1   2
BRANCH   1  21
ATOM     21  C   UNL A   1      31.672  28.553  26.815  1.00  0.00     0.274 C 
BRANCH  21  22
ATOM     22  C   UNL A   1      31.740  29.773  25.897  1.00  0.00     0.275 C 
BRANCH  22  23
ATOM     23  O   UNL A   1      33.058  30.323  26.014  1.00  0.00    -0.458 OA
BRANCH  23  24
ATOM     24  C   UNL A   1      33.250  31.281  26.947  1.00  0.00     0.338 C 
ATOM     25  O   UNL A   1      32.542  32.255  27.170  1.00  0.00    -0.246 OA
BRANCH  24  26
ATOM     26  C   UNL A   1      34.507  30.955  27.649  1.00  0.00     0.060 A 
ATOM     27  C   UNL A   1      35.325  31.999  28.080  1.00  0.00     0.016 A 
ATOM     28  C   UNL A   1      34.884  29.638  27.893  1.00  0.00     0.016 A 
ATOM     29  C   UNL A   1      36.514  31.746  28.755  1.00  0.00     0.010 A 
ATOM     30  C   UNL A   1      36.046  29.382  28.638  1.00  0.00     0.010 A 
ATOM     31  C   UNL A   1      36.869  30.435  29.082  1.00  0.00    -0.014 A 
BRANCH  31  32
ATOM     32  C   UNL A   1      38.103  30.184  29.875  1.00  0.00     0.031 A 
ATOM     33  C   UNL A   1      39.207  29.343  29.301  1.00  0.00     0.074 A 
ATOM     34  C   UNL A   1      38.250  30.733  31.098  1.00  0.00     0.049 A 
ATOM     35  N   UNL A   1      40.277  28.867  29.885  1.00  0.00    -0.248 NA
ATOM     36  C   UNL A   1      39.086  28.988  27.880  1.00  0.00     0.031 C 
ATOM     37  C   UNL A   1      37.289  31.625  31.750  1.00  0.00     0.029 A 
ATOM     38  N   UNL A   1      39.271  30.625  32.013  1.00  0.00    -0.354 N 
ATOM     39  C   UNL A   1      40.937  28.126  28.915  1.00  0.00     0.074 A 
ATOM     40  C   UNL A   1      40.141  28.205  27.707  1.00  0.00     0.031 C 
ATOM     41  C   UNL A   1      37.770  31.994  32.947  1.00  0.00     0.029 A 
ATOM     42  C   UNL A   1      39.035  31.307  33.183  1.00  0.00     0.049 A 
ATOM     43  H   UNL A   1      40.094  30.110  31.845  1.00  0.00     0.167 HD
ATOM     44  C   UNL A   1      42.102  27.442  29.024  1.00  0.00     0.037 A 
ATOM     45  C   UNL A   1      39.733  31.338  34.335  1.00  0.00     0.037 A 
ATOM     46  C   UNL A   1      42.904  27.388  30.220  1.00  0.00     0.049 A 
ATOM     47  C   UNL A   1      40.998  30.531  34.446  1.00  0.00     0.074 A 
ATOM     48  C   UNL A   1      44.080  26.692  30.444  1.00  0.00     0.029 A 
ATOM     49  N   UNL A   1      42.619  28.076  31.391  1.00  0.00    -0.354 N 
ATOM     50  N   UNL A   1      41.575  29.768  33.550  1.00  0.00    -0.248 NA
ATOM     51  C   UNL A   1      41.702  30.579  35.735  1.00  0.00     0.031 C 
ATOM     52  C   UNL A   1      44.489  26.935  31.760  1.00  0.00     0.029 A 
ATOM     53  C   UNL A   1      43.595  27.817  32.342  1.00  0.00     0.049 A 
ATOM     54  H   UNL A   1      41.839  28.660  31.527  1.00  0.00     0.167 HD
ATOM     55  C   UNL A   1      42.711  29.256  34.159  1.00  0.00     0.074 A 
ATOM     56  C   UNL A   1      42.760  29.818  35.492  1.00  0.00     0.031 C 
ATOM     57  C   UNL A   1      43.629  28.389  33.663  1.00  0.00     0.037 A 
BRANCH  44  58
ATOM     58  C   UNL A   1      42.560  26.665  27.824  1.00  0.00     0.064 A 
ATOM     59  C   UNL A   1      42.115  25.359  27.573  1.00  0.00     0.173 A 
ATOM     60  C   UNL A   1      43.442  27.247  26.901  1.00  0.00     0.173 A 
ATOM     61  F   UNL A   1      41.284  24.752  28.435  1.00  0.00    -0.203 F 
ATOM     62  C   UNL A   1      42.557  24.655  26.457  1.00  0.00     0.198 A 
ATOM     63  C   UNL A   1      43.860  26.549  25.770  1.00  0.00     0.198 A 
ATOM     64  F   UNL A   1      43.896  28.495  27.091  1.00  0.00    -0.203 F 
ATOM     65  F   UNL A   1      42.156  23.390  26.262  1.00  0.00    -0.200 F 
ATOM     66  C   UNL A   1      43.423  25.252  25.553  1.00  0.00     0.200 A 
ATOM     67  F   UNL A   1      44.688  27.133  24.892  1.00  0.00    -0.200 F 
ATOM     68  F   UNL A   1      43.844  24.573  24.476  1.00  0.00    -0.200 F 
ENDBRANCH  44  58
BRANCH  45  69
ATOM     69  C   UNL A   1      39.223  32.117  35.496  1.00  0.00     0.064 A 
ATOM     70  C   UNL A   1      39.524  33.478  35.648  1.00  0.00     0.173 A 
ATOM     71  C   UNL A   1      38.442  31.509  36.491  1.00  0.00     0.173 A 
ATOM     72  F   UNL A   1      40.291  34.100  34.740  1.00  0.00    -0.203 F 
ATOM     73  C   UNL A   1      39.081  34.195  36.758  1.00  0.00     0.198 A 
ATOM     74  C   UNL A   1      37.971  32.234  37.582  1.00  0.00     0.198 A 
ATOM     75  F   UNL A   1      38.129  30.209  36.399  1.00  0.00    -0.203 F 
ATOM     76  F   UNL A   1      39.429  35.480  36.906  1.00  0.00    -0.200 F 
ATOM     77  C   UNL A   1      38.299  33.574  37.720  1.00  0.00     0.200 A 
ATOM     78  F   UNL A   1      37.204  31.634  38.503  1.00  0.00    -0.200 F 
ATOM     79  F   UNL A   1      37.869  34.265  38.786  1.00  0.00    -0.200 F 
ENDBRANCH  45  69
BRANCH  57  80
ATOM     80  C   UNL A   1      44.775  28.025  34.561  1.00  0.00     0.064 A 
ATOM     81  C   UNL A   1      44.725  26.901  35.399  1.00  0.00     0.173 A 
ATOM     82  C   UNL A   1      45.940  28.806  34.576  1.00  0.00     0.173 A 
ATOM     83  F   UNL A   1      43.626  26.133  35.433  1.00  0.00    -0.203 F 
ATOM     84  C   UNL A   1      45.788  26.591  36.243  1.00  0.00     0.198 A 
ATOM     85  C   UNL A   1      47.013  28.476  35.401  1.00  0.00     0.198 A 
ATOM     86  F   UNL A   1      46.040  29.888  33.789  1.00  0.00    -0.203 F 
ATOM     87  F   UNL A   1      45.696  25.545  37.076  1.00  0.00    -0.200 F 
ATOM     88  C   UNL A   1      46.931  27.375  36.241  1.00  0.00     0.200 A 
ATOM     89  F   UNL A   1      48.121  29.229  35.389  1.00  0.00    -0.200 F 
ATOM     90  F   UNL A   1      47.952  27.077  37.056  1.00  0.00    -0.200 F 
ENDBRANCH  57  80
ENDBRANCH  31  32
ENDBRANCH  24  26
ENDBRANCH  23  24
ENDBRANCH  22  23
ENDBRANCH  21  22
ENDBRANCH   1  21
TORSDOF 18
ENDMDL
MODEL 3
REMARK VINA RESULT:     -10.1      2.170      4.024
REMARK SMILES CCC(CC)(NC(=O)N(C)CCS(C)(=O)=O)C(=O)OCCOC(=O)c1ccc(-c2c3nc(c(-c4c(F)c(F)c(F)c(F)c4F)c4ccc([nH]4)c(-c4c(F)c(F)c(F)c(F)c4F)c4nc(c(-c5c(F)c(F)c(F)c(F)c5F)c5ccc2[nH]5)C=C4)C=C3)cc1
REMARK SMILES IDX 19 1 17 2 18 3 3 4 2 5 1 6 4 7 5 8 6 9 7 10 8 12 9 13 10 14
REMARK SMILES IDX 11 15 12 16 13 17 14 18 15 19 16 20 20 21 21 22 22 23 23 24
REMARK SMILES IDX 24 25 25 26 26 27 87 28 27 29 86 30 28 31 29 32 30 33 80 34
REMARK SMILES IDX 31 35 85 36 79 37 81 38 32 39 84 40 78 41 77 42 33 44 65 45
REMARK SMILES IDX 45 46 64 47 46 48 49 49 63 50 82 51 47 52 48 53 62 55 83 56
REMARK SMILES IDX 50 57 34 58 35 59 43 60 36 61 37 62 41 63 44 64 38 65 39 66
REMARK SMILES IDX 42 67 40 68 66 69 67 70 75 71 68 72 69 73 73 74 76 75 70 76
REMARK SMILES IDX 71 77 74 78 72 79 51 80 52 81 60 82 53 83 54 84 58 85 61 86
REMARK SMILES IDX 55 87 56 88 59 89 57 90
REMARK H PARENT 6 11 81 43 49 54
REMARK Flexibility Score: inf
ROOT
ATOM      1  O   UNL A   1      32.547  27.321  26.247  1.00  0.00    -0.460 OA
ENDROOT
BRANCH   1   2
ATOM      2  C   UNL A   1      32.068  26.110  25.850  1.00  0.00     0.332 C 
ATOM      3  O   UNL A   1      31.334  25.423  26.551  1.00  0.00    -0.249 OA
BRANCH   2   4
ATOM      4  C   UNL A   1      32.662  25.643  24.467  1.00  0.00     0.139 C 
BRANCH   4   5
ATOM      5  C   UNL A   1      33.820  26.556  23.989  1.00  0.00     0.037 C 
ATOM      6  C   UNL A   1      33.490  27.504  22.834  1.00  0.00     0.007 C 
ENDBRANCH   4   5
BRANCH   4   7
ATOM      7  C   UNL A   1      31.437  25.697  23.504  1.00  0.00     0.037 C 
ATOM      8  C   UNL A   1      30.611  24.417  23.426  1.00  0.00     0.007 C 
ENDBRANCH   4   7
BRANCH   4   9
ATOM      9  N   UNL A   1      33.077  24.218  24.489  1.00  0.00    -0.322 N 
ATOM     10  C   UNL A   1      34.052  23.634  23.732  1.00  0.00     0.318 C 
ATOM     11  H   UNL A   1      32.598  23.631  25.116  1.00  0.00     0.166 HD
ATOM     12  O   UNL A   1      34.057  23.688  22.509  1.00  0.00    -0.249 OA
BRANCH  10  13
ATOM     13  N   UNL A   1      34.982  22.927  24.494  1.00  0.00    -0.327 N 
ATOM     14  C   UNL A   1      36.411  22.933  24.173  1.00  0.00     0.148 C 
BRANCH  13  15
ATOM     15  C   UNL A   1      34.516  21.944  25.470  1.00  0.00     0.137 C 
BRANCH  15  16
ATOM     16  C   UNL A   1      34.279  20.546  24.912  1.00  0.00     0.158 C 
BRANCH  16  17
ATOM     17  S   UNL A   1      32.564  20.055  24.867  1.00  0.00     0.149 S 
ATOM     18  C   UNL A   1      32.276  19.656  23.162  1.00  0.00     0.158 C 
ATOM     19  O   UNL A   1      32.466  18.815  25.616  1.00  0.00    -0.229 OA
ATOM     20  O   UNL A   1      31.713  21.175  25.219  1.00  0.00    -0.229 OA
ENDBRANCH  16  17
ENDBRANCH  15  16
ENDBRANCH  13  15
ENDBRANCH  10  13
ENDBRANCH   4   9
ENDBRANCH   2   4
ENDBRANCH   1   2
BRANCH   1  21
ATOM     21  C   UNL A   1      31.602  28.390  26.475  1.00  0.00     0.274 C 
BRANCH  21  22
ATOM     22  C   UNL A   1      31.900  29.530  25.503  1.00  0.00     0.275 C 
BRANCH  22  23
ATOM     23  O   UNL A   1      33.176  30.076  25.864  1.00  0.00    -0.458 OA
BRANCH  23  24
ATOM     24  C   UNL A   1      33.187  31.083  26.765  1.00  0.00     0.338 C 
ATOM     25  O   UNL A   1      32.375  31.993  26.874  1.00  0.00    -0.246 OA
BRANCH  24  26
ATOM     26  C   UNL A   1      34.392  30.902  27.599  1.00  0.00     0.060 A 
ATOM     27  C   UNL A   1      34.711  29.621  28.049  1.00  0.00     0.016 A 
ATOM     28  C   UNL A   1      35.212  31.975  27.935  1.00  0.00     0.016 A 
ATOM     29  C   UNL A   1      35.840  29.395  28.827  1.00  0.00     0.010 A 
ATOM     30  C   UNL A   1      36.391  31.738  28.659  1.00  0.00     0.010 A 
ATOM     31  C   UNL A   1      36.720  30.443  29.106  1.00  0.00    -0.014 A 
BRANCH  31  32
ATOM     32  C   UNL A   1      37.966  30.173  29.873  1.00  0.00     0.031 A 
ATOM     33  C   UNL A   1      39.038  29.303  29.283  1.00  0.00     0.074 A 
ATOM     34  C   UNL A   1      38.154  30.732  31.086  1.00  0.00     0.049 A 
ATOM     35  N   UNL A   1      40.111  28.810  29.848  1.00  0.00    -0.248 NA
ATOM     36  C   UNL A   1      38.877  28.935  27.869  1.00  0.00     0.031 C 
ATOM     37  C   UNL A   1      37.227  31.651  31.750  1.00  0.00     0.029 A 
ATOM     38  N   UNL A   1      39.193  30.611  31.978  1.00  0.00    -0.354 N 
ATOM     39  C   UNL A   1      40.732  28.044  28.871  1.00  0.00     0.074 A 
ATOM     40  C   UNL A   1      39.910  28.128  27.681  1.00  0.00     0.031 C 
ATOM     41  C   UNL A   1      37.744  32.022  32.932  1.00  0.00     0.029 A 
ATOM     42  C   UNL A   1      38.999  31.310  33.146  1.00  0.00     0.049 A 
ATOM     43  H   UNL A   1      40.000  30.076  31.798  1.00  0.00     0.167 HD
ATOM     44  C   UNL A   1      41.884  27.335  28.961  1.00  0.00     0.037 A 
ATOM     45  C   UNL A   1      39.724  31.338  34.282  1.00  0.00     0.037 A 
ATOM     46  C   UNL A   1      42.713  27.277  30.138  1.00  0.00     0.049 A 
ATOM     47  C   UNL A   1      40.973  30.504  34.373  1.00  0.00     0.074 A 
ATOM     48  C   UNL A   1      43.878  26.557  30.343  1.00  0.00     0.029 A 
ATOM     49  N   UNL A   1      42.470  27.983  31.308  1.00  0.00    -0.354 N 
ATOM     50  N   UNL A   1      41.513  29.720  33.471  1.00  0.00    -0.248 NA
ATOM     51  C   UNL A   1      41.708  30.551  35.644  1.00  0.00     0.031 C 
ATOM     52  C   UNL A   1      44.323  26.805  31.646  1.00  0.00     0.029 A 
ATOM     53  C   UNL A   1      43.462  27.713  32.239  1.00  0.00     0.049 A 
ATOM     54  H   UNL A   1      41.705  28.585  31.456  1.00  0.00     0.167 HD
ATOM     55  C   UNL A   1      42.652  29.190  34.060  1.00  0.00     0.074 A 
ATOM     56  C   UNL A   1      42.743  29.764  35.385  1.00  0.00     0.031 C 
ATOM     57  C   UNL A   1      43.538  28.297  33.552  1.00  0.00     0.037 A 
BRANCH  44  58
ATOM     58  C   UNL A   1      42.297  26.537  27.759  1.00  0.00     0.064 A 
ATOM     59  C   UNL A   1      41.765  25.266  27.496  1.00  0.00     0.173 A 
ATOM     60  C   UNL A   1      43.225  27.061  26.847  1.00  0.00     0.173 A 
ATOM     61  F   UNL A   1      40.887  24.713  28.347  1.00  0.00    -0.203 F 
ATOM     62  C   UNL A   1      42.166  24.540  26.378  1.00  0.00     0.198 A 
ATOM     63  C   UNL A   1      43.603  26.344  25.715  1.00  0.00     0.198 A 
ATOM     64  F   UNL A   1      43.762  28.274  27.049  1.00  0.00    -0.203 F 
ATOM     65  F   UNL A   1      41.681  23.306  26.172  1.00  0.00    -0.200 F 
ATOM     66  C   UNL A   1      43.079  25.081  25.485  1.00  0.00     0.200 A 
ATOM     67  F   UNL A   1      44.477  26.874  24.847  1.00  0.00    -0.200 F 
ATOM     68  F   UNL A   1      43.461  24.382  24.407  1.00  0.00    -0.200 F 
ENDBRANCH  44  58
BRANCH  45  69
ATOM     69  C   UNL A   1      39.258  32.140  35.445  1.00  0.00     0.064 A 
ATOM     70  C   UNL A   1      38.443  31.580  36.437  1.00  0.00     0.173 A 
ATOM     71  C   UNL A   1      39.600  33.496  35.574  1.00  0.00     0.173 A 
ATOM     72  F   UNL A   1      38.062  30.296  36.345  1.00  0.00    -0.203 F 
ATOM     73  C   UNL A   1      37.972  32.346  37.503  1.00  0.00     0.198 A 
ATOM     74  C   UNL A   1      39.158  34.251  36.657  1.00  0.00     0.198 A 
ATOM     75  F   UNL A   1      40.373  34.085  34.651  1.00  0.00    -0.203 F 
ATOM     76  F   UNL A   1      37.149  31.798  38.407  1.00  0.00    -0.200 F 
ATOM     77  C   UNL A   1      38.337  33.679  37.615  1.00  0.00     0.200 A 
ATOM     78  F   UNL A   1      39.524  35.537  36.769  1.00  0.00    -0.200 F 
ATOM     79  F   UNL A   1      37.887  34.414  38.642  1.00  0.00    -0.200 F 
ENDBRANCH  45  69
BRANCH  57  80
ATOM     80  C   UNL A   1      44.697  27.918  34.428  1.00  0.00     0.064 A 
ATOM     81  C   UNL A   1      44.628  26.829  35.309  1.00  0.00     0.173 A 
ATOM     82  C   UNL A   1      45.894  28.648  34.377  1.00  0.00     0.173 A 
ATOM     83  F   UNL A   1      43.499  26.111  35.407  1.00  0.00    -0.203 F 
ATOM     84  C   UNL A   1      45.704  26.505  36.131  1.00  0.00     0.198 A 
ATOM     85  C   UNL A   1      46.978  28.304  35.180  1.00  0.00     0.198 A 
ATOM     86  F   UNL A   1      46.013  29.695  33.547  1.00  0.00    -0.203 F 
ATOM     87  F   UNL A   1      45.595  25.496  37.007  1.00  0.00    -0.200 F 
ATOM     88  C   UNL A   1      46.878  27.239  36.064  1.00  0.00     0.200 A 
ATOM     89  F   UNL A   1      48.115  29.006  35.105  1.00  0.00    -0.200 F 
ATOM     90  F   UNL A   1      47.911  26.927  36.857  1.00  0.00    -0.200 F 
ENDBRANCH  57  80
ENDBRANCH  31  32
ENDBRANCH  24  26
ENDBRANCH  23  24
ENDBRANCH  22  23
ENDBRANCH  21  22
ENDBRANCH   1  21
TORSDOF 18
ENDMDL
