MODEL 1
REMARK VINA RESULT:     -12.1      0.000      0.000
REMARK SMILES O=C(OCCOC(=O)C1CCN(S(=O)(=O)C2CC2)CC1)c1ccc(-c2c3nc(c(-c4c(F)c(F)c(F)c(F)c4F)c4ccc([nH]4)c(-c4c(F)c(F)c(F)c(F)c4F)c4nc(c(-c5c(F)c(F)c(F)c(F)c5F)c5ccc2[nH]5)C=C4)C=C3)cc1
REMARK SMILES IDX 4 1 3 2 2 3 1 4 21 5 22 6 83 7 23 8 82 9 24 10 25 11 26 12
REMARK SMILES IDX 76 13 27 14 81 15 75 16 77 17 28 18 80 19 74 20 73 21 29 23
REMARK SMILES IDX 61 24 41 25 60 26 42 27 45 28 59 29 78 30 43 31 44 32 58 34
REMARK SMILES IDX 79 35 46 36 30 37 31 38 39 39 32 40 33 41 37 42 40 43 34 44
REMARK SMILES IDX 35 45 38 46 36 47 62 48 63 49 71 50 64 51 65 52 69 53 72 54
REMARK SMILES IDX 66 55 67 56 70 57 68 58 47 59 48 60 56 61 49 62 50 63 54 64
REMARK SMILES IDX 57 65 51 66 52 67 55 68 53 69 5 70 6 71 7 72 8 73 9 74 10 75
REMARK SMILES IDX 20 76 11 77 19 78 12 79 13 80 14 81 15 82 16 83 17 84 18 85
REMARK H PARENT 77 22 45 33
REMARK Flexibility Score: inf
ROOT
ATOM      1  C   UNL A   1      32.375  30.394  25.966  1.00  0.00     0.275 C 
ENDROOT
BRANCH   1   2
ATOM      2  O   UNL A   1      32.653  30.855  27.289  1.00  0.00    -0.458 OA
BRANCH   2   3
ATOM      3  C   UNL A   1      33.548  31.808  27.603  1.00  0.00     0.338 C 
ATOM      4  O   UNL A   1      33.173  32.972  27.684  1.00  0.00    -0.246 OA
BRANCH   3   5
ATOM      5  C   UNL A   1      34.981  31.471  27.888  1.00  0.00     0.060 A 
ATOM      6  C   UNL A   1      36.043  32.368  28.030  1.00  0.00     0.016 A 
ATOM      7  C   UNL A   1      35.234  30.128  28.173  1.00  0.00     0.016 A 
ATOM      8  C   UNL A   1      37.261  31.968  28.593  1.00  0.00     0.010 A 
ATOM      9  C   UNL A   1      36.420  29.742  28.799  1.00  0.00     0.010 A 
ATOM     10  C   UNL A   1      37.442  30.662  29.048  1.00  0.00    -0.014 A 
BRANCH  10  11
ATOM     11  C   UNL A   1      38.701  30.270  29.732  1.00  0.00     0.031 A 
ATOM     12  C   UNL A   1      38.964  30.768  31.127  1.00  0.00     0.074 A 
ATOM     13  C   UNL A   1      39.601  29.469  29.118  1.00  0.00     0.049 A 
ATOM     14  N   UNL A   1      39.912  30.422  31.960  1.00  0.00    -0.248 NA
ATOM     15  C   UNL A   1      38.073  31.821  31.649  1.00  0.00     0.031 C 
ATOM     16  C   UNL A   1      39.544  29.026  27.720  1.00  0.00     0.029 A 
ATOM     17  N   UNL A   1      40.740  28.865  29.596  1.00  0.00    -0.354 N 
ATOM     18  C   UNL A   1      39.696  31.191  33.095  1.00  0.00     0.074 A 
ATOM     19  C   UNL A   1      38.663  32.144  32.785  1.00  0.00     0.031 C 
ATOM     20  C   UNL A   1      40.569  28.191  27.472  1.00  0.00     0.029 A 
ATOM     21  C   UNL A   1      41.350  28.023  28.692  1.00  0.00     0.049 A 
ATOM     22  H   UNL A   1      41.088  29.020  30.504  1.00  0.00     0.167 HD
ATOM     23  C   UNL A   1      40.220  31.043  34.332  1.00  0.00     0.037 A 
ATOM     24  C   UNL A   1      42.391  27.181  28.854  1.00  0.00     0.037 A 
ATOM     25  C   UNL A   1      41.231  30.081  34.647  1.00  0.00     0.049 A 
ATOM     26  C   UNL A   1      42.985  27.040  30.235  1.00  0.00     0.074 A 
ATOM     27  C   UNL A   1      41.830  29.817  35.862  1.00  0.00     0.029 A 
ATOM     28  N   UNL A   1      41.797  29.223  33.715  1.00  0.00    -0.354 N 
ATOM     29  N   UNL A   1      42.653  27.653  31.347  1.00  0.00    -0.248 NA
ATOM     30  C   UNL A   1      44.070  26.062  30.395  1.00  0.00     0.031 C 
ATOM     31  C   UNL A   1      42.789  28.819  35.657  1.00  0.00     0.029 A 
ATOM     32  C   UNL A   1      42.751  28.432  34.326  1.00  0.00     0.049 A 
ATOM     33  H   UNL A   1      41.554  29.183  32.762  1.00  0.00     0.167 HD
ATOM     34  C   UNL A   1      43.459  27.110  32.340  1.00  0.00     0.074 A 
ATOM     35  C   UNL A   1      44.275  26.097  31.704  1.00  0.00     0.031 C 
ATOM     36  C   UNL A   1      43.527  27.418  33.660  1.00  0.00     0.037 A 
BRANCH  23  37
ATOM     37  C   UNL A   1      39.631  31.900  35.412  1.00  0.00     0.064 A 
ATOM     38  C   UNL A   1      40.104  33.208  35.629  1.00  0.00     0.173 A 
ATOM     39  C   UNL A   1      38.644  31.408  36.273  1.00  0.00     0.173 A 
ATOM     40  F   UNL A   1      41.070  33.715  34.847  1.00  0.00    -0.203 F 
ATOM     41  C   UNL A   1      39.648  33.967  36.701  1.00  0.00     0.198 A 
ATOM     42  C   UNL A   1      38.165  32.185  37.325  1.00  0.00     0.198 A 
ATOM     43  F   UNL A   1      38.163  30.166  36.112  1.00  0.00    -0.203 F 
ATOM     44  F   UNL A   1      40.177  35.176  36.936  1.00  0.00    -0.200 F 
ATOM     45  C   UNL A   1      38.676  33.456  37.547  1.00  0.00     0.200 A 
ATOM     46  F   UNL A   1      37.221  31.696  38.141  1.00  0.00    -0.200 F 
ATOM     47  F   UNL A   1      38.243  34.185  38.585  1.00  0.00    -0.200 F 
ENDBRANCH  23  37
BRANCH  24  48
ATOM     48  C   UNL A   1      42.898  26.346  27.724  1.00  0.00     0.064 A 
ATOM     49  C   UNL A   1      43.924  26.803  26.881  1.00  0.00     0.173 A 
ATOM     50  C   UNL A   1      42.320  25.105  27.417  1.00  0.00     0.173 A 
ATOM     51  F   UNL A   1      44.506  27.988  27.119  1.00  0.00    -0.203 F 
ATOM     52  C   UNL A   1      44.311  26.084  25.750  1.00  0.00     0.198 A 
ATOM     53  C   UNL A   1      42.729  24.371  26.302  1.00  0.00     0.198 A 
ATOM     54  F   UNL A   1      41.345  24.608  28.191  1.00  0.00    -0.203 F 
ATOM     55  F   UNL A   1      45.239  26.586  24.924  1.00  0.00    -0.200 F 
ATOM     56  C   UNL A   1      43.712  24.869  25.460  1.00  0.00     0.200 A 
ATOM     57  F   UNL A   1      42.157  23.189  26.034  1.00  0.00    -0.200 F 
ATOM     58  F   UNL A   1      44.071  24.185  24.365  1.00  0.00    -0.200 F 
ENDBRANCH  24  48
BRANCH  36  59
ATOM     59  C   UNL A   1      44.486  26.632  34.501  1.00  0.00     0.064 A 
ATOM     60  C   UNL A   1      44.121  25.411  35.085  1.00  0.00     0.173 A 
ATOM     61  C   UNL A   1      45.805  27.078  34.671  1.00  0.00     0.173 A 
ATOM     62  F   UNL A   1      42.867  24.950  34.959  1.00  0.00    -0.203 F 
ATOM     63  C   UNL A   1      45.035  24.679  35.836  1.00  0.00     0.198 A 
ATOM     64  C   UNL A   1      46.727  26.324  35.390  1.00  0.00     0.198 A 
ATOM     65  F   UNL A   1      46.207  28.234  34.121  1.00  0.00    -0.203 F 
ATOM     66  F   UNL A   1      44.649  23.542  36.431  1.00  0.00    -0.200 F 
ATOM     67  C   UNL A   1      46.339  25.131  35.980  1.00  0.00     0.200 A 
ATOM     68  F   UNL A   1      47.991  26.751  35.510  1.00  0.00    -0.200 F 
ATOM     69  F   UNL A   1      47.220  24.417  36.691  1.00  0.00    -0.200 F 
ENDBRANCH  36  59
ENDBRANCH  10  11
ENDBRANCH   3   5
ENDBRANCH   2   3
ENDBRANCH   1   2
BRANCH   1  70
ATOM     70  C   UNL A   1      31.439  29.186  25.787  1.00  0.00     0.274 C 
BRANCH  70  71
ATOM     71  O   UNL A   1      32.040  27.877  25.634  1.00  0.00    -0.462 OA
BRANCH  71  72
ATOM     72  C   UNL A   1      31.173  26.828  25.763  1.00  0.00     0.309 C 
ATOM     73  O   UNL A   1      30.853  26.355  26.849  1.00  0.00    -0.252 OA
BRANCH  72  74
ATOM     74  C   UNL A   1      30.805  26.148  24.433  1.00  0.00     0.102 C 
ATOM     75  C   UNL A   1      31.520  26.571  23.161  1.00  0.00     0.032 C 
ATOM     76  C   UNL A   1      29.306  26.258  24.189  1.00  0.00     0.032 C 
ATOM     77  C   UNL A   1      30.849  27.586  22.224  1.00  0.00     0.103 C 
ATOM     78  C   UNL A   1      28.948  27.700  23.849  1.00  0.00     0.103 C 
ATOM     79  N   UNL A   1      29.459  28.047  22.510  1.00  0.00    -0.202 NA
BRANCH  79  80
ATOM     80  S   UNL A   1      29.267  29.709  22.021  1.00  0.00     0.216 S 
ATOM     81  O   UNL A   1      30.500  30.126  21.398  1.00  0.00    -0.212 OA
ATOM     82  O   UNL A   1      28.032  29.761  21.259  1.00  0.00    -0.212 OA
BRANCH  80  83
ATOM     83  C   UNL A   1      28.996  30.868  23.378  1.00  0.00     0.124 C 
ATOM     84  C   UNL A   1      28.521  32.236  23.002  1.00  0.00     0.022 C 
ATOM     85  C   UNL A   1      27.575  31.258  23.658  1.00  0.00     0.022 C 
ENDBRANCH  80  83
ENDBRANCH  79  80
ENDBRANCH  72  74
ENDBRANCH  71  72
ENDBRANCH  70  71
ENDBRANCH   1  70
TORSDOF 13
ENDMDL
MODEL 2
REMARK VINA RESULT:     -12.0      0.523      1.749
REMARK SMILES O=C(OCCOC(=O)C1CCN(S(=O)(=O)C2CC2)CC1)c1ccc(-c2c3nc(c(-c4c(F)c(F)c(F)c(F)c4F)c4ccc([nH]4)c(-c4c(F)c(F)c(F)c(F)c4F)c4nc(c(-c5c(F)c(F)c(F)c(F)c5F)c5ccc2[nH]5)C=C4)C=C3)cc1
REMARK SMILES IDX 4 1 3 2 2 3 1 4 21 5 22 6 83 7 23 8 82 9 24 10 25 11 26 12
REMARK SMILES IDX 76 13 27 14 81 15 75 16 77 17 28 18 80 19 74 20 73 21 29 23
REMARK SMILES IDX 61 24 41 25 60 26 42 27 45 28 59 29 78 30 43 31 44 32 58 34
REMARK SMILES IDX 79 35 46 36 30 37 31 38 39 39 32 40 33 41 37 42 40 43 34 44
REMARK SMILES IDX 35 45 38 46 36 47 62 48 63 49 71 50 64 51 65 52 69 53 72 54
REMARK SMILES IDX 66 55 67 56 70 57 68 58 47 59 48 60 56 61 49 62 50 63 54 64
REMARK SMILES IDX 57 65 51 66 52 67 55 68 53 69 5 70 6 71 7 72 8 73 9 74 10 75
REMARK SMILES IDX 20 76 11 77 19 78 12 79 13 80 14 81 15 82 16 83 17 84 18 85
REMARK H PARENT 77 22 45 33
REMARK Flexibility Score: inf
ROOT
ATOM      1  C   UNL A   1      32.331  30.430  26.497  1.00  0.00     0.275 C 
ENDROOT
BRANCH   1   2
ATOM      2  O   UNL A   1      32.421  31.409  27.534  1.00  0.00    -0.458 OA
BRANCH   2   3
ATOM      3  C   UNL A   1      33.400  32.325  27.649  1.00  0.00     0.338 C 
ATOM      4  O   UNL A   1      33.111  33.515  27.580  1.00  0.00    -0.246 OA
BRANCH   3   5
ATOM      5  C   UNL A   1      34.823  31.922  27.892  1.00  0.00     0.060 A 
ATOM      6  C   UNL A   1      35.933  32.767  27.975  1.00  0.00     0.016 A 
ATOM      7  C   UNL A   1      35.018  30.575  28.202  1.00  0.00     0.016 A 
ATOM      8  C   UNL A   1      37.148  32.319  28.505  1.00  0.00     0.010 A 
ATOM      9  C   UNL A   1      36.205  30.144  28.796  1.00  0.00     0.010 A 
ATOM     10  C   UNL A   1      37.280  31.016  28.986  1.00  0.00    -0.014 A 
BRANCH  10  11
ATOM     11  C   UNL A   1      38.541  30.576  29.636  1.00  0.00     0.031 A 
ATOM     12  C   UNL A   1      38.840  31.028  31.040  1.00  0.00     0.074 A 
ATOM     13  C   UNL A   1      39.412  29.773  28.983  1.00  0.00     0.049 A 
ATOM     14  N   UNL A   1      39.794  30.638  31.845  1.00  0.00    -0.248 NA
ATOM     15  C   UNL A   1      37.984  32.085  31.607  1.00  0.00     0.031 C 
ATOM     16  C   UNL A   1      39.321  29.372  27.575  1.00  0.00     0.029 A 
ATOM     17  N   UNL A   1      40.544  29.131  29.424  1.00  0.00    -0.354 N 
ATOM     18  C   UNL A   1      39.616  31.378  33.005  1.00  0.00     0.074 A 
ATOM     19  C   UNL A   1      38.600  32.363  32.741  1.00  0.00     0.031 C 
ATOM     20  C   UNL A   1      40.321  28.521  27.285  1.00  0.00     0.029 A 
ATOM     21  C   UNL A   1      41.119  28.301  28.486  1.00  0.00     0.049 A 
ATOM     22  H   UNL A   1      40.912  29.251  30.329  1.00  0.00     0.167 HD
ATOM     23  C   UNL A   1      40.158  31.183  34.227  1.00  0.00     0.037 A 
ATOM     24  C   UNL A   1      42.143  27.431  28.604  1.00  0.00     0.037 A 
ATOM     25  C   UNL A   1      41.153  30.191  34.497  1.00  0.00     0.049 A 
ATOM     26  C   UNL A   1      42.758  27.238  29.970  1.00  0.00     0.074 A 
ATOM     27  C   UNL A   1      41.766  29.878  35.693  1.00  0.00     0.029 A 
ATOM     28  N   UNL A   1      41.682  29.346  33.531  1.00  0.00    -0.354 N 
ATOM     29  N   UNL A   1      42.460  27.826  31.105  1.00  0.00    -0.248 NA
ATOM     30  C   UNL A   1      43.823  26.231  30.082  1.00  0.00     0.031 C 
ATOM     31  C   UNL A   1      42.698  28.865  35.442  1.00  0.00     0.029 A 
ATOM     32  C   UNL A   1      42.628  28.517  34.102  1.00  0.00     0.049 A 
ATOM     33  H   UNL A   1      41.422  29.339  32.582  1.00  0.00     0.167 HD
ATOM     34  C   UNL A   1      43.270  27.236  32.068  1.00  0.00     0.074 A 
ATOM     35  C   UNL A   1      44.051  26.224  31.388  1.00  0.00     0.031 C 
ATOM     36  C   UNL A   1      43.368  27.505  33.394  1.00  0.00     0.037 A 
BRANCH  23  37
ATOM     37  C   UNL A   1      39.608  32.023  35.341  1.00  0.00     0.064 A 
ATOM     38  C   UNL A   1      40.125  33.307  35.595  1.00  0.00     0.173 A 
ATOM     39  C   UNL A   1      38.616  31.533  36.198  1.00  0.00     0.173 A 
ATOM     40  F   UNL A   1      41.097  33.810  34.818  1.00  0.00    -0.203 F 
ATOM     41  C   UNL A   1      39.704  34.045  36.697  1.00  0.00     0.198 A 
ATOM     42  C   UNL A   1      38.173  32.290  37.280  1.00  0.00     0.198 A 
ATOM     43  F   UNL A   1      38.095  30.313  36.003  1.00  0.00    -0.203 F 
ATOM     44  F   UNL A   1      40.272  35.228  36.964  1.00  0.00    -0.200 F 
ATOM     45  C   UNL A   1      38.726  33.537  37.537  1.00  0.00     0.200 A 
ATOM     46  F   UNL A   1      37.223  31.803  38.092  1.00  0.00    -0.200 F 
ATOM     47  F   UNL A   1      38.328  34.243  38.604  1.00  0.00    -0.200 F 
ENDBRANCH  23  37
BRANCH  24  48
ATOM     48  C   UNL A   1      42.611  26.617  27.443  1.00  0.00     0.064 A 
ATOM     49  C   UNL A   1      42.078  25.345  27.181  1.00  0.00     0.173 A 
ATOM     50  C   UNL A   1      43.652  27.060  26.614  1.00  0.00     0.173 A 
ATOM     51  F   UNL A   1      41.089  24.863  27.948  1.00  0.00    -0.203 F 
ATOM     52  C   UNL A   1      42.601  24.529  26.177  1.00  0.00     0.198 A 
ATOM     53  C   UNL A   1      44.155  26.256  25.589  1.00  0.00     0.198 A 
ATOM     54  F   UNL A   1      44.193  28.272  26.805  1.00  0.00    -0.203 F 
ATOM     55  F   UNL A   1      42.121  23.291  26.004  1.00  0.00    -0.200 F 
ATOM     56  C   UNL A   1      43.641  24.985  25.382  1.00  0.00     0.200 A 
ATOM     57  F   UNL A   1      45.151  26.708  24.813  1.00  0.00    -0.200 F 
ATOM     58  F   UNL A   1      44.155  24.197  24.428  1.00  0.00    -0.200 F 
ENDBRANCH  24  48
BRANCH  36  59
ATOM     59  C   UNL A   1      44.324  26.674  34.194  1.00  0.00     0.064 A 
ATOM     60  C   UNL A   1      45.654  27.070  34.391  1.00  0.00     0.173 A 
ATOM     61  C   UNL A   1      43.883  25.499  34.822  1.00  0.00     0.173 A 
ATOM     62  F   UNL A   1      46.123  28.180  33.801  1.00  0.00    -0.203 F 
ATOM     63  C   UNL A   1      46.519  26.302  35.164  1.00  0.00     0.198 A 
ATOM     64  C   UNL A   1      44.740  24.755  35.626  1.00  0.00     0.198 A 
ATOM     65  F   UNL A   1      42.616  25.085  34.674  1.00  0.00    -0.203 F 
ATOM     66  F   UNL A   1      47.801  26.670  35.295  1.00  0.00    -0.200 F 
ATOM     67  C   UNL A   1      46.059  25.151  35.788  1.00  0.00     0.200 A 
ATOM     68  F   UNL A   1      44.289  23.656  36.245  1.00  0.00    -0.200 F 
ATOM     69  F   UNL A   1      46.890  24.422  36.544  1.00  0.00    -0.200 F 
ENDBRANCH  36  59
ENDBRANCH  10  11
ENDBRANCH   3   5
ENDBRANCH   2   3
ENDBRANCH   1   2
BRANCH   1  70
ATOM     70  C   UNL A   1      31.761  29.043  26.841  1.00  0.00     0.274 C 
BRANCH  70  71
ATOM     71  O   UNL A   1      32.305  27.893  26.148  1.00  0.00    -0.462 OA
BRANCH  71  72
ATOM     72  C   UNL A   1      31.371  27.029  25.648  1.00  0.00     0.309 C 
ATOM     73  O   UNL A   1      30.607  26.385  26.360  1.00  0.00    -0.252 OA
BRANCH  72  74
ATOM     74  C   UNL A   1      31.505  26.763  24.139  1.00  0.00     0.102 C 
ATOM     75  C   UNL A   1      31.862  27.912  23.211  1.00  0.00     0.032 C 
ATOM     76  C   UNL A   1      30.235  26.110  23.611  1.00  0.00     0.032 C 
ATOM     77  C   UNL A   1      30.743  28.640  22.452  1.00  0.00     0.103 C 
ATOM     78  C   UNL A   1      29.104  27.131  23.593  1.00  0.00     0.103 C 
ATOM     79  N   UNL A   1      29.342  28.134  22.537  1.00  0.00    -0.202 NA
BRANCH  79  80
ATOM     80  S   UNL A   1      28.219  29.465  22.474  1.00  0.00     0.216 S 
ATOM     81  O   UNL A   1      28.140  29.904  21.103  1.00  0.00    -0.212 OA
ATOM     82  O   UNL A   1      27.016  29.004  23.144  1.00  0.00    -0.212 OA
BRANCH  80  83
ATOM     83  C   UNL A   1      28.719  30.919  23.419  1.00  0.00     0.124 C 
ATOM     84  C   UNL A   1      28.676  32.229  22.699  1.00  0.00     0.022 C 
ATOM     85  C   UNL A   1      27.643  31.909  23.753  1.00  0.00     0.022 C 
ENDBRANCH  80  83
ENDBRANCH  79  80
ENDBRANCH  72  74
ENDBRANCH  71  72
ENDBRANCH  70  71
ENDBRANCH   1  70
TORSDOF 13
ENDMDL
MODEL 3
REMARK VINA RESULT:     -11.9      1.929      3.613
REMARK SMILES O=C(OCCOC(=O)C1CCN(S(=O)(=O)C2CC2)CC1)c1ccc(-c2c3nc(c(-c4c(F)c(F)c(F)c(F)c4F)c4ccc([nH]4)c(-c4c(F)c(F)c(F)c(F)c4F)c4nc(c(-c5c(F)c(F)c(F)c(F)c5F)c5ccc2[nH]5)C=C4)C=C3)cc1
REMARK SMILES IDX 4 1 3 2 2 3 1 4 21 5 22 6 83 7 23 8 82 9 24 10 25 11 26 12
REMARK SMILES IDX 76 13 27 14 81 15 75 16 77 17 28 18 80 19 74 20 73 21 29 23
REMARK SMILES IDX 61 24 41 25 60 26 42 27 45 28 59 29 78 30 43 31 44 32 58 34
REMARK SMILES IDX 79 35 46 36 30 37 31 38 39 39 32 40 33 41 37 42 40 43 34 44
REMARK SMILES IDX 35 45 38 46 36 47 62 48 63 49 71 50 64 51 65 52 69 53 72 54
REMARK SMILES IDX 66 55 67 56 70 57 68 58 47 59 48 60 56 61 49 62 50 63 54 64
REMARK SMILES IDX 57 65 51 66 52 67 55 68 53 69 5 70 6 71 7 72 8 73 9 74 10 75
REMARK SMILES IDX 20 76 11 77 19 78 12 79 13 80 14 81 15 82 16 83 17 84 18 85
REMARK H PARENT 77 22 45 33
REMARK Flexibility Score: inf
ROOT
ATOM      1  C   UNL A   1      31.744  30.804  25.943  1.00  0.00     0.275 C 
ENDROOT
BRANCH   1   2
ATOM      2  O   UNL A   1      32.441  30.876  27.188  1.00  0.00    -0.458 OA
BRANCH   2   3
ATOM      3  C   UNL A   1      33.316  31.839  27.529  1.00  0.00     0.338 C 
ATOM      4  O   UNL A   1      32.913  32.990  27.656  1.00  0.00    -0.246 OA
BRANCH   3   5
ATOM      5  C   UNL A   1      34.759  31.527  27.790  1.00  0.00     0.060 A 
ATOM      6  C   UNL A   1      35.794  32.445  27.985  1.00  0.00     0.016 A 
ATOM      7  C   UNL A   1      35.052  30.177  27.990  1.00  0.00     0.016 A 
ATOM      8  C   UNL A   1      37.025  32.047  28.519  1.00  0.00     0.010 A 
ATOM      9  C   UNL A   1      36.252  29.789  28.589  1.00  0.00     0.010 A 
ATOM     10  C   UNL A   1      37.246  30.721  28.892  1.00  0.00    -0.014 A 
BRANCH  10  11
ATOM     11  C   UNL A   1      38.519  30.325  29.549  1.00  0.00     0.031 A 
ATOM     12  C   UNL A   1      38.801  30.796  30.950  1.00  0.00     0.074 A 
ATOM     13  C   UNL A   1      39.415  29.544  28.904  1.00  0.00     0.049 A 
ATOM     14  N   UNL A   1      39.764  30.441  31.760  1.00  0.00    -0.248 NA
ATOM     15  C   UNL A   1      37.911  31.831  31.506  1.00  0.00     0.031 C 
ATOM     16  C   UNL A   1      39.340  29.129  27.499  1.00  0.00     0.029 A 
ATOM     17  N   UNL A   1      40.566  28.939  29.352  1.00  0.00    -0.354 N 
ATOM     18  C   UNL A   1      39.560  31.185  32.914  1.00  0.00     0.074 A 
ATOM     19  C   UNL A   1      38.515  32.135  32.639  1.00  0.00     0.031 C 
ATOM     20  C   UNL A   1      40.367  28.307  27.218  1.00  0.00     0.029 A 
ATOM     21  C   UNL A   1      41.168  28.120  28.422  1.00  0.00     0.049 A 
ATOM     22  H   UNL A   1      40.928  29.078  30.257  1.00  0.00     0.167 HD
ATOM     23  C   UNL A   1      40.105  31.015  34.139  1.00  0.00     0.037 A 
ATOM     24  C   UNL A   1      42.218  27.283  28.549  1.00  0.00     0.037 A 
ATOM     25  C   UNL A   1      41.129  30.056  34.418  1.00  0.00     0.049 A 
ATOM     26  C   UNL A   1      42.835  27.119  29.918  1.00  0.00     0.074 A 
ATOM     27  C   UNL A   1      41.748  29.771  35.618  1.00  0.00     0.029 A 
ATOM     28  N   UNL A   1      41.686  29.221  33.460  1.00  0.00    -0.354 N 
ATOM     29  N   UNL A   1      42.516  27.706  31.048  1.00  0.00    -0.248 NA
ATOM     30  C   UNL A   1      43.930  26.146  30.040  1.00  0.00     0.031 C 
ATOM     31  C   UNL A   1      42.711  28.784  35.377  1.00  0.00     0.029 A 
ATOM     32  C   UNL A   1      42.655  28.425  34.039  1.00  0.00     0.049 A 
ATOM     33  H   UNL A   1      41.428  29.199  32.510  1.00  0.00     0.167 HD
ATOM     34  C   UNL A   1      43.341  27.149  32.017  1.00  0.00     0.074 A 
ATOM     35  C   UNL A   1      44.154  26.156  31.347  1.00  0.00     0.031 C 
ATOM     36  C   UNL A   1      43.428  27.430  33.341  1.00  0.00     0.037 A 
BRANCH  23  37
ATOM     37  C   UNL A   1      39.527  31.846  35.245  1.00  0.00     0.064 A 
ATOM     38  C   UNL A   1      39.982  33.158  35.472  1.00  0.00     0.173 A 
ATOM     39  C   UNL A   1      38.569  31.323  36.122  1.00  0.00     0.173 A 
ATOM     40  F   UNL A   1      40.920  33.695  34.675  1.00  0.00    -0.203 F 
ATOM     41  C   UNL A   1      39.538  33.894  36.566  1.00  0.00     0.198 A 
ATOM     42  C   UNL A   1      38.102  32.076  37.196  1.00  0.00     0.198 A 
ATOM     43  F   UNL A   1      38.107  30.076  35.953  1.00  0.00    -0.203 F 
ATOM     44  F   UNL A   1      40.051  35.108  36.806  1.00  0.00    -0.200 F 
ATOM     45  C   UNL A   1      38.596  33.353  37.425  1.00  0.00     0.200 A 
ATOM     46  F   UNL A   1      37.186  31.558  38.027  1.00  0.00    -0.200 F 
ATOM     47  F   UNL A   1      38.175  34.057  38.485  1.00  0.00    -0.200 F 
ENDBRANCH  23  37
BRANCH  24  48
ATOM     48  C   UNL A   1      42.713  26.475  27.395  1.00  0.00     0.064 A 
ATOM     49  C   UNL A   1      42.177  25.210  27.106  1.00  0.00     0.173 A 
ATOM     50  C   UNL A   1      43.783  26.916  26.602  1.00  0.00     0.173 A 
ATOM     51  F   UNL A   1      41.161  24.731  27.838  1.00  0.00    -0.203 F 
ATOM     52  C   UNL A   1      42.723  24.399  26.110  1.00  0.00     0.198 A 
ATOM     53  C   UNL A   1      44.309  26.116  25.585  1.00  0.00     0.198 A 
ATOM     54  F   UNL A   1      44.329  28.120  26.820  1.00  0.00    -0.203 F 
ATOM     55  F   UNL A   1      42.237  23.166  25.912  1.00  0.00    -0.200 F 
ATOM     56  C   UNL A   1      43.790  24.852  25.352  1.00  0.00     0.200 A 
ATOM     57  F   UNL A   1      45.332  26.565  24.844  1.00  0.00    -0.200 F 
ATOM     58  F   UNL A   1      44.326  24.067  24.407  1.00  0.00    -0.200 F 
ENDBRANCH  24  48
BRANCH  36  59
ATOM     59  C   UNL A   1      44.406  26.635  34.150  1.00  0.00     0.064 A 
ATOM     60  C   UNL A   1      45.740  27.042  34.297  1.00  0.00     0.173 A 
ATOM     61  C   UNL A   1      43.986  25.485  34.836  1.00  0.00     0.173 A 
ATOM     62  F   UNL A   1      46.190  28.127  33.650  1.00  0.00    -0.203 F 
ATOM     63  C   UNL A   1      46.626  26.307  35.078  1.00  0.00     0.198 A 
ATOM     64  C   UNL A   1      44.865  24.777  35.648  1.00  0.00     0.198 A 
ATOM     65  F   UNL A   1      42.716  25.062  34.737  1.00  0.00    -0.203 F 
ATOM     66  F   UNL A   1      47.910  26.684  35.161  1.00  0.00    -0.200 F 
ATOM     67  C   UNL A   1      46.186  25.182  35.760  1.00  0.00     0.200 A 
ATOM     68  F   UNL A   1      44.434  23.703  36.322  1.00  0.00    -0.200 F 
ATOM     69  F   UNL A   1      47.039  24.486  36.523  1.00  0.00    -0.200 F 
ENDBRANCH  36  59
ENDBRANCH  10  11
ENDBRANCH   3   5
ENDBRANCH   2   3
ENDBRANCH   1   2
BRANCH   1  70
ATOM     70  C   UNL A   1      31.743  29.472  25.174  1.00  0.00     0.274 C 
BRANCH  70  71
ATOM     71  O   UNL A   1      32.347  28.319  25.809  1.00  0.00    -0.462 OA
BRANCH  71  72
ATOM     72  C   UNL A   1      31.467  27.477  26.430  1.00  0.00     0.309 C 
ATOM     73  O   UNL A   1      31.297  27.465  27.645  1.00  0.00    -0.252 OA
BRANCH  72  74
ATOM     74  C   UNL A   1      30.873  26.398  25.509  1.00  0.00     0.102 C 
ATOM     75  C   UNL A   1      30.172  25.200  26.126  1.00  0.00     0.032 C 
ATOM     76  C   UNL A   1      31.944  25.878  24.559  1.00  0.00     0.032 C 
ATOM     77  C   UNL A   1      30.945  23.883  26.298  1.00  0.00     0.103 C 
ATOM     78  C   UNL A   1      32.948  25.033  25.332  1.00  0.00     0.103 C 
ATOM     79  N   UNL A   1      32.327  23.762  25.749  1.00  0.00    -0.202 NA
BRANCH  79  80
ATOM     80  S   UNL A   1      33.291  22.735  26.775  1.00  0.00     0.216 S 
ATOM     81  O   UNL A   1      34.623  23.286  26.817  1.00  0.00    -0.212 OA
ATOM     82  O   UNL A   1      32.542  22.590  28.011  1.00  0.00    -0.212 OA
BRANCH  80  83
ATOM     83  C   UNL A   1      33.488  21.043  26.179  1.00  0.00     0.124 C 
ATOM     84  C   UNL A   1      32.931  20.744  24.823  1.00  0.00     0.022 C 
ATOM     85  C   UNL A   1      34.425  20.838  25.026  1.00  0.00     0.022 C 
ENDBRANCH  80  83
ENDBRANCH  79  80
ENDBRANCH  72  74
ENDBRANCH  71  72
ENDBRANCH  70  71
ENDBRANCH   1  70
TORSDOF 13
ENDMDL
