MODEL 1
REMARK VINA RESULT:     -11.4      0.000      0.000
REMARK SMILES [NH3+][C@@H](CCc1cccc(O)c1)C(=O)OCCOC(=O)c1ccc(-c2c3nc(c(-c4c(F)c(F)c(F)c(F)c4F)c4ccc([nH]4)c(-c4c(F)c(F)c(F)c(F)c4F)c4nc(c(-c5c(F)c(F)c(F)c(F)c5F)c5ccc2[nH]5)C=C4)C=C3)cc1
REMARK SMILES IDX 15 1 14 2 12 3 13 4 2 5 1 6 3 10 4 11 5 12 6 13 11 14 7 15
REMARK SMILES IDX 9 16 8 17 10 18 16 20 17 21 18 22 19 23 20 24 21 25 82 26
REMARK SMILES IDX 22 27 81 28 23 29 24 30 25 31 75 32 26 33 80 34 74 35 76 36
REMARK SMILES IDX 27 37 79 38 73 39 72 40 28 42 60 43 40 44 59 45 41 46 44 47
REMARK SMILES IDX 58 48 77 49 42 50 43 51 57 53 78 54 45 55 29 56 30 57 38 58
REMARK SMILES IDX 31 59 32 60 36 61 39 62 33 63 34 64 37 65 35 66 61 67 62 68
REMARK SMILES IDX 70 69 63 70 64 71 68 72 71 73 65 74 66 75 69 76 67 77 46 78
REMARK SMILES IDX 47 79 55 80 48 81 49 82 53 83 56 84 50 85 51 86 54 87 52 88
REMARK H PARENT 1 7 1 8 1 9 10 19 76 41 44 52
REMARK Flexibility Score: inf
ROOT
ATOM      1  C   UNL A   1      44.574  21.364  24.935  1.00  0.00     0.274 C 
ENDROOT
BRANCH   1   2
ATOM      2  O   UNL A   1      43.288  20.848  25.329  1.00  0.00    -0.458 OA
BRANCH   2   3
ATOM      3  C   UNL A   1      43.203  19.497  25.517  1.00  0.00     0.364 C 
ATOM      4  O   UNL A   1      43.959  18.669  25.019  1.00  0.00    -0.245 OA
BRANCH   3   5
ATOM      5  C   UNL A   1      42.009  19.103  26.410  1.00  0.00     0.292 C 
BRANCH   5   6
ATOM      6  N   UNL A   1      42.346  19.114  27.846  1.00  0.00    -0.346 N 
ATOM      7  H   UNL A   1      42.537  20.072  28.142  1.00  0.00     0.345 HD
ATOM      8  H   UNL A   1      43.171  18.537  28.006  1.00  0.00     0.345 HD
ATOM      9  H   UNL A   1      41.562  18.743  28.382  1.00  0.00     0.345 HD
ENDBRANCH   5   6
BRANCH   5  10
ATOM     10  C   UNL A   1      40.728  19.884  26.079  1.00  0.00     0.082 C 
BRANCH  10  11
ATOM     11  C   UNL A   1      40.454  21.155  26.899  1.00  0.00     0.042 C 
BRANCH  11  12
ATOM     12  C   UNL A   1      39.305  22.011  26.424  1.00  0.00    -0.044 A 
ATOM     13  C   UNL A   1      39.182  23.333  26.875  1.00  0.00     0.004 A 
ATOM     14  C   UNL A   1      38.342  21.513  25.537  1.00  0.00     0.049 A 
ATOM     15  C   UNL A   1      38.150  24.151  26.409  1.00  0.00     0.004 A 
ATOM     16  C   UNL A   1      37.338  22.345  25.052  1.00  0.00     0.115 A 
ATOM     17  C   UNL A   1      37.232  23.662  25.480  1.00  0.00     0.046 A 
BRANCH  16  18
ATOM     18  O   UNL A   1      36.486  21.829  24.121  1.00  0.00    -0.508 OA
ATOM     19  H   UNL A   1      35.993  21.056  24.314  1.00  0.00     0.293 HD
ENDBRANCH  16  18
ENDBRANCH  11  12
ENDBRANCH  10  11
ENDBRANCH   5  10
ENDBRANCH   3   5
ENDBRANCH   2   3
ENDBRANCH   1   2
BRANCH   1  20
ATOM     20  C   UNL A   1      44.453  22.589  24.031  1.00  0.00     0.275 C 
BRANCH  20  21
ATOM     21  O   UNL A   1      43.595  23.569  24.629  1.00  0.00    -0.458 OA
BRANCH  21  22
ATOM     22  C   UNL A   1      44.231  24.699  25.008  1.00  0.00     0.338 C 
ATOM     23  O   UNL A   1      45.320  25.100  24.634  1.00  0.00    -0.246 OA
BRANCH  22  24
ATOM     24  C   UNL A   1      43.345  25.483  25.876  1.00  0.00     0.060 A 
ATOM     25  C   UNL A   1      43.579  26.858  25.967  1.00  0.00     0.016 A 
ATOM     26  C   UNL A   1      42.367  24.864  26.658  1.00  0.00     0.016 A 
ATOM     27  C   UNL A   1      42.863  27.622  26.879  1.00  0.00     0.010 A 
ATOM     28  C   UNL A   1      41.661  25.626  27.588  1.00  0.00     0.010 A 
ATOM     29  C   UNL A   1      41.943  26.997  27.728  1.00  0.00    -0.014 A 
BRANCH  29  30
ATOM     30  C   UNL A   1      41.448  27.739  28.905  1.00  0.00     0.031 A 
ATOM     31  C   UNL A   1      42.226  27.634  30.186  1.00  0.00     0.074 A 
ATOM     32  C   UNL A   1      40.365  28.527  28.814  1.00  0.00     0.049 A 
ATOM     33  N   UNL A   1      41.986  28.171  31.353  1.00  0.00    -0.248 NA
ATOM     34  C   UNL A   1      43.444  26.806  30.143  1.00  0.00     0.031 C 
ATOM     35  C   UNL A   1      39.574  28.735  27.603  1.00  0.00     0.029 A 
ATOM     36  N   UNL A   1      39.750  29.302  29.761  1.00  0.00    -0.354 N 
ATOM     37  C   UNL A   1      43.008  27.730  32.185  1.00  0.00     0.074 A 
ATOM     38  C   UNL A   1      43.861  26.869  31.398  1.00  0.00     0.031 C 
ATOM     39  C   UNL A   1      38.574  29.589  27.881  1.00  0.00     0.029 A 
ATOM     40  C   UNL A   1      38.642  29.962  29.292  1.00  0.00     0.049 A 
ATOM     41  H   UNL A   1      40.071  29.379  30.688  1.00  0.00     0.167 HD
ATOM     42  C   UNL A   1      43.214  28.023  33.490  1.00  0.00     0.037 A 
ATOM     43  C   UNL A   1      37.782  30.767  29.943  1.00  0.00     0.037 A 
ATOM     44  C   UNL A   1      42.365  28.894  34.257  1.00  0.00     0.049 A 
ATOM     45  C   UNL A   1      38.020  31.057  31.401  1.00  0.00     0.074 A 
ATOM     46  C   UNL A   1      42.475  29.262  35.585  1.00  0.00     0.029 A 
ATOM     47  N   UNL A   1      41.243  29.538  33.752  1.00  0.00    -0.354 N 
ATOM     48  N   UNL A   1      38.983  30.637  32.184  1.00  0.00    -0.248 NA
ATOM     49  C   UNL A   1      37.050  31.939  32.065  1.00  0.00     0.031 C 
ATOM     50  C   UNL A   1      41.400  30.104  35.893  1.00  0.00     0.029 A 
ATOM     51  C   UNL A   1      40.645  30.294  34.745  1.00  0.00     0.049 A 
ATOM     52  H   UNL A   1      40.921  29.466  32.825  1.00  0.00     0.167 HD
ATOM     53  C   UNL A   1      38.760  31.227  33.420  1.00  0.00     0.074 A 
ATOM     54  C   UNL A   1      37.569  32.042  33.280  1.00  0.00     0.031 C 
ATOM     55  C   UNL A   1      39.472  31.110  34.569  1.00  0.00     0.037 A 
BRANCH  42  56
ATOM     56  C   UNL A   1      44.377  27.363  34.168  1.00  0.00     0.064 A 
ATOM     57  C   UNL A   1      45.634  27.982  34.255  1.00  0.00     0.173 A 
ATOM     58  C   UNL A   1      44.234  26.089  34.737  1.00  0.00     0.173 A 
ATOM     59  F   UNL A   1      45.829  29.193  33.708  1.00  0.00    -0.203 F 
ATOM     60  C   UNL A   1      46.710  27.338  34.860  1.00  0.00     0.198 A 
ATOM     61  C   UNL A   1      45.304  25.459  35.365  1.00  0.00     0.198 A 
ATOM     62  F   UNL A   1      43.055  25.452  34.679  1.00  0.00    -0.203 F 
ATOM     63  F   UNL A   1      47.914  27.926  34.887  1.00  0.00    -0.200 F 
ATOM     64  C   UNL A   1      46.543  26.079  35.420  1.00  0.00     0.200 A 
ATOM     65  F   UNL A   1      45.139  24.246  35.911  1.00  0.00    -0.200 F 
ATOM     66  F   UNL A   1      47.579  25.461  36.002  1.00  0.00    -0.200 F 
ENDBRANCH  42  56
BRANCH  43  67
ATOM     67  C   UNL A   1      36.634  31.365  29.216  1.00  0.00     0.064 A 
ATOM     68  C   UNL A   1      35.538  30.583  28.829  1.00  0.00     0.173 A 
ATOM     69  C   UNL A   1      36.608  32.731  28.893  1.00  0.00     0.173 A 
ATOM     70  F   UNL A   1      35.527  29.268  29.095  1.00  0.00    -0.203 F 
ATOM     71  C   UNL A   1      34.466  31.139  28.132  1.00  0.00     0.198 A 
ATOM     72  C   UNL A   1      35.524  33.290  28.219  1.00  0.00     0.198 A 
ATOM     73  F   UNL A   1      37.634  33.522  29.239  1.00  0.00    -0.203 F 
ATOM     74  F   UNL A   1      33.450  30.360  27.739  1.00  0.00    -0.200 F 
ATOM     75  C   UNL A   1      34.458  32.493  27.834  1.00  0.00     0.200 A 
ATOM     76  F   UNL A   1      35.516  34.601  27.941  1.00  0.00    -0.200 F 
ATOM     77  F   UNL A   1      33.425  33.028  27.168  1.00  0.00    -0.200 F 
ENDBRANCH  43  67
BRANCH  55  78
ATOM     78  C   UNL A   1      39.011  31.922  35.742  1.00  0.00     0.064 A 
ATOM     79  C   UNL A   1      38.201  31.373  36.746  1.00  0.00     0.173 A 
ATOM     80  C   UNL A   1      39.417  33.259  35.876  1.00  0.00     0.173 A 
ATOM     81  F   UNL A   1      37.779  30.104  36.654  1.00  0.00    -0.203 F 
ATOM     82  C   UNL A   1      37.789  32.144  37.828  1.00  0.00     0.198 A 
ATOM     83  C   UNL A   1      39.025  34.018  36.974  1.00  0.00     0.198 A 
ATOM     84  F   UNL A   1      40.199  33.825  34.945  1.00  0.00    -0.203 F 
ATOM     85  F   UNL A   1      36.975  31.616  38.753  1.00  0.00    -0.200 F 
ATOM     86  C   UNL A   1      38.205  33.463  37.944  1.00  0.00     0.200 A 
ATOM     87  F   UNL A   1      39.437  35.288  37.090  1.00  0.00    -0.200 F 
ATOM     88  F   UNL A   1      37.808  34.203  38.989  1.00  0.00    -0.200 F 
ENDBRANCH  55  78
ENDBRANCH  29  30
ENDBRANCH  22  24
ENDBRANCH  21  22
ENDBRANCH  20  21
ENDBRANCH   1  20
TORSDOF 16
ENDMDL
MODEL 2
REMARK VINA RESULT:     -11.2      6.003     11.849
REMARK SMILES [NH3+][C@@H](CCc1cccc(O)c1)C(=O)OCCOC(=O)c1ccc(-c2c3nc(c(-c4c(F)c(F)c(F)c(F)c4F)c4ccc([nH]4)c(-c4c(F)c(F)c(F)c(F)c4F)c4nc(c(-c5c(F)c(F)c(F)c(F)c5F)c5ccc2[nH]5)C=C4)C=C3)cc1
REMARK SMILES IDX 15 1 14 2 12 3 13 4 2 5 1 6 3 10 4 11 5 12 6 13 11 14 7 15
REMARK SMILES IDX 9 16 8 17 10 18 16 20 17 21 18 22 19 23 20 24 21 25 82 26
REMARK SMILES IDX 22 27 81 28 23 29 24 30 25 31 75 32 26 33 80 34 74 35 76 36
REMARK SMILES IDX 27 37 79 38 73 39 72 40 28 42 60 43 40 44 59 45 41 46 44 47
REMARK SMILES IDX 58 48 77 49 42 50 43 51 57 53 78 54 45 55 29 56 30 57 38 58
REMARK SMILES IDX 31 59 32 60 36 61 39 62 33 63 34 64 37 65 35 66 61 67 62 68
REMARK SMILES IDX 70 69 63 70 64 71 68 72 71 73 65 74 66 75 69 76 67 77 46 78
REMARK SMILES IDX 47 79 55 80 48 81 49 82 53 83 56 84 50 85 51 86 54 87 52 88
REMARK H PARENT 1 7 1 8 1 9 10 19 76 41 44 52
REMARK Flexibility Score: inf
ROOT
ATOM      1  C   UNL A   1      34.206  34.921  32.469  1.00  0.00     0.274 C 
ENDROOT
BRANCH   1   2
ATOM      2  O   UNL A   1      33.232  34.753  31.420  1.00  0.00    -0.458 OA
BRANCH   2   3
ATOM      3  C   UNL A   1      33.277  35.655  30.395  1.00  0.00     0.364 C 
ATOM      4  O   UNL A   1      33.029  36.852  30.500  1.00  0.00    -0.245 OA
BRANCH   3   5
ATOM      5  C   UNL A   1      33.642  34.996  29.048  1.00  0.00     0.292 C 
BRANCH   5   6
ATOM      6  N   UNL A   1      34.607  35.793  28.270  1.00  0.00    -0.346 N 
ATOM      7  H   UNL A   1      34.921  35.253  27.463  1.00  0.00     0.345 HD
ATOM      8  H   UNL A   1      35.409  36.024  28.856  1.00  0.00     0.345 HD
ATOM      9  H   UNL A   1      34.161  36.652  27.952  1.00  0.00     0.345 HD
ENDBRANCH   5   6
BRANCH   5  10
ATOM     10  C   UNL A   1      34.045  33.521  29.192  1.00  0.00     0.082 C 
BRANCH  10  11
ATOM     11  C   UNL A   1      34.897  32.917  28.064  1.00  0.00     0.042 C 
BRANCH  11  12
ATOM     12  C   UNL A   1      34.597  31.482  27.707  1.00  0.00    -0.044 A 
ATOM     13  C   UNL A   1      35.625  30.527  27.717  1.00  0.00     0.004 A 
ATOM     14  C   UNL A   1      33.304  31.071  27.358  1.00  0.00     0.049 A 
ATOM     15  C   UNL A   1      35.353  29.186  27.434  1.00  0.00     0.004 A 
ATOM     16  C   UNL A   1      33.037  29.728  27.112  1.00  0.00     0.115 A 
ATOM     17  C   UNL A   1      34.051  28.779  27.146  1.00  0.00     0.046 A 
BRANCH  16  18
ATOM     18  O   UNL A   1      31.743  29.377  26.867  1.00  0.00    -0.508 OA
ATOM     19  H   UNL A   1      31.247  28.926  27.521  1.00  0.00     0.293 HD
ENDBRANCH  16  18
ENDBRANCH  11  12
ENDBRANCH  10  11
ENDBRANCH   5  10
ENDBRANCH   3   5
ENDBRANCH   2   3
ENDBRANCH   1   2
BRANCH   1  20
ATOM     20  C   UNL A   1      34.365  33.661  33.316  1.00  0.00     0.275 C 
BRANCH  20  21
ATOM     21  O   UNL A   1      35.158  32.689  32.623  1.00  0.00    -0.458 OA
BRANCH  21  22
ATOM     22  C   UNL A   1      36.244  32.273  33.312  1.00  0.00     0.338 C 
ATOM     23  O   UNL A   1      36.467  32.409  34.503  1.00  0.00    -0.246 OA
BRANCH  22  24
ATOM     24  C   UNL A   1      37.108  31.488  32.421  1.00  0.00     0.060 A 
ATOM     25  C   UNL A   1      38.035  30.627  33.015  1.00  0.00     0.016 A 
ATOM     26  C   UNL A   1      37.071  31.667  31.037  1.00  0.00     0.016 A 
ATOM     27  C   UNL A   1      38.970  29.969  32.226  1.00  0.00     0.010 A 
ATOM     28  C   UNL A   1      38.021  31.022  30.245  1.00  0.00     0.010 A 
ATOM     29  C   UNL A   1      38.998  30.209  30.847  1.00  0.00    -0.014 A 
BRANCH  29  30
ATOM     30  C   UNL A   1      40.186  29.785  30.078  1.00  0.00     0.031 A 
ATOM     31  C   UNL A   1      41.309  30.768  29.914  1.00  0.00     0.074 A 
ATOM     32  C   UNL A   1      40.277  28.538  29.590  1.00  0.00     0.049 A 
ATOM     33  N   UNL A   1      42.440  30.641  29.271  1.00  0.00    -0.248 NA
ATOM     34  C   UNL A   1      41.131  32.077  30.564  1.00  0.00     0.031 C 
ATOM     35  C   UNL A   1      39.264  27.497  29.742  1.00  0.00     0.029 A 
ATOM     36  N   UNL A   1      41.277  27.939  28.870  1.00  0.00    -0.354 N 
ATOM     37  C   UNL A   1      43.095  31.857  29.422  1.00  0.00     0.074 A 
ATOM     38  C   UNL A   1      42.232  32.716  30.202  1.00  0.00     0.031 C 
ATOM     39  C   UNL A   1      39.697  26.379  29.133  1.00  0.00     0.029 A 
ATOM     40  C   UNL A   1      41.001  26.639  28.529  1.00  0.00     0.049 A 
ATOM     41  H   UNL A   1      42.113  28.396  28.623  1.00  0.00     0.167 HD
ATOM     42  C   UNL A   1      44.312  32.220  28.953  1.00  0.00     0.037 A 
ATOM     43  C   UNL A   1      41.726  25.770  27.801  1.00  0.00     0.037 A 
ATOM     44  C   UNL A   1      45.167  31.350  28.191  1.00  0.00     0.049 A 
ATOM     45  C   UNL A   1      43.066  26.206  27.268  1.00  0.00     0.074 A 
ATOM     46  C   UNL A   1      46.418  31.609  27.663  1.00  0.00     0.029 A 
ATOM     47  N   UNL A   1      44.850  30.041  27.853  1.00  0.00    -0.354 N 
ATOM     48  N   UNL A   1      43.679  27.356  27.411  1.00  0.00    -0.248 NA
ATOM     49  C   UNL A   1      43.815  25.221  26.478  1.00  0.00     0.031 C 
ATOM     50  C   UNL A   1      46.845  30.466  26.977  1.00  0.00     0.029 A 
ATOM     51  C   UNL A   1      45.878  29.481  27.115  1.00  0.00     0.049 A 
ATOM     52  H   UNL A   1      44.016  29.579  28.103  1.00  0.00     0.167 HD
ATOM     53  C   UNL A   1      44.898  27.224  26.760  1.00  0.00     0.074 A 
ATOM     54  C   UNL A   1      44.939  25.876  26.227  1.00  0.00     0.031 C 
ATOM     55  C   UNL A   1      45.896  28.131  26.615  1.00  0.00     0.037 A 
BRANCH  42  56
ATOM     56  C   UNL A   1      44.761  33.625  29.220  1.00  0.00     0.064 A 
ATOM     57  C   UNL A   1      45.515  33.960  30.355  1.00  0.00     0.173 A 
ATOM     58  C   UNL A   1      44.428  34.655  28.327  1.00  0.00     0.173 A 
ATOM     59  F   UNL A   1      45.841  33.014  31.251  1.00  0.00    -0.203 F 
ATOM     60  C   UNL A   1      45.894  35.277  30.601  1.00  0.00     0.198 A 
ATOM     61  C   UNL A   1      44.832  35.966  28.562  1.00  0.00     0.198 A 
ATOM     62  F   UNL A   1      43.707  34.390  27.228  1.00  0.00    -0.203 F 
ATOM     63  F   UNL A   1      46.570  35.582  31.718  1.00  0.00    -0.200 F 
ATOM     64  C   UNL A   1      45.557  36.278  29.702  1.00  0.00     0.200 A 
ATOM     65  F   UNL A   1      44.512  36.931  27.688  1.00  0.00    -0.200 F 
ATOM     66  F   UNL A   1      45.923  37.545  29.940  1.00  0.00    -0.200 F 
ENDBRANCH  42  56
BRANCH  43  67
ATOM     67  C   UNL A   1      41.208  24.401  27.550  1.00  0.00     0.064 A 
ATOM     68  C   UNL A   1      41.813  23.281  28.135  1.00  0.00     0.173 A 
ATOM     69  C   UNL A   1      40.098  24.183  26.719  1.00  0.00     0.173 A 
ATOM     70  F   UNL A   1      42.891  23.436  28.919  1.00  0.00    -0.203 F 
ATOM     71  C   UNL A   1      41.339  21.994  27.889  1.00  0.00     0.198 A 
ATOM     72  C   UNL A   1      39.609  22.898  26.494  1.00  0.00     0.198 A 
ATOM     73  F   UNL A   1      39.485  25.222  26.132  1.00  0.00    -0.203 F 
ATOM     74  F   UNL A   1      41.961  20.939  28.430  1.00  0.00    -0.200 F 
ATOM     75  C   UNL A   1      40.233  21.805  27.074  1.00  0.00     0.200 A 
ATOM     76  F   UNL A   1      38.535  22.721  25.712  1.00  0.00    -0.200 F 
ATOM     77  F   UNL A   1      39.775  20.567  26.840  1.00  0.00    -0.200 F 
ENDBRANCH  43  67
BRANCH  55  78
ATOM     78  C   UNL A   1      47.133  27.675  25.899  1.00  0.00     0.064 A 
ATOM     79  C   UNL A   1      47.230  27.710  24.501  1.00  0.00     0.173 A 
ATOM     80  C   UNL A   1      48.245  27.229  26.629  1.00  0.00     0.173 A 
ATOM     81  F   UNL A   1      46.187  28.117  23.762  1.00  0.00    -0.203 F 
ATOM     82  C   UNL A   1      48.388  27.287  23.858  1.00  0.00     0.198 A 
ATOM     83  C   UNL A   1      49.411  26.832  25.982  1.00  0.00     0.198 A 
ATOM     84  F   UNL A   1      48.202  27.186  27.969  1.00  0.00    -0.203 F 
ATOM     85  F   UNL A   1      48.445  27.282  22.518  1.00  0.00    -0.200 F 
ATOM     86  C   UNL A   1      49.479  26.853  24.598  1.00  0.00     0.200 A 
ATOM     87  F   UNL A   1      50.468  26.425  26.699  1.00  0.00    -0.200 F 
ATOM     88  F   UNL A   1      50.594  26.448  23.975  1.00  0.00    -0.200 F 
ENDBRANCH  55  78
ENDBRANCH  29  30
ENDBRANCH  22  24
ENDBRANCH  21  22
ENDBRANCH  20  21
ENDBRANCH   1  20
TORSDOF 16
ENDMDL
MODEL 3
REMARK VINA RESULT:     -11.2      0.654      1.864
REMARK SMILES [NH3+][C@@H](CCc1cccc(O)c1)C(=O)OCCOC(=O)c1ccc(-c2c3nc(c(-c4c(F)c(F)c(F)c(F)c4F)c4ccc([nH]4)c(-c4c(F)c(F)c(F)c(F)c4F)c4nc(c(-c5c(F)c(F)c(F)c(F)c5F)c5ccc2[nH]5)C=C4)C=C3)cc1
REMARK SMILES IDX 15 1 14 2 12 3 13 4 2 5 1 6 3 10 4 11 5 12 6 13 11 14 7 15
REMARK SMILES IDX 9 16 8 17 10 18 16 20 17 21 18 22 19 23 20 24 21 25 82 26
REMARK SMILES IDX 22 27 81 28 23 29 24 30 25 31 75 32 26 33 80 34 74 35 76 36
REMARK SMILES IDX 27 37 79 38 73 39 72 40 28 42 60 43 40 44 59 45 41 46 44 47
REMARK SMILES IDX 58 48 77 49 42 50 43 51 57 53 78 54 45 55 29 56 30 57 38 58
REMARK SMILES IDX 31 59 32 60 36 61 39 62 33 63 34 64 37 65 35 66 61 67 62 68
REMARK SMILES IDX 70 69 63 70 64 71 68 72 71 73 65 74 66 75 69 76 67 77 46 78
REMARK SMILES IDX 47 79 55 80 48 81 49 82 53 83 56 84 50 85 51 86 54 87 52 88
REMARK H PARENT 1 7 1 8 1 9 10 19 76 41 44 52
REMARK Flexibility Score: inf
ROOT
ATOM      1  C   UNL A   1      44.713  21.072  24.869  1.00  0.00     0.274 C 
ENDROOT
BRANCH   1   2
ATOM      2  O   UNL A   1      43.645  20.136  24.626  1.00  0.00    -0.458 OA
BRANCH   2   3
ATOM      3  C   UNL A   1      43.647  18.997  25.380  1.00  0.00     0.364 C 
ATOM      4  O   UNL A   1      44.537  18.152  25.377  1.00  0.00    -0.245 OA
BRANCH   3   5
ATOM      5  C   UNL A   1      42.368  18.855  26.232  1.00  0.00     0.292 C 
BRANCH   5   6
ATOM      6  N   UNL A   1      42.653  18.453  27.621  1.00  0.00    -0.346 N 
ATOM      7  H   UNL A   1      43.628  18.660  27.842  1.00  0.00     0.345 HD
ATOM      8  H   UNL A   1      42.485  17.453  27.728  1.00  0.00     0.345 HD
ATOM      9  H   UNL A   1      42.044  18.969  28.256  1.00  0.00     0.345 HD
ENDBRANCH   5   6
BRANCH   5  10
ATOM     10  C   UNL A   1      41.439  20.074  26.129  1.00  0.00     0.082 C 
BRANCH  10  11
ATOM     11  C   UNL A   1      39.942  19.796  25.917  1.00  0.00     0.042 C 
BRANCH  11  12
ATOM     12  C   UNL A   1      39.057  21.011  25.796  1.00  0.00    -0.044 A 
ATOM     13  C   UNL A   1      37.903  20.962  25.000  1.00  0.00     0.004 A 
ATOM     14  C   UNL A   1      39.361  22.206  26.461  1.00  0.00     0.049 A 
ATOM     15  C   UNL A   1      37.048  22.064  24.915  1.00  0.00     0.004 A 
ATOM     16  C   UNL A   1      38.487  23.286  26.399  1.00  0.00     0.115 A 
ATOM     17  C   UNL A   1      37.331  23.227  25.631  1.00  0.00     0.046 A 
BRANCH  16  18
ATOM     18  O   UNL A   1      38.792  24.388  27.141  1.00  0.00    -0.508 OA
ATOM     19  H   UNL A   1      39.618  24.815  27.030  1.00  0.00     0.293 HD
ENDBRANCH  16  18
ENDBRANCH  11  12
ENDBRANCH  10  11
ENDBRANCH   5  10
ENDBRANCH   3   5
ENDBRANCH   2   3
ENDBRANCH   1   2
BRANCH   1  20
ATOM     20  C   UNL A   1      44.528  22.374  24.093  1.00  0.00     0.275 C 
BRANCH  20  21
ATOM     21  O   UNL A   1      43.720  23.292  24.840  1.00  0.00    -0.458 OA
BRANCH  21  22
ATOM     22  C   UNL A   1      44.325  24.473  25.096  1.00  0.00     0.338 C 
ATOM     23  O   UNL A   1      45.370  24.891  24.626  1.00  0.00    -0.246 OA
BRANCH  22  24
ATOM     24  C   UNL A   1      43.457  25.281  25.960  1.00  0.00     0.060 A 
ATOM     25  C   UNL A   1      43.720  26.652  26.041  1.00  0.00     0.016 A 
ATOM     26  C   UNL A   1      42.467  24.689  26.748  1.00  0.00     0.016 A 
ATOM     27  C   UNL A   1      43.022  27.437  26.950  1.00  0.00     0.010 A 
ATOM     28  C   UNL A   1      41.779  25.472  27.674  1.00  0.00     0.010 A 
ATOM     29  C   UNL A   1      42.090  26.837  27.805  1.00  0.00    -0.014 A 
BRANCH  29  30
ATOM     30  C   UNL A   1      41.612  27.597  28.977  1.00  0.00     0.031 A 
ATOM     31  C   UNL A   1      42.391  27.484  30.257  1.00  0.00     0.074 A 
ATOM     32  C   UNL A   1      40.546  28.406  28.882  1.00  0.00     0.049 A 
ATOM     33  N   UNL A   1      42.165  28.034  31.421  1.00  0.00    -0.248 NA
ATOM     34  C   UNL A   1      43.591  26.632  30.218  1.00  0.00     0.031 C 
ATOM     35  C   UNL A   1      39.757  28.622  27.672  1.00  0.00     0.029 A 
ATOM     36  N   UNL A   1      39.949  29.200  29.826  1.00  0.00    -0.354 N 
ATOM     37  C   UNL A   1      43.179  27.579  32.254  1.00  0.00     0.074 A 
ATOM     38  C   UNL A   1      44.013  26.695  31.471  1.00  0.00     0.031 C 
ATOM     39  C   UNL A   1      38.775  29.498  27.945  1.00  0.00     0.029 A 
ATOM     40  C   UNL A   1      38.853  29.879  29.354  1.00  0.00     0.049 A 
ATOM     41  H   UNL A   1      40.273  29.276  30.751  1.00  0.00     0.167 HD
ATOM     42  C   UNL A   1      43.394  27.876  33.557  1.00  0.00     0.037 A 
ATOM     43  C   UNL A   1      38.011  30.706  30.001  1.00  0.00     0.037 A 
ATOM     44  C   UNL A   1      42.564  28.769  34.320  1.00  0.00     0.049 A 
ATOM     45  C   UNL A   1      38.258  31.001  31.457  1.00  0.00     0.074 A 
ATOM     46  C   UNL A   1      42.684  29.145  35.645  1.00  0.00     0.029 A 
ATOM     47  N   UNL A   1      41.454  29.432  33.812  1.00  0.00    -0.354 N 
ATOM     48  N   UNL A   1      39.214  30.567  32.241  1.00  0.00    -0.248 NA
ATOM     49  C   UNL A   1      37.308  31.907  32.116  1.00  0.00     0.031 C 
ATOM     50  C   UNL A   1      41.627  30.010  35.949  1.00  0.00     0.029 A 
ATOM     51  C   UNL A   1      40.874  30.207  34.801  1.00  0.00     0.049 A 
ATOM     52  H   UNL A   1      41.129  29.361  32.886  1.00  0.00     0.167 HD
ATOM     53  C   UNL A   1      39.005  31.170  33.474  1.00  0.00     0.074 A 
ATOM     54  C   UNL A   1      37.831  32.008  33.330  1.00  0.00     0.031 C 
ATOM     55  C   UNL A   1      39.717  31.046  34.621  1.00  0.00     0.037 A 
BRANCH  42  56
ATOM     56  C   UNL A   1      44.544  27.197  34.237  1.00  0.00     0.064 A 
ATOM     57  C   UNL A   1      44.408  25.941  34.847  1.00  0.00     0.173 A 
ATOM     58  C   UNL A   1      45.803  27.816  34.284  1.00  0.00     0.173 A 
ATOM     59  F   UNL A   1      43.219  25.317  34.849  1.00  0.00    -0.203 F 
ATOM     60  C   UNL A   1      45.481  25.343  35.503  1.00  0.00     0.198 A 
ATOM     61  C   UNL A   1      46.880  27.202  34.916  1.00  0.00     0.198 A 
ATOM     62  F   UNL A   1      45.986  29.018  33.719  1.00  0.00    -0.203 F 
ATOM     63  F   UNL A   1      45.315  24.166  36.122  1.00  0.00    -0.200 F 
ATOM     64  C   UNL A   1      46.718  25.971  35.532  1.00  0.00     0.200 A 
ATOM     65  F   UNL A   1      48.076  27.808  34.937  1.00  0.00    -0.200 F 
ATOM     66  F   UNL A   1      47.749  25.394  36.163  1.00  0.00    -0.200 F 
ENDBRANCH  42  56
BRANCH  43  67
ATOM     67  C   UNL A   1      36.874  31.323  29.273  1.00  0.00     0.064 A 
ATOM     68  C   UNL A   1      36.883  32.683  28.937  1.00  0.00     0.173 A 
ATOM     69  C   UNL A   1      35.753  30.565  28.899  1.00  0.00     0.173 A 
ATOM     70  F   UNL A   1      37.922  33.452  29.293  1.00  0.00    -0.203 F 
ATOM     71  C   UNL A   1      35.810  33.267  28.268  1.00  0.00     0.198 A 
ATOM     72  C   UNL A   1      34.691  31.145  28.207  1.00  0.00     0.198 A 
ATOM     73  F   UNL A   1      35.693  29.260  29.200  1.00  0.00    -0.203 F 
ATOM     74  F   UNL A   1      35.827  34.578  27.994  1.00  0.00    -0.200 F 
ATOM     75  C   UNL A   1      34.718  32.496  27.898  1.00  0.00     0.200 A 
ATOM     76  F   UNL A   1      33.642  30.395  27.844  1.00  0.00    -0.200 F 
ATOM     77  F   UNL A   1      33.687  33.058  27.251  1.00  0.00    -0.200 F 
ENDBRANCH  43  67
BRANCH  55  78
ATOM     78  C   UNL A   1      39.275  31.875  35.790  1.00  0.00     0.064 A 
ATOM     79  C   UNL A   1      38.339  31.400  36.719  1.00  0.00     0.173 A 
ATOM     80  C   UNL A   1      39.825  33.150  35.997  1.00  0.00     0.173 A 
ATOM     81  F   UNL A   1      37.778  30.194  36.555  1.00  0.00    -0.203 F 
ATOM     82  C   UNL A   1      37.947  32.185  37.799  1.00  0.00     0.198 A 
ATOM     83  C   UNL A   1      39.450  33.920  37.093  1.00  0.00     0.198 A 
ATOM     84  F   UNL A   1      40.731  33.643  35.139  1.00  0.00    -0.203 F 
ATOM     85  F   UNL A   1      37.015  31.733  38.649  1.00  0.00    -0.200 F 
ATOM     86  C   UNL A   1      38.506  33.441  37.988  1.00  0.00     0.200 A 
ATOM     87  F   UNL A   1      40.000  35.128  37.280  1.00  0.00    -0.200 F 
ATOM     88  F   UNL A   1      38.128  34.195  39.029  1.00  0.00    -0.200 F 
ENDBRANCH  55  78
ENDBRANCH  29  30
ENDBRANCH  22  24
ENDBRANCH  21  22
ENDBRANCH  20  21
ENDBRANCH   1  20
TORSDOF 16
ENDMDL
