MODEL 1
REMARK VINA RESULT:     -12.4      0.000      0.000
REMARK SMILES O=C(OCCOC(=O)c1cccnc1NC[C@H](c1ccccc1)[NH+]1CCOCC1)c1ccc(-c2c3nc(c(-c4c(F)c(F)c(F)c(F)c4F)c4ccc([nH]4)c(-c4c(F)c(F)c(F)c(F)c4F)c4nc(c(-c5c(F)c(F)c(F)c(F)c5F)c5ccc2[nH]5)C=C4)C=C3)cc1
REMARK SMILES IDX 5 1 4 2 3 3 2 4 1 5 30 6 31 7 92 8 32 9 91 10 33 11 34 12
REMARK SMILES IDX 35 13 85 14 36 15 90 16 84 17 86 18 37 19 89 20 83 21 82 22
REMARK SMILES IDX 38 24 70 25 50 26 69 27 51 28 54 29 68 30 87 31 52 32 53 33
REMARK SMILES IDX 67 35 88 36 55 37 39 38 40 39 48 40 41 41 42 42 46 43 49 44
REMARK SMILES IDX 43 45 44 46 47 47 45 48 71 49 72 50 80 51 73 52 74 53 78 54
REMARK SMILES IDX 81 55 75 56 76 57 79 58 77 59 56 60 57 61 65 62 58 63 59 64
REMARK SMILES IDX 63 65 66 66 60 67 61 68 64 69 62 70 6 71 7 72 8 73 9 74
REMARK SMILES IDX 10 75 14 76 11 77 13 78 12 79 15 80 16 82 17 83 24 84 25 85
REMARK SMILES IDX 29 86 26 88 28 89 27 90 18 91 19 92 23 93 20 94 22 95 21 96
REMARK H PARENT 86 23 54 34 15 81 24 87
REMARK Flexibility Score: inf
ROOT
ATOM      1  C   UNL A   1      36.353  21.404  24.796  1.00  0.00     0.275 C 
ENDROOT
BRANCH   1   2
ATOM      2  C   UNL A   1      37.840  21.079  25.068  1.00  0.00     0.275 C 
BRANCH   2   3
ATOM      3  O   UNL A   1      38.417  21.292  26.368  1.00  0.00    -0.458 OA
BRANCH   3   4
ATOM      4  C   UNL A   1      39.749  21.455  26.427  1.00  0.00     0.338 C 
ATOM      5  O   UNL A   1      40.565  20.570  26.247  1.00  0.00    -0.246 OA
BRANCH   4   6
ATOM      6  C   UNL A   1      40.079  22.803  26.950  1.00  0.00     0.060 A 
ATOM      7  C   UNL A   1      40.993  22.942  28.001  1.00  0.00     0.016 A 
ATOM      8  C   UNL A   1      39.656  23.928  26.237  1.00  0.00     0.016 A 
ATOM      9  C   UNL A   1      41.540  24.182  28.284  1.00  0.00     0.010 A 
ATOM     10  C   UNL A   1      40.222  25.169  26.501  1.00  0.00     0.010 A 
ATOM     11  C   UNL A   1      41.176  25.290  27.517  1.00  0.00    -0.014 A 
BRANCH  11  12
ATOM     12  C   UNL A   1      41.735  26.600  27.868  1.00  0.00     0.031 A 
ATOM     13  C   UNL A   1      43.154  26.870  27.503  1.00  0.00     0.074 A 
ATOM     14  C   UNL A   1      40.949  27.538  28.424  1.00  0.00     0.049 A 
ATOM     15  N   UNL A   1      43.817  27.990  27.573  1.00  0.00    -0.248 NA
ATOM     16  C   UNL A   1      43.916  25.742  26.940  1.00  0.00     0.031 C 
ATOM     17  C   UNL A   1      39.531  27.372  28.733  1.00  0.00     0.029 A 
ATOM     18  N   UNL A   1      41.229  28.814  28.830  1.00  0.00    -0.354 N 
ATOM     19  C   UNL A   1      45.045  27.721  26.993  1.00  0.00     0.074 A 
ATOM     20  C   UNL A   1      45.077  26.314  26.667  1.00  0.00     0.031 C 
ATOM     21  C   UNL A   1      39.079  28.477  29.350  1.00  0.00     0.029 A 
ATOM     22  C   UNL A   1      40.173  29.434  29.449  1.00  0.00     0.049 A 
ATOM     23  H   UNL A   1      42.103  29.244  28.691  1.00  0.00     0.167 HD
ATOM     24  C   UNL A   1      46.033  28.597  26.711  1.00  0.00     0.037 A 
ATOM     25  C   UNL A   1      40.113  30.646  30.029  1.00  0.00     0.037 A 
ATOM     26  C   UNL A   1      45.988  29.980  27.094  1.00  0.00     0.049 A 
ATOM     27  C   UNL A   1      41.302  31.551  29.875  1.00  0.00     0.074 A 
ATOM     28  C   UNL A   1      46.931  30.968  26.887  1.00  0.00     0.029 A 
ATOM     29  N   UNL A   1      44.939  30.560  27.799  1.00  0.00    -0.354 N 
ATOM     30  N   UNL A   1      42.436  31.320  29.256  1.00  0.00    -0.248 NA
ATOM     31  C   UNL A   1      41.194  32.896  30.452  1.00  0.00     0.031 C 
ATOM     32  C   UNL A   1      46.475  32.132  27.516  1.00  0.00     0.029 A 
ATOM     33  C   UNL A   1      45.227  31.885  28.069  1.00  0.00     0.049 A 
ATOM     34  H   UNL A   1      44.113  30.096  28.066  1.00  0.00     0.167 HD
ATOM     35  C   UNL A   1      43.153  32.505  29.313  1.00  0.00     0.074 A 
ATOM     36  C   UNL A   1      42.328  33.449  30.044  1.00  0.00     0.031 C 
ATOM     37  C   UNL A   1      44.372  32.795  28.794  1.00  0.00     0.037 A 
BRANCH  24  38
ATOM     38  C   UNL A   1      47.216  28.058  25.972  1.00  0.00     0.064 A 
ATOM     39  C   UNL A   1      47.183  27.876  24.578  1.00  0.00     0.173 A 
ATOM     40  C   UNL A   1      48.372  27.671  26.659  1.00  0.00     0.173 A 
ATOM     41  F   UNL A   1      46.085  28.203  23.879  1.00  0.00    -0.203 F 
ATOM     42  C   UNL A   1      48.255  27.295  23.907  1.00  0.00     0.198 A 
ATOM     43  C   UNL A   1      49.453  27.113  25.980  1.00  0.00     0.198 A 
ATOM     44  F   UNL A   1      48.446  27.812  27.990  1.00  0.00    -0.203 F 
ATOM     45  F   UNL A   1      48.178  27.074  22.588  1.00  0.00    -0.200 F 
ATOM     46  C   UNL A   1      49.390  26.917  24.609  1.00  0.00     0.200 A 
ATOM     47  F   UNL A   1      50.549  26.746  26.658  1.00  0.00    -0.200 F 
ATOM     48  F   UNL A   1      50.418  26.347  23.963  1.00  0.00    -0.200 F 
ENDBRANCH  24  38
BRANCH  25  49
ATOM     49  C   UNL A   1      38.893  31.064  30.765  1.00  0.00     0.064 A 
ATOM     50  C   UNL A   1      38.747  30.834  32.139  1.00  0.00     0.173 A 
ATOM     51  C   UNL A   1      37.836  31.704  30.098  1.00  0.00     0.173 A 
ATOM     52  F   UNL A   1      39.725  30.221  32.822  1.00  0.00    -0.203 F 
ATOM     53  C   UNL A   1      37.583  31.202  32.813  1.00  0.00     0.198 A 
ATOM     54  C   UNL A   1      36.680  32.089  30.775  1.00  0.00     0.198 A 
ATOM     55  F   UNL A   1      37.931  31.964  28.785  1.00  0.00    -0.203 F 
ATOM     56  F   UNL A   1      37.455  30.937  34.119  1.00  0.00    -0.200 F 
ATOM     57  C   UNL A   1      36.550  31.830  32.130  1.00  0.00     0.200 A 
ATOM     58  F   UNL A   1      35.694  32.708  30.113  1.00  0.00    -0.200 F 
ATOM     59  F   UNL A   1      35.431  32.181  32.777  1.00  0.00    -0.200 F 
ENDBRANCH  25  49
BRANCH  37  60
ATOM     60  C   UNL A   1      44.860  34.200  28.960  1.00  0.00     0.064 A 
ATOM     61  C   UNL A   1      45.655  34.577  30.052  1.00  0.00     0.173 A 
ATOM     62  C   UNL A   1      44.575  35.164  27.982  1.00  0.00     0.173 A 
ATOM     63  F   UNL A   1      45.936  33.693  31.019  1.00  0.00    -0.203 F 
ATOM     64  C   UNL A   1      46.131  35.879  30.167  1.00  0.00     0.198 A 
ATOM     65  C   UNL A   1      45.081  36.456  28.085  1.00  0.00     0.198 A 
ATOM     66  F   UNL A   1      43.823  34.846  26.918  1.00  0.00    -0.203 F 
ATOM     67  F   UNL A   1      46.852  36.233  31.240  1.00  0.00    -0.200 F 
ATOM     68  C   UNL A   1      45.853  36.813  29.179  1.00  0.00     0.200 A 
ATOM     69  F   UNL A   1      44.823  37.352  27.122  1.00  0.00    -0.200 F 
ATOM     70  F   UNL A   1      46.326  38.063  29.285  1.00  0.00    -0.200 F 
ENDBRANCH  37  60
ENDBRANCH  11  12
ENDBRANCH   4   6
ENDBRANCH   3   4
ENDBRANCH   2   3
ENDBRANCH   1   2
BRANCH   1  71
ATOM     71  O   UNL A   1      35.974  22.782  24.996  1.00  0.00    -0.458 OA
BRANCH  71  72
ATOM     72  C   UNL A   1      35.578  23.428  23.855  1.00  0.00     0.342 C 
ATOM     73  O   UNL A   1      36.087  23.322  22.751  1.00  0.00    -0.246 OA
BRANCH  72  74
ATOM     74  C   UNL A   1      34.449  24.331  24.135  1.00  0.00     0.102 A 
ATOM     75  C   UNL A   1      34.676  25.393  25.020  1.00  0.00     0.021 A 
ATOM     76  C   UNL A   1      33.200  24.199  23.509  1.00  0.00     0.140 A 
ATOM     77  C   UNL A   1      33.654  26.299  25.276  1.00  0.00     0.021 A 
ATOM     78  N   UNL A   1      32.195  25.065  23.812  1.00  0.00    -0.239 NA
ATOM     79  C   UNL A   1      32.433  26.081  24.672  1.00  0.00     0.113 A 
BRANCH  76  80
ATOM     80  N   UNL A   1      32.930  23.244  22.538  1.00  0.00    -0.363 N 
ATOM     81  H   UNL A   1      33.211  23.389  21.606  1.00  0.00     0.162 HD
BRANCH  80  82
ATOM     82  C   UNL A   1      32.220  22.012  22.917  1.00  0.00     0.184 C 
BRANCH  82  83
ATOM     83  C   UNL A   1      32.846  21.297  24.163  1.00  0.00     0.234 C 
BRANCH  83  84
ATOM     84  N   UNL A   1      32.296  21.574  25.491  1.00  0.00    -0.323 N 
ATOM     85  C   UNL A   1      30.880  21.872  25.664  1.00  0.00     0.291 C 
ATOM     86  C   UNL A   1      33.084  21.775  26.683  1.00  0.00     0.291 C 
ATOM     87  H   UNL A   1      32.611  20.631  25.265  1.00  0.00     0.348 HD
ATOM     88  C   UNL A   1      30.667  23.213  26.395  1.00  0.00     0.221 C 
ATOM     89  C   UNL A   1      32.802  23.108  27.381  1.00  0.00     0.221 C 
ATOM     90  O   UNL A   1      31.403  23.285  27.626  1.00  0.00    -0.370 OA
ENDBRANCH  83  84
BRANCH  83  91
ATOM     91  C   UNL A   1      32.909  19.784  23.911  1.00  0.00     0.011 A 
ATOM     92  C   UNL A   1      33.788  18.953  24.626  1.00  0.00     0.010 A 
ATOM     93  C   UNL A   1      32.153  19.219  22.870  1.00  0.00     0.010 A 
ATOM     94  C   UNL A   1      33.993  17.628  24.236  1.00  0.00     0.001 A 
ATOM     95  C   UNL A   1      32.339  17.885  22.500  1.00  0.00     0.001 A 
ATOM     96  C   UNL A   1      33.278  17.100  23.165  1.00  0.00     0.000 A 
ENDBRANCH  83  91
ENDBRANCH  82  83
ENDBRANCH  80  82
ENDBRANCH  76  80
ENDBRANCH  72  74
ENDBRANCH  71  72
ENDBRANCH   1  71
TORSDOF 16
ENDMDL
MODEL 2
REMARK VINA RESULT:     -12.3      2.094      7.920
REMARK SMILES O=C(OCCOC(=O)c1cccnc1NC[C@H](c1ccccc1)[NH+]1CCOCC1)c1ccc(-c2c3nc(c(-c4c(F)c(F)c(F)c(F)c4F)c4ccc([nH]4)c(-c4c(F)c(F)c(F)c(F)c4F)c4nc(c(-c5c(F)c(F)c(F)c(F)c5F)c5ccc2[nH]5)C=C4)C=C3)cc1
REMARK SMILES IDX 5 1 4 2 3 3 2 4 1 5 30 6 31 7 92 8 32 9 91 10 33 11 34 12
REMARK SMILES IDX 35 13 85 14 36 15 90 16 84 17 86 18 37 19 89 20 83 21 82 22
REMARK SMILES IDX 38 24 70 25 50 26 69 27 51 28 54 29 68 30 87 31 52 32 53 33
REMARK SMILES IDX 67 35 88 36 55 37 39 38 40 39 48 40 41 41 42 42 46 43 49 44
REMARK SMILES IDX 43 45 44 46 47 47 45 48 71 49 72 50 80 51 73 52 74 53 78 54
REMARK SMILES IDX 81 55 75 56 76 57 79 58 77 59 56 60 57 61 65 62 58 63 59 64
REMARK SMILES IDX 63 65 66 66 60 67 61 68 64 69 62 70 6 71 7 72 8 73 9 74
REMARK SMILES IDX 10 75 14 76 11 77 13 78 12 79 15 80 16 82 17 83 24 84 25 85
REMARK SMILES IDX 29 86 26 88 28 89 27 90 18 91 19 92 23 93 20 94 22 95 21 96
REMARK H PARENT 86 23 54 34 15 81 24 87
REMARK Flexibility Score: inf
ROOT
ATOM      1  C   UNL A   1      38.877  21.657  26.137  1.00  0.00     0.275 C 
ENDROOT
BRANCH   1   2
ATOM      2  C   UNL A   1      39.475  20.286  25.745  1.00  0.00     0.275 C 
BRANCH   2   3
ATOM      3  O   UNL A   1      40.432  19.628  26.594  1.00  0.00    -0.458 OA
BRANCH   3   4
ATOM      4  C   UNL A   1      41.689  19.524  26.131  1.00  0.00     0.338 C 
ATOM      5  O   UNL A   1      42.208  18.488  25.759  1.00  0.00    -0.246 OA
BRANCH   4   6
ATOM      6  C   UNL A   1      42.420  20.797  26.339  1.00  0.00     0.060 A 
ATOM      7  C   UNL A   1      42.840  21.552  25.238  1.00  0.00     0.016 A 
ATOM      8  C   UNL A   1      42.475  21.345  27.624  1.00  0.00     0.016 A 
ATOM      9  C   UNL A   1      43.235  22.868  25.408  1.00  0.00     0.010 A 
ATOM     10  C   UNL A   1      42.846  22.673  27.797  1.00  0.00     0.010 A 
ATOM     11  C   UNL A   1      43.211  23.436  26.683  1.00  0.00    -0.014 A 
BRANCH  11  12
ATOM     12  C   UNL A   1      43.679  24.818  26.843  1.00  0.00     0.031 A 
ATOM     13  C   UNL A   1      42.678  25.849  27.234  1.00  0.00     0.074 A 
ATOM     14  C   UNL A   1      44.987  25.102  26.717  1.00  0.00     0.049 A 
ATOM     15  N   UNL A   1      42.875  27.091  27.576  1.00  0.00    -0.248 NA
ATOM     16  C   UNL A   1      41.272  25.414  27.294  1.00  0.00     0.031 C 
ATOM     17  C   UNL A   1      46.034  24.129  26.417  1.00  0.00     0.029 A 
ATOM     18  N   UNL A   1      45.658  26.289  26.823  1.00  0.00    -0.354 N 
ATOM     19  C   UNL A   1      41.633  27.562  27.965  1.00  0.00     0.074 A 
ATOM     20  C   UNL A   1      40.671  26.510  27.725  1.00  0.00     0.031 C 
ATOM     21  C   UNL A   1      47.210  24.768  26.288  1.00  0.00     0.029 A 
ATOM     22  C   UNL A   1      46.994  26.190  26.526  1.00  0.00     0.049 A 
ATOM     23  H   UNL A   1      45.224  27.132  27.085  1.00  0.00     0.167 HD
ATOM     24  C   UNL A   1      41.342  28.754  28.527  1.00  0.00     0.037 A 
ATOM     25  C   UNL A   1      47.930  27.153  26.458  1.00  0.00     0.037 A 
ATOM     26  C   UNL A   1      42.314  29.795  28.706  1.00  0.00     0.049 A 
ATOM     27  C   UNL A   1      47.542  28.534  26.906  1.00  0.00     0.074 A 
ATOM     28  C   UNL A   1      42.145  31.056  29.244  1.00  0.00     0.029 A 
ATOM     29  N   UNL A   1      43.645  29.695  28.315  1.00  0.00    -0.354 N 
ATOM     30  N   UNL A   1      46.381  28.958  27.350  1.00  0.00    -0.248 NA
ATOM     31  C   UNL A   1      48.593  29.558  26.894  1.00  0.00     0.031 C 
ATOM     32  C   UNL A   1      43.362  31.738  29.127  1.00  0.00     0.029 A 
ATOM     33  C   UNL A   1      44.302  30.885  28.565  1.00  0.00     0.049 A 
ATOM     34  H   UNL A   1      44.058  28.894  27.919  1.00  0.00     0.167 HD
ATOM     35  C   UNL A   1      46.574  30.277  27.727  1.00  0.00     0.074 A 
ATOM     36  C   UNL A   1      47.963  30.587  27.444  1.00  0.00     0.031 C 
ATOM     37  C   UNL A   1      45.691  31.149  28.275  1.00  0.00     0.037 A 
BRANCH  24  38
ATOM     38  C   UNL A   1      39.925  28.964  28.962  1.00  0.00     0.064 A 
ATOM     39  C   UNL A   1      39.513  28.662  30.271  1.00  0.00     0.173 A 
ATOM     40  C   UNL A   1      38.960  29.417  28.056  1.00  0.00     0.173 A 
ATOM     41  F   UNL A   1      40.396  28.195  31.167  1.00  0.00    -0.203 F 
ATOM     42  C   UNL A   1      38.178  28.779  30.645  1.00  0.00     0.198 A 
ATOM     43  C   UNL A   1      37.629  29.555  28.441  1.00  0.00     0.198 A 
ATOM     44  F   UNL A   1      39.302  29.704  26.791  1.00  0.00    -0.203 F 
ATOM     45  F   UNL A   1      37.796  28.426  31.880  1.00  0.00    -0.200 F 
ATOM     46  C   UNL A   1      37.237  29.228  29.730  1.00  0.00     0.200 A 
ATOM     47  F   UNL A   1      36.719  29.988  27.556  1.00  0.00    -0.200 F 
ATOM     48  F   UNL A   1      35.949  29.328  30.088  1.00  0.00    -0.200 F 
ENDBRANCH  24  38
BRANCH  25  49
ATOM     49  C   UNL A   1      49.300  26.834  25.982  1.00  0.00     0.064 A 
ATOM     50  C   UNL A   1      49.682  27.039  24.650  1.00  0.00     0.173 A 
ATOM     51  C   UNL A   1      50.261  26.308  26.860  1.00  0.00     0.173 A 
ATOM     52  F   UNL A   1      48.800  27.534  23.769  1.00  0.00    -0.203 F 
ATOM     53  C   UNL A   1      50.962  26.705  24.208  1.00  0.00     0.198 A 
ATOM     54  C   UNL A   1      51.545  25.991  26.422  1.00  0.00     0.198 A 
ATOM     55  F   UNL A   1      49.953  26.108  28.151  1.00  0.00    -0.203 F 
ATOM     56  F   UNL A   1      51.289  26.876  22.920  1.00  0.00    -0.200 F 
ATOM     57  C   UNL A   1      51.893  26.182  25.094  1.00  0.00     0.200 A 
ATOM     58  F   UNL A   1      52.444  25.502  27.286  1.00  0.00    -0.200 F 
ATOM     59  F   UNL A   1      53.121  25.858  24.668  1.00  0.00    -0.200 F 
ENDBRANCH  25  49
BRANCH  37  60
ATOM     60  C   UNL A   1      46.217  32.501  28.644  1.00  0.00     0.064 A 
ATOM     61  C   UNL A   1      46.736  32.765  29.919  1.00  0.00     0.173 A 
ATOM     62  C   UNL A   1      46.253  33.527  27.687  1.00  0.00     0.173 A 
ATOM     63  F   UNL A   1      46.703  31.820  30.869  1.00  0.00    -0.203 F 
ATOM     64  C   UNL A   1      47.256  34.017  30.229  1.00  0.00     0.198 A 
ATOM     65  C   UNL A   1      46.805  34.767  27.991  1.00  0.00     0.198 A 
ATOM     66  F   UNL A   1      45.773  33.318  26.453  1.00  0.00    -0.203 F 
ATOM     67  F   UNL A   1      47.707  34.264  31.466  1.00  0.00    -0.200 F 
ATOM     68  C   UNL A   1      47.300  35.013  29.263  1.00  0.00     0.200 A 
ATOM     69  F   UNL A   1      46.859  35.721  27.053  1.00  0.00    -0.200 F 
ATOM     70  F   UNL A   1      47.816  36.213  29.560  1.00  0.00    -0.200 F 
ENDBRANCH  37  60
ENDBRANCH  11  12
ENDBRANCH   4   6
ENDBRANCH   3   4
ENDBRANCH   2   3
ENDBRANCH   1   2
BRANCH   1  71
ATOM     71  O   UNL A   1      38.061  22.287  25.128  1.00  0.00    -0.458 OA
BRANCH  71  72
ATOM     72  C   UNL A   1      36.793  21.779  25.031  1.00  0.00     0.342 C 
ATOM     73  O   UNL A   1      36.489  20.669  24.625  1.00  0.00    -0.246 OA
BRANCH  72  74
ATOM     74  C   UNL A   1      35.799  22.781  25.450  1.00  0.00     0.102 A 
ATOM     75  C   UNL A   1      35.797  24.010  24.778  1.00  0.00     0.021 A 
ATOM     76  C   UNL A   1      34.834  22.524  26.437  1.00  0.00     0.140 A 
ATOM     77  C   UNL A   1      34.845  24.967  25.107  1.00  0.00     0.021 A 
ATOM     78  N   UNL A   1      33.943  23.492  26.782  1.00  0.00    -0.239 NA
ATOM     79  C   UNL A   1      33.961  24.674  26.125  1.00  0.00     0.113 A 
BRANCH  76  80
ATOM     80  N   UNL A   1      34.697  21.296  27.069  1.00  0.00    -0.363 N 
ATOM     81  H   UNL A   1      35.363  21.000  27.731  1.00  0.00     0.162 HD
BRANCH  80  82
ATOM     82  C   UNL A   1      33.546  20.440  26.740  1.00  0.00     0.184 C 
BRANCH  82  83
ATOM     83  C   UNL A   1      33.418  20.139  25.207  1.00  0.00     0.234 C 
BRANCH  83  84
ATOM     84  N   UNL A   1      32.940  18.823  24.780  1.00  0.00    -0.323 N 
ATOM     85  C   UNL A   1      32.528  17.827  25.759  1.00  0.00     0.291 C 
ATOM     86  C   UNL A   1      33.013  18.319  23.430  1.00  0.00     0.291 C 
ATOM     87  H   UNL A   1      32.369  19.648  24.598  1.00  0.00     0.348 HD
ATOM     88  C   UNL A   1      33.292  16.499  25.575  1.00  0.00     0.221 C 
ATOM     89  C   UNL A   1      33.753  16.984  23.318  1.00  0.00     0.221 C 
ATOM     90  O   UNL A   1      33.221  16.013  24.226  1.00  0.00    -0.370 OA
ENDBRANCH  83  84
BRANCH  83  91
ATOM     91  C   UNL A   1      32.609  21.254  24.529  1.00  0.00     0.011 A 
ATOM     92  C   UNL A   1      33.006  21.811  23.302  1.00  0.00     0.010 A 
ATOM     93  C   UNL A   1      31.503  21.812  25.189  1.00  0.00     0.010 A 
ATOM     94  C   UNL A   1      32.392  22.964  22.810  1.00  0.00     0.001 A 
ATOM     95  C   UNL A   1      30.871  22.949  24.681  1.00  0.00     0.001 A 
ATOM     96  C   UNL A   1      31.334  23.539  23.507  1.00  0.00     0.000 A 
ENDBRANCH  83  91
ENDBRANCH  82  83
ENDBRANCH  80  82
ENDBRANCH  76  80
ENDBRANCH  72  74
ENDBRANCH  71  72
ENDBRANCH   1  71
TORSDOF 16
ENDMDL
MODEL 3
REMARK VINA RESULT:     -12.3      1.734      3.239
REMARK SMILES O=C(OCCOC(=O)c1cccnc1NC[C@H](c1ccccc1)[NH+]1CCOCC1)c1ccc(-c2c3nc(c(-c4c(F)c(F)c(F)c(F)c4F)c4ccc([nH]4)c(-c4c(F)c(F)c(F)c(F)c4F)c4nc(c(-c5c(F)c(F)c(F)c(F)c5F)c5ccc2[nH]5)C=C4)C=C3)cc1
REMARK SMILES IDX 5 1 4 2 3 3 2 4 1 5 30 6 31 7 92 8 32 9 91 10 33 11 34 12
REMARK SMILES IDX 35 13 85 14 36 15 90 16 84 17 86 18 37 19 89 20 83 21 82 22
REMARK SMILES IDX 38 24 70 25 50 26 69 27 51 28 54 29 68 30 87 31 52 32 53 33
REMARK SMILES IDX 67 35 88 36 55 37 39 38 40 39 48 40 41 41 42 42 46 43 49 44
REMARK SMILES IDX 43 45 44 46 47 47 45 48 71 49 72 50 80 51 73 52 74 53 78 54
REMARK SMILES IDX 81 55 75 56 76 57 79 58 77 59 56 60 57 61 65 62 58 63 59 64
REMARK SMILES IDX 63 65 66 66 60 67 61 68 64 69 62 70 6 71 7 72 8 73 9 74
REMARK SMILES IDX 10 75 14 76 11 77 13 78 12 79 15 80 16 82 17 83 24 84 25 85
REMARK SMILES IDX 29 86 26 88 28 89 27 90 18 91 19 92 23 93 20 94 22 95 21 96
REMARK H PARENT 86 23 54 34 15 81 24 87
REMARK Flexibility Score: inf
ROOT
ATOM      1  C   UNL A   1      38.872  21.815  26.086  1.00  0.00     0.275 C 
ENDROOT
BRANCH   1   2
ATOM      2  C   UNL A   1      39.407  20.403  25.753  1.00  0.00     0.275 C 
BRANCH   2   3
ATOM      3  O   UNL A   1      40.414  19.783  26.571  1.00  0.00    -0.458 OA
BRANCH   3   4
ATOM      4  C   UNL A   1      41.680  19.833  26.125  1.00  0.00     0.338 C 
ATOM      5  O   UNL A   1      42.288  18.891  25.652  1.00  0.00    -0.246 OA
BRANCH   4   6
ATOM      6  C   UNL A   1      42.300  21.132  26.486  1.00  0.00     0.060 A 
ATOM      7  C   UNL A   1      42.542  22.091  25.495  1.00  0.00     0.016 A 
ATOM      8  C   UNL A   1      42.420  21.474  27.835  1.00  0.00     0.016 A 
ATOM      9  C   UNL A   1      42.822  23.400  25.851  1.00  0.00     0.010 A 
ATOM     10  C   UNL A   1      42.674  22.791  28.197  1.00  0.00     0.010 A 
ATOM     11  C   UNL A   1      42.860  23.755  27.201  1.00  0.00    -0.014 A 
BRANCH  11  12
ATOM     12  C   UNL A   1      43.204  25.139  27.551  1.00  0.00     0.031 A 
ATOM     13  C   UNL A   1      44.603  25.588  27.310  1.00  0.00     0.074 A 
ATOM     14  C   UNL A   1      42.250  25.975  27.993  1.00  0.00     0.049 A 
ATOM     15  N   UNL A   1      45.102  26.789  27.397  1.00  0.00    -0.248 NA
ATOM     16  C   UNL A   1      45.559  24.560  26.865  1.00  0.00     0.031 C 
ATOM     17  C   UNL A   1      40.843  25.626  28.175  1.00  0.00     0.029 A 
ATOM     18  N   UNL A   1      42.318  27.287  28.373  1.00  0.00    -0.354 N 
ATOM     19  C   UNL A   1      46.406  26.674  26.946  1.00  0.00     0.074 A 
ATOM     20  C   UNL A   1      46.655  25.276  26.679  1.00  0.00     0.031 C 
ATOM     21  C   UNL A   1      40.190  26.676  28.703  1.00  0.00     0.029 A 
ATOM     22  C   UNL A   1      41.133  27.775  28.867  1.00  0.00     0.049 A 
ATOM     23  H   UNL A   1      43.136  27.828  28.301  1.00  0.00     0.167 HD
ATOM     24  C   UNL A   1      47.291  27.669  26.723  1.00  0.00     0.037 A 
ATOM     25  C   UNL A   1      40.857  28.982  29.390  1.00  0.00     0.037 A 
ATOM     26  C   UNL A   1      47.027  29.042  27.046  1.00  0.00     0.049 A 
ATOM     27  C   UNL A   1      41.925  30.036  29.313  1.00  0.00     0.074 A 
ATOM     28  C   UNL A   1      47.846  30.143  26.888  1.00  0.00     0.029 A 
ATOM     29  N   UNL A   1      45.847  29.493  27.626  1.00  0.00    -0.354 N 
ATOM     30  N   UNL A   1      43.135  29.945  28.812  1.00  0.00    -0.248 NA
ATOM     31  C   UNL A   1      41.584  31.369  29.824  1.00  0.00     0.031 C 
ATOM     32  C   UNL A   1      47.181  31.251  27.426  1.00  0.00     0.029 A 
ATOM     33  C   UNL A   1      45.928  30.852  27.869  1.00  0.00     0.049 A 
ATOM     34  H   UNL A   1      45.067  28.928  27.832  1.00  0.00     0.167 HD
ATOM     35  C   UNL A   1      43.679  31.217  28.889  1.00  0.00     0.074 A 
ATOM     36  C   UNL A   1      42.669  32.059  29.502  1.00  0.00     0.031 C 
ATOM     37  C   UNL A   1      44.894  31.656  28.475  1.00  0.00     0.037 A 
BRANCH  24  38
ATOM     38  C   UNL A   1      48.603  27.276  26.119  1.00  0.00     0.064 A 
ATOM     39  C   UNL A   1      48.780  27.238  24.725  1.00  0.00     0.173 A 
ATOM     40  C   UNL A   1      49.674  26.884  26.929  1.00  0.00     0.173 A 
ATOM     41  F   UNL A   1      47.772  27.574  23.905  1.00  0.00    -0.203 F 
ATOM     42  C   UNL A   1      49.974  26.790  24.168  1.00  0.00     0.198 A 
ATOM     43  C   UNL A   1      50.876  26.460  26.368  1.00  0.00     0.198 A 
ATOM     44  F   UNL A   1      49.549  26.890  28.265  1.00  0.00    -0.203 F 
ATOM     45  F   UNL A   1      50.100  26.702  22.837  1.00  0.00    -0.200 F 
ATOM     46  C   UNL A   1      51.022  26.405  24.990  1.00  0.00     0.200 A 
ATOM     47  F   UNL A   1      51.889  26.086  27.163  1.00  0.00    -0.200 F 
ATOM     48  F   UNL A   1      52.168  25.963  24.453  1.00  0.00    -0.200 F 
ENDBRANCH  24  38
BRANCH  25  49
ATOM     49  C   UNL A   1      39.526  29.251  29.992  1.00  0.00     0.064 A 
ATOM     50  C   UNL A   1      38.473  29.789  29.241  1.00  0.00     0.173 A 
ATOM     51  C   UNL A   1      39.283  28.975  31.347  1.00  0.00     0.173 A 
ATOM     52  F   UNL A   1      38.655  30.075  27.944  1.00  0.00    -0.203 F 
ATOM     53  C   UNL A   1      37.238  30.066  29.827  1.00  0.00     0.198 A 
ATOM     54  C   UNL A   1      38.043  29.235  31.928  1.00  0.00     0.198 A 
ATOM     55  F   UNL A   1      40.252  28.442  32.109  1.00  0.00    -0.203 F 
ATOM     56  F   UNL A   1      36.260  30.616  29.094  1.00  0.00    -0.200 F 
ATOM     57  C   UNL A   1      37.024  29.789  31.169  1.00  0.00     0.200 A 
ATOM     58  F   UNL A   1      37.837  28.950  33.221  1.00  0.00    -0.200 F 
ATOM     59  F   UNL A   1      35.838  30.059  31.732  1.00  0.00    -0.200 F 
ENDBRANCH  25  49
BRANCH  37  60
ATOM     60  C   UNL A   1      45.174  33.118  28.631  1.00  0.00     0.064 A 
ATOM     61  C   UNL A   1      44.776  34.050  27.662  1.00  0.00     0.173 A 
ATOM     62  C   UNL A   1      45.797  33.594  29.794  1.00  0.00     0.173 A 
ATOM     63  F   UNL A   1      44.195  33.636  26.527  1.00  0.00    -0.203 F 
ATOM     64  C   UNL A   1      45.011  35.408  27.845  1.00  0.00     0.198 A 
ATOM     65  C   UNL A   1      45.999  34.957  29.988  1.00  0.00     0.198 A 
ATOM     66  F   UNL A   1      46.189  32.740  30.750  1.00  0.00    -0.203 F 
ATOM     67  F   UNL A   1      44.664  36.280  26.888  1.00  0.00    -0.200 F 
ATOM     68  C   UNL A   1      45.611  35.862  29.011  1.00  0.00     0.200 A 
ATOM     69  F   UNL A   1      46.566  35.393  31.121  1.00  0.00    -0.200 F 
ATOM     70  F   UNL A   1      45.822  37.173  29.191  1.00  0.00    -0.200 F 
ENDBRANCH  37  60
ENDBRANCH  11  12
ENDBRANCH   4   6
ENDBRANCH   3   4
ENDBRANCH   2   3
ENDBRANCH   1   2
BRANCH   1  71
ATOM     71  O   UNL A   1      38.021  22.407  25.081  1.00  0.00    -0.458 OA
BRANCH  71  72
ATOM     72  C   UNL A   1      36.767  21.862  25.013  1.00  0.00     0.342 C 
ATOM     73  O   UNL A   1      36.487  20.739  24.626  1.00  0.00    -0.246 OA
BRANCH  72  74
ATOM     74  C   UNL A   1      35.752  22.841  25.439  1.00  0.00     0.102 A 
ATOM     75  C   UNL A   1      35.727  24.074  24.775  1.00  0.00     0.021 A 
ATOM     76  C   UNL A   1      34.791  22.558  26.422  1.00  0.00     0.140 A 
ATOM     77  C   UNL A   1      34.756  25.010  25.110  1.00  0.00     0.021 A 
ATOM     78  N   UNL A   1      33.881  23.505  26.772  1.00  0.00    -0.239 NA
ATOM     79  C   UNL A   1      33.877  24.692  26.124  1.00  0.00     0.113 A 
BRANCH  76  80
ATOM     80  N   UNL A   1      34.678  21.322  27.045  1.00  0.00    -0.363 N 
ATOM     81  H   UNL A   1      35.357  21.029  27.695  1.00  0.00     0.162 HD
BRANCH  80  82
ATOM     82  C   UNL A   1      33.532  20.456  26.724  1.00  0.00     0.184 C 
BRANCH  82  83
ATOM     83  C   UNL A   1      33.398  20.152  25.193  1.00  0.00     0.234 C 
BRANCH  83  84
ATOM     84  N   UNL A   1      32.934  18.829  24.769  1.00  0.00    -0.323 N 
ATOM     85  C   UNL A   1      32.528  17.834  25.752  1.00  0.00     0.291 C 
ATOM     86  C   UNL A   1      33.017  18.320  23.422  1.00  0.00     0.291 C 
ATOM     87  H   UNL A   1      32.356  19.648  24.581  1.00  0.00     0.348 HD
ATOM     88  C   UNL A   1      33.306  16.513  25.577  1.00  0.00     0.221 C 
ATOM     89  C   UNL A   1      33.771  16.992  23.319  1.00  0.00     0.221 C 
ATOM     90  O   UNL A   1      33.245  16.020  24.230  1.00  0.00    -0.370 OA
ENDBRANCH  83  84
BRANCH  83  91
ATOM     91  C   UNL A   1      32.569  21.255  24.519  1.00  0.00     0.011 A 
ATOM     92  C   UNL A   1      32.931  21.794  23.274  1.00  0.00     0.010 A 
ATOM     93  C   UNL A   1      31.479  21.821  25.201  1.00  0.00     0.010 A 
ATOM     94  C   UNL A   1      32.302  22.939  22.782  1.00  0.00     0.001 A 
ATOM     95  C   UNL A   1      30.832  22.949  24.693  1.00  0.00     0.001 A 
ATOM     96  C   UNL A   1      31.262  23.523  23.498  1.00  0.00     0.000 A 
ENDBRANCH  83  91
ENDBRANCH  82  83
ENDBRANCH  80  82
ENDBRANCH  76  80
ENDBRANCH  72  74
ENDBRANCH  71  72
ENDBRANCH   1  71
TORSDOF 16
ENDMDL
