MODEL 1
REMARK VINA RESULT:     -11.9      0.000      0.000
REMARK SMILES Cc1csc(NC(=O)[C@@H]2CC=CC[C@H]2C(=O)OCCOC(=O)c2ccc(-c3c4nc(c(-c5c(F)c(F)c(F)c(F)c5F)c5ccc([nH]5)c(-c5c(F)c(F)c(F)c(F)c5F)c5nc(c(-c6c(F)c(F)c(F)c(F)c6F)c6ccc3[nH]6)C=C5)C=C4)cc2)n1
REMARK SMILES IDX 18 1 17 2 15 3 16 4 14 5 9 6 10 7 11 8 13 9 12 10 7 11 6 12
REMARK SMILES IDX 8 14 5 15 1 16 2 17 3 18 86 19 4 20 19 21 20 22 21 23 22 24
REMARK SMILES IDX 23 25 24 26 85 27 25 28 84 29 26 30 27 31 28 32 78 33 29 34
REMARK SMILES IDX 83 35 77 36 79 37 30 38 82 39 76 40 75 41 31 43 63 44 43 45
REMARK SMILES IDX 62 46 44 47 47 48 61 49 80 50 45 51 46 52 60 54 81 55 48 56
REMARK SMILES IDX 32 57 33 58 41 59 34 60 35 61 39 62 42 63 36 64 37 65 40 66
REMARK SMILES IDX 38 67 64 68 65 69 73 70 66 71 67 72 71 73 74 74 68 75 69 76
REMARK SMILES IDX 72 77 70 78 49 79 50 80 58 81 51 82 52 83 56 84 59 85 53 86
REMARK SMILES IDX 54 87 57 88 55 89
REMARK H PARENT 6 13 79 42 47 53
REMARK Flexibility Score: inf
ROOT
ATOM      1  C   UNL A   1      31.882  29.392  26.948  1.00  0.00     0.274 C 
ENDROOT
BRANCH   1   2
ATOM      2  O   UNL A   1      32.199  28.569  25.808  1.00  0.00    -0.462 OA
BRANCH   2   3
ATOM      3  C   UNL A   1      31.502  27.417  25.703  1.00  0.00     0.310 C 
ATOM      4  O   UNL A   1      30.905  26.879  26.633  1.00  0.00    -0.252 OA
BRANCH   3   5
ATOM      5  C   UNL A   1      31.647  26.709  24.369  1.00  0.00     0.116 C 
ATOM      6  C   UNL A   1      30.828  27.197  23.149  1.00  0.00     0.097 C 
ATOM      7  C   UNL A   1      31.245  26.371  21.931  1.00  0.00     0.041 C 
ATOM      8  C   UNL A   1      32.723  26.266  21.716  1.00  0.00    -0.030 C 
ATOM      9  C   UNL A   1      33.172  26.745  24.109  1.00  0.00     0.043 C 
ATOM     10  C   UNL A   1      33.597  26.428  22.713  1.00  0.00    -0.030 C 
BRANCH   6  11
ATOM     11  C   UNL A   1      29.319  27.300  23.460  1.00  0.00     0.230 C 
ATOM     12  N   UNL A   1      28.403  28.168  22.969  1.00  0.00    -0.302 N 
ATOM     13  H   UNL A   1      27.488  27.809  22.934  1.00  0.00     0.172 HD
ATOM     14  O   UNL A   1      28.829  26.414  24.178  1.00  0.00    -0.274 OA
BRANCH  12  15
ATOM     15  C   UNL A   1      28.518  29.447  22.513  1.00  0.00     0.189 A 
ATOM     16  C   UNL A   1      28.017  32.091  20.143  1.00  0.00     0.068 C 
ATOM     17  C   UNL A   1      28.459  31.318  21.331  1.00  0.00     0.051 A 
ATOM     18  C   UNL A   1      29.153  31.778  22.433  1.00  0.00     0.092 A 
ATOM     19  N   UNL A   1      28.144  29.972  21.381  1.00  0.00    -0.225 NA
ATOM     20  S   UNL A   1      29.370  30.497  23.560  1.00  0.00    -0.105 S 
ENDBRANCH  12  15
ENDBRANCH   6  11
ENDBRANCH   3   5
ENDBRANCH   2   3
ENDBRANCH   1   2
BRANCH   1  21
ATOM     21  C   UNL A   1      31.844  30.889  26.623  1.00  0.00     0.275 C 
BRANCH  21  22
ATOM     22  O   UNL A   1      33.172  31.414  26.447  1.00  0.00    -0.458 OA
BRANCH  22  23
ATOM     23  C   UNL A   1      33.617  32.235  27.419  1.00  0.00     0.338 C 
ATOM     24  O   UNL A   1      33.102  33.257  27.849  1.00  0.00    -0.246 OA
BRANCH  23  25
ATOM     25  C   UNL A   1      34.892  31.739  27.946  1.00  0.00     0.060 A 
ATOM     26  C   UNL A   1      34.980  30.426  28.416  1.00  0.00     0.016 A 
ATOM     27  C   UNL A   1      35.946  32.634  28.126  1.00  0.00     0.016 A 
ATOM     28  C   UNL A   1      36.124  30.004  29.087  1.00  0.00     0.010 A 
ATOM     29  C   UNL A   1      37.097  32.208  28.786  1.00  0.00     0.010 A 
ATOM     30  C   UNL A   1      37.182  30.898  29.291  1.00  0.00    -0.014 A 
BRANCH  30  31
ATOM     31  C   UNL A   1      38.362  30.490  30.086  1.00  0.00     0.031 A 
ATOM     32  C   UNL A   1      39.357  29.532  29.501  1.00  0.00     0.074 A 
ATOM     33  C   UNL A   1      38.527  30.974  31.329  1.00  0.00     0.049 A 
ATOM     34  N   UNL A   1      40.376  28.943  30.073  1.00  0.00    -0.248 NA
ATOM     35  C   UNL A   1      39.179  29.186  28.082  1.00  0.00     0.031 C 
ATOM     36  C   UNL A   1      37.649  31.946  31.977  1.00  0.00     0.029 A 
ATOM     37  N   UNL A   1      39.485  30.702  32.271  1.00  0.00    -0.354 N 
ATOM     38  C   UNL A   1      40.943  28.137  29.095  1.00  0.00     0.074 A 
ATOM     39  C   UNL A   1      40.153  28.307  27.893  1.00  0.00     0.031 C 
ATOM     40  C   UNL A   1      38.105  32.187  33.217  1.00  0.00     0.029 A 
ATOM     41  C   UNL A   1      39.274  31.348  33.463  1.00  0.00     0.049 A 
ATOM     42  H   UNL A   1      40.249  30.103  32.109  1.00  0.00     0.167 HD
ATOM     43  C   UNL A   1      42.023  27.326  29.199  1.00  0.00     0.037 A 
ATOM     44  C   UNL A   1      39.930  31.242  34.634  1.00  0.00     0.037 A 
ATOM     45  C   UNL A   1      42.809  27.177  30.395  1.00  0.00     0.049 A 
ATOM     46  C   UNL A   1      41.094  30.298  34.737  1.00  0.00     0.074 A 
ATOM     47  C   UNL A   1      43.931  26.395  30.601  1.00  0.00     0.029 A 
ATOM     48  N   UNL A   1      42.552  27.830  31.592  1.00  0.00    -0.354 N 
ATOM     49  N   UNL A   1      41.615  29.524  33.817  1.00  0.00    -0.248 NA
ATOM     50  C   UNL A   1      41.755  30.203  36.046  1.00  0.00     0.031 C 
ATOM     51  C   UNL A   1      44.333  26.548  31.933  1.00  0.00     0.029 A 
ATOM     52  C   UNL A   1      43.483  27.455  32.546  1.00  0.00     0.049 A 
ATOM     53  H   UNL A   1      41.815  28.467  31.742  1.00  0.00     0.167 HD
ATOM     54  C   UNL A   1      42.669  28.861  34.426  1.00  0.00     0.074 A 
ATOM     55  C   UNL A   1      42.724  29.335  35.795  1.00  0.00     0.031 C 
ATOM     56  C   UNL A   1      43.515  27.940  33.902  1.00  0.00     0.037 A 
BRANCH  43  57
ATOM     57  C   UNL A   1      42.395  26.512  27.996  1.00  0.00     0.064 A 
ATOM     58  C   UNL A   1      41.844  25.243  27.765  1.00  0.00     0.173 A 
ATOM     59  C   UNL A   1      43.293  27.023  27.047  1.00  0.00     0.173 A 
ATOM     60  F   UNL A   1      40.993  24.704  28.651  1.00  0.00    -0.203 F 
ATOM     61  C   UNL A   1      42.193  24.507  26.634  1.00  0.00     0.198 A 
ATOM     62  C   UNL A   1      43.622  26.294  25.908  1.00  0.00     0.198 A 
ATOM     63  F   UNL A   1      43.846  28.231  27.222  1.00  0.00    -0.203 F 
ATOM     64  F   UNL A   1      41.684  23.282  26.451  1.00  0.00    -0.200 F 
ATOM     65  C   UNL A   1      43.077  25.035  25.704  1.00  0.00     0.200 A 
ATOM     66  F   UNL A   1      44.470  26.809  25.006  1.00  0.00    -0.200 F 
ATOM     67  F   UNL A   1      43.408  24.328  24.615  1.00  0.00    -0.200 F 
ENDBRANCH  43  57
BRANCH  44  68
ATOM     68  C   UNL A   1      39.477  32.039  35.801  1.00  0.00     0.064 A 
ATOM     69  C   UNL A   1      38.426  31.594  36.612  1.00  0.00     0.173 A 
ATOM     70  C   UNL A   1      40.100  33.248  36.141  1.00  0.00     0.173 A 
ATOM     71  F   UNL A   1      37.784  30.455  36.311  1.00  0.00    -0.203 F 
ATOM     72  C   UNL A   1      38.012  32.330  37.720  1.00  0.00     0.198 A 
ATOM     73  C   UNL A   1      39.703  33.972  37.262  1.00  0.00     0.198 A 
ATOM     74  F   UNL A   1      41.111  33.716  35.393  1.00  0.00    -0.203 F 
ATOM     75  F   UNL A   1      36.985  31.899  38.464  1.00  0.00    -0.200 F 
ATOM     76  C   UNL A   1      38.657  33.515  38.049  1.00  0.00     0.200 A 
ATOM     77  F   UNL A   1      40.336  35.109  37.583  1.00  0.00    -0.200 F 
ATOM     78  F   UNL A   1      38.265  34.217  39.121  1.00  0.00    -0.200 F 
ENDBRANCH  44  68
BRANCH  56  79
ATOM     79  C   UNL A   1      44.582  27.406  34.809  1.00  0.00     0.064 A 
ATOM     80  C   UNL A   1      44.386  26.240  35.561  1.00  0.00     0.173 A 
ATOM     81  C   UNL A   1      45.824  28.052  34.901  1.00  0.00     0.173 A 
ATOM     82  F   UNL A   1      43.209  25.599  35.516  1.00  0.00    -0.203 F 
ATOM     83  C   UNL A   1      45.389  25.751  36.393  1.00  0.00     0.198 A 
ATOM     84  C   UNL A   1      46.832  27.547  35.716  1.00  0.00     0.198 A 
ATOM     85  F   UNL A   1      46.059  29.169  34.197  1.00  0.00    -0.203 F 
ATOM     86  F   UNL A   1      45.168  24.657  37.136  1.00  0.00    -0.200 F 
ATOM     87  C   UNL A   1      46.613  26.401  36.466  1.00  0.00     0.200 A 
ATOM     88  F   UNL A   1      48.016  28.171  35.780  1.00  0.00    -0.200 F 
ATOM     89  F   UNL A   1      47.578  25.927  37.266  1.00  0.00    -0.200 F 
ENDBRANCH  56  79
ENDBRANCH  30  31
ENDBRANCH  23  25
ENDBRANCH  22  23
ENDBRANCH  21  22
ENDBRANCH   1  21
TORSDOF 13
ENDMDL
MODEL 2
REMARK VINA RESULT:     -11.9      4.959      9.973
REMARK SMILES Cc1csc(NC(=O)[C@@H]2CC=CC[C@H]2C(=O)OCCOC(=O)c2ccc(-c3c4nc(c(-c5c(F)c(F)c(F)c(F)c5F)c5ccc([nH]5)c(-c5c(F)c(F)c(F)c(F)c5F)c5nc(c(-c6c(F)c(F)c(F)c(F)c6F)c6ccc3[nH]6)C=C5)C=C4)cc2)n1
REMARK SMILES IDX 18 1 17 2 15 3 16 4 14 5 9 6 10 7 11 8 13 9 12 10 7 11 6 12
REMARK SMILES IDX 8 14 5 15 1 16 2 17 3 18 86 19 4 20 19 21 20 22 21 23 22 24
REMARK SMILES IDX 23 25 24 26 85 27 25 28 84 29 26 30 27 31 28 32 78 33 29 34
REMARK SMILES IDX 83 35 77 36 79 37 30 38 82 39 76 40 75 41 31 43 63 44 43 45
REMARK SMILES IDX 62 46 44 47 47 48 61 49 80 50 45 51 46 52 60 54 81 55 48 56
REMARK SMILES IDX 32 57 33 58 41 59 34 60 35 61 39 62 42 63 36 64 37 65 40 66
REMARK SMILES IDX 38 67 64 68 65 69 73 70 66 71 67 72 71 73 74 74 68 75 69 76
REMARK SMILES IDX 72 77 70 78 49 79 50 80 58 81 51 82 52 83 56 84 59 85 53 86
REMARK SMILES IDX 54 87 57 88 55 89
REMARK H PARENT 6 13 79 42 47 53
REMARK Flexibility Score: inf
ROOT
ATOM      1  C   UNL A   1      35.876  20.691  24.971  1.00  0.00     0.274 C 
ENDROOT
BRANCH   1   2
ATOM      2  O   UNL A   1      35.521  21.976  25.520  1.00  0.00    -0.462 OA
BRANCH   2   3
ATOM      3  C   UNL A   1      34.963  22.850  24.653  1.00  0.00     0.310 C 
ATOM      4  O   UNL A   1      35.562  23.381  23.720  1.00  0.00    -0.252 OA
BRANCH   3   5
ATOM      5  C   UNL A   1      33.556  23.286  25.014  1.00  0.00     0.116 C 
ATOM      6  C   UNL A   1      32.344  22.614  24.324  1.00  0.00     0.097 C 
ATOM      7  C   UNL A   1      31.066  23.177  24.947  1.00  0.00     0.041 C 
ATOM      8  C   UNL A   1      31.039  23.175  26.443  1.00  0.00    -0.030 C 
ATOM      9  C   UNL A   1      33.518  23.136  26.553  1.00  0.00     0.043 C 
ATOM     10  C   UNL A   1      32.159  23.166  27.171  1.00  0.00    -0.030 C 
BRANCH   6  11
ATOM     11  C   UNL A   1      32.459  22.637  22.784  1.00  0.00     0.230 C 
ATOM     12  N   UNL A   1      32.864  23.641  21.973  1.00  0.00    -0.302 N 
ATOM     13  H   UNL A   1      33.277  23.338  21.133  1.00  0.00     0.172 HD
ATOM     14  O   UNL A   1      32.254  21.567  22.187  1.00  0.00    -0.274 OA
BRANCH  12  15
ATOM     15  C   UNL A   1      32.806  24.996  22.107  1.00  0.00     0.189 A 
ATOM     16  C   UNL A   1      34.201  28.299  22.194  1.00  0.00     0.068 C 
ATOM     17  C   UNL A   1      33.253  27.158  22.273  1.00  0.00     0.051 A 
ATOM     18  C   UNL A   1      31.890  27.201  22.489  1.00  0.00     0.092 A 
ATOM     19  N   UNL A   1      33.760  25.883  22.099  1.00  0.00    -0.225 NA
ATOM     20  S   UNL A   1      31.242  25.609  22.431  1.00  0.00    -0.105 S 
ENDBRANCH  12  15
ENDBRANCH   6  11
ENDBRANCH   3   5
ENDBRANCH   2   3
ENDBRANCH   1   2
BRANCH   1  21
ATOM     21  C   UNL A   1      37.383  20.417  24.998  1.00  0.00     0.275 C 
BRANCH  21  22
ATOM     22  O   UNL A   1      38.113  21.579  25.429  1.00  0.00    -0.458 OA
BRANCH  22  23
ATOM     23  C   UNL A   1      39.239  21.344  26.132  1.00  0.00     0.338 C 
ATOM     24  O   UNL A   1      39.805  20.278  26.332  1.00  0.00    -0.246 OA
BRANCH  23  25
ATOM     25  C   UNL A   1      39.756  22.600  26.682  1.00  0.00     0.060 A 
ATOM     26  C   UNL A   1      39.312  23.817  26.159  1.00  0.00     0.016 A 
ATOM     27  C   UNL A   1      40.804  22.558  27.602  1.00  0.00     0.016 A 
ATOM     28  C   UNL A   1      39.930  25.004  26.542  1.00  0.00     0.010 A 
ATOM     29  C   UNL A   1      41.414  23.748  27.995  1.00  0.00     0.010 A 
ATOM     30  C   UNL A   1      40.996  24.974  27.449  1.00  0.00    -0.014 A 
BRANCH  30  31
ATOM     31  C   UNL A   1      41.722  26.218  27.789  1.00  0.00     0.031 A 
ATOM     32  C   UNL A   1      41.035  27.283  28.592  1.00  0.00     0.074 A 
ATOM     33  C   UNL A   1      42.986  26.387  27.368  1.00  0.00     0.049 A 
ATOM     34  N   UNL A   1      41.439  28.494  28.879  1.00  0.00    -0.248 NA
ATOM     35  C   UNL A   1      39.715  26.941  29.144  1.00  0.00     0.031 C 
ATOM     36  C   UNL A   1      43.765  25.398  26.624  1.00  0.00     0.029 A 
ATOM     37  N   UNL A   1      43.834  27.458  27.496  1.00  0.00    -0.354 N 
ATOM     38  C   UNL A   1      40.414  29.068  29.618  1.00  0.00     0.074 A 
ATOM     39  C   UNL A   1      39.366  28.075  29.734  1.00  0.00     0.031 C 
ATOM     40  C   UNL A   1      44.977  25.911  26.354  1.00  0.00     0.029 A 
ATOM     41  C   UNL A   1      45.037  27.278  26.862  1.00  0.00     0.049 A 
ATOM     42  H   UNL A   1      43.601  28.275  27.994  1.00  0.00     0.167 HD
ATOM     43  C   UNL A   1      40.355  30.314  30.146  1.00  0.00     0.037 A 
ATOM     44  C   UNL A   1      46.057  28.138  26.680  1.00  0.00     0.037 A 
ATOM     45  C   UNL A   1      41.410  31.287  30.037  1.00  0.00     0.049 A 
ATOM     46  C   UNL A   1      45.947  29.530  27.232  1.00  0.00     0.074 A 
ATOM     47  C   UNL A   1      41.459  32.571  30.549  1.00  0.00     0.029 A 
ATOM     48  N   UNL A   1      42.607  31.078  29.367  1.00  0.00    -0.354 N 
ATOM     49  N   UNL A   1      44.969  30.075  27.914  1.00  0.00    -0.248 NA
ATOM     50  C   UNL A   1      47.079  30.433  26.981  1.00  0.00     0.031 C 
ATOM     51  C   UNL A   1      42.671  33.152  30.159  1.00  0.00     0.029 A 
ATOM     52  C   UNL A   1      43.394  32.216  29.436  1.00  0.00     0.049 A 
ATOM     53  H   UNL A   1      42.861  30.244  28.909  1.00  0.00     0.167 HD
ATOM     54  C   UNL A   1      45.368  31.375  28.185  1.00  0.00     0.074 A 
ATOM     55  C   UNL A   1      46.687  31.535  27.605  1.00  0.00     0.031 C 
ATOM     56  C   UNL A   1      44.702  32.351  28.850  1.00  0.00     0.037 A 
BRANCH  43  57
ATOM     57  C   UNL A   1      39.096  30.706  30.859  1.00  0.00     0.064 A 
ATOM     58  C   UNL A   1      38.002  31.257  30.175  1.00  0.00     0.173 A 
ATOM     59  C   UNL A   1      38.972  30.500  32.241  1.00  0.00     0.173 A 
ATOM     60  F   UNL A   1      38.077  31.488  28.856  1.00  0.00    -0.203 F 
ATOM     61  C   UNL A   1      36.836  31.602  30.854  1.00  0.00     0.198 A 
ATOM     62  C   UNL A   1      37.797  30.826  32.912  1.00  0.00     0.198 A 
ATOM     63  F   UNL A   1      39.989  29.975  32.939  1.00  0.00    -0.203 F 
ATOM     64  F   UNL A   1      35.815  32.160  30.188  1.00  0.00    -0.200 F 
ATOM     65  C   UNL A   1      36.732  31.382  32.220  1.00  0.00     0.200 A 
ATOM     66  F   UNL A   1      37.696  30.604  34.230  1.00  0.00    -0.200 F 
ATOM     67  F   UNL A   1      35.607  31.710  32.870  1.00  0.00    -0.200 F 
ENDBRANCH  43  57
BRANCH  44  68
ATOM     68  C   UNL A   1      47.255  27.702  25.920  1.00  0.00     0.064 A 
ATOM     69  C   UNL A   1      48.387  27.210  26.582  1.00  0.00     0.173 A 
ATOM     70  C   UNL A   1      47.283  27.748  24.519  1.00  0.00     0.173 A 
ATOM     71  F   UNL A   1      48.414  27.170  27.922  1.00  0.00    -0.203 F 
ATOM     72  C   UNL A   1      49.504  26.781  25.870  1.00  0.00     0.198 A 
ATOM     73  C   UNL A   1      48.391  27.297  23.807  1.00  0.00     0.198 A 
ATOM     74  F   UNL A   1      46.223  28.214  23.841  1.00  0.00    -0.203 F 
ATOM     75  F   UNL A   1      50.587  26.341  26.526  1.00  0.00    -0.200 F 
ATOM     76  C   UNL A   1      49.503  26.817  24.482  1.00  0.00     0.200 A 
ATOM     77  F   UNL A   1      48.381  27.323  22.467  1.00  0.00    -0.200 F 
ATOM     78  F   UNL A   1      50.575  26.395  23.798  1.00  0.00    -0.200 F 
ENDBRANCH  44  68
BRANCH  56  79
ATOM     79  C   UNL A   1      45.403  33.667  29.002  1.00  0.00     0.064 A 
ATOM     80  C   UNL A   1      45.229  34.700  28.071  1.00  0.00     0.173 A 
ATOM     81  C   UNL A   1      46.233  33.905  30.108  1.00  0.00     0.173 A 
ATOM     82  F   UNL A   1      44.458  34.511  26.991  1.00  0.00    -0.203 F 
ATOM     83  C   UNL A   1      45.880  35.920  28.231  1.00  0.00     0.198 A 
ATOM     84  C   UNL A   1      46.864  35.134  30.275  1.00  0.00     0.198 A 
ATOM     85  F   UNL A   1      46.427  32.947  31.028  1.00  0.00    -0.203 F 
ATOM     86  F   UNL A   1      45.734  36.881  27.308  1.00  0.00    -0.200 F 
ATOM     87  C   UNL A   1      46.692  36.138  29.334  1.00  0.00     0.200 A 
ATOM     88  F   UNL A   1      47.641  35.346  31.346  1.00  0.00    -0.200 F 
ATOM     89  F   UNL A   1      47.316  37.314  29.486  1.00  0.00    -0.200 F 
ENDBRANCH  56  79
ENDBRANCH  30  31
ENDBRANCH  23  25
ENDBRANCH  22  23
ENDBRANCH  21  22
ENDBRANCH   1  21
TORSDOF 13
ENDMDL
MODEL 3
REMARK VINA RESULT:     -11.9      5.007     10.060
REMARK SMILES Cc1csc(NC(=O)[C@@H]2CC=CC[C@H]2C(=O)OCCOC(=O)c2ccc(-c3c4nc(c(-c5c(F)c(F)c(F)c(F)c5F)c5ccc([nH]5)c(-c5c(F)c(F)c(F)c(F)c5F)c5nc(c(-c6c(F)c(F)c(F)c(F)c6F)c6ccc3[nH]6)C=C5)C=C4)cc2)n1
REMARK SMILES IDX 18 1 17 2 15 3 16 4 14 5 9 6 10 7 11 8 13 9 12 10 7 11 6 12
REMARK SMILES IDX 8 14 5 15 1 16 2 17 3 18 86 19 4 20 19 21 20 22 21 23 22 24
REMARK SMILES IDX 23 25 24 26 85 27 25 28 84 29 26 30 27 31 28 32 78 33 29 34
REMARK SMILES IDX 83 35 77 36 79 37 30 38 82 39 76 40 75 41 31 43 63 44 43 45
REMARK SMILES IDX 62 46 44 47 47 48 61 49 80 50 45 51 46 52 60 54 81 55 48 56
REMARK SMILES IDX 32 57 33 58 41 59 34 60 35 61 39 62 42 63 36 64 37 65 40 66
REMARK SMILES IDX 38 67 64 68 65 69 73 70 66 71 67 72 71 73 74 74 68 75 69 76
REMARK SMILES IDX 72 77 70 78 49 79 50 80 58 81 51 82 52 83 56 84 59 85 53 86
REMARK SMILES IDX 54 87 57 88 55 89
REMARK H PARENT 6 13 79 42 47 53
REMARK Flexibility Score: inf
ROOT
ATOM      1  C   UNL A   1      35.950  20.611  24.998  1.00  0.00     0.274 C 
ENDROOT
BRANCH   1   2
ATOM      2  O   UNL A   1      35.626  21.922  25.503  1.00  0.00    -0.462 OA
BRANCH   2   3
ATOM      3  C   UNL A   1      34.994  22.745  24.637  1.00  0.00     0.310 C 
ATOM      4  O   UNL A   1      35.519  23.245  23.645  1.00  0.00    -0.252 OA
BRANCH   3   5
ATOM      5  C   UNL A   1      33.603  23.168  25.069  1.00  0.00     0.116 C 
ATOM      6  C   UNL A   1      32.364  22.492  24.433  1.00  0.00     0.097 C 
ATOM      7  C   UNL A   1      31.113  23.042  25.121  1.00  0.00     0.041 C 
ATOM      8  C   UNL A   1      31.159  23.028  26.617  1.00  0.00    -0.030 C 
ATOM      9  C   UNL A   1      33.640  23.006  26.607  1.00  0.00     0.043 C 
ATOM     10  C   UNL A   1      32.312  23.021  27.290  1.00  0.00    -0.030 C 
BRANCH   6  11
ATOM     11  C   UNL A   1      32.403  22.528  22.889  1.00  0.00     0.230 C 
ATOM     12  N   UNL A   1      32.765  23.542  22.068  1.00  0.00    -0.302 N 
ATOM     13  H   UNL A   1      33.138  23.247  21.206  1.00  0.00     0.172 HD
ATOM     14  O   UNL A   1      32.174  21.463  22.294  1.00  0.00    -0.274 OA
BRANCH  12  15
ATOM     15  C   UNL A   1      32.707  24.895  22.217  1.00  0.00     0.189 A 
ATOM     16  C   UNL A   1      34.092  28.202  22.272  1.00  0.00     0.068 C 
ATOM     17  C   UNL A   1      33.153  27.057  22.381  1.00  0.00     0.051 A 
ATOM     18  C   UNL A   1      31.801  27.093  22.656  1.00  0.00     0.092 A 
ATOM     19  N   UNL A   1      33.657  25.786  22.175  1.00  0.00    -0.225 NA
ATOM     20  S   UNL A   1      31.156  25.499  22.613  1.00  0.00    -0.105 S 
ENDBRANCH  12  15
ENDBRANCH   6  11
ENDBRANCH   3   5
ENDBRANCH   2   3
ENDBRANCH   1   2
BRANCH   1  21
ATOM     21  C   UNL A   1      37.454  20.316  25.000  1.00  0.00     0.275 C 
BRANCH  21  22
ATOM     22  O   UNL A   1      38.209  21.480  25.380  1.00  0.00    -0.458 OA
BRANCH  22  23
ATOM     23  C   UNL A   1      39.302  21.255  26.137  1.00  0.00     0.338 C 
ATOM     24  O   UNL A   1      39.843  20.191  26.397  1.00  0.00    -0.246 OA
BRANCH  23  25
ATOM     25  C   UNL A   1      39.813  22.524  26.663  1.00  0.00     0.060 A 
ATOM     26  C   UNL A   1      39.337  23.730  26.141  1.00  0.00     0.016 A 
ATOM     27  C   UNL A   1      40.884  22.505  27.556  1.00  0.00     0.016 A 
ATOM     28  C   UNL A   1      39.947  24.929  26.499  1.00  0.00     0.010 A 
ATOM     29  C   UNL A   1      41.486  23.708  27.925  1.00  0.00     0.010 A 
ATOM     30  C   UNL A   1      41.036  24.923  27.380  1.00  0.00    -0.014 A 
BRANCH  30  31
ATOM     31  C   UNL A   1      41.751  26.180  27.690  1.00  0.00     0.031 A 
ATOM     32  C   UNL A   1      41.065  27.247  28.492  1.00  0.00     0.074 A 
ATOM     33  C   UNL A   1      43.006  26.360  27.245  1.00  0.00     0.049 A 
ATOM     34  N   UNL A   1      41.457  28.467  28.756  1.00  0.00    -0.248 NA
ATOM     35  C   UNL A   1      39.759  26.895  29.071  1.00  0.00     0.031 C 
ATOM     36  C   UNL A   1      43.784  25.371  26.501  1.00  0.00     0.029 A 
ATOM     37  N   UNL A   1      43.841  27.443  27.346  1.00  0.00    -0.354 N 
ATOM     38  C   UNL A   1      40.438  29.037  29.505  1.00  0.00     0.074 A 
ATOM     39  C   UNL A   1      39.405  28.032  29.652  1.00  0.00     0.031 C 
ATOM     40  C   UNL A   1      44.985  25.896  26.204  1.00  0.00     0.029 A 
ATOM     41  C   UNL A   1      45.036  27.270  26.693  1.00  0.00     0.049 A 
ATOM     42  H   UNL A   1      43.607  28.263  27.836  1.00  0.00     0.167 HD
ATOM     43  C   UNL A   1      40.372  30.288  30.018  1.00  0.00     0.037 A 
ATOM     44  C   UNL A   1      46.041  28.141  26.482  1.00  0.00     0.037 A 
ATOM     45  C   UNL A   1      41.412  31.274  29.878  1.00  0.00     0.049 A 
ATOM     46  C   UNL A   1      45.923  29.539  27.019  1.00  0.00     0.074 A 
ATOM     47  C   UNL A   1      41.453  32.565  30.373  1.00  0.00     0.029 A 
ATOM     48  N   UNL A   1      42.600  31.071  29.191  1.00  0.00    -0.354 N 
ATOM     49  N   UNL A   1      44.949  30.079  27.710  1.00  0.00    -0.248 NA
ATOM     50  C   UNL A   1      47.038  30.453  26.736  1.00  0.00     0.031 C 
ATOM     51  C   UNL A   1      42.650  33.157  29.955  1.00  0.00     0.029 A 
ATOM     52  C   UNL A   1      43.373  32.220  29.232  1.00  0.00     0.049 A 
ATOM     53  H   UNL A   1      42.856  30.235  28.739  1.00  0.00     0.167 HD
ATOM     54  C   UNL A   1      45.336  31.388  27.957  1.00  0.00     0.074 A 
ATOM     55  C   UNL A   1      46.642  31.558  27.352  1.00  0.00     0.031 C 
ATOM     56  C   UNL A   1      44.669  32.364  28.621  1.00  0.00     0.037 A 
BRANCH  43  57
ATOM     57  C   UNL A   1      39.120  30.674  30.747  1.00  0.00     0.064 A 
ATOM     58  C   UNL A   1      38.011  31.210  30.077  1.00  0.00     0.173 A 
ATOM     59  C   UNL A   1      39.019  30.475  32.132  1.00  0.00     0.173 A 
ATOM     60  F   UNL A   1      38.064  31.434  28.755  1.00  0.00    -0.203 F 
ATOM     61  C   UNL A   1      36.852  31.550  30.771  1.00  0.00     0.198 A 
ATOM     62  C   UNL A   1      37.851  30.795  32.819  1.00  0.00     0.198 A 
ATOM     63  F   UNL A   1      40.051  29.964  32.819  1.00  0.00    -0.203 F 
ATOM     64  F   UNL A   1      35.816  32.095  30.117  1.00  0.00    -0.200 F 
ATOM     65  C   UNL A   1      36.770  31.337  32.140  1.00  0.00     0.200 A 
ATOM     66  F   UNL A   1      37.771  30.580  34.139  1.00  0.00    -0.200 F 
ATOM     67  F   UNL A   1      35.652  31.660  32.805  1.00  0.00    -0.200 F 
ENDBRANCH  43  57
BRANCH  44  68
ATOM     68  C   UNL A   1      47.232  27.710  25.707  1.00  0.00     0.064 A 
ATOM     69  C   UNL A   1      47.245  27.784  24.309  1.00  0.00     0.173 A 
ATOM     70  C   UNL A   1      48.384  27.238  26.350  1.00  0.00     0.173 A 
ATOM     71  F   UNL A   1      46.155  28.206  23.651  1.00  0.00    -0.203 F 
ATOM     72  C   UNL A   1      48.368  27.399  23.581  1.00  0.00     0.198 A 
ATOM     73  C   UNL A   1      49.516  26.876  25.623  1.00  0.00     0.198 A 
ATOM     74  F   UNL A   1      48.419  27.147  27.688  1.00  0.00    -0.203 F 
ATOM     75  F   UNL A   1      48.346  27.451  22.242  1.00  0.00    -0.200 F 
ATOM     76  C   UNL A   1      49.506  26.954  24.238  1.00  0.00     0.200 A 
ATOM     77  F   UNL A   1      50.616  26.457  26.262  1.00  0.00    -0.200 F 
ATOM     78  F   UNL A   1      50.589  26.594  23.537  1.00  0.00    -0.200 F 
ENDBRANCH  44  68
BRANCH  56  79
ATOM     79  C   UNL A   1      45.356  33.690  28.744  1.00  0.00     0.064 A 
ATOM     80  C   UNL A   1      45.163  34.704  27.796  1.00  0.00     0.173 A 
ATOM     81  C   UNL A   1      46.190  33.959  29.840  1.00  0.00     0.173 A 
ATOM     82  F   UNL A   1      44.387  34.486  26.724  1.00  0.00    -0.203 F 
ATOM     83  C   UNL A   1      45.801  35.935  27.928  1.00  0.00     0.198 A 
ATOM     84  C   UNL A   1      46.807  35.198  29.980  1.00  0.00     0.198 A 
ATOM     85  F   UNL A   1      46.401  33.021  30.775  1.00  0.00    -0.203 F 
ATOM     86  F   UNL A   1      45.637  36.877  26.989  1.00  0.00    -0.200 F 
ATOM     87  C   UNL A   1      46.617  36.183  29.022  1.00  0.00     0.200 A 
ATOM     88  F   UNL A   1      47.589  35.439  31.041  1.00  0.00    -0.200 F 
ATOM     89  F   UNL A   1      47.228  37.369  29.147  1.00  0.00    -0.200 F 
ENDBRANCH  56  79
ENDBRANCH  30  31
ENDBRANCH  23  25
ENDBRANCH  22  23
ENDBRANCH  21  22
ENDBRANCH   1  21
TORSDOF 13
ENDMDL
