MODEL 1
REMARK VINA RESULT:     -11.1      0.000      0.000
REMARK SMILES CC[C@H]1CCCCN1S(=O)(=O)CC(=O)OCCOC(=O)c1ccc(-c2c3nc(c(-c4c(F)c(F)c(F)c(F)c4F)c4ccc([nH]4)c(-c4c(F)c(F)c(F)c(F)c4F)c4nc(c(-c5c(F)c(F)c(F)c(F)c5F)c5ccc2[nH]5)C=C4)C=C3)cc1
REMARK SMILES IDX 16 1 15 2 13 3 14 4 12 5 9 6 10 7 11 8 8 9 3 10 4 11 5 12
REMARK SMILES IDX 7 13 6 14 2 15 1 16 17 17 18 18 19 19 20 20 21 21 22 22
REMARK SMILES IDX 83 23 23 24 82 25 24 26 25 27 26 28 76 29 27 30 81 31 75 32
REMARK SMILES IDX 77 33 28 34 80 35 74 36 73 37 29 39 61 40 41 41 60 42 42 43
REMARK SMILES IDX 45 44 59 45 78 46 43 47 44 48 58 50 79 51 46 52 30 53 31 54
REMARK SMILES IDX 39 55 32 56 33 57 37 58 40 59 34 60 35 61 38 62 36 63 62 64
REMARK SMILES IDX 63 65 71 66 64 67 65 68 69 69 72 70 66 71 67 72 70 73 68 74
REMARK SMILES IDX 47 75 48 76 56 77 49 78 50 79 54 80 57 81 51 82 52 83 55 84
REMARK SMILES IDX 53 85
REMARK H PARENT 77 38 45 49
REMARK Flexibility Score: inf
ROOT
ATOM      1  C   UNL A   1      32.013  29.328  24.720  1.00  0.00     0.274 C 
ENDROOT
BRANCH   1   2
ATOM      2  O   UNL A   1      31.145  29.230  23.567  1.00  0.00    -0.461 OA
BRANCH   2   3
ATOM      3  C   UNL A   1      31.400  28.192  22.745  1.00  0.00     0.322 C 
ATOM      4  O   UNL A   1      30.662  27.869  21.811  1.00  0.00    -0.251 OA
BRANCH   3   5
ATOM      5  C   UNL A   1      32.584  27.358  23.038  1.00  0.00     0.276 C 
BRANCH   5   6
ATOM      6  S   UNL A   1      32.719  25.750  22.339  1.00  0.00     0.225 S 
ATOM      7  O   UNL A   1      33.286  25.963  21.019  1.00  0.00    -0.212 OA
ATOM      8  O   UNL A   1      31.451  25.066  22.471  1.00  0.00    -0.212 OA
BRANCH   6   9
ATOM      9  N   UNL A   1      33.892  24.891  23.225  1.00  0.00    -0.198 NA
ATOM     10  C   UNL A   1      33.890  25.182  24.717  1.00  0.00     0.072 C 
ATOM     11  C   UNL A   1      35.152  24.604  25.377  1.00  0.00     0.020 C 
ATOM     12  C   UNL A   1      35.431  23.147  25.031  1.00  0.00     0.003 C 
ATOM     13  C   UNL A   1      34.060  23.451  22.917  1.00  0.00     0.102 C 
ATOM     14  C   UNL A   1      35.351  22.923  23.533  1.00  0.00     0.017 C 
BRANCH  10  15
ATOM     15  C   UNL A   1      32.574  24.857  25.468  1.00  0.00     0.017 C 
ATOM     16  C   UNL A   1      31.940  25.919  26.357  1.00  0.00     0.005 C 
ENDBRANCH  10  15
ENDBRANCH   6   9
ENDBRANCH   5   6
ENDBRANCH   3   5
ENDBRANCH   2   3
ENDBRANCH   1   2
BRANCH   1  17
ATOM     17  C   UNL A   1      31.582  30.447  25.664  1.00  0.00     0.275 C 
BRANCH  17  18
ATOM     18  O   UNL A   1      32.304  30.356  26.906  1.00  0.00    -0.458 OA
BRANCH  18  19
ATOM     19  C   UNL A   1      33.023  31.451  27.238  1.00  0.00     0.338 C 
ATOM     20  O   UNL A   1      32.662  32.614  27.182  1.00  0.00    -0.246 OA
BRANCH  19  21
ATOM     21  C   UNL A   1      34.367  31.070  27.721  1.00  0.00     0.060 A 
ATOM     22  C   UNL A   1      34.730  29.731  27.875  1.00  0.00     0.016 A 
ATOM     23  C   UNL A   1      35.210  32.077  28.195  1.00  0.00     0.016 A 
ATOM     24  C   UNL A   1      35.883  29.401  28.592  1.00  0.00     0.010 A 
ATOM     25  C   UNL A   1      36.407  31.746  28.835  1.00  0.00     0.010 A 
ATOM     26  C   UNL A   1      36.735  30.404  29.083  1.00  0.00    -0.014 A 
BRANCH  26  27
ATOM     27  C   UNL A   1      37.946  30.052  29.876  1.00  0.00     0.031 A 
ATOM     28  C   UNL A   1      39.019  29.165  29.295  1.00  0.00     0.074 A 
ATOM     29  C   UNL A   1      38.098  30.540  31.123  1.00  0.00     0.049 A 
ATOM     30  N   UNL A   1      40.089  28.673  29.870  1.00  0.00    -0.248 NA
ATOM     31  C   UNL A   1      38.871  28.775  27.883  1.00  0.00     0.031 C 
ATOM     32  C   UNL A   1      37.150  31.418  31.809  1.00  0.00     0.029 A 
ATOM     33  N   UNL A   1      39.113  30.373  32.033  1.00  0.00    -0.354 N 
ATOM     34  C   UNL A   1      40.720  27.894  28.908  1.00  0.00     0.074 A 
ATOM     35  C   UNL A   1      39.912  27.972  27.709  1.00  0.00     0.031 C 
ATOM     36  C   UNL A   1      37.643  31.744  33.012  1.00  0.00     0.029 A 
ATOM     37  C   UNL A   1      38.910  31.048  33.212  1.00  0.00     0.049 A 
ATOM     38  H   UNL A   1      39.909  29.821  31.858  1.00  0.00     0.167 HD
ATOM     39  C   UNL A   1      41.867  27.180  29.010  1.00  0.00     0.037 A 
ATOM     40  C   UNL A   1      39.646  31.086  34.338  1.00  0.00     0.037 A 
ATOM     41  C   UNL A   1      42.690  27.115  30.190  1.00  0.00     0.049 A 
ATOM     42  C   UNL A   1      40.914  30.288  34.423  1.00  0.00     0.074 A 
ATOM     43  C   UNL A   1      43.852  26.390  30.396  1.00  0.00     0.029 A 
ATOM     44  N   UNL A   1      42.447  27.815  31.362  1.00  0.00    -0.354 N 
ATOM     45  N   UNL A   1      41.465  29.513  33.522  1.00  0.00    -0.248 NA
ATOM     46  C   UNL A   1      41.656  30.358  35.690  1.00  0.00     0.031 C 
ATOM     47  C   UNL A   1      44.305  26.640  31.696  1.00  0.00     0.029 A 
ATOM     48  C   UNL A   1      43.440  27.543  32.290  1.00  0.00     0.049 A 
ATOM     49  H   UNL A   1      41.682  28.416  31.511  1.00  0.00     0.167 HD
ATOM     50  C   UNL A   1      42.614  29.004  34.111  1.00  0.00     0.074 A 
ATOM     51  C   UNL A   1      42.701  29.582  35.435  1.00  0.00     0.031 C 
ATOM     52  C   UNL A   1      43.510  28.123  33.604  1.00  0.00     0.037 A 
BRANCH  39  53
ATOM     53  C   UNL A   1      42.307  26.393  27.812  1.00  0.00     0.064 A 
ATOM     54  C   UNL A   1      43.296  26.875  26.943  1.00  0.00     0.173 A 
ATOM     55  C   UNL A   1      41.783  25.114  27.571  1.00  0.00     0.173 A 
ATOM     56  F   UNL A   1      43.815  28.098  27.125  1.00  0.00    -0.203 F 
ATOM     57  C   UNL A   1      43.740  26.106  25.870  1.00  0.00     0.198 A 
ATOM     58  C   UNL A   1      42.243  24.340  26.510  1.00  0.00     0.198 A 
ATOM     59  F   UNL A   1      40.838  24.608  28.378  1.00  0.00    -0.203 F 
ATOM     60  F   UNL A   1      44.668  26.595  25.038  1.00  0.00    -0.200 F 
ATOM     61  C   UNL A   1      43.220  24.838  25.659  1.00  0.00     0.200 A 
ATOM     62  F   UNL A   1      41.746  23.111  26.312  1.00  0.00    -0.200 F 
ATOM     63  F   UNL A   1      43.657  24.094  24.633  1.00  0.00    -0.200 F 
ENDBRANCH  39  53
BRANCH  40  64
ATOM     64  C   UNL A   1      39.187  31.903  35.489  1.00  0.00     0.064 A 
ATOM     65  C   UNL A   1      38.364  31.352  36.479  1.00  0.00     0.173 A 
ATOM     66  C   UNL A   1      39.564  33.247  35.622  1.00  0.00     0.173 A 
ATOM     67  F   UNL A   1      37.959  30.077  36.379  1.00  0.00    -0.203 F 
ATOM     68  C   UNL A   1      37.924  32.119  37.555  1.00  0.00     0.198 A 
ATOM     69  C   UNL A   1      39.145  34.005  36.710  1.00  0.00     0.198 A 
ATOM     70  F   UNL A   1      40.352  33.817  34.698  1.00  0.00    -0.203 F 
ATOM     71  F   UNL A   1      37.104  31.581  38.469  1.00  0.00    -0.200 F 
ATOM     72  C   UNL A   1      38.320  33.443  37.673  1.00  0.00     0.200 A 
ATOM     73  F   UNL A   1      39.540  35.280  36.828  1.00  0.00    -0.200 F 
ATOM     74  F   UNL A   1      37.901  34.179  38.711  1.00  0.00    -0.200 F 
ENDBRANCH  40  64
BRANCH  52  75
ATOM     75  C   UNL A   1      44.660  27.744  34.485  1.00  0.00     0.064 A 
ATOM     76  C   UNL A   1      44.582  26.641  35.348  1.00  0.00     0.173 A 
ATOM     77  C   UNL A   1      45.849  28.486  34.466  1.00  0.00     0.173 A 
ATOM     78  F   UNL A   1      43.456  25.913  35.412  1.00  0.00    -0.203 F 
ATOM     79  C   UNL A   1      45.647  26.310  36.182  1.00  0.00     0.198 A 
ATOM     80  C   UNL A   1      46.919  28.140  35.287  1.00  0.00     0.198 A 
ATOM     81  F   UNL A   1      45.971  29.548  33.656  1.00  0.00    -0.203 F 
ATOM     82  F   UNL A   1      45.534  25.281  37.031  1.00  0.00    -0.200 F 
ATOM     83  C   UNL A   1      46.815  27.058  36.148  1.00  0.00     0.200 A 
ATOM     84  F   UNL A   1      48.049  28.860  35.252  1.00  0.00    -0.200 F 
ATOM     85  F   UNL A   1      47.835  26.743  36.957  1.00  0.00    -0.200 F 
ENDBRANCH  52  75
ENDBRANCH  26  27
ENDBRANCH  19  21
ENDBRANCH  18  19
ENDBRANCH  17  18
ENDBRANCH   1  17
TORSDOF 14
ENDMDL
MODEL 2
REMARK VINA RESULT:     -11.0      0.461      2.069
REMARK SMILES CC[C@H]1CCCCN1S(=O)(=O)CC(=O)OCCOC(=O)c1ccc(-c2c3nc(c(-c4c(F)c(F)c(F)c(F)c4F)c4ccc([nH]4)c(-c4c(F)c(F)c(F)c(F)c4F)c4nc(c(-c5c(F)c(F)c(F)c(F)c5F)c5ccc2[nH]5)C=C4)C=C3)cc1
REMARK SMILES IDX 16 1 15 2 13 3 14 4 12 5 9 6 10 7 11 8 8 9 3 10 4 11 5 12
REMARK SMILES IDX 7 13 6 14 2 15 1 16 17 17 18 18 19 19 20 20 21 21 22 22
REMARK SMILES IDX 83 23 23 24 82 25 24 26 25 27 26 28 76 29 27 30 81 31 75 32
REMARK SMILES IDX 77 33 28 34 80 35 74 36 73 37 29 39 61 40 41 41 60 42 42 43
REMARK SMILES IDX 45 44 59 45 78 46 43 47 44 48 58 50 79 51 46 52 30 53 31 54
REMARK SMILES IDX 39 55 32 56 33 57 37 58 40 59 34 60 35 61 38 62 36 63 62 64
REMARK SMILES IDX 63 65 71 66 64 67 65 68 69 69 72 70 66 71 67 72 70 73 68 74
REMARK SMILES IDX 47 75 48 76 56 77 49 78 50 79 54 80 57 81 51 82 52 83 55 84
REMARK SMILES IDX 53 85
REMARK H PARENT 77 38 45 49
REMARK Flexibility Score: inf
ROOT
ATOM      1  C   UNL A   1      31.223  29.477  24.943  1.00  0.00     0.274 C 
ENDROOT
BRANCH   1   2
ATOM      2  O   UNL A   1      32.384  28.851  24.349  1.00  0.00    -0.461 OA
BRANCH   2   3
ATOM      3  C   UNL A   1      32.270  28.563  23.036  1.00  0.00     0.322 C 
ATOM      4  O   UNL A   1      31.330  28.949  22.336  1.00  0.00    -0.251 OA
BRANCH   3   5
ATOM      5  C   UNL A   1      33.286  27.673  22.437  1.00  0.00     0.276 C 
BRANCH   5   6
ATOM      6  S   UNL A   1      32.886  25.998  22.085  1.00  0.00     0.225 S 
ATOM      7  O   UNL A   1      33.278  25.802  20.701  1.00  0.00    -0.212 OA
ATOM      8  O   UNL A   1      31.519  25.741  22.484  1.00  0.00    -0.212 OA
BRANCH   6   9
ATOM      9  N   UNL A   1      33.915  25.008  23.013  1.00  0.00    -0.198 NA
ATOM     10  C   UNL A   1      33.942  25.345  24.495  1.00  0.00     0.072 C 
ATOM     11  C   UNL A   1      35.101  24.613  25.189  1.00  0.00     0.020 C 
ATOM     12  C   UNL A   1      35.171  23.121  24.892  1.00  0.00     0.003 C 
ATOM     13  C   UNL A   1      33.876  23.550  22.751  1.00  0.00     0.102 C 
ATOM     14  C   UNL A   1      35.073  22.861  23.400  1.00  0.00     0.017 C 
BRANCH  10  15
ATOM     15  C   UNL A   1      32.587  25.237  25.238  1.00  0.00     0.017 C 
ATOM     16  C   UNL A   1      32.293  26.180  26.397  1.00  0.00     0.005 C 
ENDBRANCH  10  15
ENDBRANCH   6   9
ENDBRANCH   5   6
ENDBRANCH   3   5
ENDBRANCH   2   3
ENDBRANCH   1   2
BRANCH   1  17
ATOM     17  C   UNL A   1      31.611  30.556  25.950  1.00  0.00     0.275 C 
BRANCH  17  18
ATOM     18  O   UNL A   1      33.029  30.518  26.198  1.00  0.00    -0.458 OA
BRANCH  18  19
ATOM     19  C   UNL A   1      33.481  31.406  27.111  1.00  0.00     0.338 C 
ATOM     20  O   UNL A   1      32.920  32.417  27.495  1.00  0.00    -0.246 OA
BRANCH  19  21
ATOM     21  C   UNL A   1      34.796  30.990  27.641  1.00  0.00     0.060 A 
ATOM     22  C   UNL A   1      35.067  29.655  27.947  1.00  0.00     0.016 A 
ATOM     23  C   UNL A   1      35.708  31.984  28.003  1.00  0.00     0.016 A 
ATOM     24  C   UNL A   1      36.196  29.329  28.702  1.00  0.00     0.010 A 
ATOM     25  C   UNL A   1      36.881  31.645  28.682  1.00  0.00     0.010 A 
ATOM     26  C   UNL A   1      37.116  30.320  29.081  1.00  0.00    -0.014 A 
BRANCH  26  27
ATOM     27  C   UNL A   1      38.302  29.977  29.915  1.00  0.00     0.031 A 
ATOM     28  C   UNL A   1      39.394  29.086  29.376  1.00  0.00     0.074 A 
ATOM     29  C   UNL A   1      38.415  30.477  31.161  1.00  0.00     0.049 A 
ATOM     30  N   UNL A   1      40.446  28.600  29.989  1.00  0.00    -0.248 NA
ATOM     31  C   UNL A   1      39.290  28.682  27.964  1.00  0.00     0.031 C 
ATOM     32  C   UNL A   1      37.445  31.361  31.808  1.00  0.00     0.029 A 
ATOM     33  N   UNL A   1      39.401  30.320  32.104  1.00  0.00    -0.354 N 
ATOM     34  C   UNL A   1      41.107  27.813  29.054  1.00  0.00     0.074 A 
ATOM     35  C   UNL A   1      40.337  27.879  27.830  1.00  0.00     0.031 C 
ATOM     36  C   UNL A   1      37.901  31.699  33.023  1.00  0.00     0.029 A 
ATOM     37  C   UNL A   1      39.162  31.006  33.269  1.00  0.00     0.049 A 
ATOM     38  H   UNL A   1      40.203  29.767  31.959  1.00  0.00     0.167 HD
ATOM     39  C   UNL A   1      42.251  27.102  29.199  1.00  0.00     0.037 A 
ATOM     40  C   UNL A   1      39.862  31.056  34.417  1.00  0.00     0.037 A 
ATOM     41  C   UNL A   1      43.037  27.049  30.405  1.00  0.00     0.049 A 
ATOM     42  C   UNL A   1      41.128  30.260  34.549  1.00  0.00     0.074 A 
ATOM     43  C   UNL A   1      44.193  26.327  30.654  1.00  0.00     0.029 A 
ATOM     44  N   UNL A   1      42.757  27.760  31.561  1.00  0.00    -0.354 N 
ATOM     45  N   UNL A   1      41.707  29.477  33.673  1.00  0.00    -0.248 NA
ATOM     46  C   UNL A   1      41.830  30.344  35.838  1.00  0.00     0.031 C 
ATOM     47  C   UNL A   1      44.605  26.591  31.964  1.00  0.00     0.029 A 
ATOM     48  C   UNL A   1      43.721  27.498  32.523  1.00  0.00     0.049 A 
ATOM     49  H   UNL A   1      41.987  28.361  31.681  1.00  0.00     0.167 HD
ATOM     50  C   UNL A   1      42.837  28.975  34.303  1.00  0.00     0.074 A 
ATOM     51  C   UNL A   1      42.882  29.566  35.623  1.00  0.00     0.031 C 
ATOM     52  C   UNL A   1      43.749  28.091  33.832  1.00  0.00     0.037 A 
BRANCH  39  53
ATOM     53  C   UNL A   1      42.729  26.303  28.023  1.00  0.00     0.064 A 
ATOM     54  C   UNL A   1      42.304  24.984  27.814  1.00  0.00     0.173 A 
ATOM     55  C   UNL A   1      43.564  26.888  27.060  1.00  0.00     0.173 A 
ATOM     56  F   UNL A   1      41.517  24.378  28.715  1.00  0.00    -0.203 F 
ATOM     57  C   UNL A   1      42.706  24.275  26.684  1.00  0.00     0.198 A 
ATOM     58  C   UNL A   1      43.947  26.184  25.921  1.00  0.00     0.198 A 
ATOM     59  F   UNL A   1      43.993  28.151  27.214  1.00  0.00    -0.203 F 
ATOM     60  F   UNL A   1      42.308  23.007  26.515  1.00  0.00    -0.200 F 
ATOM     61  C   UNL A   1      43.520  24.877  25.736  1.00  0.00     0.200 A 
ATOM     62  F   UNL A   1      44.727  26.771  25.002  1.00  0.00    -0.200 F 
ATOM     63  F   UNL A   1      43.895  24.198  24.643  1.00  0.00    -0.200 F 
ENDBRANCH  39  53
BRANCH  40  64
ATOM     64  C   UNL A   1      39.367  31.883  35.545  1.00  0.00     0.064 A 
ATOM     65  C   UNL A   1      39.761  33.219  35.685  1.00  0.00     0.173 A 
ATOM     66  C   UNL A   1      38.490  31.353  36.504  1.00  0.00     0.173 A 
ATOM     67  F   UNL A   1      40.618  33.761  34.805  1.00  0.00    -0.203 F 
ATOM     68  C   UNL A   1      39.305  33.995  36.749  1.00  0.00     0.198 A 
ATOM     69  C   UNL A   1      38.015  32.136  37.551  1.00  0.00     0.198 A 
ATOM     70  F   UNL A   1      38.085  30.078  36.410  1.00  0.00    -0.203 F 
ATOM     71  F   UNL A   1      39.727  35.260  36.883  1.00  0.00    -0.200 F 
ATOM     72  C   UNL A   1      38.427  33.454  37.677  1.00  0.00     0.200 A 
ATOM     73  F   UNL A   1      37.158  31.614  38.439  1.00  0.00    -0.200 F 
ATOM     74  F   UNL A   1      37.985  34.202  38.697  1.00  0.00    -0.200 F 
ENDBRANCH  40  64
BRANCH  52  75
ATOM     75  C   UNL A   1      44.872  27.722  34.753  1.00  0.00     0.064 A 
ATOM     76  C   UNL A   1      46.051  28.480  34.803  1.00  0.00     0.173 A 
ATOM     77  C   UNL A   1      44.768  26.604  35.593  1.00  0.00     0.173 A 
ATOM     78  F   UNL A   1      46.200  29.548  34.003  1.00  0.00    -0.203 F 
ATOM     79  C   UNL A   1      47.099  28.116  35.644  1.00  0.00     0.198 A 
ATOM     80  C   UNL A   1      45.811  26.255  36.447  1.00  0.00     0.198 A 
ATOM     81  F   UNL A   1      43.659  25.850  35.582  1.00  0.00    -0.203 F 
ATOM     82  F   UNL A   1      48.233  28.828  35.642  1.00  0.00    -0.200 F 
ATOM     83  C   UNL A   1      46.977  27.006  36.466  1.00  0.00     0.200 A 
ATOM     84  F   UNL A   1      45.692  25.185  37.245  1.00  0.00    -0.200 F 
ATOM     85  F   UNL A   1      47.990  26.653  37.268  1.00  0.00    -0.200 F 
ENDBRANCH  52  75
ENDBRANCH  26  27
ENDBRANCH  19  21
ENDBRANCH  18  19
ENDBRANCH  17  18
ENDBRANCH   1  17
TORSDOF 14
ENDMDL
MODEL 3
REMARK VINA RESULT:     -10.8      1.154      2.274
REMARK SMILES CC[C@H]1CCCCN1S(=O)(=O)CC(=O)OCCOC(=O)c1ccc(-c2c3nc(c(-c4c(F)c(F)c(F)c(F)c4F)c4ccc([nH]4)c(-c4c(F)c(F)c(F)c(F)c4F)c4nc(c(-c5c(F)c(F)c(F)c(F)c5F)c5ccc2[nH]5)C=C4)C=C3)cc1
REMARK SMILES IDX 16 1 15 2 13 3 14 4 12 5 9 6 10 7 11 8 8 9 3 10 4 11 5 12
REMARK SMILES IDX 7 13 6 14 2 15 1 16 17 17 18 18 19 19 20 20 21 21 22 22
REMARK SMILES IDX 83 23 23 24 82 25 24 26 25 27 26 28 76 29 27 30 81 31 75 32
REMARK SMILES IDX 77 33 28 34 80 35 74 36 73 37 29 39 61 40 41 41 60 42 42 43
REMARK SMILES IDX 45 44 59 45 78 46 43 47 44 48 58 50 79 51 46 52 30 53 31 54
REMARK SMILES IDX 39 55 32 56 33 57 37 58 40 59 34 60 35 61 38 62 36 63 62 64
REMARK SMILES IDX 63 65 71 66 64 67 65 68 69 69 72 70 66 71 67 72 70 73 68 74
REMARK SMILES IDX 47 75 48 76 56 77 49 78 50 79 54 80 57 81 51 82 52 83 55 84
REMARK SMILES IDX 53 85
REMARK H PARENT 77 38 45 49
REMARK Flexibility Score: inf
ROOT
ATOM      1  C   UNL A   1      32.295  29.117  25.156  1.00  0.00     0.274 C 
ENDROOT
BRANCH   1   2
ATOM      2  O   UNL A   1      31.331  28.064  25.388  1.00  0.00    -0.461 OA
BRANCH   2   3
ATOM      3  C   UNL A   1      31.560  27.309  26.483  1.00  0.00     0.322 C 
ATOM      4  O   UNL A   1      31.031  27.523  27.577  1.00  0.00    -0.251 OA
BRANCH   3   5
ATOM      5  C   UNL A   1      32.559  26.226  26.374  1.00  0.00     0.276 C 
BRANCH   5   6
ATOM      6  S   UNL A   1      32.034  24.579  26.055  1.00  0.00     0.225 S 
ATOM      7  O   UNL A   1      31.256  24.665  24.832  1.00  0.00    -0.212 OA
ATOM      8  O   UNL A   1      31.431  24.031  27.250  1.00  0.00    -0.212 OA
BRANCH   6   9
ATOM      9  N   UNL A   1      33.413  23.655  25.673  1.00  0.00    -0.198 NA
ATOM     10  C   UNL A   1      33.300  22.181  26.027  1.00  0.00     0.072 C 
ATOM     11  C   UNL A   1      34.673  21.500  25.928  1.00  0.00     0.020 C 
ATOM     12  C   UNL A   1      35.416  21.767  24.625  1.00  0.00     0.003 C 
ATOM     13  C   UNL A   1      34.044  23.885  24.352  1.00  0.00     0.102 C 
ATOM     14  C   UNL A   1      35.430  23.250  24.306  1.00  0.00     0.017 C 
BRANCH  10  15
ATOM     15  C   UNL A   1      32.153  21.405  25.333  1.00  0.00     0.017 C 
ATOM     16  C   UNL A   1      32.195  21.201  23.825  1.00  0.00     0.005 C 
ENDBRANCH  10  15
ENDBRANCH   6   9
ENDBRANCH   5   6
ENDBRANCH   3   5
ENDBRANCH   2   3
ENDBRANCH   1   2
BRANCH   1  17
ATOM     17  C   UNL A   1      31.833  30.450  25.741  1.00  0.00     0.275 C 
BRANCH  17  18
ATOM     18  O   UNL A   1      32.342  30.609  27.077  1.00  0.00    -0.458 OA
BRANCH  18  19
ATOM     19  C   UNL A   1      33.157  31.670  27.263  1.00  0.00     0.338 C 
ATOM     20  O   UNL A   1      32.893  32.845  27.071  1.00  0.00    -0.246 OA
BRANCH  19  21
ATOM     21  C   UNL A   1      34.476  31.237  27.770  1.00  0.00     0.060 A 
ATOM     22  C   UNL A   1      34.754  29.890  28.012  1.00  0.00     0.016 A 
ATOM     23  C   UNL A   1      35.384  32.217  28.175  1.00  0.00     0.016 A 
ATOM     24  C   UNL A   1      35.887  29.535  28.748  1.00  0.00     0.010 A 
ATOM     25  C   UNL A   1      36.561  31.853  28.835  1.00  0.00     0.010 A 
ATOM     26  C   UNL A   1      36.804  30.512  29.171  1.00  0.00    -0.014 A 
BRANCH  26  27
ATOM     27  C   UNL A   1      37.994  30.136  29.985  1.00  0.00     0.031 A 
ATOM     28  C   UNL A   1      39.069  29.244  29.416  1.00  0.00     0.074 A 
ATOM     29  C   UNL A   1      38.125  30.607  31.240  1.00  0.00     0.049 A 
ATOM     30  N   UNL A   1      40.121  28.732  30.007  1.00  0.00    -0.248 NA
ATOM     31  C   UNL A   1      38.945  28.872  27.996  1.00  0.00     0.031 C 
ATOM     32  C   UNL A   1      37.173  31.488  31.917  1.00  0.00     0.029 A 
ATOM     33  N   UNL A   1      39.119  30.417  32.170  1.00  0.00    -0.354 N 
ATOM     34  C   UNL A   1      40.763  27.958  29.048  1.00  0.00     0.074 A 
ATOM     35  C   UNL A   1      39.981  28.060  27.834  1.00  0.00     0.031 C 
ATOM     36  C   UNL A   1      37.644  31.794  33.134  1.00  0.00     0.029 A 
ATOM     37  C   UNL A   1      38.899  31.081  33.352  1.00  0.00     0.049 A 
ATOM     38  H   UNL A   1      39.912  29.858  32.004  1.00  0.00     0.167 HD
ATOM     39  C   UNL A   1      41.899  27.229  29.166  1.00  0.00     0.037 A 
ATOM     40  C   UNL A   1      39.611  31.097  34.493  1.00  0.00     0.037 A 
ATOM     41  C   UNL A   1      42.696  27.140  30.362  1.00  0.00     0.049 A 
ATOM     42  C   UNL A   1      40.868  30.282  34.595  1.00  0.00     0.074 A 
ATOM     43  C   UNL A   1      43.846  26.400  30.583  1.00  0.00     0.029 A 
ATOM     44  N   UNL A   1      42.436  27.829  31.536  1.00  0.00    -0.354 N 
ATOM     45  N   UNL A   1      41.429  29.512  33.696  1.00  0.00    -0.248 NA
ATOM     46  C   UNL A   1      41.584  30.329  35.878  1.00  0.00     0.031 C 
ATOM     47  C   UNL A   1      44.274  26.629  31.895  1.00  0.00     0.029 A 
ATOM     48  C   UNL A   1      43.406  27.534  32.482  1.00  0.00     0.049 A 
ATOM     49  H   UNL A   1      41.675  28.437  31.678  1.00  0.00     0.167 HD
ATOM     50  C   UNL A   1      42.559  28.982  34.303  1.00  0.00     0.074 A 
ATOM     51  C   UNL A   1      42.625  29.544  35.635  1.00  0.00     0.031 C 
ATOM     52  C   UNL A   1      43.456  28.098  33.804  1.00  0.00     0.037 A 
BRANCH  39  53
ATOM     53  C   UNL A   1      42.355  26.452  27.968  1.00  0.00     0.064 A 
ATOM     54  C   UNL A   1      41.862  25.167  27.699  1.00  0.00     0.173 A 
ATOM     55  C   UNL A   1      43.240  27.025  27.043  1.00  0.00     0.173 A 
ATOM     56  F   UNL A   1      41.025  24.572  28.562  1.00  0.00    -0.203 F 
ATOM     57  C   UNL A   1      42.246  24.481  26.549  1.00  0.00     0.198 A 
ATOM     58  C   UNL A   1      43.606  26.345  25.885  1.00  0.00     0.198 A 
ATOM     59  F   UNL A   1      43.735  28.255  27.254  1.00  0.00    -0.203 F 
ATOM     60  F   UNL A   1      41.783  23.245  26.323  1.00  0.00    -0.200 F 
ATOM     61  C   UNL A   1      43.111  25.073  25.640  1.00  0.00     0.200 A 
ATOM     62  F   UNL A   1      44.435  26.922  25.003  1.00  0.00    -0.200 F 
ATOM     63  F   UNL A   1      43.469  24.416  24.528  1.00  0.00    -0.200 F 
ENDBRANCH  39  53
BRANCH  40  64
ATOM     64  C   UNL A   1      39.138  31.905  35.645  1.00  0.00     0.064 A 
ATOM     65  C   UNL A   1      39.527  33.241  35.794  1.00  0.00     0.173 A 
ATOM     66  C   UNL A   1      38.287  31.356  36.615  1.00  0.00     0.173 A 
ATOM     67  F   UNL A   1      40.360  33.800  34.903  1.00  0.00    -0.203 F 
ATOM     68  C   UNL A   1      39.091  33.999  36.879  1.00  0.00     0.198 A 
ATOM     69  C   UNL A   1      37.832  32.121  37.685  1.00  0.00     0.198 A 
ATOM     70  F   UNL A   1      37.887  30.080  36.513  1.00  0.00    -0.203 F 
ATOM     71  F   UNL A   1      39.509  35.264  37.021  1.00  0.00    -0.200 F 
ATOM     72  C   UNL A   1      38.239  33.440  37.820  1.00  0.00     0.200 A 
ATOM     73  F   UNL A   1      36.999  31.581  38.585  1.00  0.00    -0.200 F 
ATOM     74  F   UNL A   1      37.816  34.170  38.860  1.00  0.00    -0.200 F 
ENDBRANCH  40  64
BRANCH  52  75
ATOM     75  C   UNL A   1      44.582  27.695  34.704  1.00  0.00     0.064 A 
ATOM     76  C   UNL A   1      44.460  26.606  35.580  1.00  0.00     0.173 A 
ATOM     77  C   UNL A   1      45.795  28.399  34.691  1.00  0.00     0.173 A 
ATOM     78  F   UNL A   1      43.311  25.914  35.639  1.00  0.00    -0.203 F 
ATOM     79  C   UNL A   1      45.503  26.253  36.431  1.00  0.00     0.198 A 
ATOM     80  C   UNL A   1      46.843  28.031  35.529  1.00  0.00     0.198 A 
ATOM     81  F   UNL A   1      45.959  29.446  33.869  1.00  0.00    -0.203 F 
ATOM     82  F   UNL A   1      45.348  25.239  37.292  1.00  0.00    -0.200 F 
ATOM     83  C   UNL A   1      46.694  26.963  36.403  1.00  0.00     0.200 A 
ATOM     84  F   UNL A   1      47.995  28.714  35.499  1.00  0.00    -0.200 F 
ATOM     85  F   UNL A   1      47.694  26.628  37.229  1.00  0.00    -0.200 F 
ENDBRANCH  52  75
ENDBRANCH  26  27
ENDBRANCH  19  21
ENDBRANCH  18  19
ENDBRANCH  17  18
ENDBRANCH   1  17
TORSDOF 14
ENDMDL
