MODEL 1
REMARK VINA RESULT:     -11.6      0.000      0.000
REMARK SMILES O=C(COc1ccc2c(c1)CCC2)N[C@@H](CO)C(=O)OCCOC(=O)c1ccc(-c2c3nc(c(-c4c(F)c(F)c(F)c(F)c4F)c4ccc([nH]4)c(-c4c(F)c(F)c(F)c(F)c4F)c4nc(c(-c5c(F)c(F)c(F)c(F)c5F)c5ccc2[nH]5)C=C4)C=C3)cc1
REMARK SMILES IDX 21 1 20 2 18 3 19 4 15 5 14 6 1 7 2 8 3 10 4 11 5 12 6 13
REMARK SMILES IDX 10 14 7 15 9 16 8 17 11 18 13 19 12 20 16 21 17 22 22 24
REMARK SMILES IDX 23 25 24 26 25 27 26 28 27 29 88 30 28 31 87 32 29 33 30 34
REMARK SMILES IDX 31 35 81 36 32 37 86 38 80 39 82 40 33 41 85 42 79 43 78 44
REMARK SMILES IDX 34 46 66 47 46 48 65 49 47 50 50 51 64 52 83 53 48 54 49 55
REMARK SMILES IDX 63 57 84 58 51 59 35 60 36 61 44 62 37 63 38 64 42 65 45 66
REMARK SMILES IDX 39 67 40 68 43 69 41 70 67 71 68 72 76 73 69 74 70 75 74 76
REMARK SMILES IDX 77 77 71 78 72 79 75 80 73 81 52 82 53 83 61 84 54 85 55 86
REMARK SMILES IDX 59 87 62 88 56 89 57 90 60 91 58 92
REMARK H PARENT 14 9 17 23 82 45 50 56
REMARK Flexibility Score: inf
ROOT
ATOM      1  C   UNL A   1      45.684  21.815  25.582  1.00  0.00     0.274 C 
ENDROOT
BRANCH   1   2
ATOM      2  O   UNL A   1      46.412  20.814  24.842  1.00  0.00    -0.460 OA
BRANCH   2   3
ATOM      3  C   UNL A   1      46.213  19.521  25.220  1.00  0.00     0.331 C 
ATOM      4  O   UNL A   1      47.054  18.823  25.780  1.00  0.00    -0.250 OA
BRANCH   3   5
ATOM      5  C   UNL A   1      44.811  19.008  24.876  1.00  0.00     0.218 C 
BRANCH   5   6
ATOM      6  N   UNL A   1      43.684  19.645  25.582  1.00  0.00    -0.338 N 
ATOM      7  O   UNL A   1      42.633  17.656  25.952  1.00  0.00    -0.271 OA
ATOM      8  C   UNL A   1      42.669  18.877  26.110  1.00  0.00     0.258 C 
ATOM      9  H   UNL A   1      43.659  20.624  25.679  1.00  0.00     0.164 HD
BRANCH   8  10
ATOM     10  C   UNL A   1      41.529  19.615  26.833  1.00  0.00     0.329 C 
BRANCH  10  11
ATOM     11  O   UNL A   1      41.609  21.018  27.004  1.00  0.00    -0.484 OA
BRANCH  11  12
ATOM     12  C   UNL A   1      40.465  21.745  26.800  1.00  0.00     0.120 A 
ATOM     13  C   UNL A   1      40.258  23.061  27.244  1.00  0.00     0.047 A 
ATOM     14  C   UNL A   1      39.496  21.120  26.008  1.00  0.00     0.050 A 
ATOM     15  C   UNL A   1      39.146  23.797  26.812  1.00  0.00     0.008 A 
ATOM     16  C   UNL A   1      38.385  21.847  25.607  1.00  0.00    -0.041 A 
ATOM     17  C   UNL A   1      38.238  23.189  25.965  1.00  0.00    -0.045 A 
ATOM     18  C   UNL A   1      37.214  21.388  24.798  1.00  0.00     0.036 C 
ATOM     19  C   UNL A   1      37.024  23.786  25.326  1.00  0.00     0.036 C 
ATOM     20  C   UNL A   1      36.688  22.727  24.264  1.00  0.00     0.010 C 
ENDBRANCH  11  12
ENDBRANCH  10  11
ENDBRANCH   8  10
ENDBRANCH   5   6
BRANCH   5  21
ATOM     21  C   UNL A   1      44.626  19.042  23.355  1.00  0.00     0.193 C 
BRANCH  21  22
ATOM     22  O   UNL A   1      45.862  18.824  22.674  1.00  0.00    -0.394 OA
ATOM     23  H   UNL A   1      46.415  18.219  23.194  1.00  0.00     0.210 HD
ENDBRANCH  21  22
ENDBRANCH   5  21
ENDBRANCH   3   5
ENDBRANCH   2   3
ENDBRANCH   1   2
BRANCH   1  24
ATOM     24  C   UNL A   1      44.948  22.779  24.639  1.00  0.00     0.275 C 
BRANCH  24  25
ATOM     25  O   UNL A   1      44.159  23.763  25.345  1.00  0.00    -0.458 OA
BRANCH  25  26
ATOM     26  C   UNL A   1      44.756  24.975  25.426  1.00  0.00     0.338 C 
ATOM     27  O   UNL A   1      45.489  25.468  24.588  1.00  0.00    -0.246 OA
BRANCH  26  28
ATOM     28  C   UNL A   1      44.319  25.731  26.613  1.00  0.00     0.060 A 
ATOM     29  C   UNL A   1      43.402  25.114  27.469  1.00  0.00     0.016 A 
ATOM     30  C   UNL A   1      44.683  27.063  26.816  1.00  0.00     0.016 A 
ATOM     31  C   UNL A   1      42.844  25.816  28.531  1.00  0.00     0.010 A 
ATOM     32  C   UNL A   1      44.116  27.773  27.884  1.00  0.00     0.010 A 
ATOM     33  C   UNL A   1      43.193  27.154  28.743  1.00  0.00    -0.014 A 
BRANCH  33  34
ATOM     34  C   UNL A   1      42.583  27.887  29.877  1.00  0.00     0.031 A 
ATOM     35  C   UNL A   1      41.285  28.617  29.705  1.00  0.00     0.074 A 
ATOM     36  C   UNL A   1      43.184  27.847  31.080  1.00  0.00     0.049 A 
ATOM     37  N   UNL A   1      40.634  29.362  30.563  1.00  0.00    -0.248 NA
ATOM     38  C   UNL A   1      40.626  28.490  28.397  1.00  0.00     0.031 C 
ATOM     39  C   UNL A   1      44.415  27.117  31.380  1.00  0.00     0.029 A 
ATOM     40  N   UNL A   1      42.842  28.435  32.271  1.00  0.00    -0.354 N 
ATOM     41  C   UNL A   1      39.490  29.788  29.903  1.00  0.00     0.074 A 
ATOM     42  C   UNL A   1      39.544  29.238  28.565  1.00  0.00     0.031 C 
ATOM     43  C   UNL A   1      44.735  27.311  32.669  1.00  0.00     0.029 A 
ATOM     44  C   UNL A   1      43.754  28.209  33.272  1.00  0.00     0.049 A 
ATOM     45  H   UNL A   1      42.023  28.966  32.396  1.00  0.00     0.167 HD
ATOM     46  C   UNL A   1      38.486  30.564  30.379  1.00  0.00     0.037 A 
ATOM     47  C   UNL A   1      43.809  28.700  34.524  1.00  0.00     0.037 A 
ATOM     48  C   UNL A   1      38.440  31.114  31.710  1.00  0.00     0.049 A 
ATOM     49  C   UNL A   1      42.720  29.619  35.001  1.00  0.00     0.074 A 
ATOM     50  C   UNL A   1      37.481  31.937  32.274  1.00  0.00     0.029 A 
ATOM     51  N   UNL A   1      39.397  30.888  32.688  1.00  0.00    -0.354 N 
ATOM     52  N   UNL A   1      41.658  30.044  34.361  1.00  0.00    -0.248 NA
ATOM     53  C   UNL A   1      42.837  30.130  36.373  1.00  0.00     0.031 C 
ATOM     54  C   UNL A   1      37.874  32.236  33.583  1.00  0.00     0.029 A 
ATOM     55  C   UNL A   1      39.057  31.567  33.848  1.00  0.00     0.049 A 
ATOM     56  H   UNL A   1      40.199  30.328  32.575  1.00  0.00     0.167 HD
ATOM     57  C   UNL A   1      40.974  30.856  35.254  1.00  0.00     0.074 A 
ATOM     58  C   UNL A   1      41.732  30.852  36.488  1.00  0.00     0.031 C 
ATOM     59  C   UNL A   1      39.823  31.548  35.067  1.00  0.00     0.037 A 
BRANCH  46  60
ATOM     60  C   UNL A   1      37.357  30.887  29.447  1.00  0.00     0.064 A 
ATOM     61  C   UNL A   1      36.354  29.949  29.161  1.00  0.00     0.173 A 
ATOM     62  C   UNL A   1      37.242  32.166  28.883  1.00  0.00     0.173 A 
ATOM     63  F   UNL A   1      36.425  28.709  29.667  1.00  0.00    -0.203 F 
ATOM     64  C   UNL A   1      35.282  30.278  28.334  1.00  0.00     0.198 A 
ATOM     65  C   UNL A   1      36.158  32.498  28.074  1.00  0.00     0.198 A 
ATOM     66  F   UNL A   1      38.174  33.099  29.129  1.00  0.00    -0.203 F 
ATOM     67  F   UNL A   1      34.348  29.359  28.053  1.00  0.00    -0.200 F 
ATOM     68  C   UNL A   1      35.181  31.553  27.798  1.00  0.00     0.200 A 
ATOM     69  F   UNL A   1      36.058  33.733  27.564  1.00  0.00    -0.200 F 
ATOM     70  F   UNL A   1      34.144  31.871  27.012  1.00  0.00    -0.200 F 
ENDBRANCH  46  60
BRANCH  47  71
ATOM     71  C   UNL A   1      44.959  28.358  35.399  1.00  0.00     0.064 A 
ATOM     72  C   UNL A   1      46.126  29.132  35.403  1.00  0.00     0.173 A 
ATOM     73  C   UNL A   1      44.910  27.240  36.246  1.00  0.00     0.173 A 
ATOM     74  F   UNL A   1      46.228  30.194  34.592  1.00  0.00    -0.203 F 
ATOM     75  C   UNL A   1      47.208  28.792  36.212  1.00  0.00     0.198 A 
ATOM     76  C   UNL A   1      45.982  26.917  37.073  1.00  0.00     0.198 A 
ATOM     77  F   UNL A   1      43.815  26.467  36.276  1.00  0.00    -0.203 F 
ATOM     78  F   UNL A   1      48.331  29.522  36.166  1.00  0.00    -0.200 F 
ATOM     79  C   UNL A   1      47.133  27.689  37.050  1.00  0.00     0.200 A 
ATOM     80  F   UNL A   1      45.901  25.857  37.888  1.00  0.00    -0.200 F 
ATOM     81  F   UNL A   1      48.175  27.364  37.828  1.00  0.00    -0.200 F 
ENDBRANCH  47  71
BRANCH  59  82
ATOM     82  C   UNL A   1      39.306  32.337  36.233  1.00  0.00     0.064 A 
ATOM     83  C   UNL A   1      38.358  31.802  37.115  1.00  0.00     0.173 A 
ATOM     84  C   UNL A   1      39.785  33.631  36.483  1.00  0.00     0.173 A 
ATOM     85  F   UNL A   1      37.860  30.574  36.907  1.00  0.00    -0.203 F 
ATOM     86  C   UNL A   1      37.890  32.544  38.196  1.00  0.00     0.198 A 
ATOM     87  C   UNL A   1      39.332  34.362  37.577  1.00  0.00     0.198 A 
ATOM     88  F   UNL A   1      40.696  34.184  35.668  1.00  0.00    -0.203 F 
ATOM     89  F   UNL A   1      36.951  32.030  39.003  1.00  0.00    -0.200 F 
ATOM     90  C   UNL A   1      38.380  33.821  38.429  1.00  0.00     0.200 A 
ATOM     91  F   UNL A   1      39.812  35.592  37.805  1.00  0.00    -0.200 F 
ATOM     92  F   UNL A   1      37.928  34.534  39.470  1.00  0.00    -0.200 F 
ENDBRANCH  59  82
ENDBRANCH  33  34
ENDBRANCH  26  28
ENDBRANCH  25  26
ENDBRANCH  24  25
ENDBRANCH   1  24
TORSDOF 17
ENDMDL
MODEL 2
REMARK VINA RESULT:     -11.5      5.967     12.077
REMARK SMILES O=C(COc1ccc2c(c1)CCC2)N[C@@H](CO)C(=O)OCCOC(=O)c1ccc(-c2c3nc(c(-c4c(F)c(F)c(F)c(F)c4F)c4ccc([nH]4)c(-c4c(F)c(F)c(F)c(F)c4F)c4nc(c(-c5c(F)c(F)c(F)c(F)c5F)c5ccc2[nH]5)C=C4)C=C3)cc1
REMARK SMILES IDX 21 1 20 2 18 3 19 4 15 5 14 6 1 7 2 8 3 10 4 11 5 12 6 13
REMARK SMILES IDX 10 14 7 15 9 16 8 17 11 18 13 19 12 20 16 21 17 22 22 24
REMARK SMILES IDX 23 25 24 26 25 27 26 28 27 29 88 30 28 31 87 32 29 33 30 34
REMARK SMILES IDX 31 35 81 36 32 37 86 38 80 39 82 40 33 41 85 42 79 43 78 44
REMARK SMILES IDX 34 46 66 47 46 48 65 49 47 50 50 51 64 52 83 53 48 54 49 55
REMARK SMILES IDX 63 57 84 58 51 59 35 60 36 61 44 62 37 63 38 64 42 65 45 66
REMARK SMILES IDX 39 67 40 68 43 69 41 70 67 71 68 72 76 73 69 74 70 75 74 76
REMARK SMILES IDX 77 77 71 78 72 79 75 80 73 81 52 82 53 83 61 84 54 85 55 86
REMARK SMILES IDX 59 87 62 88 56 89 57 90 60 91 58 92
REMARK H PARENT 14 9 17 23 82 45 50 56
REMARK Flexibility Score: inf
ROOT
ATOM      1  C   UNL A   1      33.464  33.560  28.201  1.00  0.00     0.274 C 
ENDROOT
BRANCH   1   2
ATOM      2  O   UNL A   1      34.093  34.631  28.933  1.00  0.00    -0.460 OA
BRANCH   2   3
ATOM      3  C   UNL A   1      33.261  35.476  29.602  1.00  0.00     0.331 C 
ATOM      4  O   UNL A   1      32.500  36.274  29.063  1.00  0.00    -0.250 OA
BRANCH   3   5
ATOM      5  C   UNL A   1      33.362  35.332  31.125  1.00  0.00     0.218 C 
BRANCH   5   6
ATOM      6  N   UNL A   1      34.636  34.810  31.654  1.00  0.00    -0.338 N 
ATOM      7  O   UNL A   1      33.592  33.351  33.062  1.00  0.00    -0.271 OA
ATOM      8  C   UNL A   1      34.638  33.799  32.590  1.00  0.00     0.258 C 
ATOM      9  H   UNL A   1      35.489  35.184  31.335  1.00  0.00     0.164 HD
BRANCH   8  10
ATOM     10  C   UNL A   1      36.006  33.307  33.093  1.00  0.00     0.329 C 
BRANCH  10  11
ATOM     11  O   UNL A   1      36.238  31.917  33.228  1.00  0.00    -0.484 OA
BRANCH  11  12
ATOM     12  C   UNL A   1      37.540  31.496  33.298  1.00  0.00     0.120 A 
ATOM     13  C   UNL A   1      38.596  32.235  33.854  1.00  0.00     0.047 A 
ATOM     14  C   UNL A   1      37.767  30.190  32.852  1.00  0.00     0.050 A 
ATOM     15  C   UNL A   1      39.848  31.644  34.073  1.00  0.00     0.008 A 
ATOM     16  C   UNL A   1      39.017  29.621  33.048  1.00  0.00    -0.041 A 
ATOM     17  C   UNL A   1      40.032  30.326  33.697  1.00  0.00    -0.045 A 
ATOM     18  C   UNL A   1      39.501  28.269  32.630  1.00  0.00     0.036 C 
ATOM     19  C   UNL A   1      41.245  29.470  33.888  1.00  0.00     0.036 C 
ATOM     20  C   UNL A   1      40.678  28.072  33.594  1.00  0.00     0.010 C 
ENDBRANCH  11  12
ENDBRANCH  10  11
ENDBRANCH   8  10
ENDBRANCH   5   6
BRANCH   5  21
ATOM     21  C   UNL A   1      32.974  36.663  31.778  1.00  0.00     0.193 C 
BRANCH  21  22
ATOM     22  O   UNL A   1      33.742  37.745  31.253  1.00  0.00    -0.394 OA
ATOM     23  H   UNL A   1      34.476  37.943  31.856  1.00  0.00     0.210 HD
ENDBRANCH  21  22
ENDBRANCH   5  21
ENDBRANCH   3   5
ENDBRANCH   2   3
ENDBRANCH   1   2
BRANCH   1  24
ATOM     24  C   UNL A   1      34.122  32.208  28.517  1.00  0.00     0.275 C 
BRANCH  24  25
ATOM     25  O   UNL A   1      34.323  31.392  27.342  1.00  0.00    -0.458 OA
BRANCH  25  26
ATOM     26  C   UNL A   1      34.602  30.099  27.624  1.00  0.00     0.338 C 
ATOM     27  O   UNL A   1      33.858  29.152  27.446  1.00  0.00    -0.246 OA
BRANCH  26  28
ATOM     28  C   UNL A   1      35.995  29.915  28.069  1.00  0.00     0.060 A 
ATOM     29  C   UNL A   1      37.008  30.172  27.139  1.00  0.00     0.016 A 
ATOM     30  C   UNL A   1      36.307  29.368  29.314  1.00  0.00     0.016 A 
ATOM     31  C   UNL A   1      38.334  29.891  27.445  1.00  0.00     0.010 A 
ATOM     32  C   UNL A   1      37.645  29.079  29.621  1.00  0.00     0.010 A 
ATOM     33  C   UNL A   1      38.663  29.336  28.686  1.00  0.00    -0.014 A 
BRANCH  33  34
ATOM     34  C   UNL A   1      40.081  29.038  28.990  1.00  0.00     0.031 A 
ATOM     35  C   UNL A   1      40.931  30.032  29.723  1.00  0.00     0.074 A 
ATOM     36  C   UNL A   1      40.586  27.840  28.644  1.00  0.00     0.049 A 
ATOM     37  N   UNL A   1      42.204  29.972  30.022  1.00  0.00    -0.248 NA
ATOM     38  C   UNL A   1      40.261  31.255  30.188  1.00  0.00     0.031 C 
ATOM     39  C   UNL A   1      39.836  26.771  27.985  1.00  0.00     0.029 A 
ATOM     40  N   UNL A   1      41.847  27.322  28.797  1.00  0.00    -0.354 N 
ATOM     41  C   UNL A   1      42.488  31.143  30.711  1.00  0.00     0.074 A 
ATOM     42  C   UNL A   1      41.259  31.907  30.769  1.00  0.00     0.031 C 
ATOM     43  C   UNL A   1      40.655  25.728  27.776  1.00  0.00     0.029 A 
ATOM     44  C   UNL A   1      41.992  26.071  28.250  1.00  0.00     0.049 A 
ATOM     45  H   UNL A   1      42.576  27.800  29.254  1.00  0.00     0.167 HD
ATOM     46  C   UNL A   1      43.667  31.536  31.250  1.00  0.00     0.037 A 
ATOM     47  C   UNL A   1      43.090  25.303  28.118  1.00  0.00     0.037 A 
ATOM     48  C   UNL A   1      44.888  30.774  31.184  1.00  0.00     0.049 A 
ATOM     49  C   UNL A   1      44.402  25.798  28.659  1.00  0.00     0.074 A 
ATOM     50  C   UNL A   1      46.141  31.103  31.672  1.00  0.00     0.029 A 
ATOM     51  N   UNL A   1      45.005  29.524  30.596  1.00  0.00    -0.354 N 
ATOM     52  N   UNL A   1      44.669  26.920  29.281  1.00  0.00    -0.248 NA
ATOM     53  C   UNL A   1      45.567  24.921  28.478  1.00  0.00     0.031 C 
ATOM     54  C   UNL A   1      47.023  30.066  31.351  1.00  0.00     0.029 A 
ATOM     55  C   UNL A   1      46.312  29.073  30.698  1.00  0.00     0.049 A 
ATOM     56  H   UNL A   1      44.269  29.029  30.170  1.00  0.00     0.167 HD
ATOM     57  C   UNL A   1      46.023  26.878  29.579  1.00  0.00     0.074 A 
ATOM     58  C   UNL A   1      46.521  25.611  29.085  1.00  0.00     0.031 C 
ATOM     59  C   UNL A   1      46.788  27.808  30.203  1.00  0.00     0.037 A 
BRANCH  46  60
ATOM     60  C   UNL A   1      43.705  32.864  31.944  1.00  0.00     0.064 A 
ATOM     61  C   UNL A   1      43.865  34.060  31.229  1.00  0.00     0.173 A 
ATOM     62  C   UNL A   1      43.517  32.948  33.332  1.00  0.00     0.173 A 
ATOM     63  F   UNL A   1      44.059  34.031  29.901  1.00  0.00    -0.203 F 
ATOM     64  C   UNL A   1      43.846  35.291  31.879  1.00  0.00     0.198 A 
ATOM     65  C   UNL A   1      43.478  34.182  33.977  1.00  0.00     0.198 A 
ATOM     66  F   UNL A   1      43.356  31.833  34.061  1.00  0.00    -0.203 F 
ATOM     67  F   UNL A   1      44.026  36.420  31.180  1.00  0.00    -0.200 F 
ATOM     68  C   UNL A   1      43.646  35.352  33.250  1.00  0.00     0.200 A 
ATOM     69  F   UNL A   1      43.275  34.239  35.300  1.00  0.00    -0.200 F 
ATOM     70  F   UNL A   1      43.616  36.538  33.873  1.00  0.00    -0.200 F 
ENDBRANCH  46  60
BRANCH  47  71
ATOM     71  C   UNL A   1      42.997  24.002  27.408  1.00  0.00     0.064 A 
ATOM     72  C   UNL A   1      43.306  23.891  26.047  1.00  0.00     0.173 A 
ATOM     73  C   UNL A   1      42.588  22.842  28.085  1.00  0.00     0.173 A 
ATOM     74  F   UNL A   1      43.676  24.977  25.354  1.00  0.00    -0.203 F 
ATOM     75  C   UNL A   1      43.196  22.671  25.384  1.00  0.00     0.198 A 
ATOM     76  C   UNL A   1      42.504  21.618  27.427  1.00  0.00     0.198 A 
ATOM     77  F   UNL A   1      42.279  22.899  29.388  1.00  0.00    -0.203 F 
ATOM     78  F   UNL A   1      43.454  22.598  24.072  1.00  0.00    -0.200 F 
ATOM     79  C   UNL A   1      42.802  21.535  26.076  1.00  0.00     0.200 A 
ATOM     80  F   UNL A   1      42.132  20.522  28.102  1.00  0.00    -0.200 F 
ATOM     81  F   UNL A   1      42.697  20.361  25.437  1.00  0.00    -0.200 F 
ENDBRANCH  47  71
BRANCH  59  82
ATOM     82  C   UNL A   1      48.236  27.476  30.403  1.00  0.00     0.064 A 
ATOM     83  C   UNL A   1      48.684  26.827  31.561  1.00  0.00     0.173 A 
ATOM     84  C   UNL A   1      49.179  27.787  29.413  1.00  0.00     0.173 A 
ATOM     85  F   UNL A   1      47.820  26.523  32.542  1.00  0.00    -0.203 F 
ATOM     86  C   UNL A   1      50.031  26.520  31.732  1.00  0.00     0.198 A 
ATOM     87  C   UNL A   1      50.522  27.459  29.577  1.00  0.00     0.198 A 
ATOM     88  F   UNL A   1      48.798  28.405  28.285  1.00  0.00    -0.203 F 
ATOM     89  F   UNL A   1      50.446  25.937  32.866  1.00  0.00    -0.200 F 
ATOM     90  C   UNL A   1      50.948  26.832  30.739  1.00  0.00     0.200 A 
ATOM     91  F   UNL A   1      51.406  27.753  28.613  1.00  0.00    -0.200 F 
ATOM     92  F   UNL A   1      52.245  26.536  30.904  1.00  0.00    -0.200 F 
ENDBRANCH  59  82
ENDBRANCH  33  34
ENDBRANCH  26  28
ENDBRANCH  25  26
ENDBRANCH  24  25
ENDBRANCH   1  24
TORSDOF 17
ENDMDL
MODEL 3
REMARK VINA RESULT:     -11.5      1.171      2.224
REMARK SMILES O=C(COc1ccc2c(c1)CCC2)N[C@@H](CO)C(=O)OCCOC(=O)c1ccc(-c2c3nc(c(-c4c(F)c(F)c(F)c(F)c4F)c4ccc([nH]4)c(-c4c(F)c(F)c(F)c(F)c4F)c4nc(c(-c5c(F)c(F)c(F)c(F)c5F)c5ccc2[nH]5)C=C4)C=C3)cc1
REMARK SMILES IDX 21 1 20 2 18 3 19 4 15 5 14 6 1 7 2 8 3 10 4 11 5 12 6 13
REMARK SMILES IDX 10 14 7 15 9 16 8 17 11 18 13 19 12 20 16 21 17 22 22 24
REMARK SMILES IDX 23 25 24 26 25 27 26 28 27 29 88 30 28 31 87 32 29 33 30 34
REMARK SMILES IDX 31 35 81 36 32 37 86 38 80 39 82 40 33 41 85 42 79 43 78 44
REMARK SMILES IDX 34 46 66 47 46 48 65 49 47 50 50 51 64 52 83 53 48 54 49 55
REMARK SMILES IDX 63 57 84 58 51 59 35 60 36 61 44 62 37 63 38 64 42 65 45 66
REMARK SMILES IDX 39 67 40 68 43 69 41 70 67 71 68 72 76 73 69 74 70 75 74 76
REMARK SMILES IDX 77 77 71 78 72 79 75 80 73 81 52 82 53 83 61 84 54 85 55 86
REMARK SMILES IDX 59 87 62 88 56 89 57 90 60 91 58 92
REMARK H PARENT 14 9 17 23 82 45 50 56
REMARK Flexibility Score: inf
ROOT
ATOM      1  C   UNL A   1      45.209  21.809  24.631  1.00  0.00     0.274 C 
ENDROOT
BRANCH   1   2
ATOM      2  O   UNL A   1      44.367  21.232  25.649  1.00  0.00    -0.460 OA
BRANCH   2   3
ATOM      3  C   UNL A   1      43.719  20.082  25.316  1.00  0.00     0.331 C 
ATOM      4  O   UNL A   1      44.007  19.375  24.354  1.00  0.00    -0.250 OA
BRANCH   3   5
ATOM      5  C   UNL A   1      42.574  19.742  26.276  1.00  0.00     0.218 C 
BRANCH   5   6
ATOM      6  N   UNL A   1      41.248  20.289  25.940  1.00  0.00    -0.338 N 
ATOM      7  O   UNL A   1      41.325  21.833  27.616  1.00  0.00    -0.271 OA
ATOM      8  C   UNL A   1      40.733  21.354  26.647  1.00  0.00     0.258 C 
ATOM      9  H   UNL A   1      40.727  19.893  25.204  1.00  0.00     0.164 HD
BRANCH   8  10
ATOM     10  C   UNL A   1      39.343  21.869  26.235  1.00  0.00     0.329 C 
BRANCH  10  11
ATOM     11  O   UNL A   1      38.539  21.084  25.375  1.00  0.00    -0.484 OA
BRANCH  11  12
ATOM     12  C   UNL A   1      37.297  21.568  25.055  1.00  0.00     0.120 A 
ATOM     13  C   UNL A   1      37.049  22.800  24.430  1.00  0.00     0.047 A 
ATOM     14  C   UNL A   1      36.235  20.692  25.307  1.00  0.00     0.050 A 
ATOM     15  C   UNL A   1      35.770  23.118  23.953  1.00  0.00     0.008 A 
ATOM     16  C   UNL A   1      34.968  21.026  24.856  1.00  0.00    -0.041 A 
ATOM     17  C   UNL A   1      34.748  22.206  24.141  1.00  0.00    -0.045 A 
ATOM     18  C   UNL A   1      33.687  20.275  25.035  1.00  0.00     0.036 C 
ATOM     19  C   UNL A   1      33.331  22.292  23.667  1.00  0.00     0.036 C 
ATOM     20  C   UNL A   1      32.851  20.848  23.883  1.00  0.00     0.010 C 
ENDBRANCH  11  12
ENDBRANCH  10  11
ENDBRANCH   8  10
ENDBRANCH   5   6
BRANCH   5  21
ATOM     21  C   UNL A   1      42.532  18.224  26.483  1.00  0.00     0.193 C 
BRANCH  21  22
ATOM     22  O   UNL A   1      43.807  17.714  26.871  1.00  0.00    -0.394 OA
ATOM     23  H   UNL A   1      44.258  18.364  27.434  1.00  0.00     0.210 HD
ENDBRANCH  21  22
ENDBRANCH   5  21
ENDBRANCH   3   5
ENDBRANCH   2   3
ENDBRANCH   1   2
BRANCH   1  24
ATOM     24  C   UNL A   1      44.488  22.948  23.893  1.00  0.00     0.275 C 
BRANCH  24  25
ATOM     25  O   UNL A   1      43.704  23.781  24.775  1.00  0.00    -0.458 OA
BRANCH  25  26
ATOM     26  C   UNL A   1      44.340  24.913  25.156  1.00  0.00     0.338 C 
ATOM     27  O   UNL A   1      45.328  25.390  24.628  1.00  0.00    -0.246 OA
BRANCH  26  28
ATOM     28  C   UNL A   1      43.624  25.617  26.235  1.00  0.00     0.060 A 
ATOM     29  C   UNL A   1      44.018  26.928  26.520  1.00  0.00     0.016 A 
ATOM     30  C   UNL A   1      42.690  24.972  27.046  1.00  0.00     0.016 A 
ATOM     31  C   UNL A   1      43.482  27.605  27.610  1.00  0.00     0.010 A 
ATOM     32  C   UNL A   1      42.154  25.651  28.149  1.00  0.00     0.010 A 
ATOM     33  C   UNL A   1      42.550  26.968  28.438  1.00  0.00    -0.014 A 
BRANCH  33  34
ATOM     34  C   UNL A   1      41.996  27.704  29.598  1.00  0.00     0.031 A 
ATOM     35  C   UNL A   1      40.753  28.530  29.456  1.00  0.00     0.074 A 
ATOM     36  C   UNL A   1      42.595  27.581  30.796  1.00  0.00     0.049 A 
ATOM     37  N   UNL A   1      40.158  29.289  30.341  1.00  0.00    -0.248 NA
ATOM     38  C   UNL A   1      40.084  28.494  28.147  1.00  0.00     0.031 C 
ATOM     39  C   UNL A   1      43.772  26.755  31.066  1.00  0.00     0.029 A 
ATOM     40  N   UNL A   1      42.297  28.150  32.008  1.00  0.00    -0.354 N 
ATOM     41  C   UNL A   1      39.046  29.818  29.701  1.00  0.00     0.074 A 
ATOM     42  C   UNL A   1      39.058  29.311  28.345  1.00  0.00     0.031 C 
ATOM     43  C   UNL A   1      44.106  26.882  32.360  1.00  0.00     0.029 A 
ATOM     44  C   UNL A   1      43.193  27.827  32.997  1.00  0.00     0.049 A 
ATOM     45  H   UNL A   1      41.518  28.734  32.154  1.00  0.00     0.167 HD
ATOM     46  C   UNL A   1      38.100  30.646  30.207  1.00  0.00     0.037 A 
ATOM     47  C   UNL A   1      43.285  28.270  34.264  1.00  0.00     0.037 A 
ATOM     48  C   UNL A   1      38.096  31.152  31.556  1.00  0.00     0.049 A 
ATOM     49  C   UNL A   1      42.264  29.248  34.777  1.00  0.00     0.074 A 
ATOM     50  C   UNL A   1      37.199  32.022  32.151  1.00  0.00     0.029 A 
ATOM     51  N   UNL A   1      39.036  30.826  32.521  1.00  0.00    -0.354 N 
ATOM     52  N   UNL A   1      41.234  29.768  34.156  1.00  0.00    -0.248 NA
ATOM     53  C   UNL A   1      42.420  29.702  36.165  1.00  0.00     0.031 C 
ATOM     54  C   UNL A   1      37.614  32.247  33.468  1.00  0.00     0.029 A 
ATOM     55  C   UNL A   1      38.747  31.488  33.705  1.00  0.00     0.049 A 
ATOM     56  H   UNL A   1      39.796  30.215  32.387  1.00  0.00     0.167 HD
ATOM     57  C   UNL A   1      40.611  30.596  35.078  1.00  0.00     0.074 A 
ATOM     58  C   UNL A   1      41.369  30.496  36.308  1.00  0.00     0.031 C 
ATOM     59  C   UNL A   1      39.512  31.373  34.919  1.00  0.00     0.037 A 
BRANCH  46  60
ATOM     60  C   UNL A   1      36.995  31.079  29.291  1.00  0.00     0.064 A 
ATOM     61  C   UNL A   1      35.942  30.216  28.956  1.00  0.00     0.173 A 
ATOM     62  C   UNL A   1      36.956  32.390  28.792  1.00  0.00     0.173 A 
ATOM     63  F   UNL A   1      35.940  28.949  29.399  1.00  0.00    -0.203 F 
ATOM     64  C   UNL A   1      34.894  30.647  28.145  1.00  0.00     0.198 A 
ATOM     65  C   UNL A   1      35.896  32.824  27.999  1.00  0.00     0.198 A 
ATOM     66  F   UNL A   1      37.938  33.255  29.087  1.00  0.00    -0.203 F 
ATOM     67  F   UNL A   1      33.911  29.798  27.816  1.00  0.00    -0.200 F 
ATOM     68  C   UNL A   1      34.868  31.951  27.674  1.00  0.00     0.200 A 
ATOM     69  F   UNL A   1      35.868  34.087  27.553  1.00  0.00    -0.200 F 
ATOM     70  F   UNL A   1      33.854  32.367  26.904  1.00  0.00    -0.200 F 
ENDBRANCH  46  60
BRANCH  47  71
ATOM     71  C   UNL A   1      44.409  27.818  35.123  1.00  0.00     0.064 A 
ATOM     72  C   UNL A   1      44.297  26.679  35.930  1.00  0.00     0.173 A 
ATOM     73  C   UNL A   1      45.619  28.527  35.154  1.00  0.00     0.173 A 
ATOM     74  F   UNL A   1      43.151  25.984  35.952  1.00  0.00    -0.203 F 
ATOM     75  C   UNL A   1      45.349  26.275  36.749  1.00  0.00     0.198 A 
ATOM     76  C   UNL A   1      46.679  28.107  35.952  1.00  0.00     0.198 A 
ATOM     77  F   UNL A   1      45.774  29.626  34.400  1.00  0.00    -0.203 F 
ATOM     78  F   UNL A   1      45.203  25.207  37.545  1.00  0.00    -0.200 F 
ATOM     79  C   UNL A   1      46.541  26.984  36.754  1.00  0.00     0.200 A 
ATOM     80  F   UNL A   1      47.831  28.790  35.946  1.00  0.00    -0.200 F 
ATOM     81  F   UNL A   1      47.553  26.593  37.541  1.00  0.00    -0.200 F 
ENDBRANCH  47  71
BRANCH  59  82
ATOM     82  C   UNL A   1      39.054  32.157  36.113  1.00  0.00     0.064 A 
ATOM     83  C   UNL A   1      38.178  31.606  37.058  1.00  0.00     0.173 A 
ATOM     84  C   UNL A   1      39.519  33.463  36.326  1.00  0.00     0.173 A 
ATOM     85  F   UNL A   1      37.696  30.366  36.888  1.00  0.00    -0.203 F 
ATOM     86  C   UNL A   1      37.765  32.344  38.164  1.00  0.00     0.198 A 
ATOM     87  C   UNL A   1      39.121  34.190  37.444  1.00  0.00     0.198 A 
ATOM     88  F   UNL A   1      40.362  34.032  35.451  1.00  0.00    -0.203 F 
ATOM     89  F   UNL A   1      36.893  31.813  39.033  1.00  0.00    -0.200 F 
ATOM     90  C   UNL A   1      38.240  33.632  38.359  1.00  0.00     0.200 A 
ATOM     91  F   UNL A   1      39.587  35.432  37.636  1.00  0.00    -0.200 F 
ATOM     92  F   UNL A   1      37.841  34.341  39.424  1.00  0.00    -0.200 F 
ENDBRANCH  59  82
ENDBRANCH  33  34
ENDBRANCH  26  28
ENDBRANCH  25  26
ENDBRANCH  24  25
ENDBRANCH   1  24
TORSDOF 17
ENDMDL
