MODEL 1
REMARK VINA RESULT:     -13.5      0.000      0.000
REMARK SMILES COc1c[nH]c(C[N@H+]2CCC[C@@H](c3ccc(C(=O)OCCOC(=O)c4ccc(-c5c6nc(c(-c7c(F)c(F)c(F)c(F)c7F)c7ccc([nH]7)c(-c7c(F)c(F)c(F)c(F)c7F)c7nc(c(-c8c(F)c(F)c(F)c(F)c8F)c8ccc5[nH]8)C=C7)C=C6)cc4)cc3)C2)cc1=O
REMARK SMILES IDX 20 1 19 2 17 3 18 4 16 5 13 6 14 7 89 8 15 9 88 10 12 11
REMARK SMILES IDX 8 12 9 13 90 14 10 16 11 17 7 18 6 19 3 20 4 21 92 22 5 23
REMARK SMILES IDX 91 24 93 25 2 27 1 28 21 29 22 30 23 31 24 32 25 33 26 34
REMARK SMILES IDX 87 35 27 36 86 37 28 38 29 39 30 40 80 41 31 42 85 43 79 44
REMARK SMILES IDX 81 45 32 46 84 47 78 48 77 49 33 51 65 52 45 53 64 54 46 55
REMARK SMILES IDX 49 56 63 57 82 58 47 59 48 60 62 62 83 63 50 64 34 65 35 66
REMARK SMILES IDX 43 67 36 68 37 69 41 70 44 71 38 72 39 73 42 74 40 75 66 76
REMARK SMILES IDX 67 77 75 78 68 79 69 80 73 81 76 82 70 83 71 84 74 85 72 86
REMARK SMILES IDX 51 87 52 88 60 89 53 90 54 91 58 92 61 93 55 94 56 95 59 96
REMARK SMILES IDX 57 97
REMARK H PARENT 8 15 5 26 81 50 49 61
REMARK Flexibility Score: inf
ROOT
ATOM      1  C   UNL A   1      42.716  20.577  26.372  1.00  0.00     0.275 C 
ENDROOT
BRANCH   1   2
ATOM      2  O   UNL A   1      41.327  20.509  25.992  1.00  0.00    -0.458 OA
BRANCH   2   3
ATOM      3  C   UNL A   1      40.474  21.144  26.829  1.00  0.00     0.338 C 
ATOM      4  O   UNL A   1      40.669  21.404  28.008  1.00  0.00    -0.246 OA
BRANCH   3   5
ATOM      5  C   UNL A   1      39.263  21.607  26.115  1.00  0.00     0.060 A 
ATOM      6  C   UNL A   1      36.858  22.576  25.024  1.00  0.00    -0.039 A 
ATOM      7  C   UNL A   1      37.702  23.419  25.759  1.00  0.00     0.005 A 
ATOM      8  C   UNL A   1      37.269  21.254  24.788  1.00  0.00     0.005 A 
ATOM      9  C   UNL A   1      38.863  22.924  26.334  1.00  0.00     0.016 A 
ATOM     10  C   UNL A   1      38.478  20.772  25.317  1.00  0.00     0.016 A 
BRANCH   6  11
ATOM     11  C   UNL A   1      35.467  23.067  24.639  1.00  0.00     0.074 C 
ATOM     12  N   UNL A   1      33.038  22.369  24.917  1.00  0.00    -0.329 N 
ATOM     13  C   UNL A   1      32.746  23.634  25.602  1.00  0.00     0.262 C 
ATOM     14  C   UNL A   1      34.442  21.989  25.075  1.00  0.00     0.270 C 
ATOM     15  H   UNL A   1      32.882  22.523  23.921  1.00  0.00     0.348 HD
ATOM     16  C   UNL A   1      33.649  24.759  25.084  1.00  0.00     0.062 C 
ATOM     17  C   UNL A   1      35.127  24.425  25.273  1.00  0.00     0.020 C 
BRANCH  12  18
ATOM     18  C   UNL A   1      32.109  21.286  25.308  1.00  0.00     0.317 C 
BRANCH  18  19
ATOM     19  C   UNL A   1      32.502  19.847  24.967  1.00  0.00     0.074 A 
ATOM     20  C   UNL A   1      33.182  17.093  24.571  1.00  0.00     0.182 A 
ATOM     21  C   UNL A   1      33.179  17.676  25.777  1.00  0.00     0.133 A 
ATOM     22  C   UNL A   1      32.858  17.987  23.402  1.00  0.00     0.223 A 
ATOM     23  N   UNL A   1      32.913  19.002  25.984  1.00  0.00    -0.357 N 
ATOM     24  C   UNL A   1      32.486  19.403  23.696  1.00  0.00     0.083 A 
ATOM     25  O   UNL A   1      32.878  17.599  22.237  1.00  0.00    -0.286 OA
ATOM     26  H   UNL A   1      33.020  19.370  26.891  1.00  0.00     0.166 HD
BRANCH  20  27
ATOM     27  O   UNL A   1      33.396  15.734  24.443  1.00  0.00    -0.491 OA
ATOM     28  C   UNL A   1      32.628  14.967  25.365  1.00  0.00     0.278 C 
ENDBRANCH  20  27
ENDBRANCH  18  19
ENDBRANCH  12  18
ENDBRANCH   6  11
ENDBRANCH   3   5
ENDBRANCH   2   3
ENDBRANCH   1   2
BRANCH   1  29
ATOM     29  C   UNL A   1      43.504  21.500  25.442  1.00  0.00     0.275 C 
BRANCH  29  30
ATOM     30  O   UNL A   1      42.720  22.649  25.068  1.00  0.00    -0.458 OA
BRANCH  30  31
ATOM     31  C   UNL A   1      43.404  23.810  24.966  1.00  0.00     0.338 C 
ATOM     32  O   UNL A   1      44.384  24.040  24.278  1.00  0.00    -0.246 OA
BRANCH  31  33
ATOM     33  C   UNL A   1      42.803  24.834  25.834  1.00  0.00     0.060 A 
ATOM     34  C   UNL A   1      43.033  26.179  25.566  1.00  0.00     0.016 A 
ATOM     35  C   UNL A   1      42.161  24.455  27.010  1.00  0.00     0.016 A 
ATOM     36  C   UNL A   1      42.746  27.146  26.531  1.00  0.00     0.010 A 
ATOM     37  C   UNL A   1      41.759  25.438  27.921  1.00  0.00     0.010 A 
ATOM     38  C   UNL A   1      42.088  26.792  27.717  1.00  0.00    -0.014 A 
BRANCH  38  39
ATOM     39  C   UNL A   1      41.760  27.803  28.765  1.00  0.00     0.031 A 
ATOM     40  C   UNL A   1      42.639  27.929  29.983  1.00  0.00     0.074 A 
ATOM     41  C   UNL A   1      40.668  28.586  28.662  1.00  0.00     0.049 A 
ATOM     42  N   UNL A   1      42.386  28.491  31.139  1.00  0.00    -0.248 NA
ATOM     43  C   UNL A   1      43.976  27.322  29.893  1.00  0.00     0.031 C 
ATOM     44  C   UNL A   1      39.759  28.637  27.517  1.00  0.00     0.029 A 
ATOM     45  N   UNL A   1      40.125  29.484  29.552  1.00  0.00    -0.354 N 
ATOM     46  C   UNL A   1      43.497  28.238  31.935  1.00  0.00     0.074 A 
ATOM     47  C   UNL A   1      44.433  27.486  31.127  1.00  0.00     0.031 C 
ATOM     48  C   UNL A   1      38.787  29.528  27.762  1.00  0.00     0.029 A 
ATOM     49  C   UNL A   1      38.941  30.032  29.121  1.00  0.00     0.049 A 
ATOM     50  H   UNL A   1      40.545  29.712  30.412  1.00  0.00     0.167 HD
ATOM     51  C   UNL A   1      43.706  28.594  33.225  1.00  0.00     0.037 A 
ATOM     52  C   UNL A   1      38.040  30.799  29.765  1.00  0.00     0.037 A 
ATOM     53  C   UNL A   1      42.799  29.403  33.998  1.00  0.00     0.049 A 
ATOM     54  C   UNL A   1      38.273  31.155  31.206  1.00  0.00     0.074 A 
ATOM     55  C   UNL A   1      42.923  29.827  35.310  1.00  0.00     0.029 A 
ATOM     56  N   UNL A   1      41.610  29.930  33.518  1.00  0.00    -0.354 N 
ATOM     57  N   UNL A   1      39.280  30.839  31.983  1.00  0.00    -0.248 NA
ATOM     58  C   UNL A   1      37.231  31.953  31.870  1.00  0.00     0.031 C 
ATOM     59  C   UNL A   1      41.793  30.587  35.633  1.00  0.00     0.029 A 
ATOM     60  C   UNL A   1      40.988  30.670  34.510  1.00  0.00     0.049 A 
ATOM     61  H   UNL A   1      41.260  29.798  32.607  1.00  0.00     0.167 HD
ATOM     62  C   UNL A   1      39.006  31.414  33.215  1.00  0.00     0.074 A 
ATOM     63  C   UNL A   1      37.740  32.104  33.085  1.00  0.00     0.031 C 
ATOM     64  C   UNL A   1      39.739  31.369  34.353  1.00  0.00     0.037 A 
BRANCH  51  65
ATOM     65  C   UNL A   1      44.942  28.081  33.903  1.00  0.00     0.064 A 
ATOM     66  C   UNL A   1      45.001  26.808  34.486  1.00  0.00     0.173 A 
ATOM     67  C   UNL A   1      46.106  28.867  33.927  1.00  0.00     0.173 A 
ATOM     68  F   UNL A   1      43.914  26.022  34.501  1.00  0.00    -0.203 F 
ATOM     69  C   UNL A   1      46.172  26.348  35.086  1.00  0.00     0.198 A 
ATOM     70  C   UNL A   1      47.283  28.394  34.502  1.00  0.00     0.198 A 
ATOM     71  F   UNL A   1      46.108  30.090  33.376  1.00  0.00    -0.203 F 
ATOM     72  F   UNL A   1      46.194  25.143  35.672  1.00  0.00    -0.200 F 
ATOM     73  C   UNL A   1      47.312  27.137  35.087  1.00  0.00     0.200 A 
ATOM     74  F   UNL A   1      48.387  29.154  34.490  1.00  0.00    -0.200 F 
ATOM     75  F   UNL A   1      48.440  26.690  35.657  1.00  0.00    -0.200 F 
ENDBRANCH  51  65
BRANCH  52  76
ATOM     76  C   UNL A   1      36.803  31.229  29.061  1.00  0.00     0.064 A 
ATOM     77  C   UNL A   1      36.636  32.556  28.645  1.00  0.00     0.173 A 
ATOM     78  C   UNL A   1      35.775  30.320  28.771  1.00  0.00     0.173 A 
ATOM     79  F   UNL A   1      37.579  33.469  28.923  1.00  0.00    -0.203 F 
ATOM     80  C   UNL A   1      35.486  32.957  27.967  1.00  0.00     0.198 A 
ATOM     81  C   UNL A   1      34.640  30.714  28.068  1.00  0.00     0.198 A 
ATOM     82  F   UNL A   1      35.886  29.037  29.149  1.00  0.00    -0.203 F 
ATOM     83  F   UNL A   1      35.335  34.240  27.609  1.00  0.00    -0.200 F 
ATOM     84  C   UNL A   1      34.495  32.035  27.670  1.00  0.00     0.200 A 
ATOM     85  F   UNL A   1      33.692  29.816  27.769  1.00  0.00    -0.200 F 
ATOM     86  F   UNL A   1      33.395  32.419  27.006  1.00  0.00    -0.200 F 
ENDBRANCH  52  76
BRANCH  64  87
ATOM     87  C   UNL A   1      39.222  32.131  35.536  1.00  0.00     0.064 A 
ATOM     88  C   UNL A   1      38.432  31.517  36.517  1.00  0.00     0.173 A 
ATOM     89  C   UNL A   1      39.580  33.475  35.720  1.00  0.00     0.173 A 
ATOM     90  F   UNL A   1      38.053  30.238  36.375  1.00  0.00    -0.203 F 
ATOM     91  C   UNL A   1      38.010  32.225  37.638  1.00  0.00     0.198 A 
ATOM     92  C   UNL A   1      39.174  34.174  36.852  1.00  0.00     0.198 A 
ATOM     93  F   UNL A   1      40.338  34.103  34.808  1.00  0.00    -0.203 F 
ATOM     94  F   UNL A   1      37.233  31.629  38.552  1.00  0.00    -0.200 F 
ATOM     95  C   UNL A   1      38.388  33.550  37.809  1.00  0.00     0.200 A 
ATOM     96  F   UNL A   1      39.547  35.451  37.020  1.00  0.00    -0.200 F 
ATOM     97  F   UNL A   1      37.990  34.226  38.895  1.00  0.00    -0.200 F 
ENDBRANCH  64  87
ENDBRANCH  38  39
ENDBRANCH  31  33
ENDBRANCH  30  31
ENDBRANCH  29  30
ENDBRANCH   1  29
TORSDOF 15
ENDMDL
MODEL 2
REMARK VINA RESULT:     -13.4      4.865      7.235
REMARK SMILES COc1c[nH]c(C[N@H+]2CCC[C@@H](c3ccc(C(=O)OCCOC(=O)c4ccc(-c5c6nc(c(-c7c(F)c(F)c(F)c(F)c7F)c7ccc([nH]7)c(-c7c(F)c(F)c(F)c(F)c7F)c7nc(c(-c8c(F)c(F)c(F)c(F)c8F)c8ccc5[nH]8)C=C7)C=C6)cc4)cc3)C2)cc1=O
REMARK SMILES IDX 20 1 19 2 17 3 18 4 16 5 13 6 14 7 89 8 15 9 88 10 12 11
REMARK SMILES IDX 8 12 9 13 90 14 10 16 11 17 7 18 6 19 3 20 4 21 92 22 5 23
REMARK SMILES IDX 91 24 93 25 2 27 1 28 21 29 22 30 23 31 24 32 25 33 26 34
REMARK SMILES IDX 87 35 27 36 86 37 28 38 29 39 30 40 80 41 31 42 85 43 79 44
REMARK SMILES IDX 81 45 32 46 84 47 78 48 77 49 33 51 65 52 45 53 64 54 46 55
REMARK SMILES IDX 49 56 63 57 82 58 47 59 48 60 62 62 83 63 50 64 34 65 35 66
REMARK SMILES IDX 43 67 36 68 37 69 41 70 44 71 38 72 39 73 42 74 40 75 66 76
REMARK SMILES IDX 67 77 75 78 68 79 69 80 73 81 76 82 70 83 71 84 74 85 72 86
REMARK SMILES IDX 51 87 52 88 60 89 53 90 54 91 58 92 61 93 55 94 56 95 59 96
REMARK SMILES IDX 57 97
REMARK H PARENT 8 15 5 26 81 50 49 61
REMARK Flexibility Score: inf
ROOT
ATOM      1  C   UNL A   1      41.909  19.627  27.038  1.00  0.00     0.275 C 
ENDROOT
BRANCH   1   2
ATOM      2  O   UNL A   1      41.302  20.667  26.245  1.00  0.00    -0.458 OA
BRANCH   2   3
ATOM      3  C   UNL A   1      40.543  21.546  26.939  1.00  0.00     0.338 C 
ATOM      4  O   UNL A   1      40.820  22.056  28.015  1.00  0.00    -0.246 OA
BRANCH   3   5
ATOM      5  C   UNL A   1      39.330  21.926  26.182  1.00  0.00     0.060 A 
ATOM      6  C   UNL A   1      36.908  22.737  25.004  1.00  0.00    -0.039 A 
ATOM      7  C   UNL A   1      37.679  23.639  25.748  1.00  0.00     0.005 A 
ATOM      8  C   UNL A   1      37.401  21.438  24.803  1.00  0.00     0.005 A 
ATOM      9  C   UNL A   1      38.849  23.222  26.365  1.00  0.00     0.016 A 
ATOM     10  C   UNL A   1      38.618  21.035  25.376  1.00  0.00     0.016 A 
BRANCH   6  11
ATOM     11  C   UNL A   1      35.503  23.141  24.570  1.00  0.00     0.074 C 
ATOM     12  N   UNL A   1      33.098  22.386  24.901  1.00  0.00    -0.329 N 
ATOM     13  C   UNL A   1      32.757  23.698  25.464  1.00  0.00     0.262 C 
ATOM     14  C   UNL A   1      34.514  22.072  25.099  1.00  0.00     0.270 C 
ATOM     15  H   UNL A   1      32.944  22.442  23.894  1.00  0.00     0.348 HD
ATOM     16  C   UNL A   1      33.624  24.802  24.848  1.00  0.00     0.062 C 
ATOM     17  C   UNL A   1      35.112  24.539  25.073  1.00  0.00     0.020 C 
BRANCH  12  18
ATOM     18  C   UNL A   1      32.205  21.312  25.386  1.00  0.00     0.317 C 
BRANCH  18  19
ATOM     19  C   UNL A   1      32.543  19.870  25.001  1.00  0.00     0.074 A 
ATOM     20  C   UNL A   1      33.115  17.105  24.520  1.00  0.00     0.182 A 
ATOM     21  C   UNL A   1      33.116  17.646  25.745  1.00  0.00     0.133 A 
ATOM     22  C   UNL A   1      32.846  18.050  23.378  1.00  0.00     0.223 A 
ATOM     23  N   UNL A   1      32.903  18.975  25.995  1.00  0.00    -0.357 N 
ATOM     24  C   UNL A   1      32.528  19.470  23.716  1.00  0.00     0.083 A 
ATOM     25  O   UNL A   1      32.868  17.702  22.202  1.00  0.00    -0.286 OA
ATOM     26  H   UNL A   1      33.010  19.307  26.915  1.00  0.00     0.166 HD
BRANCH  20  27
ATOM     27  O   UNL A   1      33.274  15.743  24.349  1.00  0.00    -0.491 OA
ATOM     28  C   UNL A   1      32.649  14.982  25.378  1.00  0.00     0.278 C 
ENDBRANCH  20  27
ENDBRANCH  18  19
ENDBRANCH  12  18
ENDBRANCH   6  11
ENDBRANCH   3   5
ENDBRANCH   2   3
ENDBRANCH   1   2
BRANCH   1  29
ATOM     29  C   UNL A   1      42.626  18.602  26.159  1.00  0.00     0.275 C 
BRANCH  29  30
ATOM     30  O   UNL A   1      42.945  19.160  24.870  1.00  0.00    -0.458 OA
BRANCH  30  31
ATOM     31  C   UNL A   1      44.264  19.287  24.604  1.00  0.00     0.338 C 
ATOM     32  O   UNL A   1      45.046  18.411  24.275  1.00  0.00    -0.246 OA
BRANCH  31  33
ATOM     33  C   UNL A   1      44.684  20.687  24.768  1.00  0.00     0.060 A 
ATOM     34  C   UNL A   1      45.342  21.073  25.931  1.00  0.00     0.016 A 
ATOM     35  C   UNL A   1      44.268  21.647  23.849  1.00  0.00     0.016 A 
ATOM     36  C   UNL A   1      45.471  22.425  26.249  1.00  0.00     0.010 A 
ATOM     37  C   UNL A   1      44.511  22.999  24.110  1.00  0.00     0.010 A 
ATOM     38  C   UNL A   1      45.073  23.411  25.335  1.00  0.00    -0.014 A 
BRANCH  38  39
ATOM     39  C   UNL A   1      45.203  24.866  25.641  1.00  0.00     0.031 A 
ATOM     40  C   UNL A   1      46.532  25.552  25.456  1.00  0.00     0.074 A 
ATOM     41  C   UNL A   1      44.160  25.576  26.115  1.00  0.00     0.049 A 
ATOM     42  N   UNL A   1      46.957  26.692  25.943  1.00  0.00    -0.248 NA
ATOM     43  C   UNL A   1      47.524  24.849  24.628  1.00  0.00     0.031 C 
ATOM     44  C   UNL A   1      42.794  25.079  26.281  1.00  0.00     0.029 A 
ATOM     45  N   UNL A   1      44.094  26.875  26.563  1.00  0.00    -0.354 N 
ATOM     46  C   UNL A   1      48.283  26.803  25.545  1.00  0.00     0.074 A 
ATOM     47  C   UNL A   1      48.591  25.624  24.764  1.00  0.00     0.031 C 
ATOM     48  C   UNL A   1      42.023  26.059  26.773  1.00  0.00     0.029 A 
ATOM     49  C   UNL A   1      42.859  27.218  27.059  1.00  0.00     0.049 A 
ATOM     50  H   UNL A   1      44.855  27.497  26.531  1.00  0.00     0.167 HD
ATOM     51  C   UNL A   1      49.163  27.796  25.819  1.00  0.00     0.037 A 
ATOM     52  C   UNL A   1      42.455  28.313  27.731  1.00  0.00     0.037 A 
ATOM     53  C   UNL A   1      48.828  28.998  26.537  1.00  0.00     0.049 A 
ATOM     54  C   UNL A   1      43.452  29.389  28.055  1.00  0.00     0.074 A 
ATOM     55  C   UNL A   1      49.644  30.070  26.860  1.00  0.00     0.029 A 
ATOM     56  N   UNL A   1      47.564  29.299  27.024  1.00  0.00    -0.354 N 
ATOM     57  N   UNL A   1      44.726  29.450  27.758  1.00  0.00    -0.248 NA
ATOM     58  C   UNL A   1      42.963  30.536  28.834  1.00  0.00     0.031 C 
ATOM     59  C   UNL A   1      48.880  31.005  27.567  1.00  0.00     0.029 A 
ATOM     60  C   UNL A   1      47.580  30.534  27.648  1.00  0.00     0.049 A 
ATOM     61  H   UNL A   1      46.773  28.719  26.937  1.00  0.00     0.167 HD
ATOM     62  C   UNL A   1      45.186  30.645  28.290  1.00  0.00     0.074 A 
ATOM     63  C   UNL A   1      44.054  31.285  28.927  1.00  0.00     0.031 C 
ATOM     64  C   UNL A   1      46.437  31.164  28.256  1.00  0.00     0.037 A 
BRANCH  51  65
ATOM     65  C   UNL A   1      50.587  27.614  25.381  1.00  0.00     0.064 A 
ATOM     66  C   UNL A   1      51.593  27.198  26.263  1.00  0.00     0.173 A 
ATOM     67  C   UNL A   1      50.937  27.816  24.036  1.00  0.00     0.173 A 
ATOM     68  F   UNL A   1      51.314  27.003  27.560  1.00  0.00    -0.203 F 
ATOM     69  C   UNL A   1      52.901  27.012  25.821  1.00  0.00     0.198 A 
ATOM     70  C   UNL A   1      52.239  27.603  23.591  1.00  0.00     0.198 A 
ATOM     71  F   UNL A   1      50.011  28.207  23.147  1.00  0.00    -0.203 F 
ATOM     72  F   UNL A   1      53.856  26.652  26.690  1.00  0.00    -0.200 F 
ATOM     73  C   UNL A   1      53.221  27.207  24.486  1.00  0.00     0.200 A 
ATOM     74  F   UNL A   1      52.542  27.779  22.297  1.00  0.00    -0.200 F 
ATOM     75  F   UNL A   1      54.478  27.019  24.061  1.00  0.00    -0.200 F 
ENDBRANCH  51  65
BRANCH  52  76
ATOM     76  C   UNL A   1      41.044  28.413  28.194  1.00  0.00     0.064 A 
ATOM     77  C   UNL A   1      40.678  27.998  29.480  1.00  0.00     0.173 A 
ATOM     78  C   UNL A   1      40.042  28.944  27.368  1.00  0.00     0.173 A 
ATOM     79  F   UNL A   1      41.594  27.459  30.297  1.00  0.00    -0.203 F 
ATOM     80  C   UNL A   1      39.360  28.109  29.922  1.00  0.00     0.198 A 
ATOM     81  C   UNL A   1      38.733  29.082  27.821  1.00  0.00     0.198 A 
ATOM     82  F   UNL A   1      40.342  29.354  26.126  1.00  0.00    -0.203 F 
ATOM     83  F   UNL A   1      39.028  27.674  31.146  1.00  0.00    -0.200 F 
ATOM     84  C   UNL A   1      38.392  28.659  29.097  1.00  0.00     0.200 A 
ATOM     85  F   UNL A   1      37.804  29.629  27.025  1.00  0.00    -0.200 F 
ATOM     86  F   UNL A   1      37.128  28.778  29.528  1.00  0.00    -0.200 F 
ENDBRANCH  52  76
BRANCH  64  87
ATOM     87  C   UNL A   1      46.640  32.513  28.876  1.00  0.00     0.064 A 
ATOM     88  C   UNL A   1      46.436  33.694  28.150  1.00  0.00     0.173 A 
ATOM     89  C   UNL A   1      46.980  32.621  30.233  1.00  0.00     0.173 A 
ATOM     90  F   UNL A   1      46.125  33.638  26.846  1.00  0.00    -0.203 F 
ATOM     91  C   UNL A   1      46.572  34.937  28.759  1.00  0.00     0.198 A 
ATOM     92  C   UNL A   1      47.095  33.865  30.844  1.00  0.00     0.198 A 
ATOM     93  F   UNL A   1      47.182  31.517  30.969  1.00  0.00    -0.203 F 
ATOM     94  F   UNL A   1      46.398  36.055  28.042  1.00  0.00    -0.200 F 
ATOM     95  C   UNL A   1      46.893  35.022  30.107  1.00  0.00     0.200 A 
ATOM     96  F   UNL A   1      47.397  33.946  32.148  1.00  0.00    -0.200 F 
ATOM     97  F   UNL A   1      47.012  36.221  30.694  1.00  0.00    -0.200 F 
ENDBRANCH  64  87
ENDBRANCH  38  39
ENDBRANCH  31  33
ENDBRANCH  30  31
ENDBRANCH  29  30
ENDBRANCH   1  29
TORSDOF 15
ENDMDL
MODEL 3
REMARK VINA RESULT:     -13.3      4.823      7.155
REMARK SMILES COc1c[nH]c(C[N@H+]2CCC[C@@H](c3ccc(C(=O)OCCOC(=O)c4ccc(-c5c6nc(c(-c7c(F)c(F)c(F)c(F)c7F)c7ccc([nH]7)c(-c7c(F)c(F)c(F)c(F)c7F)c7nc(c(-c8c(F)c(F)c(F)c(F)c8F)c8ccc5[nH]8)C=C7)C=C6)cc4)cc3)C2)cc1=O
REMARK SMILES IDX 20 1 19 2 17 3 18 4 16 5 13 6 14 7 89 8 15 9 88 10 12 11
REMARK SMILES IDX 8 12 9 13 90 14 10 16 11 17 7 18 6 19 3 20 4 21 92 22 5 23
REMARK SMILES IDX 91 24 93 25 2 27 1 28 21 29 22 30 23 31 24 32 25 33 26 34
REMARK SMILES IDX 87 35 27 36 86 37 28 38 29 39 30 40 80 41 31 42 85 43 79 44
REMARK SMILES IDX 81 45 32 46 84 47 78 48 77 49 33 51 65 52 45 53 64 54 46 55
REMARK SMILES IDX 49 56 63 57 82 58 47 59 48 60 62 62 83 63 50 64 34 65 35 66
REMARK SMILES IDX 43 67 36 68 37 69 41 70 44 71 38 72 39 73 42 74 40 75 66 76
REMARK SMILES IDX 67 77 75 78 68 79 69 80 73 81 76 82 70 83 71 84 74 85 72 86
REMARK SMILES IDX 51 87 52 88 60 89 53 90 54 91 58 92 61 93 55 94 56 95 59 96
REMARK SMILES IDX 57 97
REMARK H PARENT 8 15 5 26 81 50 49 61
REMARK Flexibility Score: inf
ROOT
ATOM      1  C   UNL A   1      41.842  19.619  27.100  1.00  0.00     0.275 C 
ENDROOT
BRANCH   1   2
ATOM      2  O   UNL A   1      41.152  20.551  26.243  1.00  0.00    -0.458 OA
BRANCH   2   3
ATOM      3  C   UNL A   1      40.428  21.493  26.891  1.00  0.00     0.338 C 
ATOM      4  O   UNL A   1      40.730  22.053  27.935  1.00  0.00    -0.246 OA
BRANCH   3   5
ATOM      5  C   UNL A   1      39.223  21.870  26.120  1.00  0.00     0.060 A 
ATOM      6  C   UNL A   1      36.812  22.676  24.914  1.00  0.00    -0.039 A 
ATOM      7  C   UNL A   1      37.570  23.578  25.673  1.00  0.00     0.005 A 
ATOM      8  C   UNL A   1      37.314  21.379  24.713  1.00  0.00     0.005 A 
ATOM      9  C   UNL A   1      38.733  23.163  26.303  1.00  0.00     0.016 A 
ATOM     10  C   UNL A   1      38.526  20.980  25.300  1.00  0.00     0.016 A 
BRANCH   6  11
ATOM     11  C   UNL A   1      35.411  23.074  24.463  1.00  0.00     0.074 C 
ATOM     12  N   UNL A   1      33.005  22.319  24.777  1.00  0.00    -0.329 N 
ATOM     13  C   UNL A   1      32.657  23.635  25.327  1.00  0.00     0.262 C 
ATOM     14  C   UNL A   1      34.418  22.008  24.991  1.00  0.00     0.270 C 
ATOM     15  H   UNL A   1      32.859  22.368  23.768  1.00  0.00     0.348 HD
ATOM     16  C   UNL A   1      33.528  24.735  24.711  1.00  0.00     0.062 C 
ATOM     17  C   UNL A   1      35.013  24.476  24.952  1.00  0.00     0.020 C 
BRANCH  12  18
ATOM     18  C   UNL A   1      32.107  21.248  25.261  1.00  0.00     0.317 C 
BRANCH  18  19
ATOM     19  C   UNL A   1      32.476  19.800  24.929  1.00  0.00     0.074 A 
ATOM     20  C   UNL A   1      33.105  17.031  24.550  1.00  0.00     0.182 A 
ATOM     21  C   UNL A   1      33.090  17.616  25.755  1.00  0.00     0.133 A 
ATOM     22  C   UNL A   1      32.824  17.930  23.374  1.00  0.00     0.223 A 
ATOM     23  N   UNL A   1      32.849  18.948  25.956  1.00  0.00    -0.357 N 
ATOM     24  C   UNL A   1      32.476  19.354  23.659  1.00  0.00     0.083 A 
ATOM     25  O   UNL A   1      32.859  17.540  22.210  1.00  0.00    -0.286 OA
ATOM     26  H   UNL A   1      32.945  19.314  26.864  1.00  0.00     0.166 HD
BRANCH  20  27
ATOM     27  O   UNL A   1      33.293  15.668  24.428  1.00  0.00    -0.491 OA
ATOM     28  C   UNL A   1      32.653  14.930  25.464  1.00  0.00     0.278 C 
ENDBRANCH  20  27
ENDBRANCH  18  19
ENDBRANCH  12  18
ENDBRANCH   6  11
ENDBRANCH   3   5
ENDBRANCH   2   3
ENDBRANCH   1   2
BRANCH   1  29
ATOM     29  C   UNL A   1      42.768  18.704  26.297  1.00  0.00     0.275 C 
BRANCH  29  30
ATOM     30  O   UNL A   1      42.989  19.226  24.972  1.00  0.00    -0.458 OA
BRANCH  30  31
ATOM     31  C   UNL A   1      44.284  19.385  24.621  1.00  0.00     0.338 C 
ATOM     32  O   UNL A   1      45.060  18.531  24.228  1.00  0.00    -0.246 OA
BRANCH  31  33
ATOM     33  C   UNL A   1      44.685  20.792  24.777  1.00  0.00     0.060 A 
ATOM     34  C   UNL A   1      45.474  21.162  25.861  1.00  0.00     0.016 A 
ATOM     35  C   UNL A   1      44.134  21.765  23.949  1.00  0.00     0.016 A 
ATOM     36  C   UNL A   1      45.607  22.508  26.205  1.00  0.00     0.010 A 
ATOM     37  C   UNL A   1      44.373  23.116  24.222  1.00  0.00     0.010 A 
ATOM     38  C   UNL A   1      45.072  23.508  25.380  1.00  0.00    -0.014 A 
BRANCH  38  39
ATOM     39  C   UNL A   1      45.203  24.956  25.715  1.00  0.00     0.031 A 
ATOM     40  C   UNL A   1      46.532  25.646  25.543  1.00  0.00     0.074 A 
ATOM     41  C   UNL A   1      44.160  25.657  26.204  1.00  0.00     0.049 A 
ATOM     42  N   UNL A   1      46.956  26.776  26.052  1.00  0.00    -0.248 NA
ATOM     43  C   UNL A   1      47.523  24.960  24.699  1.00  0.00     0.031 C 
ATOM     44  C   UNL A   1      42.794  25.156  26.362  1.00  0.00     0.029 A 
ATOM     45  N   UNL A   1      44.094  26.946  26.678  1.00  0.00    -0.354 N 
ATOM     46  C   UNL A   1      48.283  26.896  25.654  1.00  0.00     0.074 A 
ATOM     47  C   UNL A   1      48.590  25.733  24.849  1.00  0.00     0.031 C 
ATOM     48  C   UNL A   1      42.024  26.126  26.874  1.00  0.00     0.029 A 
ATOM     49  C   UNL A   1      42.860  27.280  27.183  1.00  0.00     0.049 A 
ATOM     50  H   UNL A   1      44.856  27.569  26.658  1.00  0.00     0.167 HD
ATOM     51  C   UNL A   1      49.162  27.884  25.947  1.00  0.00     0.037 A 
ATOM     52  C   UNL A   1      42.456  28.361  27.877  1.00  0.00     0.037 A 
ATOM     53  C   UNL A   1      48.828  29.071  26.689  1.00  0.00     0.049 A 
ATOM     54  C   UNL A   1      43.454  29.430  28.221  1.00  0.00     0.074 A 
ATOM     55  C   UNL A   1      49.644  30.137  27.032  1.00  0.00     0.029 A 
ATOM     56  N   UNL A   1      47.564  29.361  27.183  1.00  0.00    -0.354 N 
ATOM     57  N   UNL A   1      44.728  29.497  27.923  1.00  0.00    -0.248 NA
ATOM     58  C   UNL A   1      42.965  30.562  29.024  1.00  0.00     0.031 C 
ATOM     59  C   UNL A   1      48.881  31.057  27.759  1.00  0.00     0.029 A 
ATOM     60  C   UNL A   1      47.581  30.584  27.832  1.00  0.00     0.049 A 
ATOM     61  H   UNL A   1      46.774  28.783  27.086  1.00  0.00     0.167 HD
ATOM     62  C   UNL A   1      45.188  30.682  28.479  1.00  0.00     0.074 A 
ATOM     63  C   UNL A   1      44.057  31.308  29.130  1.00  0.00     0.031 C 
ATOM     64  C   UNL A   1      46.439  31.202  28.454  1.00  0.00     0.037 A 
BRANCH  51  65
ATOM     65  C   UNL A   1      50.586  27.710  25.503  1.00  0.00     0.064 A 
ATOM     66  C   UNL A   1      51.001  27.997  24.196  1.00  0.00     0.173 A 
ATOM     67  C   UNL A   1      51.561  27.293  26.424  1.00  0.00     0.173 A 
ATOM     68  F   UNL A   1      50.107  28.388  23.275  1.00  0.00    -0.203 F 
ATOM     69  C   UNL A   1      52.335  27.852  23.820  1.00  0.00     0.198 A 
ATOM     70  C   UNL A   1      52.898  27.175  26.053  1.00  0.00     0.198 A 
ATOM     71  F   UNL A   1      51.220  27.013  27.691  1.00  0.00    -0.203 F 
ATOM     72  F   UNL A   1      52.702  28.093  22.554  1.00  0.00    -0.200 F 
ATOM     73  C   UNL A   1      53.282  27.448  24.749  1.00  0.00     0.200 A 
ATOM     74  F   UNL A   1      53.813  26.798  26.956  1.00  0.00    -0.200 F 
ATOM     75  F   UNL A   1      54.566  27.318  24.387  1.00  0.00    -0.200 F 
ENDBRANCH  51  65
BRANCH  52  76
ATOM     76  C   UNL A   1      41.047  28.451  28.343  1.00  0.00     0.064 A 
ATOM     77  C   UNL A   1      40.683  28.017  29.624  1.00  0.00     0.173 A 
ATOM     78  C   UNL A   1      40.042  28.992  27.526  1.00  0.00     0.173 A 
ATOM     79  F   UNL A   1      41.602  27.468  30.431  1.00  0.00    -0.203 F 
ATOM     80  C   UNL A   1      39.366  28.119  30.069  1.00  0.00     0.198 A 
ATOM     81  C   UNL A   1      38.733  29.120  27.983  1.00  0.00     0.198 A 
ATOM     82  F   UNL A   1      40.339  29.420  26.290  1.00  0.00    -0.203 F 
ATOM     83  F   UNL A   1      39.036  27.666  31.287  1.00  0.00    -0.200 F 
ATOM     84  C   UNL A   1      38.395  28.679  29.253  1.00  0.00     0.200 A 
ATOM     85  F   UNL A   1      37.801  29.677  27.196  1.00  0.00    -0.200 F 
ATOM     86  F   UNL A   1      37.132  28.789  29.688  1.00  0.00    -0.200 F 
ENDBRANCH  52  76
BRANCH  64  87
ATOM     87  C   UNL A   1      46.643  32.538  29.100  1.00  0.00     0.064 A 
ATOM     88  C   UNL A   1      47.050  32.653  30.436  1.00  0.00     0.173 A 
ATOM     89  C   UNL A   1      46.493  33.714  28.350  1.00  0.00     0.173 A 
ATOM     90  F   UNL A   1      47.191  31.556  31.195  1.00  0.00    -0.203 F 
ATOM     91  C   UNL A   1      47.291  33.901  31.002  1.00  0.00     0.198 A 
ATOM     92  C   UNL A   1      46.755  34.959  28.914  1.00  0.00     0.198 A 
ATOM     93  F   UNL A   1      46.108  33.652  27.066  1.00  0.00    -0.203 F 
ATOM     94  F   UNL A   1      47.653  33.992  32.289  1.00  0.00    -0.200 F 
ATOM     95  C   UNL A   1      47.151  35.052  30.239  1.00  0.00     0.200 A 
ATOM     96  F   UNL A   1      46.628  36.069  28.173  1.00  0.00    -0.200 F 
ATOM     97  F   UNL A   1      47.396  36.252  30.783  1.00  0.00    -0.200 F 
ENDBRANCH  64  87
ENDBRANCH  38  39
ENDBRANCH  31  33
ENDBRANCH  30  31
ENDBRANCH  29  30
ENDBRANCH   1  29
TORSDOF 15
ENDMDL
