MODEL 1
REMARK VINA RESULT:     -13.0      0.000      0.000
REMARK SMILES O=C(OCCOC(=O)[C@@H](Cc1ccccc1)N1C(=O)/C(=C/c2ccncc2)SC1=S)c1ccc(-c2c3nc(c(-c4c(F)c(F)c(F)c(F)c4F)c4ccc([nH]4)c(-c4c(F)c(F)c(F)c(F)c4F)c4nc(c(-c5c(F)c(F)c(F)c(F)c5F)c5ccc2[nH]5)C=C4)C=C3)cc1
REMARK SMILES IDX 4 1 3 2 2 3 1 4 31 5 32 6 93 7 33 8 92 9 34 10 35 11 36 12
REMARK SMILES IDX 86 13 37 14 91 15 85 16 87 17 38 18 90 19 84 20 83 21 39 23
REMARK SMILES IDX 71 24 51 25 70 26 52 27 55 28 69 29 88 30 53 31 54 32 68 34
REMARK SMILES IDX 89 35 56 36 40 37 41 38 49 39 42 40 43 41 47 42 50 43 44 44
REMARK SMILES IDX 45 45 48 46 46 47 72 48 73 49 81 50 74 51 75 52 79 53 82 54
REMARK SMILES IDX 76 55 77 56 80 57 78 58 57 59 58 60 66 61 59 62 60 63 64 64
REMARK SMILES IDX 67 65 61 66 62 67 65 68 63 69 5 70 6 71 7 72 8 73 9 74 10 75
REMARK SMILES IDX 11 76 12 77 16 78 13 79 15 80 14 81 17 82 18 83 29 84 19 85
REMARK SMILES IDX 20 86 28 87 30 88 21 89 22 90 23 91 27 92 24 93 26 94 25 95
REMARK H PARENT 87 22 55 33
REMARK Flexibility Score: inf
ROOT
ATOM      1  C   UNL A   1      32.421  30.683  26.646  1.00  0.00     0.275 C 
ENDROOT
BRANCH   1   2
ATOM      2  O   UNL A   1      33.565  30.191  27.311  1.00  0.00    -0.458 OA
BRANCH   2   3
ATOM      3  C   UNL A   1      34.341  31.002  28.038  1.00  0.00     0.338 C 
ATOM      4  O   UNL A   1      34.037  32.186  28.167  1.00  0.00    -0.246 OA
BRANCH   3   5
ATOM      5  C   UNL A   1      35.617  30.548  28.683  1.00  0.00     0.060 A 
ATOM      6  C   UNL A   1      36.025  29.760  30.312  1.00  0.00     0.016 A 
ATOM      7  C   UNL A   1      36.839  30.493  27.369  1.00  0.00     0.016 A 
ATOM      8  C   UNL A   1      37.726  29.023  30.566  1.00  0.00     0.010 A 
ATOM      9  C   UNL A   1      38.422  29.702  27.623  1.00  0.00     0.010 A 
ATOM     10  C   UNL A   1      38.955  29.121  29.216  1.00  0.00    -0.014 A 
BRANCH  10  11
ATOM     11  C   UNL A   1      40.455  28.921  29.396  1.00  0.00     0.031 A 
ATOM     12  C   UNL A   1      41.395  29.905  30.068  1.00  0.00     0.074 A 
ATOM     13  C   UNL A   1      41.025  27.833  28.860  1.00  0.00     0.049 A 
ATOM     14  N   UNL A   1      42.585  29.672  30.583  1.00  0.00    -0.248 NA
ATOM     15  C   UNL A   1      41.016  31.316  30.175  1.00  0.00     0.031 C 
ATOM     16  C   UNL A   1      40.286  26.984  27.977  1.00  0.00     0.029 A 
ATOM     17  N   UNL A   1      42.267  27.262  28.871  1.00  0.00    -0.354 N 
ATOM     18  C   UNL A   1      43.018  30.877  31.129  1.00  0.00     0.074 A 
ATOM     19  C   UNL A   1      41.987  31.848  30.895  1.00  0.00     0.031 C 
ATOM     20  C   UNL A   1      41.026  25.965  27.551  1.00  0.00     0.029 A 
ATOM     21  C   UNL A   1      42.320  26.071  28.173  1.00  0.00     0.049 A 
ATOM     22  H   UNL A   1      43.043  27.658  29.330  1.00  0.00     0.167 HD
ATOM     23  C   UNL A   1      44.206  31.192  31.698  1.00  0.00     0.037 A 
ATOM     24  C   UNL A   1      43.279  25.138  28.060  1.00  0.00     0.037 A 
ATOM     25  C   UNL A   1      45.344  30.321  31.632  1.00  0.00     0.049 A 
ATOM     26  C   UNL A   1      44.560  25.454  28.756  1.00  0.00     0.074 A 
ATOM     27  C   UNL A   1      46.645  30.566  32.024  1.00  0.00     0.029 A 
ATOM     28  N   UNL A   1      45.328  29.069  31.029  1.00  0.00    -0.354 N 
ATOM     29  N   UNL A   1      44.852  26.520  29.461  1.00  0.00    -0.248 NA
ATOM     30  C   UNL A   1      45.648  24.484  28.632  1.00  0.00     0.031 C 
ATOM     31  C   UNL A   1      47.434  29.507  31.558  1.00  0.00     0.029 A 
ATOM     32  C   UNL A   1      46.610  28.554  30.977  1.00  0.00     0.049 A 
ATOM     33  H   UNL A   1      44.522  28.615  30.689  1.00  0.00     0.167 HD
ATOM     34  C   UNL A   1      46.173  26.379  29.824  1.00  0.00     0.074 A 
ATOM     35  C   UNL A   1      46.596  25.075  29.344  1.00  0.00     0.031 C 
ATOM     36  C   UNL A   1      46.980  27.267  30.449  1.00  0.00     0.037 A 
BRANCH  23  37
ATOM     37  C   UNL A   1      44.341  32.589  32.246  1.00  0.00     0.064 A 
ATOM     38  C   UNL A   1      44.832  33.645  31.458  1.00  0.00     0.173 A 
ATOM     39  C   UNL A   1      44.092  32.853  33.602  1.00  0.00     0.173 A 
ATOM     40  F   UNL A   1      45.125  33.442  30.164  1.00  0.00    -0.203 F 
ATOM     41  C   UNL A   1      45.108  34.893  32.017  1.00  0.00     0.198 A 
ATOM     42  C   UNL A   1      44.346  34.108  34.151  1.00  0.00     0.198 A 
ATOM     43  F   UNL A   1      43.646  31.879  34.409  1.00  0.00    -0.203 F 
ATOM     44  F   UNL A   1      45.654  35.859  31.263  1.00  0.00    -0.200 F 
ATOM     45  C   UNL A   1      44.867  35.123  33.362  1.00  0.00     0.200 A 
ATOM     46  F   UNL A   1      44.121  34.325  35.454  1.00  0.00    -0.200 F 
ATOM     47  F   UNL A   1      45.166  36.310  33.907  1.00  0.00    -0.200 F 
ENDBRANCH  23  37
BRANCH  24  48
ATOM     48  C   UNL A   1      43.031  23.849  27.344  1.00  0.00     0.064 A 
ATOM     49  C   UNL A   1      43.428  23.682  26.009  1.00  0.00     0.173 A 
ATOM     50  C   UNL A   1      42.447  22.737  27.975  1.00  0.00     0.173 A 
ATOM     51  F   UNL A   1      44.027  24.689  25.358  1.00  0.00    -0.203 F 
ATOM     52  C   UNL A   1      43.203  22.487  25.324  1.00  0.00     0.198 A 
ATOM     53  C   UNL A   1      42.297  21.517  27.315  1.00  0.00     0.198 A 
ATOM     54  F   UNL A   1      42.059  22.815  29.257  1.00  0.00    -0.203 F 
ATOM     55  F   UNL A   1      43.530  22.395  24.028  1.00  0.00    -0.200 F 
ATOM     56  C   UNL A   1      42.649  21.400  25.981  1.00  0.00     0.200 A 
ATOM     57  F   UNL A   1      41.821  20.454  27.979  1.00  0.00    -0.200 F 
ATOM     58  F   UNL A   1      42.460  20.240  25.338  1.00  0.00    -0.200 F 
ENDBRANCH  24  48
BRANCH  36  59
ATOM     59  C   UNL A   1      48.407  26.857  30.584  1.00  0.00     0.064 A 
ATOM     60  C   UNL A   1      49.360  27.222  29.622  1.00  0.00     0.173 A 
ATOM     61  C   UNL A   1      48.824  26.131  31.704  1.00  0.00     0.173 A 
ATOM     62  F   UNL A   1      48.993  27.899  28.524  1.00  0.00    -0.203 F 
ATOM     63  C   UNL A   1      50.689  26.848  29.770  1.00  0.00     0.198 A 
ATOM     64  C   UNL A   1      50.159  25.792  31.866  1.00  0.00     0.198 A 
ATOM     65  F   UNL A   1      47.937  25.765  32.641  1.00  0.00    -0.203 F 
ATOM     66  F   UNL A   1      51.578  27.155  28.817  1.00  0.00    -0.200 F 
ATOM     67  C   UNL A   1      51.088  26.144  30.897  1.00  0.00     0.200 A 
ATOM     68  F   UNL A   1      50.548  25.123  32.960  1.00  0.00    -0.200 F 
ATOM     69  F   UNL A   1      52.373  25.795  31.046  1.00  0.00    -0.200 F 
ENDBRANCH  36  59
ENDBRANCH  10  11
ENDBRANCH   3   5
ENDBRANCH   2   3
ENDBRANCH   1   2
BRANCH   1  70
ATOM     70  C   UNL A   1      31.933  29.673  25.598  1.00  0.00     0.274 C 
BRANCH  70  71
ATOM     71  O   UNL A   1      32.227  28.270  25.869  1.00  0.00    -0.461 OA
BRANCH  71  72
ATOM     72  C   UNL A   1      31.511  27.468  26.722  1.00  0.00     0.329 C 
ATOM     73  O   UNL A   1      31.188  27.789  27.854  1.00  0.00    -0.250 OA
BRANCH  72  74
ATOM     74  C   UNL A   1      31.025  26.131  25.989  1.00  0.00     0.206 C 
BRANCH  74  75
ATOM     75  C   UNL A   1      30.157  26.339  24.272  1.00  0.00     0.073 C 
BRANCH  75  76
ATOM     76  C   UNL A   1      29.420  28.027  23.145  1.00  0.00    -0.045 A 
ATOM     77  C   UNL A   1      27.924  28.608  23.141  1.00  0.00     0.004 A 
ATOM     78  C   UNL A   1      30.077  29.067  22.316  1.00  0.00     0.004 A 
ATOM     79  C   UNL A   1      27.415  29.872  22.802  1.00  0.00     0.000 A 
ATOM     80  C   UNL A   1      29.558  30.381  22.009  1.00  0.00     0.000 A 
ATOM     81  C   UNL A   1      28.279  30.805  22.327  1.00  0.00     0.000 A 
ENDBRANCH  75  76
ENDBRANCH  74  75
BRANCH  74  82
ATOM     82  N   UNL A   1      32.092  25.034  26.146  1.00  0.00    -0.278 N 
ATOM     83  C   UNL A   1      33.191  25.095  25.340  1.00  0.00     0.267 C 
ATOM     84  C   UNL A   1      31.884  23.680  26.419  1.00  0.00     0.149 C 
ATOM     85  O   UNL A   1      33.172  25.578  24.216  1.00  0.00    -0.268 OA
ATOM     86  C   UNL A   1      34.243  24.137  25.772  1.00  0.00     0.081 C 
ATOM     87  S   UNL A   1      33.417  22.755  26.312  1.00  0.00    -0.054 SA
ATOM     88  S   UNL A   1      30.496  22.821  26.763  1.00  0.00    -0.052 S 
ATOM     89  C   UNL A   1      35.559  24.385  25.769  1.00  0.00     0.029 C 
BRANCH  89  90
ATOM     90  C   UNL A   1      36.698  23.457  25.868  1.00  0.00    -0.021 A 
ATOM     91  C   UNL A   1      36.673  22.243  25.179  1.00  0.00     0.028 A 
ATOM     92  C   UNL A   1      37.899  23.859  26.462  1.00  0.00     0.028 A 
ATOM     93  C   UNL A   1      37.818  21.464  25.155  1.00  0.00     0.111 A 
ATOM     94  C   UNL A   1      38.993  23.009  26.389  1.00  0.00     0.111 A 
ATOM     95  N   UNL A   1      38.976  21.825  25.744  1.00  0.00    -0.265 NA
ENDBRANCH  89  90
ENDBRANCH  74  82
ENDBRANCH  72  74
ENDBRANCH  71  72
ENDBRANCH  70  71
ENDBRANCH   1  70
TORSDOF 15
ENDMDL
MODEL 2
REMARK VINA RESULT:     -12.8      3.714      8.660
REMARK SMILES O=C(OCCOC(=O)[C@@H](Cc1ccccc1)N1C(=O)/C(=C/c2ccncc2)SC1=S)c1ccc(-c2c3nc(c(-c4c(F)c(F)c(F)c(F)c4F)c4ccc([nH]4)c(-c4c(F)c(F)c(F)c(F)c4F)c4nc(c(-c5c(F)c(F)c(F)c(F)c5F)c5ccc2[nH]5)C=C4)C=C3)cc1
REMARK SMILES IDX 4 1 3 2 2 3 1 4 31 5 32 6 93 7 33 8 92 9 34 10 35 11 36 12
REMARK SMILES IDX 86 13 37 14 91 15 85 16 87 17 38 18 90 19 84 20 83 21 39 23
REMARK SMILES IDX 71 24 51 25 70 26 52 27 55 28 69 29 88 30 53 31 54 32 68 34
REMARK SMILES IDX 89 35 56 36 40 37 41 38 49 39 42 40 43 41 47 42 50 43 44 44
REMARK SMILES IDX 45 45 48 46 46 47 72 48 73 49 81 50 74 51 75 52 79 53 82 54
REMARK SMILES IDX 76 55 77 56 80 57 78 58 57 59 58 60 66 61 59 62 60 63 64 64
REMARK SMILES IDX 67 65 61 66 62 67 65 68 63 69 5 70 6 71 7 72 8 73 9 74 10 75
REMARK SMILES IDX 11 76 12 77 16 78 13 79 15 80 14 81 17 82 18 83 29 84 19 85
REMARK SMILES IDX 20 86 28 87 30 88 21 89 22 90 23 91 27 92 24 93 26 94 25 95
REMARK H PARENT 87 22 55 33
REMARK Flexibility Score: inf
ROOT
ATOM      1  C   UNL A   1      38.080  22.668  25.749  1.00  0.00     0.275 C 
ENDROOT
BRANCH   1   2
ATOM      2  O   UNL A   1      39.111  21.817  26.202  1.00  0.00    -0.458 OA
BRANCH   2   3
ATOM      3  C   UNL A   1      40.371  22.254  26.304  1.00  0.00     0.338 C 
ATOM      4  O   UNL A   1      41.303  21.454  26.244  1.00  0.00    -0.246 OA
BRANCH   3   5
ATOM      5  C   UNL A   1      40.717  23.695  26.540  1.00  0.00     0.060 A 
ATOM      6  C   UNL A   1      41.230  25.092  25.432  1.00  0.00     0.016 A 
ATOM      7  C   UNL A   1      40.136  24.076  28.194  1.00  0.00     0.016 A 
ATOM      8  C   UNL A   1      41.217  26.837  26.103  1.00  0.00     0.010 A 
ATOM      9  C   UNL A   1      40.056  25.765  28.771  1.00  0.00     0.010 A 
ATOM     10  C   UNL A   1      40.729  27.125  27.842  1.00  0.00    -0.014 A 
BRANCH  10  11
ATOM     11  C   UNL A   1      41.029  28.396  28.626  1.00  0.00     0.031 A 
ATOM     12  C   UNL A   1      40.010  29.456  29.001  1.00  0.00     0.074 A 
ATOM     13  C   UNL A   1      42.301  28.658  28.957  1.00  0.00     0.049 A 
ATOM     14  N   UNL A   1      40.090  30.363  29.952  1.00  0.00    -0.248 NA
ATOM     15  C   UNL A   1      38.763  29.567  28.239  1.00  0.00     0.031 C 
ATOM     16  C   UNL A   1      43.370  27.873  28.422  1.00  0.00     0.029 A 
ATOM     17  N   UNL A   1      42.953  29.602  29.702  1.00  0.00    -0.354 N 
ATOM     18  C   UNL A   1      38.885  31.059  29.933  1.00  0.00     0.074 A 
ATOM     19  C   UNL A   1      38.080  30.491  28.889  1.00  0.00     0.031 C 
ATOM     20  C   UNL A   1      44.551  28.293  28.867  1.00  0.00     0.029 A 
ATOM     21  C   UNL A   1      44.317  29.389  29.770  1.00  0.00     0.049 A 
ATOM     22  H   UNL A   1      42.499  30.355  30.144  1.00  0.00     0.167 HD
ATOM     23  C   UNL A   1      38.498  32.139  30.651  1.00  0.00     0.037 A 
ATOM     24  C   UNL A   1      45.283  29.974  30.497  1.00  0.00     0.037 A 
ATOM     25  C   UNL A   1      39.415  32.901  31.448  1.00  0.00     0.049 A 
ATOM     26  C   UNL A   1      44.835  31.115  31.348  1.00  0.00     0.074 A 
ATOM     27  C   UNL A   1      39.207  34.098  32.104  1.00  0.00     0.029 A 
ATOM     28  N   UNL A   1      40.761  32.583  31.597  1.00  0.00    -0.354 N 
ATOM     29  N   UNL A   1      43.624  31.600  31.473  1.00  0.00    -0.248 NA
ATOM     30  C   UNL A   1      45.858  31.808  32.131  1.00  0.00     0.031 C 
ATOM     31  C   UNL A   1      40.450  34.557  32.554  1.00  0.00     0.029 A 
ATOM     32  C   UNL A   1      41.411  33.596  32.279  1.00  0.00     0.049 A 
ATOM     33  H   UNL A   1      41.188  31.759  31.266  1.00  0.00     0.167 HD
ATOM     34  C   UNL A   1      43.742  32.691  32.307  1.00  0.00     0.074 A 
ATOM     35  C   UNL A   1      45.128  32.733  32.737  1.00  0.00     0.031 C 
ATOM     36  C   UNL A   1      42.804  33.606  32.643  1.00  0.00     0.037 A 
BRANCH  23  37
ATOM     37  C   UNL A   1      37.089  32.626  30.430  1.00  0.00     0.064 A 
ATOM     38  C   UNL A   1      36.759  33.453  29.341  1.00  0.00     0.173 A 
ATOM     39  C   UNL A   1      36.085  32.366  31.375  1.00  0.00     0.173 A 
ATOM     40  F   UNL A   1      37.688  33.768  28.425  1.00  0.00    -0.203 F 
ATOM     41  C   UNL A   1      35.493  34.031  29.234  1.00  0.00     0.198 A 
ATOM     42  C   UNL A   1      34.815  32.927  31.251  1.00  0.00     0.198 A 
ATOM     43  F   UNL A   1      36.347  31.605  32.447  1.00  0.00    -0.203 F 
ATOM     44  F   UNL A   1      35.229  34.882  28.231  1.00  0.00    -0.200 F 
ATOM     45  C   UNL A   1      34.524  33.770  30.189  1.00  0.00     0.200 A 
ATOM     46  F   UNL A   1      33.883  32.680  32.182  1.00  0.00    -0.200 F 
ATOM     47  F   UNL A   1      33.321  34.354  30.106  1.00  0.00    -0.200 F 
ENDBRANCH  23  37
BRANCH  24  48
ATOM     48  C   UNL A   1      46.684  29.454  30.491  1.00  0.00     0.064 A 
ATOM     49  C   UNL A   1      47.646  29.992  29.623  1.00  0.00     0.173 A 
ATOM     50  C   UNL A   1      47.121  28.455  31.379  1.00  0.00     0.173 A 
ATOM     51  F   UNL A   1      47.307  30.976  28.777  1.00  0.00    -0.203 F 
ATOM     52  C   UNL A   1      48.958  29.518  29.602  1.00  0.00     0.198 A 
ATOM     53  C   UNL A   1      48.452  28.040  31.414  1.00  0.00     0.198 A 
ATOM     54  F   UNL A   1      46.263  27.906  32.252  1.00  0.00    -0.203 F 
ATOM     55  F   UNL A   1      49.825  30.008  28.706  1.00  0.00    -0.200 F 
ATOM     56  C   UNL A   1      49.365  28.551  30.507  1.00  0.00     0.200 A 
ATOM     57  F   UNL A   1      48.849  27.152  32.336  1.00  0.00    -0.200 F 
ATOM     58  F   UNL A   1      50.632  28.115  30.515  1.00  0.00    -0.200 F 
ENDBRANCH  24  48
BRANCH  36  59
ATOM     59  C   UNL A   1      43.285  34.748  33.471  1.00  0.00     0.064 A 
ATOM     60  C   UNL A   1      43.709  35.946  32.878  1.00  0.00     0.173 A 
ATOM     61  C   UNL A   1      43.283  34.651  34.867  1.00  0.00     0.173 A 
ATOM     62  F   UNL A   1      43.745  36.066  31.542  1.00  0.00    -0.203 F 
ATOM     63  C   UNL A   1      44.139  37.007  33.662  1.00  0.00     0.198 A 
ATOM     64  C   UNL A   1      43.679  35.728  35.647  1.00  0.00     0.198 A 
ATOM     65  F   UNL A   1      42.887  33.518  35.466  1.00  0.00    -0.203 F 
ATOM     66  F   UNL A   1      44.591  38.126  33.080  1.00  0.00    -0.200 F 
ATOM     67  C   UNL A   1      44.112  36.901  35.045  1.00  0.00     0.200 A 
ATOM     68  F   UNL A   1      43.640  35.630  36.983  1.00  0.00    -0.200 F 
ATOM     69  F   UNL A   1      44.513  37.931  35.802  1.00  0.00    -0.200 F 
ENDBRANCH  36  59
ENDBRANCH  10  11
ENDBRANCH   3   5
ENDBRANCH   2   3
ENDBRANCH   1   2
BRANCH   1  70
ATOM     70  C   UNL A   1      36.852  21.848  25.328  1.00  0.00     0.274 C 
BRANCH  70  71
ATOM     71  O   UNL A   1      35.713  22.606  24.822  1.00  0.00    -0.461 OA
BRANCH  71  72
ATOM     72  C   UNL A   1      35.556  23.013  23.521  1.00  0.00     0.329 C 
ATOM     73  O   UNL A   1      36.440  22.974  22.680  1.00  0.00    -0.250 OA
BRANCH  72  74
ATOM     74  C   UNL A   1      34.033  23.397  23.213  1.00  0.00     0.206 C 
BRANCH  74  75
ATOM     75  C   UNL A   1      32.681  22.132  23.776  1.00  0.00     0.073 C 
BRANCH  75  76
ATOM     76  C   UNL A   1      32.611  19.982  23.979  1.00  0.00    -0.045 A 
ATOM     77  C   UNL A   1      32.445  18.905  22.801  1.00  0.00     0.004 A 
ATOM     78  C   UNL A   1      32.849  19.056  25.112  1.00  0.00     0.004 A 
ATOM     79  C   UNL A   1      32.775  17.542  22.730  1.00  0.00     0.000 A 
ATOM     80  C   UNL A   1      33.229  17.664  25.023  1.00  0.00     0.000 A 
ATOM     81  C   UNL A   1      33.278  16.945  23.841  1.00  0.00     0.000 A 
ENDBRANCH  75  76
ENDBRANCH  74  75
BRANCH  74  82
ATOM     82  N   UNL A   1      33.805  24.891  23.497  1.00  0.00    -0.278 N 
ATOM     83  C   UNL A   1      33.511  25.259  24.777  1.00  0.00     0.267 C 
ATOM     84  C   UNL A   1      33.179  25.826  22.669  1.00  0.00     0.149 C 
ATOM     85  O   UNL A   1      32.917  24.534  25.563  1.00  0.00    -0.268 OA
ATOM     86  C   UNL A   1      33.572  26.734  24.952  1.00  0.00     0.081 C 
ATOM     87  S   UNL A   1      32.972  27.398  23.509  1.00  0.00    -0.054 SA
ATOM     88  S   UNL A   1      32.580  25.704  21.117  1.00  0.00    -0.052 S 
ATOM     89  C   UNL A   1      34.064  27.363  26.028  1.00  0.00     0.029 C 
BRANCH  89  90
ATOM     90  C   UNL A   1      33.908  28.762  26.461  1.00  0.00    -0.021 A 
ATOM     91  C   UNL A   1      32.660  29.384  26.382  1.00  0.00     0.028 A 
ATOM     92  C   UNL A   1      34.933  29.414  27.154  1.00  0.00     0.028 A 
ATOM     93  C   UNL A   1      32.502  30.640  26.946  1.00  0.00     0.111 A 
ATOM     94  C   UNL A   1      34.681  30.673  27.682  1.00  0.00     0.111 A 
ATOM     95  N   UNL A   1      33.486  31.293  27.594  1.00  0.00    -0.265 NA
ENDBRANCH  89  90
ENDBRANCH  74  82
ENDBRANCH  72  74
ENDBRANCH  71  72
ENDBRANCH  70  71
ENDBRANCH   1  70
TORSDOF 15
ENDMDL
MODEL 3
REMARK VINA RESULT:     -12.8      0.751      7.323
REMARK SMILES O=C(OCCOC(=O)[C@@H](Cc1ccccc1)N1C(=O)/C(=C/c2ccncc2)SC1=S)c1ccc(-c2c3nc(c(-c4c(F)c(F)c(F)c(F)c4F)c4ccc([nH]4)c(-c4c(F)c(F)c(F)c(F)c4F)c4nc(c(-c5c(F)c(F)c(F)c(F)c5F)c5ccc2[nH]5)C=C4)C=C3)cc1
REMARK SMILES IDX 4 1 3 2 2 3 1 4 31 5 32 6 93 7 33 8 92 9 34 10 35 11 36 12
REMARK SMILES IDX 86 13 37 14 91 15 85 16 87 17 38 18 90 19 84 20 83 21 39 23
REMARK SMILES IDX 71 24 51 25 70 26 52 27 55 28 69 29 88 30 53 31 54 32 68 34
REMARK SMILES IDX 89 35 56 36 40 37 41 38 49 39 42 40 43 41 47 42 50 43 44 44
REMARK SMILES IDX 45 45 48 46 46 47 72 48 73 49 81 50 74 51 75 52 79 53 82 54
REMARK SMILES IDX 76 55 77 56 80 57 78 58 57 59 58 60 66 61 59 62 60 63 64 64
REMARK SMILES IDX 67 65 61 66 62 67 65 68 63 69 5 70 6 71 7 72 8 73 9 74 10 75
REMARK SMILES IDX 11 76 12 77 16 78 13 79 15 80 14 81 17 82 18 83 29 84 19 85
REMARK SMILES IDX 20 86 28 87 30 88 21 89 22 90 23 91 27 92 24 93 26 94 25 95
REMARK H PARENT 87 22 55 33
REMARK Flexibility Score: inf
ROOT
ATOM      1  C   UNL A   1      33.660  29.835  27.071  1.00  0.00     0.275 C 
ENDROOT
BRANCH   1   2
ATOM      2  O   UNL A   1      33.993  31.202  27.193  1.00  0.00    -0.458 OA
BRANCH   2   3
ATOM      3  C   UNL A   1      34.588  31.671  28.295  1.00  0.00     0.338 C 
ATOM      4  O   UNL A   1      34.216  32.735  28.785  1.00  0.00    -0.246 OA
BRANCH   3   5
ATOM      5  C   UNL A   1      35.742  30.977  28.957  1.00  0.00     0.060 A 
ATOM      6  C   UNL A   1      35.933  30.022  30.537  1.00  0.00     0.016 A 
ATOM      7  C   UNL A   1      37.011  30.824  27.698  1.00  0.00     0.016 A 
ATOM      8  C   UNL A   1      37.484  29.012  30.806  1.00  0.00     0.010 A 
ATOM      9  C   UNL A   1      38.437  29.779  27.958  1.00  0.00     0.010 A 
ATOM     10  C   UNL A   1      38.787  29.010  29.523  1.00  0.00    -0.014 A 
BRANCH  10  11
ATOM     11  C   UNL A   1      40.226  28.566  29.752  1.00  0.00     0.031 A 
ATOM     12  C   UNL A   1      40.868  27.329  29.150  1.00  0.00     0.074 A 
ATOM     13  C   UNL A   1      40.983  29.265  30.608  1.00  0.00     0.049 A 
ATOM     14  N   UNL A   1      42.150  27.072  28.993  1.00  0.00    -0.248 NA
ATOM     15  C   UNL A   1      40.024  26.225  28.686  1.00  0.00     0.031 C 
ATOM     16  C   UNL A   1      40.402  30.279  31.434  1.00  0.00     0.029 A 
ATOM     17  N   UNL A   1      42.291  29.253  31.008  1.00  0.00    -0.354 N 
ATOM     18  C   UNL A   1      42.226  25.842  28.346  1.00  0.00     0.074 A 
ATOM     19  C   UNL A   1      40.881  25.387  28.133  1.00  0.00     0.031 C 
ATOM     20  C   UNL A   1      41.314  30.852  32.214  1.00  0.00     0.029 A 
ATOM     21  C   UNL A   1      42.588  30.253  31.914  1.00  0.00     0.049 A 
ATOM     22  H   UNL A   1      42.952  28.601  30.683  1.00  0.00     0.167 HD
ATOM     23  C   UNL A   1      43.311  25.095  28.031  1.00  0.00     0.037 A 
ATOM     24  C   UNL A   1      43.751  30.679  32.432  1.00  0.00     0.037 A 
ATOM     25  C   UNL A   1      44.620  25.392  28.536  1.00  0.00     0.049 A 
ATOM     26  C   UNL A   1      44.955  29.901  32.018  1.00  0.00     0.074 A 
ATOM     27  C   UNL A   1      45.778  24.648  28.430  1.00  0.00     0.029 A 
ATOM     28  N   UNL A   1      44.909  26.484  29.347  1.00  0.00    -0.354 N 
ATOM     29  N   UNL A   1      45.009  28.868  31.213  1.00  0.00    -0.248 NA
ATOM     30  C   UNL A   1      46.241  30.305  32.586  1.00  0.00     0.031 C 
ATOM     31  C   UNL A   1      46.736  25.232  29.267  1.00  0.00     0.029 A 
ATOM     32  C   UNL A   1      46.211  26.399  29.804  1.00  0.00     0.049 A 
ATOM     33  H   UNL A   1      44.280  27.210  29.563  1.00  0.00     0.167 HD
ATOM     34  C   UNL A   1      46.325  28.461  31.214  1.00  0.00     0.074 A 
ATOM     35  C   UNL A   1      47.054  29.421  32.023  1.00  0.00     0.031 C 
ATOM     36  C   UNL A   1      46.873  27.363  30.644  1.00  0.00     0.037 A 
BRANCH  23  37
ATOM     37  C   UNL A   1      43.053  23.818  27.273  1.00  0.00     0.064 A 
ATOM     38  C   UNL A   1      42.639  22.645  27.928  1.00  0.00     0.173 A 
ATOM     39  C   UNL A   1      43.336  23.731  25.902  1.00  0.00     0.173 A 
ATOM     40  F   UNL A   1      42.392  22.658  29.247  1.00  0.00    -0.203 F 
ATOM     41  C   UNL A   1      42.562  21.429  27.247  1.00  0.00     0.198 A 
ATOM     42  C   UNL A   1      43.233  22.520  25.220  1.00  0.00     0.198 A 
ATOM     43  F   UNL A   1      43.757  24.811  25.228  1.00  0.00    -0.203 F 
ATOM     44  F   UNL A   1      42.245  20.308  27.911  1.00  0.00    -0.200 F 
ATOM     45  C   UNL A   1      42.861  21.368  25.895  1.00  0.00     0.200 A 
ATOM     46  F   UNL A   1      43.532  22.461  23.915  1.00  0.00    -0.200 F 
ATOM     47  F   UNL A   1      42.821  20.194  25.249  1.00  0.00    -0.200 F 
ENDBRANCH  23  37
BRANCH  24  48
ATOM     48  C   UNL A   1      43.818  31.893  33.301  1.00  0.00     0.064 A 
ATOM     49  C   UNL A   1      43.761  31.780  34.698  1.00  0.00     0.173 A 
ATOM     50  C   UNL A   1      43.994  33.186  32.777  1.00  0.00     0.173 A 
ATOM     51  F   UNL A   1      43.633  30.573  35.267  1.00  0.00    -0.203 F 
ATOM     52  C   UNL A   1      43.820  32.903  35.525  1.00  0.00     0.198 A 
ATOM     53  C   UNL A   1      44.135  34.298  33.608  1.00  0.00     0.198 A 
ATOM     54  F   UNL A   1      44.077  33.372  31.451  1.00  0.00    -0.203 F 
ATOM     55  F   UNL A   1      43.687  32.757  36.850  1.00  0.00    -0.200 F 
ATOM     56  C   UNL A   1      44.020  34.161  34.980  1.00  0.00     0.200 A 
ATOM     57  F   UNL A   1      44.394  35.500  33.073  1.00  0.00    -0.200 F 
ATOM     58  F   UNL A   1      44.110  35.239  35.771  1.00  0.00    -0.200 F 
ENDBRANCH  24  48
BRANCH  36  59
ATOM     59  C   UNL A   1      48.317  27.137  30.938  1.00  0.00     0.064 A 
ATOM     60  C   UNL A   1      49.318  27.702  30.134  1.00  0.00     0.173 A 
ATOM     61  C   UNL A   1      48.694  26.383  32.054  1.00  0.00     0.173 A 
ATOM     62  F   UNL A   1      48.993  28.412  29.044  1.00  0.00    -0.203 F 
ATOM     63  C   UNL A   1      50.658  27.497  30.430  1.00  0.00     0.198 A 
ATOM     64  C   UNL A   1      50.035  26.211  32.366  1.00  0.00     0.198 A 
ATOM     65  F   UNL A   1      47.762  25.827  32.841  1.00  0.00    -0.203 F 
ATOM     66  F   UNL A   1      51.603  27.996  29.623  1.00  0.00    -0.200 F 
ATOM     67  C   UNL A   1      51.014  26.762  31.552  1.00  0.00     0.200 A 
ATOM     68  F   UNL A   1      50.379  25.513  33.457  1.00  0.00    -0.200 F 
ATOM     69  F   UNL A   1      52.309  26.576  31.845  1.00  0.00    -0.200 F 
ENDBRANCH  36  59
ENDBRANCH  10  11
ENDBRANCH   3   5
ENDBRANCH   2   3
ENDBRANCH   1   2
BRANCH   1  70
ATOM     70  C   UNL A   1      32.473  29.654  26.115  1.00  0.00     0.274 C 
BRANCH  70  71
ATOM     71  O   UNL A   1      32.063  28.280  25.849  1.00  0.00    -0.461 OA
BRANCH  71  72
ATOM     72  C   UNL A   1      31.386  27.477  26.733  1.00  0.00     0.329 C 
ATOM     73  O   UNL A   1      31.115  27.797  27.879  1.00  0.00    -0.250 OA
BRANCH  72  74
ATOM     74  C   UNL A   1      30.866  26.141  26.021  1.00  0.00     0.206 C 
BRANCH  74  75
ATOM     75  C   UNL A   1      29.847  26.358  24.390  1.00  0.00     0.073 C 
BRANCH  75  76
ATOM     76  C   UNL A   1      29.294  28.049  23.165  1.00  0.00    -0.045 A 
ATOM     77  C   UNL A   1      27.854  28.752  23.082  1.00  0.00     0.004 A 
ATOM     78  C   UNL A   1      30.064  28.991  22.318  1.00  0.00     0.004 A 
ATOM     79  C   UNL A   1      27.465  30.037  22.670  1.00  0.00     0.000 A 
ATOM     80  C   UNL A   1      29.669  30.328  21.936  1.00  0.00     0.000 A 
ATOM     81  C   UNL A   1      28.420  30.872  22.189  1.00  0.00     0.000 A 
ENDBRANCH  75  76
ENDBRANCH  74  75
BRANCH  74  82
ATOM     82  N   UNL A   1      31.965  25.067  26.065  1.00  0.00    -0.278 N 
ATOM     83  C   UNL A   1      32.984  25.162  25.163  1.00  0.00     0.267 C 
ATOM     84  C   UNL A   1      31.811  23.705  26.337  1.00  0.00     0.149 C 
ATOM     85  O   UNL A   1      32.854  25.657  24.052  1.00  0.00    -0.268 OA
ATOM     86  C   UNL A   1      34.091  24.222  25.485  1.00  0.00     0.081 C 
ATOM     87  S   UNL A   1      33.347  22.815  26.078  1.00  0.00    -0.054 SA
ATOM     88  S   UNL A   1      30.478  22.812  26.794  1.00  0.00    -0.052 S 
ATOM     89  C   UNL A   1      35.396  24.498  25.366  1.00  0.00     0.029 C 
BRANCH  89  90
ATOM     90  C   UNL A   1      36.559  23.594  25.347  1.00  0.00    -0.021 A 
ATOM     91  C   UNL A   1      37.617  23.797  26.235  1.00  0.00     0.028 A 
ATOM     92  C   UNL A   1      36.529  22.407  24.609  1.00  0.00     0.028 A 
ATOM     93  C   UNL A   1      38.619  22.843  26.312  1.00  0.00     0.111 A 
ATOM     94  C   UNL A   1      37.580  21.511  24.750  1.00  0.00     0.111 A 
ATOM     95  N   UNL A   1      38.618  21.705  25.589  1.00  0.00    -0.265 NA
ENDBRANCH  89  90
ENDBRANCH  74  82
ENDBRANCH  72  74
ENDBRANCH  71  72
ENDBRANCH  70  71
ENDBRANCH   1  70
TORSDOF 15
ENDMDL
