MODEL 1
REMARK VINA RESULT:     -11.6      0.000      0.000
REMARK SMILES Cc1ccc(C)c([C@H]2[NH2+][C@@H](C(=O)OCCOC(=O)c3ccc(-c4c5nc(c(-c6c(F)c(F)c(F)c(F)c6F)c6ccc([nH]6)c(-c6c(F)c(F)c(F)c(F)c6F)c6nc(c(-c7c(F)c(F)c(F)c(F)c7F)c7ccc4[nH]7)C=C6)C=C5)cc3)Cc3c2[nH]c2ccccc32)c1
REMARK SMILES IDX 15 1 14 2 13 3 11 4 12 5 10 6 8 7 9 8 84 9 83 12 85 13 82 14
REMARK SMILES IDX 91 15 86 16 90 18 87 19 89 20 88 21 7 22 1 23 2 24 3 25
REMARK SMILES IDX 92 26 4 27 5 28 6 29 16 30 17 31 18 32 19 33 20 34 81 35
REMARK SMILES IDX 21 36 80 37 22 38 23 39 24 40 74 41 25 42 79 43 73 44 75 45
REMARK SMILES IDX 26 46 78 47 72 48 71 49 27 51 59 52 39 53 58 54 40 55 43 56
REMARK SMILES IDX 57 57 76 58 41 59 42 60 56 62 77 63 44 64 28 65 29 66 37 67
REMARK SMILES IDX 30 68 31 69 35 70 38 71 32 72 33 73 36 74 34 75 60 76 61 77
REMARK SMILES IDX 69 78 62 79 63 80 67 81 70 82 64 83 65 84 68 85 66 86 45 87
REMARK SMILES IDX 46 88 54 89 47 90 48 91 52 92 55 93 49 94 50 95 53 96 51 97
REMARK H PARENT 9 10 9 11 85 17 75 50 43 61
REMARK Flexibility Score: inf
ROOT
ATOM      1  C   UNL A   1      42.119  20.740  26.103  1.00  0.00     0.275 C 
ENDROOT
BRANCH   1   2
ATOM      2  C   UNL A   1      43.603  20.798  25.752  1.00  0.00     0.274 C 
BRANCH   2   3
ATOM      3  O   UNL A   1      43.951  22.120  25.340  1.00  0.00    -0.458 OA
BRANCH   3   4
ATOM      4  C   UNL A   1      44.993  22.665  26.018  1.00  0.00     0.365 C 
ATOM      5  O   UNL A   1      46.138  22.227  26.023  1.00  0.00    -0.245 OA
BRANCH   4   6
ATOM      6  C   UNL A   1      44.541  23.815  26.894  1.00  0.00     0.298 C 
ATOM      7  C   UNL A   1      45.211  26.185  27.430  1.00  0.00     0.262 C 
ATOM      8  N   UNL A   1      45.278  25.037  26.490  1.00  0.00    -0.323 N 
ATOM      9  C   UNL A   1      45.031  25.705  28.855  1.00  0.00     0.083 A 
ATOM     10  H   UNL A   1      46.260  24.785  26.376  1.00  0.00     0.347 HD
ATOM     11  H   UNL A   1      44.825  25.359  25.635  1.00  0.00     0.347 HD
ATOM     12  C   UNL A   1      44.832  24.399  29.251  1.00  0.00    -0.006 A 
ATOM     13  N   UNL A   1      44.869  26.481  29.980  1.00  0.00    -0.353 N 
ATOM     14  C   UNL A   1      44.876  23.290  28.293  1.00  0.00     0.115 C 
ATOM     15  C   UNL A   1      44.528  24.361  30.622  1.00  0.00     0.003 A 
ATOM     16  C   UNL A   1      44.552  25.680  31.069  1.00  0.00     0.046 A 
ATOM     17  H   UNL A   1      44.964  27.461  30.009  1.00  0.00     0.166 HD
ATOM     18  C   UNL A   1      44.199  23.319  31.510  1.00  0.00     0.010 A 
ATOM     19  C   UNL A   1      44.263  26.001  32.401  1.00  0.00     0.026 A 
ATOM     20  C   UNL A   1      43.898  23.626  32.835  1.00  0.00     0.001 A 
ATOM     21  C   UNL A   1      43.932  24.948  33.271  1.00  0.00     0.002 A 
BRANCH   7  22
ATOM     22  C   UNL A   1      46.451  27.043  27.122  1.00  0.00     0.019 A 
ATOM     23  C   UNL A   1      49.846  27.832  28.726  1.00  0.00     0.044 C 
ATOM     24  C   UNL A   1      48.734  27.738  27.724  1.00  0.00    -0.051 A 
ATOM     25  C   UNL A   1      48.941  28.195  26.423  1.00  0.00     0.004 A 
ATOM     26  C   UNL A   1      47.504  27.146  28.057  1.00  0.00     0.014 A 
ATOM     27  C   UNL A   1      47.918  28.117  25.485  1.00  0.00     0.004 A 
ATOM     28  C   UNL A   1      46.665  27.567  25.818  1.00  0.00    -0.042 A 
ATOM     29  C   UNL A   1      45.653  27.503  24.701  1.00  0.00     0.045 C 
ENDBRANCH   7  22
ENDBRANCH   4   6
ENDBRANCH   3   4
ENDBRANCH   2   3
ENDBRANCH   1   2
BRANCH   1  30
ATOM     30  O   UNL A   1      41.303  21.913  25.804  1.00  0.00    -0.458 OA
BRANCH  30  31
ATOM     31  C   UNL A   1      40.157  22.362  26.379  1.00  0.00     0.338 C 
ATOM     32  O   UNL A   1      39.105  21.758  26.257  1.00  0.00    -0.246 OA
BRANCH  31  33
ATOM     33  C   UNL A   1      40.205  23.608  27.173  1.00  0.00     0.060 A 
ATOM     34  C   UNL A   1      41.174  23.746  28.180  1.00  0.00     0.016 A 
ATOM     35  C   UNL A   1      39.357  24.665  26.874  1.00  0.00     0.016 A 
ATOM     36  C   UNL A   1      41.389  24.988  28.783  1.00  0.00     0.010 A 
ATOM     37  C   UNL A   1      39.652  25.916  27.377  1.00  0.00     0.010 A 
ATOM     38  C   UNL A   1      40.652  26.089  28.347  1.00  0.00    -0.014 A 
BRANCH  38  39
ATOM     39  C   UNL A   1      40.899  27.437  28.876  1.00  0.00     0.031 A 
ATOM     40  C   UNL A   1      42.047  28.253  28.350  1.00  0.00     0.074 A 
ATOM     41  C   UNL A   1      39.947  28.050  29.612  1.00  0.00     0.049 A 
ATOM     42  N   UNL A   1      42.923  28.940  29.022  1.00  0.00    -0.248 NA
ATOM     43  C   UNL A   1      42.223  28.367  26.895  1.00  0.00     0.031 C 
ATOM     44  C   UNL A   1      38.618  27.543  29.987  1.00  0.00     0.029 A 
ATOM     45  N   UNL A   1      39.917  29.334  30.060  1.00  0.00    -0.354 N 
ATOM     46  C   UNL A   1      43.687  29.658  28.094  1.00  0.00     0.074 A 
ATOM     47  C   UNL A   1      43.245  29.221  26.796  1.00  0.00     0.031 C 
ATOM     48  C   UNL A   1      37.835  28.572  30.368  1.00  0.00     0.029 A 
ATOM     49  C   UNL A   1      38.662  29.758  30.459  1.00  0.00     0.049 A 
ATOM     50  H   UNL A   1      40.715  29.910  30.095  1.00  0.00     0.167 HD
ATOM     51  C   UNL A   1      44.537  30.663  28.466  1.00  0.00     0.037 A 
ATOM     52  C   UNL A   1      38.302  31.003  30.834  1.00  0.00     0.037 A 
ATOM     53  C   UNL A   1      44.877  30.570  29.859  1.00  0.00     0.049 A 
ATOM     54  C   UNL A   1      39.529  31.716  31.250  1.00  0.00     0.074 A 
ATOM     55  C   UNL A   1      45.508  29.627  30.646  1.00  0.00     0.029 A 
ATOM     56  N   UNL A   1      44.298  31.443  30.746  1.00  0.00    -0.354 N 
ATOM     57  N   UNL A   1      40.241  31.390  32.294  1.00  0.00    -0.248 NA
ATOM     58  C   UNL A   1      40.207  32.541  30.262  1.00  0.00     0.031 C 
ATOM     59  C   UNL A   1      44.822  29.680  31.896  1.00  0.00     0.029 A 
ATOM     60  C   UNL A   1      43.852  30.678  31.790  1.00  0.00     0.049 A 
ATOM     61  H   UNL A   1      44.221  32.419  30.651  1.00  0.00     0.167 HD
ATOM     62  C   UNL A   1      41.554  31.604  31.906  1.00  0.00     0.074 A 
ATOM     63  C   UNL A   1      41.463  32.414  30.694  1.00  0.00     0.031 C 
ATOM     64  C   UNL A   1      42.581  30.879  32.442  1.00  0.00     0.037 A 
BRANCH  51  65
ATOM     65  C   UNL A   1      44.872  31.908  27.665  1.00  0.00     0.064 A 
ATOM     66  C   UNL A   1      46.124  31.995  27.011  1.00  0.00     0.173 A 
ATOM     67  C   UNL A   1      44.170  33.124  27.778  1.00  0.00     0.173 A 
ATOM     68  F   UNL A   1      46.885  30.903  26.834  1.00  0.00    -0.203 F 
ATOM     69  C   UNL A   1      46.676  33.217  26.611  1.00  0.00     0.198 A 
ATOM     70  C   UNL A   1      44.703  34.337  27.330  1.00  0.00     0.198 A 
ATOM     71  F   UNL A   1      42.995  33.206  28.413  1.00  0.00    -0.203 F 
ATOM     72  F   UNL A   1      47.924  33.258  26.126  1.00  0.00    -0.200 F 
ATOM     73  C   UNL A   1      45.969  34.389  26.784  1.00  0.00     0.200 A 
ATOM     74  F   UNL A   1      44.007  35.470  27.510  1.00  0.00    -0.200 F 
ATOM     75  F   UNL A   1      46.521  35.569  26.471  1.00  0.00    -0.200 F 
ENDBRANCH  51  65
BRANCH  52  76
ATOM     76  C   UNL A   1      37.000  31.653  30.600  1.00  0.00     0.064 A 
ATOM     77  C   UNL A   1      36.068  31.825  31.630  1.00  0.00     0.173 A 
ATOM     78  C   UNL A   1      36.743  32.324  29.387  1.00  0.00     0.173 A 
ATOM     79  F   UNL A   1      36.272  31.251  32.823  1.00  0.00    -0.203 F 
ATOM     80  C   UNL A   1      34.941  32.632  31.459  1.00  0.00     0.198 A 
ATOM     81  C   UNL A   1      35.616  33.125  29.216  1.00  0.00     0.198 A 
ATOM     82  F   UNL A   1      37.625  32.278  28.377  1.00  0.00    -0.203 F 
ATOM     83  F   UNL A   1      34.089  32.813  32.477  1.00  0.00    -0.200 F 
ATOM     84  C   UNL A   1      34.719  33.287  30.256  1.00  0.00     0.200 A 
ATOM     85  F   UNL A   1      35.432  33.779  28.060  1.00  0.00    -0.200 F 
ATOM     86  F   UNL A   1      33.665  34.101  30.111  1.00  0.00    -0.200 F 
ENDBRANCH  52  76
BRANCH  64  87
ATOM     87  C   UNL A   1      42.298  29.994  33.623  1.00  0.00     0.064 A 
ATOM     88  C   UNL A   1      41.885  28.656  33.510  1.00  0.00     0.173 A 
ATOM     89  C   UNL A   1      42.652  30.447  34.901  1.00  0.00     0.173 A 
ATOM     90  F   UNL A   1      41.633  28.112  32.317  1.00  0.00    -0.203 F 
ATOM     91  C   UNL A   1      41.799  27.822  34.622  1.00  0.00     0.198 A 
ATOM     92  C   UNL A   1      42.599  29.602  36.007  1.00  0.00     0.198 A 
ATOM     93  F   UNL A   1      43.118  31.695  35.066  1.00  0.00    -0.203 F 
ATOM     94  F   UNL A   1      41.406  26.547  34.479  1.00  0.00    -0.200 F 
ATOM     95  C   UNL A   1      42.166  28.293  35.870  1.00  0.00     0.200 A 
ATOM     96  F   UNL A   1      43.007  30.047  37.204  1.00  0.00    -0.200 F 
ATOM     97  F   UNL A   1      42.134  27.478  36.933  1.00  0.00    -0.200 F 
ENDBRANCH  64  87
ENDBRANCH  38  39
ENDBRANCH  31  33
ENDBRANCH  30  31
ENDBRANCH   1  30
TORSDOF 12
ENDMDL
MODEL 2
REMARK VINA RESULT:     -11.5      3.944     10.339
REMARK SMILES Cc1ccc(C)c([C@H]2[NH2+][C@@H](C(=O)OCCOC(=O)c3ccc(-c4c5nc(c(-c6c(F)c(F)c(F)c(F)c6F)c6ccc([nH]6)c(-c6c(F)c(F)c(F)c(F)c6F)c6nc(c(-c7c(F)c(F)c(F)c(F)c7F)c7ccc4[nH]7)C=C6)C=C5)cc3)Cc3c2[nH]c2ccccc32)c1
REMARK SMILES IDX 15 1 14 2 13 3 11 4 12 5 10 6 8 7 9 8 84 9 83 12 85 13 82 14
REMARK SMILES IDX 91 15 86 16 90 18 87 19 89 20 88 21 7 22 1 23 2 24 3 25
REMARK SMILES IDX 92 26 4 27 5 28 6 29 16 30 17 31 18 32 19 33 20 34 81 35
REMARK SMILES IDX 21 36 80 37 22 38 23 39 24 40 74 41 25 42 79 43 73 44 75 45
REMARK SMILES IDX 26 46 78 47 72 48 71 49 27 51 59 52 39 53 58 54 40 55 43 56
REMARK SMILES IDX 57 57 76 58 41 59 42 60 56 62 77 63 44 64 28 65 29 66 37 67
REMARK SMILES IDX 30 68 31 69 35 70 38 71 32 72 33 73 36 74 34 75 60 76 61 77
REMARK SMILES IDX 69 78 62 79 63 80 67 81 70 82 64 83 65 84 68 85 66 86 45 87
REMARK SMILES IDX 46 88 54 89 47 90 48 91 52 92 55 93 49 94 50 95 53 96 51 97
REMARK H PARENT 9 10 9 11 85 17 75 50 43 61
REMARK Flexibility Score: inf
ROOT
ATOM      1  C   UNL A   1      33.678  33.676  28.559  1.00  0.00     0.275 C 
ENDROOT
BRANCH   1   2
ATOM      2  C   UNL A   1      34.097  34.529  29.754  1.00  0.00     0.274 C 
BRANCH   2   3
ATOM      3  O   UNL A   1      33.878  33.806  30.965  1.00  0.00    -0.458 OA
BRANCH   3   4
ATOM      4  C   UNL A   1      34.958  33.114  31.411  1.00  0.00     0.365 C 
ATOM      5  O   UNL A   1      35.076  31.894  31.380  1.00  0.00    -0.245 OA
BRANCH   4   6
ATOM      6  C   UNL A   1      35.957  34.028  32.089  1.00  0.00     0.298 C 
ATOM      7  C   UNL A   1      38.351  34.772  31.825  1.00  0.00     0.262 C 
ATOM      8  N   UNL A   1      37.138  34.179  31.205  1.00  0.00    -0.323 N 
ATOM      9  C   UNL A   1      38.403  34.465  33.307  1.00  0.00     0.083 A 
ATOM     10  H   UNL A   1      37.388  33.253  30.857  1.00  0.00     0.347 HD
ATOM     11  H   UNL A   1      36.854  34.838  30.480  1.00  0.00     0.347 HD
ATOM     12  C   UNL A   1      37.421  33.830  34.038  1.00  0.00    -0.006 A 
ATOM     13  N   UNL A   1      39.344  34.898  34.214  1.00  0.00    -0.353 N 
ATOM     14  C   UNL A   1      36.221  33.281  33.400  1.00  0.00     0.115 C 
ATOM     15  C   UNL A   1      37.740  33.883  35.406  1.00  0.00     0.003 A 
ATOM     16  C   UNL A   1      38.953  34.562  35.503  1.00  0.00     0.046 A 
ATOM     17  H   UNL A   1      40.173  35.378  33.982  1.00  0.00     0.166 HD
ATOM     18  C   UNL A   1      37.081  33.443  36.568  1.00  0.00     0.010 A 
ATOM     19  C   UNL A   1      39.548  34.812  36.745  1.00  0.00     0.026 A 
ATOM     20  C   UNL A   1      37.656  33.697  37.812  1.00  0.00     0.001 A 
ATOM     21  C   UNL A   1      38.872  34.369  37.895  1.00  0.00     0.002 A 
BRANCH   7  22
ATOM     22  C   UNL A   1      39.531  34.295  30.960  1.00  0.00     0.019 A 
ATOM     23  C   UNL A   1      41.822  35.710  28.227  1.00  0.00     0.044 C 
ATOM     24  C   UNL A   1      41.265  34.813  29.292  1.00  0.00    -0.051 A 
ATOM     25  C   UNL A   1      41.979  33.680  29.678  1.00  0.00     0.004 A 
ATOM     26  C   UNL A   1      40.063  35.124  29.949  1.00  0.00     0.014 A 
ATOM     27  C   UNL A   1      41.473  32.838  30.662  1.00  0.00     0.004 A 
ATOM     28  C   UNL A   1      40.247  33.113  31.297  1.00  0.00    -0.042 A 
ATOM     29  C   UNL A   1      39.828  32.146  32.375  1.00  0.00     0.045 C 
ENDBRANCH   7  22
ENDBRANCH   4   6
ENDBRANCH   3   4
ENDBRANCH   2   3
ENDBRANCH   1   2
BRANCH   1  30
ATOM     30  O   UNL A   1      34.701  32.859  27.915  1.00  0.00    -0.458 OA
BRANCH  30  31
ATOM     31  C   UNL A   1      34.894  31.514  27.924  1.00  0.00     0.338 C 
ATOM     32  O   UNL A   1      33.961  30.737  27.828  1.00  0.00    -0.246 OA
BRANCH  31  33
ATOM     33  C   UNL A   1      36.276  30.999  28.044  1.00  0.00     0.060 A 
ATOM     34  C   UNL A   1      37.273  31.823  28.591  1.00  0.00     0.016 A 
ATOM     35  C   UNL A   1      36.568  29.687  27.698  1.00  0.00     0.016 A 
ATOM     36  C   UNL A   1      38.520  31.288  28.926  1.00  0.00     0.010 A 
ATOM     37  C   UNL A   1      37.750  29.131  28.143  1.00  0.00     0.010 A 
ATOM     38  C   UNL A   1      38.744  29.923  28.740  1.00  0.00    -0.014 A 
BRANCH  38  39
ATOM     39  C   UNL A   1      39.999  29.288  29.160  1.00  0.00     0.031 A 
ATOM     40  C   UNL A   1      40.266  29.042  30.620  1.00  0.00     0.074 A 
ATOM     41  C   UNL A   1      40.774  28.669  28.243  1.00  0.00     0.049 A 
ATOM     42  N   UNL A   1      41.355  29.279  31.291  1.00  0.00    -0.248 NA
ATOM     43  C   UNL A   1      39.218  28.409  31.432  1.00  0.00     0.031 C 
ATOM     44  C   UNL A   1      40.538  28.528  26.798  1.00  0.00     0.029 A 
ATOM     45  N   UNL A   1      41.880  27.903  28.444  1.00  0.00    -0.354 N 
ATOM     46  C   UNL A   1      41.180  28.733  32.569  1.00  0.00     0.074 A 
ATOM     47  C   UNL A   1      39.822  28.259  32.614  1.00  0.00     0.031 C 
ATOM     48  C   UNL A   1      41.309  27.535  26.312  1.00  0.00     0.029 A 
ATOM     49  C   UNL A   1      42.225  27.123  27.355  1.00  0.00     0.049 A 
ATOM     50  H   UNL A   1      42.387  27.903  29.289  1.00  0.00     0.167 HD
ATOM     51  C   UNL A   1      42.215  28.589  33.451  1.00  0.00     0.037 A 
ATOM     52  C   UNL A   1      43.192  26.184  27.299  1.00  0.00     0.037 A 
ATOM     53  C   UNL A   1      43.318  29.443  33.106  1.00  0.00     0.049 A 
ATOM     54  C   UNL A   1      44.155  26.468  28.384  1.00  0.00     0.074 A 
ATOM     55  C   UNL A   1      43.493  30.808  32.988  1.00  0.00     0.029 A 
ATOM     56  N   UNL A   1      44.431  28.892  32.522  1.00  0.00    -0.354 N 
ATOM     57  N   UNL A   1      44.910  27.532  28.425  1.00  0.00    -0.248 NA
ATOM     58  C   UNL A   1      43.981  25.773  29.649  1.00  0.00     0.031 C 
ATOM     59  C   UNL A   1      44.389  30.965  31.890  1.00  0.00     0.029 A 
ATOM     60  C   UNL A   1      44.724  29.686  31.446  1.00  0.00     0.049 A 
ATOM     61  H   UNL A   1      44.919  28.089  32.818  1.00  0.00     0.167 HD
ATOM     62  C   UNL A   1      44.960  27.876  29.767  1.00  0.00     0.074 A 
ATOM     63  C   UNL A   1      44.467  26.700  30.478  1.00  0.00     0.031 C 
ATOM     64  C   UNL A   1      45.135  29.172  30.162  1.00  0.00     0.037 A 
BRANCH  51  65
ATOM     65  C   UNL A   1      42.377  27.490  34.485  1.00  0.00     0.064 A 
ATOM     66  C   UNL A   1      42.900  26.236  34.089  1.00  0.00     0.173 A 
ATOM     67  C   UNL A   1      41.753  27.506  35.748  1.00  0.00     0.173 A 
ATOM     68  F   UNL A   1      43.527  26.094  32.911  1.00  0.00    -0.203 F 
ATOM     69  C   UNL A   1      42.708  25.074  34.843  1.00  0.00     0.198 A 
ATOM     70  C   UNL A   1      41.608  26.351  36.523  1.00  0.00     0.198 A 
ATOM     71  F   UNL A   1      41.169  28.607  36.235  1.00  0.00    -0.203 F 
ATOM     72  F   UNL A   1      43.101  23.889  34.354  1.00  0.00    -0.200 F 
ATOM     73  C   UNL A   1      42.049  25.130  36.054  1.00  0.00     0.200 A 
ATOM     74  F   UNL A   1      40.959  26.419  37.695  1.00  0.00    -0.200 F 
ATOM     75  F   UNL A   1      41.798  24.010  36.745  1.00  0.00    -0.200 F 
ENDBRANCH  51  65
BRANCH  52  76
ATOM     76  C   UNL A   1      43.163  24.935  26.517  1.00  0.00     0.064 A 
ATOM     77  C   UNL A   1      43.978  24.750  25.395  1.00  0.00     0.173 A 
ATOM     78  C   UNL A   1      42.482  23.801  27.006  1.00  0.00     0.173 A 
ATOM     79  F   UNL A   1      44.687  25.775  24.903  1.00  0.00    -0.203 F 
ATOM     80  C   UNL A   1      44.111  23.495  24.795  1.00  0.00     0.198 A 
ATOM     81  C   UNL A   1      42.612  22.550  26.404  1.00  0.00     0.198 A 
ATOM     82  F   UNL A   1      41.744  23.872  28.124  1.00  0.00    -0.203 F 
ATOM     83  F   UNL A   1      44.932  23.340  23.747  1.00  0.00    -0.200 F 
ATOM     84  C   UNL A   1      43.435  22.396  25.304  1.00  0.00     0.200 A 
ATOM     85  F   UNL A   1      41.979  21.490  26.927  1.00  0.00    -0.200 F 
ATOM     86  F   UNL A   1      43.603  21.184  24.758  1.00  0.00    -0.200 F 
ENDBRANCH  52  76
BRANCH  64  87
ATOM     87  C   UNL A   1      45.494  30.199  29.126  1.00  0.00     0.064 A 
ATOM     88  C   UNL A   1      44.545  30.976  28.440  1.00  0.00     0.173 A 
ATOM     89  C   UNL A   1      46.841  30.552  28.970  1.00  0.00     0.173 A 
ATOM     90  F   UNL A   1      43.237  30.778  28.616  1.00  0.00    -0.203 F 
ATOM     91  C   UNL A   1      44.925  32.033  27.615  1.00  0.00     0.198 A 
ATOM     92  C   UNL A   1      47.218  31.631  28.172  1.00  0.00     0.198 A 
ATOM     93  F   UNL A   1      47.792  29.891  29.650  1.00  0.00    -0.203 F 
ATOM     94  F   UNL A   1      43.993  32.758  26.979  1.00  0.00    -0.200 F 
ATOM     95  C   UNL A   1      46.262  32.365  27.489  1.00  0.00     0.200 A 
ATOM     96  F   UNL A   1      48.509  31.982  28.096  1.00  0.00    -0.200 F 
ATOM     97  F   UNL A   1      46.627  33.414  26.738  1.00  0.00    -0.200 F 
ENDBRANCH  64  87
ENDBRANCH  38  39
ENDBRANCH  31  33
ENDBRANCH  30  31
ENDBRANCH   1  30
TORSDOF 12
ENDMDL
MODEL 3
REMARK VINA RESULT:     -11.3      4.177     10.693
REMARK SMILES Cc1ccc(C)c([C@H]2[NH2+][C@@H](C(=O)OCCOC(=O)c3ccc(-c4c5nc(c(-c6c(F)c(F)c(F)c(F)c6F)c6ccc([nH]6)c(-c6c(F)c(F)c(F)c(F)c6F)c6nc(c(-c7c(F)c(F)c(F)c(F)c7F)c7ccc4[nH]7)C=C6)C=C5)cc3)Cc3c2[nH]c2ccccc32)c1
REMARK SMILES IDX 15 1 14 2 13 3 11 4 12 5 10 6 8 7 9 8 84 9 83 12 85 13 82 14
REMARK SMILES IDX 91 15 86 16 90 18 87 19 89 20 88 21 7 22 1 23 2 24 3 25
REMARK SMILES IDX 92 26 4 27 5 28 6 29 16 30 17 31 18 32 19 33 20 34 81 35
REMARK SMILES IDX 21 36 80 37 22 38 23 39 24 40 74 41 25 42 79 43 73 44 75 45
REMARK SMILES IDX 26 46 78 47 72 48 71 49 27 51 59 52 39 53 58 54 40 55 43 56
REMARK SMILES IDX 57 57 76 58 41 59 42 60 56 62 77 63 44 64 28 65 29 66 37 67
REMARK SMILES IDX 30 68 31 69 35 70 38 71 32 72 33 73 36 74 34 75 60 76 61 77
REMARK SMILES IDX 69 78 62 79 63 80 67 81 70 82 64 83 65 84 68 85 66 86 45 87
REMARK SMILES IDX 46 88 54 89 47 90 48 91 52 92 55 93 49 94 50 95 53 96 51 97
REMARK H PARENT 9 10 9 11 85 17 75 50 43 61
REMARK Flexibility Score: inf
ROOT
ATOM      1  C   UNL A   1      33.915  34.569  29.813  1.00  0.00     0.275 C 
ENDROOT
BRANCH   1   2
ATOM      2  C   UNL A   1      33.575  35.218  31.152  1.00  0.00     0.274 C 
BRANCH   2   3
ATOM      3  O   UNL A   1      33.925  34.337  32.219  1.00  0.00    -0.458 OA
BRANCH   3   4
ATOM      4  C   UNL A   1      34.960  34.765  32.986  1.00  0.00     0.365 C 
ATOM      5  O   UNL A   1      34.957  35.780  33.673  1.00  0.00    -0.245 OA
BRANCH   4   6
ATOM      6  C   UNL A   1      36.189  33.903  32.784  1.00  0.00     0.298 C 
ATOM      7  C   UNL A   1      38.099  32.956  34.129  1.00  0.00     0.262 C 
ATOM      8  N   UNL A   1      36.728  33.526  34.113  1.00  0.00    -0.323 N 
ATOM      9  C   UNL A   1      38.920  33.494  32.975  1.00  0.00     0.083 A 
ATOM     10  H   UNL A   1      36.733  34.362  34.697  1.00  0.00     0.347 HD
ATOM     11  H   UNL A   1      36.119  32.780  34.453  1.00  0.00     0.347 HD
ATOM     12  C   UNL A   1      38.457  34.308  31.963  1.00  0.00    -0.006 A 
ATOM     13  N   UNL A   1      40.208  33.147  32.637  1.00  0.00    -0.353 N 
ATOM     14  C   UNL A   1      37.088  34.832  31.962  1.00  0.00     0.115 C 
ATOM     15  C   UNL A   1      39.452  34.455  30.981  1.00  0.00     0.003 A 
ATOM     16  C   UNL A   1      40.549  33.715  31.417  1.00  0.00     0.046 A 
ATOM     17  H   UNL A   1      40.800  32.577  33.180  1.00  0.00     0.166 HD
ATOM     18  C   UNL A   1      39.496  35.125  29.744  1.00  0.00     0.010 A 
ATOM     19  C   UNL A   1      41.717  33.628  30.649  1.00  0.00     0.026 A 
ATOM     20  C   UNL A   1      40.647  35.035  28.965  1.00  0.00     0.001 A 
ATOM     21  C   UNL A   1      41.741  34.299  29.415  1.00  0.00     0.002 A 
BRANCH   7  22
ATOM     22  C   UNL A   1      38.631  33.199  35.552  1.00  0.00     0.019 A 
ATOM     23  C   UNL A   1      39.656  36.176  37.745  1.00  0.00     0.044 C 
ATOM     24  C   UNL A   1      39.278  34.790  37.315  1.00  0.00    -0.051 A 
ATOM     25  C   UNL A   1      39.148  33.785  38.274  1.00  0.00     0.004 A 
ATOM     26  C   UNL A   1      38.997  34.497  35.971  1.00  0.00     0.014 A 
ATOM     27  C   UNL A   1      38.801  32.495  37.888  1.00  0.00     0.004 A 
ATOM     28  C   UNL A   1      38.560  32.177  36.538  1.00  0.00    -0.042 A 
ATOM     29  C   UNL A   1      38.153  30.753  36.256  1.00  0.00     0.045 C 
ENDBRANCH   7  22
ENDBRANCH   4   6
ENDBRANCH   3   4
ENDBRANCH   2   3
ENDBRANCH   1   2
BRANCH   1  30
ATOM     30  O   UNL A   1      34.186  33.135  29.803  1.00  0.00    -0.458 OA
BRANCH  30  31
ATOM     31  C   UNL A   1      34.512  32.304  28.778  1.00  0.00     0.338 C 
ATOM     32  O   UNL A   1      33.721  32.054  27.886  1.00  0.00    -0.246 OA
BRANCH  31  33
ATOM     33  C   UNL A   1      35.864  31.705  28.755  1.00  0.00     0.060 A 
ATOM     34  C   UNL A   1      36.987  32.534  28.915  1.00  0.00     0.016 A 
ATOM     35  C   UNL A   1      36.021  30.330  28.662  1.00  0.00     0.016 A 
ATOM     36  C   UNL A   1      38.249  31.972  29.126  1.00  0.00     0.010 A 
ATOM     37  C   UNL A   1      37.241  29.776  28.995  1.00  0.00     0.010 A 
ATOM     38  C   UNL A   1      38.368  30.585  29.210  1.00  0.00    -0.014 A 
BRANCH  38  39
ATOM     39  C   UNL A   1      39.651  29.942  29.525  1.00  0.00     0.031 A 
ATOM     40  C   UNL A   1      40.105  29.829  30.954  1.00  0.00     0.074 A 
ATOM     41  C   UNL A   1      40.278  29.207  28.581  1.00  0.00     0.049 A 
ATOM     42  N   UNL A   1      41.280  30.085  31.449  1.00  0.00    -0.248 NA
ATOM     43  C   UNL A   1      39.158  29.321  31.957  1.00  0.00     0.031 C 
ATOM     44  C   UNL A   1      39.846  28.936  27.202  1.00  0.00     0.029 A 
ATOM     45  N   UNL A   1      41.379  28.420  28.712  1.00  0.00    -0.354 N 
ATOM     46  C   UNL A   1      41.264  29.673  32.787  1.00  0.00     0.074 A 
ATOM     47  C   UNL A   1      39.911  29.262  33.058  1.00  0.00     0.031 C 
ATOM     48  C   UNL A   1      40.517  27.870  26.722  1.00  0.00     0.029 A 
ATOM     49  C   UNL A   1      41.554  27.524  27.673  1.00  0.00     0.049 A 
ATOM     50  H   UNL A   1      41.995  28.481  29.479  1.00  0.00     0.167 HD
ATOM     51  C   UNL A   1      42.404  29.574  33.536  1.00  0.00     0.037 A 
ATOM     52  C   UNL A   1      42.479  26.546  27.585  1.00  0.00     0.037 A 
ATOM     53  C   UNL A   1      43.473  30.345  32.964  1.00  0.00     0.049 A 
ATOM     54  C   UNL A   1      43.586  26.895  28.501  1.00  0.00     0.074 A 
ATOM     55  C   UNL A   1      43.667  31.684  32.687  1.00  0.00     0.029 A 
ATOM     56  N   UNL A   1      44.482  29.695  32.299  1.00  0.00    -0.354 N 
ATOM     57  N   UNL A   1      44.369  27.926  28.334  1.00  0.00    -0.248 NA
ATOM     58  C   UNL A   1      43.565  26.333  29.842  1.00  0.00     0.031 C 
ATOM     59  C   UNL A   1      44.412  31.698  31.471  1.00  0.00     0.029 A 
ATOM     60  C   UNL A   1      44.650  30.369  31.119  1.00  0.00     0.049 A 
ATOM     61  H   UNL A   1      44.983  28.906  32.608  1.00  0.00     0.167 HD
ATOM     62  C   UNL A   1      44.608  28.397  29.616  1.00  0.00     0.074 A 
ATOM     63  C   UNL A   1      44.183  27.315  30.501  1.00  0.00     0.031 C 
ATOM     64  C   UNL A   1      44.870  29.717  29.851  1.00  0.00     0.037 A 
BRANCH  51  65
ATOM     65  C   UNL A   1      42.673  28.575  34.647  1.00  0.00     0.064 A 
ATOM     66  C   UNL A   1      43.239  29.026  35.863  1.00  0.00     0.173 A 
ATOM     67  C   UNL A   1      42.702  27.180  34.455  1.00  0.00     0.173 A 
ATOM     68  F   UNL A   1      43.264  30.334  36.167  1.00  0.00    -0.203 F 
ATOM     69  C   UNL A   1      43.884  28.162  36.754  1.00  0.00     0.198 A 
ATOM     70  C   UNL A   1      43.303  26.313  35.373  1.00  0.00     0.198 A 
ATOM     71  F   UNL A   1      42.247  26.611  33.332  1.00  0.00    -0.203 F 
ATOM     72  F   UNL A   1      44.526  28.660  37.820  1.00  0.00    -0.200 F 
ATOM     73  C   UNL A   1      43.928  26.806  36.500  1.00  0.00     0.200 A 
ATOM     74  F   UNL A   1      43.344  24.998  35.110  1.00  0.00    -0.200 F 
ATOM     75  F   UNL A   1      44.607  25.984  37.311  1.00  0.00    -0.200 F 
ENDBRANCH  51  65
BRANCH  52  76
ATOM     76  C   UNL A   1      42.311  25.229  26.945  1.00  0.00     0.064 A 
ATOM     77  C   UNL A   1      43.024  24.873  25.795  1.00  0.00     0.173 A 
ATOM     78  C   UNL A   1      41.598  24.202  27.598  1.00  0.00     0.173 A 
ATOM     79  F   UNL A   1      43.758  25.790  25.149  1.00  0.00    -0.203 F 
ATOM     80  C   UNL A   1      43.031  23.558  25.325  1.00  0.00     0.198 A 
ATOM     81  C   UNL A   1      41.602  22.891  27.125  1.00  0.00     0.198 A 
ATOM     82  F   UNL A   1      40.954  24.439  28.751  1.00  0.00    -0.203 F 
ATOM     83  F   UNL A   1      43.758  23.239  24.245  1.00  0.00    -0.200 F 
ATOM     84  C   UNL A   1      42.327  22.567  25.993  1.00  0.00     0.200 A 
ATOM     85  F   UNL A   1      40.945  21.937  27.800  1.00  0.00    -0.200 F 
ATOM     86  F   UNL A   1      42.376  21.297  25.570  1.00  0.00    -0.200 F 
ENDBRANCH  52  76
BRANCH  64  87
ATOM     87  C   UNL A   1      45.114  30.623  28.678  1.00  0.00     0.064 A 
ATOM     88  C   UNL A   1      44.112  31.402  28.076  1.00  0.00     0.173 A 
ATOM     89  C   UNL A   1      46.436  30.866  28.282  1.00  0.00     0.173 A 
ATOM     90  F   UNL A   1      42.840  31.312  28.471  1.00  0.00    -0.203 F 
ATOM     91  C   UNL A   1      44.413  32.355  27.104  1.00  0.00     0.198 A 
ATOM     92  C   UNL A   1      46.739  31.843  27.335  1.00  0.00     0.198 A 
ATOM     93  F   UNL A   1      47.445  30.201  28.867  1.00  0.00    -0.203 F 
ATOM     94  F   UNL A   1      43.432  33.086  26.553  1.00  0.00    -0.200 F 
ATOM     95  C   UNL A   1      45.728  32.581  26.742  1.00  0.00     0.200 A 
ATOM     96  F   UNL A   1      48.018  32.096  27.027  1.00  0.00    -0.200 F 
ATOM     97  F   UNL A   1      46.025  33.532  25.846  1.00  0.00    -0.200 F 
ENDBRANCH  64  87
ENDBRANCH  38  39
ENDBRANCH  31  33
ENDBRANCH  30  31
ENDBRANCH   1  30
TORSDOF 12
ENDMDL
