MODEL 1
REMARK VINA RESULT:     -11.8      0.000      0.000
REMARK SMILES Cc1[nH]c(=O)sc1S(=O)(=O)NC1(CC(=O)OCCOC(=O)c2ccc(-c3c4nc(c(-c5c(F)c(F)c(F)c(F)c5F)c5ccc([nH]5)c(-c5c(F)c(F)c(F)c(F)c5F)c5nc(c(-c6c(F)c(F)c(F)c(F)c6F)c6ccc3[nH]6)C=C5)C=C4)cc2)CCC1
REMARK SMILES IDX 17 1 16 2 14 3 15 4 13 5 12 6 85 7 87 8 86 9 11 10 8 12 9 13
REMARK SMILES IDX 10 14 7 15 1 16 2 17 3 18 4 19 6 21 5 22 18 23 19 24 20 25
REMARK SMILES IDX 21 26 22 27 23 28 84 29 24 30 83 31 25 32 26 33 27 34 77 35
REMARK SMILES IDX 28 36 82 37 76 38 78 39 29 40 81 41 75 42 74 43 30 45 62 46
REMARK SMILES IDX 42 47 61 48 43 49 46 50 60 51 79 52 44 53 45 54 59 56 80 57
REMARK SMILES IDX 47 58 31 59 32 60 40 61 33 62 34 63 38 64 41 65 35 66 36 67
REMARK SMILES IDX 39 68 37 69 63 70 64 71 72 72 65 73 66 74 70 75 73 76 67 77
REMARK SMILES IDX 68 78 71 79 69 80 48 81 49 82 57 83 50 84 51 85 55 86 58 87
REMARK SMILES IDX 52 88 53 89 56 90 54 91
REMARK H PARENT 11 11 3 20 78 44 46 55
REMARK Flexibility Score: inf
ROOT
ATOM      1  C   UNL A   1      34.328  31.786  27.619  1.00  0.00     0.274 C 
ENDROOT
BRANCH   1   2
ATOM      2  O   UNL A   1      33.981  30.466  27.163  1.00  0.00    -0.462 OA
BRANCH   2   3
ATOM      3  C   UNL A   1      32.655  30.201  27.058  1.00  0.00     0.307 C 
ATOM      4  O   UNL A   1      31.792  31.034  26.810  1.00  0.00    -0.252 OA
BRANCH   3   5
ATOM      5  C   UNL A   1      32.337  28.742  27.246  1.00  0.00     0.146 C 
BRANCH   5   6
ATOM      6  C   UNL A   1      32.270  27.836  26.006  1.00  0.00     0.044 C 
ATOM      7  C   UNL A   1      31.654  26.450  26.414  1.00  0.00     0.024 C 
ATOM      8  C   UNL A   1      33.598  27.097  25.716  1.00  0.00     0.024 C 
ATOM      9  C   UNL A   1      33.011  25.780  26.237  1.00  0.00     0.004 C 
BRANCH   6  10
ATOM     10  N   UNL A   1      31.427  28.395  24.887  1.00  0.00    -0.204 NA
ATOM     11  H   UNL A   1      30.481  28.299  25.258  1.00  0.00     0.142 HD
BRANCH  10  12
ATOM     12  S   UNL A   1      31.205  28.079  23.252  1.00  0.00     0.252 S 
ATOM     13  O   UNL A   1      32.034  29.041  22.572  1.00  0.00    -0.206 OA
ATOM     14  O   UNL A   1      29.768  28.158  23.069  1.00  0.00    -0.206 OA
BRANCH  12  15
ATOM     15  C   UNL A   1      31.750  26.521  22.776  1.00  0.00     0.158 A 
ATOM     16  C   UNL A   1      29.770  25.194  23.721  1.00  0.00     0.067 C 
ATOM     17  C   UNL A   1      31.060  25.392  22.999  1.00  0.00     0.046 A 
ATOM     18  N   UNL A   1      31.707  24.282  22.500  1.00  0.00    -0.315 N 
ATOM     19  C   UNL A   1      32.892  24.496  21.839  1.00  0.00     0.305 A 
ATOM     20  H   UNL A   1      31.337  23.377  22.612  1.00  0.00     0.170 HD
ATOM     21  S   UNL A   1      33.205  26.220  21.840  1.00  0.00    -0.061 S 
ATOM     22  O   UNL A   1      33.619  23.656  21.346  1.00  0.00    -0.257 OA
ENDBRANCH  12  15
ENDBRANCH  10  12
ENDBRANCH   6  10
ENDBRANCH   5   6
ENDBRANCH   3   5
ENDBRANCH   2   3
ENDBRANCH   1   2
BRANCH   1  23
ATOM     23  C   UNL A   1      35.161  31.721  28.903  1.00  0.00     0.275 C 
BRANCH  23  24
ATOM     24  O   UNL A   1      36.550  31.394  28.681  1.00  0.00    -0.458 OA
BRANCH  24  25
ATOM     25  C   UNL A   1      37.166  30.586  29.577  1.00  0.00     0.338 C 
ATOM     26  O   UNL A   1      36.730  30.391  30.705  1.00  0.00    -0.246 OA
BRANCH  25  27
ATOM     27  C   UNL A   1      38.307  29.784  29.057  1.00  0.00     0.060 A 
ATOM     28  C   UNL A   1      39.551  30.432  28.943  1.00  0.00     0.016 A 
ATOM     29  C   UNL A   1      38.175  28.452  28.642  1.00  0.00     0.016 A 
ATOM     30  C   UNL A   1      40.656  29.746  28.455  1.00  0.00     0.010 A 
ATOM     31  C   UNL A   1      39.280  27.761  28.150  1.00  0.00     0.010 A 
ATOM     32  C   UNL A   1      40.529  28.394  28.111  1.00  0.00    -0.014 A 
BRANCH  32  33
ATOM     33  C   UNL A   1      41.748  27.573  28.209  1.00  0.00     0.031 A 
ATOM     34  C   UNL A   1      42.435  27.764  29.534  1.00  0.00     0.074 A 
ATOM     35  C   UNL A   1      42.080  26.586  27.349  1.00  0.00     0.049 A 
ATOM     36  N   UNL A   1      43.684  28.000  29.776  1.00  0.00    -0.248 NA
ATOM     37  C   UNL A   1      41.586  27.830  30.747  1.00  0.00     0.031 C 
ATOM     38  C   UNL A   1      41.288  26.139  26.203  1.00  0.00     0.029 A 
ATOM     39  N   UNL A   1      43.110  25.681  27.383  1.00  0.00    -0.354 N 
ATOM     40  C   UNL A   1      43.797  28.071  31.169  1.00  0.00     0.074 A 
ATOM     41  C   UNL A   1      42.467  28.143  31.692  1.00  0.00     0.031 C 
ATOM     42  C   UNL A   1      41.721  24.921  25.811  1.00  0.00     0.029 A 
ATOM     43  C   UNL A   1      42.877  24.545  26.610  1.00  0.00     0.049 A 
ATOM     44  H   UNL A   1      43.933  25.819  27.905  1.00  0.00     0.167 HD
ATOM     45  C   UNL A   1      44.962  27.748  31.790  1.00  0.00     0.037 A 
ATOM     46  C   UNL A   1      43.524  23.353  26.675  1.00  0.00     0.037 A 
ATOM     47  C   UNL A   1      46.063  27.864  30.873  1.00  0.00     0.049 A 
ATOM     48  C   UNL A   1      44.811  23.558  27.378  1.00  0.00     0.074 A 
ATOM     49  C   UNL A   1      46.786  28.881  30.295  1.00  0.00     0.029 A 
ATOM     50  N   UNL A   1      46.287  26.732  30.144  1.00  0.00    -0.354 N 
ATOM     51  N   UNL A   1      45.816  24.222  26.882  1.00  0.00    -0.248 NA
ATOM     52  C   UNL A   1      44.900  23.264  28.805  1.00  0.00     0.031 C 
ATOM     53  C   UNL A   1      47.328  28.344  29.087  1.00  0.00     0.029 A 
ATOM     54  C   UNL A   1      46.953  27.005  28.985  1.00  0.00     0.049 A 
ATOM     55  H   UNL A   1      46.004  25.830  30.420  1.00  0.00     0.167 HD
ATOM     56  C   UNL A   1      46.408  24.806  27.983  1.00  0.00     0.074 A 
ATOM     57  C   UNL A   1      45.941  24.036  29.126  1.00  0.00     0.031 C 
ATOM     58  C   UNL A   1      46.940  26.059  27.894  1.00  0.00     0.037 A 
BRANCH  45  59
ATOM     59  C   UNL A   1      45.042  26.795  32.983  1.00  0.00     0.064 A 
ATOM     60  C   UNL A   1      44.463  25.512  32.856  1.00  0.00     0.173 A 
ATOM     61  C   UNL A   1      45.334  27.185  34.310  1.00  0.00     0.173 A 
ATOM     62  F   UNL A   1      44.142  25.021  31.649  1.00  0.00    -0.203 F 
ATOM     63  C   UNL A   1      44.103  24.743  33.968  1.00  0.00     0.198 A 
ATOM     64  C   UNL A   1      45.011  26.395  35.415  1.00  0.00     0.198 A 
ATOM     65  F   UNL A   1      45.846  28.379  34.619  1.00  0.00    -0.203 F 
ATOM     66  F   UNL A   1      43.434  23.594  33.795  1.00  0.00    -0.200 F 
ATOM     67  C   UNL A   1      44.364  25.192  35.248  1.00  0.00     0.200 A 
ATOM     68  F   UNL A   1      45.259  26.859  36.648  1.00  0.00    -0.200 F 
ATOM     69  F   UNL A   1      43.958  24.494  36.315  1.00  0.00    -0.200 F 
ENDBRANCH  45  59
BRANCH  46  70
ATOM     70  C   UNL A   1      43.013  21.984  26.388  1.00  0.00     0.064 A 
ATOM     71  C   UNL A   1      43.681  21.130  25.492  1.00  0.00     0.173 A 
ATOM     72  C   UNL A   1      42.019  21.387  27.187  1.00  0.00     0.173 A 
ATOM     73  F   UNL A   1      44.671  21.600  24.718  1.00  0.00    -0.203 F 
ATOM     74  C   UNL A   1      43.398  19.760  25.428  1.00  0.00     0.198 A 
ATOM     75  C   UNL A   1      41.728  20.024  27.112  1.00  0.00     0.198 A 
ATOM     76  F   UNL A   1      41.376  22.092  28.129  1.00  0.00    -0.203 F 
ATOM     77  F   UNL A   1      44.108  18.967  24.613  1.00  0.00    -0.200 F 
ATOM     78  C   UNL A   1      42.429  19.207  26.246  1.00  0.00     0.200 A 
ATOM     79  F   UNL A   1      40.810  19.497  27.934  1.00  0.00    -0.200 F 
ATOM     80  F   UNL A   1      42.200  17.887  26.232  1.00  0.00    -0.200 F 
ENDBRANCH  46  70
BRANCH  58  81
ATOM     81  C   UNL A   1      47.386  26.523  26.546  1.00  0.00     0.064 A 
ATOM     82  C   UNL A   1      46.588  27.239  25.639  1.00  0.00     0.173 A 
ATOM     83  C   UNL A   1      48.716  26.269  26.183  1.00  0.00     0.173 A 
ATOM     84  F   UNL A   1      45.335  27.597  25.952  1.00  0.00    -0.203 F 
ATOM     85  C   UNL A   1      47.090  27.632  24.401  1.00  0.00     0.198 A 
ATOM     86  C   UNL A   1      49.228  26.704  24.967  1.00  0.00     0.198 A 
ATOM     87  F   UNL A   1      49.534  25.624  27.029  1.00  0.00    -0.203 F 
ATOM     88  F   UNL A   1      46.303  28.283  23.533  1.00  0.00    -0.200 F 
ATOM     89  C   UNL A   1      48.411  27.370  24.069  1.00  0.00     0.200 A 
ATOM     90  F   UNL A   1      50.517  26.488  24.672  1.00  0.00    -0.200 F 
ATOM     91  F   UNL A   1      48.902  27.776  22.891  1.00  0.00    -0.200 F 
ENDBRANCH  58  81
ENDBRANCH  32  33
ENDBRANCH  25  27
ENDBRANCH  24  25
ENDBRANCH  23  24
ENDBRANCH   1  23
TORSDOF 15
ENDMDL
MODEL 2
REMARK VINA RESULT:     -11.8      5.976     11.090
REMARK SMILES Cc1[nH]c(=O)sc1S(=O)(=O)NC1(CC(=O)OCCOC(=O)c2ccc(-c3c4nc(c(-c5c(F)c(F)c(F)c(F)c5F)c5ccc([nH]5)c(-c5c(F)c(F)c(F)c(F)c5F)c5nc(c(-c6c(F)c(F)c(F)c(F)c6F)c6ccc3[nH]6)C=C5)C=C4)cc2)CCC1
REMARK SMILES IDX 17 1 16 2 14 3 15 4 13 5 12 6 85 7 87 8 86 9 11 10 8 12 9 13
REMARK SMILES IDX 10 14 7 15 1 16 2 17 3 18 4 19 6 21 5 22 18 23 19 24 20 25
REMARK SMILES IDX 21 26 22 27 23 28 84 29 24 30 83 31 25 32 26 33 27 34 77 35
REMARK SMILES IDX 28 36 82 37 76 38 78 39 29 40 81 41 75 42 74 43 30 45 62 46
REMARK SMILES IDX 42 47 61 48 43 49 46 50 60 51 79 52 44 53 45 54 59 56 80 57
REMARK SMILES IDX 47 58 31 59 32 60 40 61 33 62 34 63 38 64 41 65 35 66 36 67
REMARK SMILES IDX 39 68 37 69 63 70 64 71 72 72 65 73 66 74 70 75 73 76 67 77
REMARK SMILES IDX 68 78 71 79 69 80 48 81 49 82 57 83 50 84 51 85 55 86 58 87
REMARK SMILES IDX 52 88 53 89 56 90 54 91
REMARK H PARENT 11 11 3 20 78 44 46 55
REMARK Flexibility Score: inf
ROOT
ATOM      1  C   UNL A   1      37.864  22.686  26.040  1.00  0.00     0.274 C 
ENDROOT
BRANCH   1   2
ATOM      2  O   UNL A   1      37.645  22.257  24.683  1.00  0.00    -0.462 OA
BRANCH   2   3
ATOM      3  C   UNL A   1      36.778  23.003  23.955  1.00  0.00     0.307 C 
ATOM      4  O   UNL A   1      36.763  23.064  22.731  1.00  0.00    -0.252 OA
BRANCH   3   5
ATOM      5  C   UNL A   1      35.787  23.744  24.811  1.00  0.00     0.146 C 
BRANCH   5   6
ATOM      6  C   UNL A   1      34.391  23.134  25.021  1.00  0.00     0.044 C 
ATOM      7  C   UNL A   1      34.025  23.201  26.548  1.00  0.00     0.024 C 
ATOM      8  C   UNL A   1      34.411  21.593  25.150  1.00  0.00     0.024 C 
ATOM      9  C   UNL A   1      34.177  21.688  26.662  1.00  0.00     0.004 C 
BRANCH   6  10
ATOM     10  N   UNL A   1      33.296  23.840  24.261  1.00  0.00    -0.204 NA
ATOM     11  H   UNL A   1      32.989  23.122  23.604  1.00  0.00     0.142 HD
BRANCH  10  12
ATOM     12  S   UNL A   1      33.154  25.245  23.351  1.00  0.00     0.252 S 
ATOM     13  O   UNL A   1      31.762  25.310  22.985  1.00  0.00    -0.206 OA
ATOM     14  O   UNL A   1      34.135  25.083  22.296  1.00  0.00    -0.206 OA
BRANCH  12  15
ATOM     15  C   UNL A   1      33.508  26.673  24.237  1.00  0.00     0.158 A 
ATOM     16  C   UNL A   1      33.907  28.203  22.218  1.00  0.00     0.067 C 
ATOM     17  C   UNL A   1      33.781  27.855  23.663  1.00  0.00     0.046 A 
ATOM     18  N   UNL A   1      34.009  28.844  24.596  1.00  0.00    -0.315 N 
ATOM     19  C   UNL A   1      33.884  28.493  25.919  1.00  0.00     0.305 A 
ATOM     20  H   UNL A   1      34.250  29.759  24.327  1.00  0.00     0.170 HD
ATOM     21  S   UNL A   1      33.441  26.800  25.987  1.00  0.00    -0.061 S 
ATOM     22  O   UNL A   1      34.061  29.207  26.886  1.00  0.00    -0.257 OA
ENDBRANCH  12  15
ENDBRANCH  10  12
ENDBRANCH   6  10
ENDBRANCH   5   6
ENDBRANCH   3   5
ENDBRANCH   2   3
ENDBRANCH   1   2
BRANCH   1  23
ATOM     23  C   UNL A   1      39.315  23.128  26.248  1.00  0.00     0.275 C 
BRANCH  23  24
ATOM     24  O   UNL A   1      39.487  24.562  26.284  1.00  0.00    -0.458 OA
BRANCH  24  25
ATOM     25  C   UNL A   1      40.470  25.067  27.069  1.00  0.00     0.338 C 
ATOM     26  O   UNL A   1      41.652  24.793  26.909  1.00  0.00    -0.246 OA
BRANCH  25  27
ATOM     27  C   UNL A   1      40.060  26.135  28.021  1.00  0.00     0.060 A 
ATOM     28  C   UNL A   1      40.921  26.400  29.101  1.00  0.00     0.016 A 
ATOM     29  C   UNL A   1      38.850  26.834  27.906  1.00  0.00     0.016 A 
ATOM     30  C   UNL A   1      40.595  27.377  30.033  1.00  0.00     0.010 A 
ATOM     31  C   UNL A   1      38.518  27.813  28.840  1.00  0.00     0.010 A 
ATOM     32  C   UNL A   1      39.418  28.119  29.869  1.00  0.00    -0.014 A 
BRANCH  32  33
ATOM     33  C   UNL A   1      39.411  29.476  30.443  1.00  0.00     0.031 A 
ATOM     34  C   UNL A   1      40.754  30.140  30.302  1.00  0.00     0.074 A 
ATOM     35  C   UNL A   1      38.299  30.147  30.813  1.00  0.00     0.049 A 
ATOM     36  N   UNL A   1      41.451  30.762  31.198  1.00  0.00    -0.248 NA
ATOM     37  C   UNL A   1      41.475  29.972  29.019  1.00  0.00     0.031 C 
ATOM     38  C   UNL A   1      36.921  29.669  30.683  1.00  0.00     0.029 A 
ATOM     39  N   UNL A   1      38.138  31.438  31.248  1.00  0.00    -0.354 N 
ATOM     40  C   UNL A   1      42.606  31.204  30.544  1.00  0.00     0.074 A 
ATOM     41  C   UNL A   1      42.649  30.539  29.278  1.00  0.00     0.031 C 
ATOM     42  C   UNL A   1      36.076  30.718  30.790  1.00  0.00     0.029 A 
ATOM     43  C   UNL A   1      36.840  31.919  31.091  1.00  0.00     0.049 A 
ATOM     44  H   UNL A   1      38.869  31.973  31.633  1.00  0.00     0.167 HD
ATOM     45  C   UNL A   1      43.264  32.316  30.968  1.00  0.00     0.037 A 
ATOM     46  C   UNL A   1      36.428  33.213  31.117  1.00  0.00     0.037 A 
ATOM     47  C   UNL A   1      42.949  32.585  32.344  1.00  0.00     0.049 A 
ATOM     48  C   UNL A   1      37.477  34.023  31.777  1.00  0.00     0.074 A 
ATOM     49  C   UNL A   1      43.280  32.061  33.572  1.00  0.00     0.029 A 
ATOM     50  N   UNL A   1      41.826  33.343  32.509  1.00  0.00    -0.354 N 
ATOM     51  N   UNL A   1      37.764  33.953  33.046  1.00  0.00    -0.248 NA
ATOM     52  C   UNL A   1      38.451  34.736  30.956  1.00  0.00     0.031 C 
ATOM     53  C   UNL A   1      42.210  32.407  34.452  1.00  0.00     0.029 A 
ATOM     54  C   UNL A   1      41.278  33.166  33.746  1.00  0.00     0.049 A 
ATOM     55  H   UNL A   1      41.456  33.943  31.821  1.00  0.00     0.167 HD
ATOM     56  C   UNL A   1      39.121  34.197  33.098  1.00  0.00     0.074 A 
ATOM     57  C   UNL A   1      39.442  34.858  31.843  1.00  0.00     0.031 C 
ATOM     58  C   UNL A   1      39.905  33.534  33.997  1.00  0.00     0.037 A 
BRANCH  45  59
ATOM     59  C   UNL A   1      43.689  33.449  30.033  1.00  0.00     0.064 A 
ATOM     60  C   UNL A   1      42.696  34.075  29.245  1.00  0.00     0.173 A 
ATOM     61  C   UNL A   1      45.018  33.704  29.626  1.00  0.00     0.173 A 
ATOM     62  F   UNL A   1      41.394  33.916  29.528  1.00  0.00    -0.203 F 
ATOM     63  C   UNL A   1      43.009  34.794  28.085  1.00  0.00     0.198 A 
ATOM     64  C   UNL A   1      45.326  34.458  28.491  1.00  0.00     0.198 A 
ATOM     65  F   UNL A   1      46.078  33.163  30.231  1.00  0.00    -0.203 F 
ATOM     66  F   UNL A   1      42.024  35.252  27.300  1.00  0.00    -0.200 F 
ATOM     67  C   UNL A   1      44.323  34.972  27.701  1.00  0.00     0.200 A 
ATOM     68  F   UNL A   1      46.609  34.604  28.129  1.00  0.00    -0.200 F 
ATOM     69  F   UNL A   1      44.625  35.596  26.556  1.00  0.00    -0.200 F 
ENDBRANCH  45  59
BRANCH  46  70
ATOM     70  C   UNL A   1      35.295  33.858  30.399  1.00  0.00     0.064 A 
ATOM     71  C   UNL A   1      34.252  34.490  31.102  1.00  0.00     0.173 A 
ATOM     72  C   UNL A   1      35.347  34.109  29.015  1.00  0.00     0.173 A 
ATOM     73  F   UNL A   1      34.144  34.342  32.431  1.00  0.00    -0.203 F 
ATOM     74  C   UNL A   1      33.344  35.345  30.465  1.00  0.00     0.198 A 
ATOM     75  C   UNL A   1      34.434  34.950  28.378  1.00  0.00     0.198 A 
ATOM     76  F   UNL A   1      36.345  33.621  28.263  1.00  0.00    -0.203 F 
ATOM     77  F   UNL A   1      32.410  35.984  31.182  1.00  0.00    -0.200 F 
ATOM     78  C   UNL A   1      33.443  35.582  29.105  1.00  0.00     0.200 A 
ATOM     79  F   UNL A   1      34.562  35.197  27.067  1.00  0.00    -0.200 F 
ATOM     80  F   UNL A   1      32.617  36.449  28.505  1.00  0.00    -0.200 F 
ENDBRANCH  46  70
BRANCH  58  81
ATOM     81  C   UNL A   1      39.248  33.028  35.240  1.00  0.00     0.064 A 
ATOM     82  C   UNL A   1      38.814  31.707  35.436  1.00  0.00     0.173 A 
ATOM     83  C   UNL A   1      39.104  33.926  36.306  1.00  0.00     0.173 A 
ATOM     84  F   UNL A   1      38.999  30.770  34.497  1.00  0.00    -0.203 F 
ATOM     85  C   UNL A   1      38.211  31.324  36.632  1.00  0.00     0.198 A 
ATOM     86  C   UNL A   1      38.546  33.529  37.514  1.00  0.00     0.198 A 
ATOM     87  F   UNL A   1      39.539  35.191  36.186  1.00  0.00    -0.203 F 
ATOM     88  F   UNL A   1      37.770  30.068  36.789  1.00  0.00    -0.200 F 
ATOM     89  C   UNL A   1      38.084  32.233  37.672  1.00  0.00     0.200 A 
ATOM     90  F   UNL A   1      38.468  34.400  38.530  1.00  0.00    -0.200 F 
ATOM     91  F   UNL A   1      37.533  31.855  38.833  1.00  0.00    -0.200 F 
ENDBRANCH  58  81
ENDBRANCH  32  33
ENDBRANCH  25  27
ENDBRANCH  24  25
ENDBRANCH  23  24
ENDBRANCH   1  23
TORSDOF 15
ENDMDL
MODEL 3
REMARK VINA RESULT:     -11.7      4.022      5.544
REMARK SMILES Cc1[nH]c(=O)sc1S(=O)(=O)NC1(CC(=O)OCCOC(=O)c2ccc(-c3c4nc(c(-c5c(F)c(F)c(F)c(F)c5F)c5ccc([nH]5)c(-c5c(F)c(F)c(F)c(F)c5F)c5nc(c(-c6c(F)c(F)c(F)c(F)c6F)c6ccc3[nH]6)C=C5)C=C4)cc2)CCC1
REMARK SMILES IDX 17 1 16 2 14 3 15 4 13 5 12 6 85 7 87 8 86 9 11 10 8 12 9 13
REMARK SMILES IDX 10 14 7 15 1 16 2 17 3 18 4 19 6 21 5 22 18 23 19 24 20 25
REMARK SMILES IDX 21 26 22 27 23 28 84 29 24 30 83 31 25 32 26 33 27 34 77 35
REMARK SMILES IDX 28 36 82 37 76 38 78 39 29 40 81 41 75 42 74 43 30 45 62 46
REMARK SMILES IDX 42 47 61 48 43 49 46 50 60 51 79 52 44 53 45 54 59 56 80 57
REMARK SMILES IDX 47 58 31 59 32 60 40 61 33 62 34 63 38 64 41 65 35 66 36 67
REMARK SMILES IDX 39 68 37 69 63 70 64 71 72 72 65 73 66 74 70 75 73 76 67 77
REMARK SMILES IDX 68 78 71 79 69 80 48 81 49 82 57 83 50 84 51 85 55 86 58 87
REMARK SMILES IDX 52 88 53 89 56 90 54 91
REMARK H PARENT 11 11 3 20 78 44 46 55
REMARK Flexibility Score: inf
ROOT
ATOM      1  C   UNL A   1      34.757  32.964  28.026  1.00  0.00     0.274 C 
ENDROOT
BRANCH   1   2
ATOM      2  O   UNL A   1      35.367  33.666  29.125  1.00  0.00    -0.462 OA
BRANCH   2   3
ATOM      3  C   UNL A   1      34.681  33.656  30.294  1.00  0.00     0.307 C 
ATOM      4  O   UNL A   1      34.313  32.646  30.882  1.00  0.00    -0.252 OA
BRANCH   3   5
ATOM      5  C   UNL A   1      34.435  35.038  30.836  1.00  0.00     0.146 C 
BRANCH   5   6
ATOM      6  C   UNL A   1      34.192  35.207  32.345  1.00  0.00     0.044 C 
ATOM      7  C   UNL A   1      32.645  35.194  32.620  1.00  0.00     0.024 C 
ATOM      8  C   UNL A   1      34.206  36.683  32.805  1.00  0.00     0.024 C 
ATOM      9  C   UNL A   1      32.679  36.683  32.947  1.00  0.00     0.004 C 
BRANCH   6  10
ATOM     10  N   UNL A   1      34.810  34.119  33.187  1.00  0.00    -0.204 NA
ATOM     11  H   UNL A   1      34.143  34.032  33.955  1.00  0.00     0.142 HD
BRANCH  10  12
ATOM     12  S   UNL A   1      36.281  33.862  33.958  1.00  0.00     0.252 S 
ATOM     13  O   UNL A   1      35.937  33.271  35.226  1.00  0.00    -0.206 OA
ATOM     14  O   UNL A   1      36.914  35.166  33.956  1.00  0.00    -0.206 OA
BRANCH  12  15
ATOM     15  C   UNL A   1      37.294  32.741  33.142  1.00  0.00     0.158 A 
ATOM     16  C   UNL A   1      38.133  34.344  31.324  1.00  0.00     0.067 C 
ATOM     17  C   UNL A   1      38.041  33.057  32.072  1.00  0.00     0.046 A 
ATOM     18  N   UNL A   1      38.778  31.983  31.620  1.00  0.00    -0.315 N 
ATOM     19  C   UNL A   1      38.673  30.812  32.330  1.00  0.00     0.305 A 
ATOM     20  H   UNL A   1      39.352  32.053  30.824  1.00  0.00     0.170 HD
ATOM     21  S   UNL A   1      37.575  31.089  33.666  1.00  0.00    -0.061 S 
ATOM     22  O   UNL A   1      39.222  29.755  32.085  1.00  0.00    -0.257 OA
ENDBRANCH  12  15
ENDBRANCH  10  12
ENDBRANCH   6  10
ENDBRANCH   5   6
ENDBRANCH   3   5
ENDBRANCH   2   3
ENDBRANCH   1   2
BRANCH   1  23
ATOM     23  C   UNL A   1      35.477  31.640  27.754  1.00  0.00     0.275 C 
BRANCH  23  24
ATOM     24  O   UNL A   1      36.761  31.531  28.405  1.00  0.00    -0.458 OA
BRANCH  24  25
ATOM     25  C   UNL A   1      37.024  30.404  29.111  1.00  0.00     0.338 C 
ATOM     26  O   UNL A   1      36.274  29.974  29.978  1.00  0.00    -0.246 OA
BRANCH  25  27
ATOM     27  C   UNL A   1      38.185  29.598  28.644  1.00  0.00     0.060 A 
ATOM     28  C   UNL A   1      39.413  30.267  28.487  1.00  0.00     0.016 A 
ATOM     29  C   UNL A   1      38.085  28.238  28.319  1.00  0.00     0.016 A 
ATOM     30  C   UNL A   1      40.534  29.577  28.045  1.00  0.00     0.010 A 
ATOM     31  C   UNL A   1      39.207  27.543  27.872  1.00  0.00     0.010 A 
ATOM     32  C   UNL A   1      40.441  28.203  27.791  1.00  0.00    -0.014 A 
BRANCH  32  33
ATOM     33  C   UNL A   1      41.680  27.419  27.943  1.00  0.00     0.031 A 
ATOM     34  C   UNL A   1      42.335  27.679  29.272  1.00  0.00     0.074 A 
ATOM     35  C   UNL A   1      42.055  26.411  27.127  1.00  0.00     0.049 A 
ATOM     36  N   UNL A   1      43.572  27.958  29.528  1.00  0.00    -0.248 NA
ATOM     37  C   UNL A   1      41.462  27.767  30.465  1.00  0.00     0.031 C 
ATOM     38  C   UNL A   1      41.297  25.900  25.984  1.00  0.00     0.029 A 
ATOM     39  N   UNL A   1      43.108  25.536  27.215  1.00  0.00    -0.354 N 
ATOM     40  C   UNL A   1      43.656  28.084  30.919  1.00  0.00     0.074 A 
ATOM     41  C   UNL A   1      42.315  28.139  31.415  1.00  0.00     0.031 C 
ATOM     42  C   UNL A   1      41.771  24.680  25.647  1.00  0.00     0.029 A 
ATOM     43  C   UNL A   1      42.920  24.367  26.480  1.00  0.00     0.049 A 
ATOM     44  H   UNL A   1      43.917  25.716  27.746  1.00  0.00     0.167 HD
ATOM     45  C   UNL A   1      44.817  27.817  31.574  1.00  0.00     0.037 A 
ATOM     46  C   UNL A   1      43.597  23.196  26.603  1.00  0.00     0.037 A 
ATOM     47  C   UNL A   1      45.932  27.929  30.673  1.00  0.00     0.049 A 
ATOM     48  C   UNL A   1      44.864  23.462  27.321  1.00  0.00     0.074 A 
ATOM     49  C   UNL A   1      46.639  28.943  30.070  1.00  0.00     0.029 A 
ATOM     50  N   UNL A   1      46.201  26.777  29.991  1.00  0.00    -0.354 N 
ATOM     51  N   UNL A   1      45.861  24.135  26.819  1.00  0.00    -0.248 NA
ATOM     52  C   UNL A   1      44.934  23.225  28.759  1.00  0.00     0.031 C 
ATOM     53  C   UNL A   1      47.219  28.376  28.894  1.00  0.00     0.029 A 
ATOM     54  C   UNL A   1      46.882  27.025  28.835  1.00  0.00     0.049 A 
ATOM     55  H   UNL A   1      45.937  25.879  30.296  1.00  0.00     0.167 HD
ATOM     56  C   UNL A   1      46.416  24.776  27.908  1.00  0.00     0.074 A 
ATOM     57  C   UNL A   1      45.947  24.037  29.070  1.00  0.00     0.031 C 
ATOM     58  C   UNL A   1      46.915  26.039  27.782  1.00  0.00     0.037 A 
BRANCH  45  59
ATOM     59  C   UNL A   1      44.900  26.912  32.803  1.00  0.00     0.064 A 
ATOM     60  C   UNL A   1      44.371  25.604  32.709  1.00  0.00     0.173 A 
ATOM     61  C   UNL A   1      45.142  27.360  34.122  1.00  0.00     0.173 A 
ATOM     62  F   UNL A   1      44.100  25.058  31.514  1.00  0.00    -0.203 F 
ATOM     63  C   UNL A   1      44.009  24.863  33.840  1.00  0.00     0.198 A 
ATOM     64  C   UNL A   1      44.817  26.600  35.247  1.00  0.00     0.198 A 
ATOM     65  F   UNL A   1      45.602  28.583  34.399  1.00  0.00    -0.203 F 
ATOM     66  F   UNL A   1      43.387  23.686  33.693  1.00  0.00    -0.200 F 
ATOM     67  C   UNL A   1      44.219  25.368  35.108  1.00  0.00     0.200 A 
ATOM     68  F   UNL A   1      45.016  27.117  36.468  1.00  0.00    -0.200 F 
ATOM     69  F   UNL A   1      43.810  24.695  36.190  1.00  0.00    -0.200 F 
ENDBRANCH  45  59
BRANCH  46  70
ATOM     70  C   UNL A   1      43.129  21.804  26.358  1.00  0.00     0.064 A 
ATOM     71  C   UNL A   1      43.781  20.967  25.435  1.00  0.00     0.173 A 
ATOM     72  C   UNL A   1      42.208  21.176  27.218  1.00  0.00     0.173 A 
ATOM     73  F   UNL A   1      44.706  21.469  24.601  1.00  0.00    -0.203 F 
ATOM     74  C   UNL A   1      43.553  19.586  25.399  1.00  0.00     0.198 A 
ATOM     75  C   UNL A   1      41.971  19.801  27.173  1.00  0.00     0.198 A 
ATOM     76  F   UNL A   1      41.589  21.864  28.188  1.00  0.00    -0.203 F 
ATOM     77  F   UNL A   1      44.248  18.813  24.553  1.00  0.00    -0.200 F 
ATOM     78  C   UNL A   1      42.655  19.003  26.276  1.00  0.00     0.200 A 
ATOM     79  F   UNL A   1      41.123  19.246  28.051  1.00  0.00    -0.200 F 
ATOM     80  F   UNL A   1      42.482  17.675  26.289  1.00  0.00    -0.200 F 
ENDBRANCH  46  70
BRANCH  58  81
ATOM     81  C   UNL A   1      47.375  26.464  26.425  1.00  0.00     0.064 A 
ATOM     82  C   UNL A   1      46.606  27.206  25.514  1.00  0.00     0.173 A 
ATOM     83  C   UNL A   1      48.689  26.143  26.058  1.00  0.00     0.173 A 
ATOM     84  F   UNL A   1      45.374  27.626  25.828  1.00  0.00    -0.203 F 
ATOM     85  C   UNL A   1      47.120  27.559  24.268  1.00  0.00     0.198 A 
ATOM     86  C   UNL A   1      49.214  26.538  24.834  1.00  0.00     0.198 A 
ATOM     87  F   UNL A   1      49.481  25.470  26.909  1.00  0.00    -0.203 F 
ATOM     88  F   UNL A   1      46.359  28.236  23.396  1.00  0.00    -0.200 F 
ATOM     89  C   UNL A   1      48.424  27.230  23.932  1.00  0.00     0.200 A 
ATOM     90  F   UNL A   1      50.490  26.257  24.536  1.00  0.00    -0.200 F 
ATOM     91  F   UNL A   1      48.928  27.598  22.746  1.00  0.00    -0.200 F 
ENDBRANCH  58  81
ENDBRANCH  32  33
ENDBRANCH  25  27
ENDBRANCH  24  25
ENDBRANCH  23  24
ENDBRANCH   1  23
TORSDOF 15
ENDMDL
