MODEL 1
REMARK VINA RESULT:      -9.5      0.000      0.000
REMARK SMILES C[N@@H+](CCCCC(=O)OCCOC(=O)c1ccc(-c2c3nc(c(-c4c(F)c(F)c(F)c(F)c4F)c4ccc([nH]4)c(-c4c(F)c(F)c(F)c(F)c4F)c4nc(c(-c5c(F)c(F)c(F)c(F)c5F)c5ccc2[nH]5)C=C4)C=C3)cc1)CC(C)(C)O
REMARK SMILES IDX 7 1 8 2 6 3 5 4 4 5 3 6 2 7 1 8 78 10 79 11 80 12 81 13
REMARK SMILES IDX 82 14 9 16 10 17 11 18 12 19 13 20 14 21 15 22 16 23 77 24
REMARK SMILES IDX 17 25 76 26 18 27 19 28 20 29 70 30 21 31 75 32 69 33 71 34
REMARK SMILES IDX 22 35 74 36 68 37 67 38 23 40 55 41 35 42 54 43 36 44 39 45
REMARK SMILES IDX 53 46 72 47 37 48 38 49 52 51 73 52 40 53 24 54 25 55 33 56
REMARK SMILES IDX 26 57 27 58 31 59 34 60 28 61 29 62 32 63 30 64 56 65 57 66
REMARK SMILES IDX 65 67 58 68 59 69 63 70 66 71 60 72 61 73 64 74 62 75 41 76
REMARK SMILES IDX 42 77 50 78 43 79 44 80 48 81 51 82 45 83 46 84 49 85 47 86
REMARK H PARENT 2 9 82 15 71 39 39 50
REMARK Flexibility Score: inf
ROOT
ATOM      1  C   UNL A   1      32.926  35.557  29.681  1.00  0.00     0.305 C 
ATOM      2  O   UNL A   1      32.828  36.429  28.828  1.00  0.00    -0.252 OA
ENDROOT
BRANCH   1   3
ATOM      3  C   UNL A   1      32.525  35.750  31.119  1.00  0.00     0.123 C 
BRANCH   3   4
ATOM      4  C   UNL A   1      33.303  36.890  31.786  1.00  0.00     0.017 C 
BRANCH   4   5
ATOM      5  C   UNL A   1      33.645  36.649  33.261  1.00  0.00     0.062 C 
BRANCH   5   6
ATOM      6  C   UNL A   1      34.865  35.751  33.523  1.00  0.00     0.262 C 
BRANCH   6   7
ATOM      7  N   UNL A   1      34.683  34.454  34.180  1.00  0.00    -0.335 N 
ATOM      8  C   UNL A   1      35.719  34.142  35.144  1.00  0.00     0.332 C 
ATOM      9  H   UNL A   1      33.847  34.594  34.748  1.00  0.00     0.347 HD
BRANCH   7  10
ATOM     10  C   UNL A   1      34.211  33.343  33.344  1.00  0.00     0.296 C 
BRANCH  10  11
ATOM     11  C   UNL A   1      35.069  32.734  32.175  1.00  0.00     0.108 C 
ATOM     12  C   UNL A   1      35.976  33.769  31.498  1.00  0.00     0.048 C 
ATOM     13  C   UNL A   1      35.951  31.609  32.741  1.00  0.00     0.048 C 
BRANCH  11  14
ATOM     14  O   UNL A   1      34.239  32.148  31.170  1.00  0.00    -0.385 OA
ATOM     15  H   UNL A   1      34.157  31.195  31.334  1.00  0.00     0.211 HD
ENDBRANCH  11  14
ENDBRANCH  10  11
ENDBRANCH   7  10
ENDBRANCH   6   7
ENDBRANCH   5   6
ENDBRANCH   4   5
ENDBRANCH   3   4
ENDBRANCH   1   3
BRANCH   1  16
ATOM     16  O   UNL A   1      33.378  34.291  29.476  1.00  0.00    -0.462 OA
BRANCH  16  17
ATOM     17  C   UNL A   1      33.295  33.815  28.121  1.00  0.00     0.274 C 
BRANCH  17  18
ATOM     18  C   UNL A   1      34.459  32.856  27.869  1.00  0.00     0.275 C 
BRANCH  18  19
ATOM     19  O   UNL A   1      34.149  31.578  28.455  1.00  0.00    -0.458 OA
BRANCH  19  20
ATOM     20  C   UNL A   1      34.567  30.499  27.758  1.00  0.00     0.338 C 
ATOM     21  O   UNL A   1      33.947  29.861  26.927  1.00  0.00    -0.246 OA
BRANCH  20  22
ATOM     22  C   UNL A   1      35.921  30.146  28.215  1.00  0.00     0.060 A 
ATOM     23  C   UNL A   1      37.012  30.214  27.344  1.00  0.00     0.016 A 
ATOM     24  C   UNL A   1      36.083  29.690  29.523  1.00  0.00     0.016 A 
ATOM     25  C   UNL A   1      38.275  29.803  27.781  1.00  0.00     0.010 A 
ATOM     26  C   UNL A   1      37.351  29.316  29.969  1.00  0.00     0.010 A 
ATOM     27  C   UNL A   1      38.455  29.351  29.097  1.00  0.00    -0.014 A 
BRANCH  27  28
ATOM     28  C   UNL A   1      39.779  28.878  29.579  1.00  0.00     0.031 A 
ATOM     29  C   UNL A   1      40.578  29.731  30.526  1.00  0.00     0.074 A 
ATOM     30  C   UNL A   1      40.291  27.717  29.131  1.00  0.00     0.049 A 
ATOM     31  N   UNL A   1      41.812  29.585  30.938  1.00  0.00    -0.248 NA
ATOM     32  C   UNL A   1      39.895  30.911  31.077  1.00  0.00     0.031 C 
ATOM     33  C   UNL A   1      39.615  26.789  28.228  1.00  0.00     0.029 A 
ATOM     34  N   UNL A   1      41.513  27.133  29.361  1.00  0.00    -0.354 N 
ATOM     35  C   UNL A   1      42.064  30.667  31.771  1.00  0.00     0.074 A 
ATOM     36  C   UNL A   1      40.859  31.469  31.797  1.00  0.00     0.031 C 
ATOM     37  C   UNL A   1      40.432  25.752  27.974  1.00  0.00     0.029 A 
ATOM     38  C   UNL A   1      41.705  25.972  28.655  1.00  0.00     0.049 A 
ATOM     39  H   UNL A   1      42.185  27.510  29.973  1.00  0.00     0.167 HD
ATOM     40  C   UNL A   1      43.196  30.961  32.455  1.00  0.00     0.037 A 
ATOM     41  C   UNL A   1      42.797  25.189  28.542  1.00  0.00     0.037 A 
ATOM     42  C   UNL A   1      44.387  30.153  32.446  1.00  0.00     0.049 A 
ATOM     43  C   UNL A   1      44.058  25.564  29.273  1.00  0.00     0.074 A 
ATOM     44  C   UNL A   1      45.573  30.354  33.133  1.00  0.00     0.029 A 
ATOM     45  N   UNL A   1      44.545  28.987  31.712  1.00  0.00    -0.354 N 
ATOM     46  N   UNL A   1      44.286  26.584  30.063  1.00  0.00    -0.248 NA
ATOM     47  C   UNL A   1      45.217  24.679  29.089  1.00  0.00     0.031 C 
ATOM     48  C   UNL A   1      46.462  29.331  32.783  1.00  0.00     0.029 A 
ATOM     49  C   UNL A   1      45.816  28.468  31.913  1.00  0.00     0.049 A 
ATOM     50  H   UNL A   1      43.857  28.586  31.133  1.00  0.00     0.167 HD
ATOM     51  C   UNL A   1      45.602  26.455  30.484  1.00  0.00     0.074 A 
ATOM     52  C   UNL A   1      46.120  25.249  29.875  1.00  0.00     0.031 C 
ATOM     53  C   UNL A   1      46.317  27.265  31.302  1.00  0.00     0.037 A 
BRANCH  40  54
ATOM     54  C   UNL A   1      43.209  32.227  33.259  1.00  0.00     0.064 A 
ATOM     55  C   UNL A   1      42.830  32.246  34.609  1.00  0.00     0.173 A 
ATOM     56  C   UNL A   1      43.645  33.429  32.681  1.00  0.00     0.173 A 
ATOM     57  F   UNL A   1      42.396  31.125  35.205  1.00  0.00    -0.203 F 
ATOM     58  C   UNL A   1      42.866  33.428  35.345  1.00  0.00     0.198 A 
ATOM     59  C   UNL A   1      43.703  34.603  33.427  1.00  0.00     0.198 A 
ATOM     60  F   UNL A   1      44.023  33.463  31.394  1.00  0.00    -0.203 F 
ATOM     61  F   UNL A   1      42.461  33.432  36.622  1.00  0.00    -0.200 F 
ATOM     62  C   UNL A   1      43.307  34.603  34.755  1.00  0.00     0.200 A 
ATOM     63  F   UNL A   1      44.140  35.735  32.858  1.00  0.00    -0.200 F 
ATOM     64  F   UNL A   1      43.345  35.738  35.467  1.00  0.00    -0.200 F 
ENDBRANCH  40  54
BRANCH  41  65
ATOM     65  C   UNL A   1      42.753  23.980  27.681  1.00  0.00     0.064 A 
ATOM     66  C   UNL A   1      42.418  22.729  28.216  1.00  0.00     0.173 A 
ATOM     67  C   UNL A   1      43.050  24.048  26.313  1.00  0.00     0.173 A 
ATOM     68  F   UNL A   1      42.155  22.610  29.527  1.00  0.00    -0.203 F 
ATOM     69  C   UNL A   1      42.395  21.588  27.417  1.00  0.00     0.198 A 
ATOM     70  C   UNL A   1      43.000  22.911  25.508  1.00  0.00     0.198 A 
ATOM     71  F   UNL A   1      43.380  25.221  25.754  1.00  0.00    -0.203 F 
ATOM     72  F   UNL A   1      42.114  20.397  27.962  1.00  0.00    -0.200 F 
ATOM     73  C   UNL A   1      42.679  21.681  26.063  1.00  0.00     0.200 A 
ATOM     74  F   UNL A   1      43.268  23.007  24.199  1.00  0.00    -0.200 F 
ATOM     75  F   UNL A   1      42.653  20.584  25.294  1.00  0.00    -0.200 F 
ENDBRANCH  41  65
BRANCH  53  76
ATOM     76  C   UNL A   1      47.728  26.858  31.610  1.00  0.00     0.064 A 
ATOM     77  C   UNL A   1      48.023  25.944  32.629  1.00  0.00     0.173 A 
ATOM     78  C   UNL A   1      48.794  27.363  30.849  1.00  0.00     0.173 A 
ATOM     79  F   UNL A   1      47.040  25.445  33.395  1.00  0.00    -0.203 F 
ATOM     80  C   UNL A   1      49.338  25.564  32.892  1.00  0.00     0.198 A 
ATOM     81  C   UNL A   1      50.104  26.963  31.097  1.00  0.00     0.198 A 
ATOM     82  F   UNL A   1      48.563  28.237  29.858  1.00  0.00    -0.203 F 
ATOM     83  F   UNL A   1      49.601  24.721  33.900  1.00  0.00    -0.200 F 
ATOM     84  C   UNL A   1      50.375  26.069  32.123  1.00  0.00     0.200 A 
ATOM     85  F   UNL A   1      51.104  27.444  30.347  1.00  0.00    -0.200 F 
ATOM     86  F   UNL A   1      51.639  25.699  32.374  1.00  0.00    -0.200 F 
ENDBRANCH  53  76
ENDBRANCH  27  28
ENDBRANCH  20  22
ENDBRANCH  19  20
ENDBRANCH  18  19
ENDBRANCH  17  18
ENDBRANCH  16  17
ENDBRANCH   1  16
TORSDOF 18
ENDMDL
MODEL 2
REMARK VINA RESULT:      -9.3      3.843      9.639
REMARK SMILES C[N@@H+](CCCCC(=O)OCCOC(=O)c1ccc(-c2c3nc(c(-c4c(F)c(F)c(F)c(F)c4F)c4ccc([nH]4)c(-c4c(F)c(F)c(F)c(F)c4F)c4nc(c(-c5c(F)c(F)c(F)c(F)c5F)c5ccc2[nH]5)C=C4)C=C3)cc1)CC(C)(C)O
REMARK SMILES IDX 7 1 8 2 6 3 5 4 4 5 3 6 2 7 1 8 78 10 79 11 80 12 81 13
REMARK SMILES IDX 82 14 9 16 10 17 11 18 12 19 13 20 14 21 15 22 16 23 77 24
REMARK SMILES IDX 17 25 76 26 18 27 19 28 20 29 70 30 21 31 75 32 69 33 71 34
REMARK SMILES IDX 22 35 74 36 68 37 67 38 23 40 55 41 35 42 54 43 36 44 39 45
REMARK SMILES IDX 53 46 72 47 37 48 38 49 52 51 73 52 40 53 24 54 25 55 33 56
REMARK SMILES IDX 26 57 27 58 31 59 34 60 28 61 29 62 32 63 30 64 56 65 57 66
REMARK SMILES IDX 65 67 58 68 59 69 63 70 66 71 60 72 61 73 64 74 62 75 41 76
REMARK SMILES IDX 42 77 50 78 43 79 44 80 48 81 51 82 45 83 46 84 49 85 47 86
REMARK H PARENT 2 9 82 15 71 39 39 50
REMARK Flexibility Score: inf
ROOT
ATOM      1  C   UNL A   1      33.573  29.700  26.735  1.00  0.00     0.305 C 
ATOM      2  O   UNL A   1      34.570  29.130  27.161  1.00  0.00    -0.252 OA
ENDROOT
BRANCH   1   3
ATOM      3  C   UNL A   1      32.930  29.375  25.413  1.00  0.00     0.123 C 
BRANCH   3   4
ATOM      4  C   UNL A   1      33.740  28.347  24.616  1.00  0.00     0.017 C 
BRANCH   4   5
ATOM      5  C   UNL A   1      33.194  26.916  24.683  1.00  0.00     0.062 C 
BRANCH   5   6
ATOM      6  C   UNL A   1      32.157  26.550  23.609  1.00  0.00     0.262 C 
BRANCH   6   7
ATOM      7  N   UNL A   1      30.825  27.160  23.649  1.00  0.00    -0.335 N 
ATOM      8  C   UNL A   1      29.859  26.393  24.407  1.00  0.00     0.332 C 
ATOM      9  H   UNL A   1      30.969  28.001  24.208  1.00  0.00     0.347 HD
BRANCH   7  10
ATOM     10  C   UNL A   1      30.340  27.784  22.412  1.00  0.00     0.296 C 
BRANCH  10  11
ATOM     11  C   UNL A   1      29.648  29.197  22.387  1.00  0.00     0.108 C 
ATOM     12  C   UNL A   1      28.119  29.111  22.314  1.00  0.00     0.048 C 
ATOM     13  C   UNL A   1      30.033  29.960  23.665  1.00  0.00     0.048 C 
BRANCH  11  14
ATOM     14  O   UNL A   1      30.102  29.979  21.281  1.00  0.00    -0.385 OA
ATOM     15  H   UNL A   1      29.860  29.536  20.451  1.00  0.00     0.211 HD
ENDBRANCH  11  14
ENDBRANCH  10  11
ENDBRANCH   7  10
ENDBRANCH   6   7
ENDBRANCH   5   6
ENDBRANCH   4   5
ENDBRANCH   3   4
ENDBRANCH   1   3
BRANCH   1  16
ATOM     16  O   UNL A   1      32.882  30.680  27.377  1.00  0.00    -0.462 OA
BRANCH  16  17
ATOM     17  C   UNL A   1      31.892  31.360  26.586  1.00  0.00     0.274 C 
BRANCH  17  18
ATOM     18  C   UNL A   1      31.733  32.784  27.123  1.00  0.00     0.275 C 
BRANCH  18  19
ATOM     19  O   UNL A   1      33.036  33.376  27.272  1.00  0.00    -0.458 OA
BRANCH  19  20
ATOM     20  C   UNL A   1      33.198  34.168  28.355  1.00  0.00     0.338 C 
ATOM     21  O   UNL A   1      32.519  35.120  28.691  1.00  0.00    -0.246 OA
BRANCH  20  22
ATOM     22  C   UNL A   1      34.408  33.734  29.072  1.00  0.00     0.060 A 
ATOM     23  C   UNL A   1      35.647  34.325  28.810  1.00  0.00     0.016 A 
ATOM     24  C   UNL A   1      34.300  32.681  29.980  1.00  0.00     0.016 A 
ATOM     25  C   UNL A   1      36.794  33.844  29.451  1.00  0.00     0.010 A 
ATOM     26  C   UNL A   1      35.440  32.228  30.646  1.00  0.00     0.010 A 
ATOM     27  C   UNL A   1      36.699  32.792  30.374  1.00  0.00    -0.014 A 
BRANCH  27  28
ATOM     28  C   UNL A   1      37.905  32.240  31.046  1.00  0.00     0.031 A 
ATOM     29  C   UNL A   1      38.698  31.150  30.379  1.00  0.00     0.074 A 
ATOM     30  C   UNL A   1      38.258  32.671  32.270  1.00  0.00     0.049 A 
ATOM     31  N   UNL A   1      39.677  30.423  30.856  1.00  0.00    -0.248 NA
ATOM     32  C   UNL A   1      38.334  30.833  28.990  1.00  0.00     0.031 C 
ATOM     33  C   UNL A   1      37.588  33.732  33.019  1.00  0.00     0.029 A 
ATOM     34  N   UNL A   1      39.261  32.249  33.110  1.00  0.00    -0.354 N 
ATOM     35  C   UNL A   1      40.026  29.544  29.839  1.00  0.00     0.074 A 
ATOM     36  C   UNL A   1      39.146  29.819  28.723  1.00  0.00     0.031 C 
ATOM     37  C   UNL A   1      38.193  33.876  34.210  1.00  0.00     0.029 A 
ATOM     38  C   UNL A   1      39.258  32.883  34.327  1.00  0.00     0.049 A 
ATOM     39  H   UNL A   1      39.917  31.559  32.862  1.00  0.00     0.167 HD
ATOM     40  C   UNL A   1      40.995  28.598  29.837  1.00  0.00     0.037 A 
ATOM     41  C   UNL A   1      40.007  32.666  35.427  1.00  0.00     0.037 A 
ATOM     42  C   UNL A   1      41.884  28.337  30.939  1.00  0.00     0.049 A 
ATOM     43  C   UNL A   1      41.044  31.576  35.415  1.00  0.00     0.074 A 
ATOM     44  C   UNL A   1      42.918  27.419  31.017  1.00  0.00     0.029 A 
ATOM     45  N   UNL A   1      41.843  28.997  32.158  1.00  0.00    -0.354 N 
ATOM     46  N   UNL A   1      41.372  30.754  34.448  1.00  0.00    -0.248 NA
ATOM     47  C   UNL A   1      41.810  31.379  36.654  1.00  0.00     0.031 C 
ATOM     48  C   UNL A   1      43.477  27.495  32.298  1.00  0.00     0.029 A 
ATOM     49  C   UNL A   1      42.822  28.492  33.002  1.00  0.00     0.049 A 
ATOM     50  H   UNL A   1      41.215  29.717  32.391  1.00  0.00     0.167 HD
ATOM     51  C   UNL A   1      42.390  29.958  34.952  1.00  0.00     0.074 A 
ATOM     52  C   UNL A   1      42.639  30.404  36.307  1.00  0.00     0.031 C 
ATOM     53  C   UNL A   1      43.060  28.948  34.347  1.00  0.00     0.037 A 
BRANCH  40  54
ATOM     54  C   UNL A   1      41.133  27.752  28.605  1.00  0.00     0.064 A 
ATOM     55  C   UNL A   1      40.359  26.600  28.412  1.00  0.00     0.173 A 
ATOM     56  C   UNL A   1      42.026  28.123  27.588  1.00  0.00     0.173 A 
ATOM     57  F   UNL A   1      39.499  26.197  29.360  1.00  0.00    -0.203 F 
ATOM     58  C   UNL A   1      40.489  25.836  27.254  1.00  0.00     0.198 A 
ATOM     59  C   UNL A   1      42.135  27.371  26.421  1.00  0.00     0.198 A 
ATOM     60  F   UNL A   1      42.786  29.220  27.722  1.00  0.00    -0.203 F 
ATOM     61  F   UNL A   1      39.767  24.716  27.108  1.00  0.00    -0.200 F 
ATOM     62  C   UNL A   1      41.372  26.226  26.258  1.00  0.00     0.200 A 
ATOM     63  F   UNL A   1      42.981  27.755  25.455  1.00  0.00    -0.200 F 
ATOM     64  F   UNL A   1      41.491  25.493  25.143  1.00  0.00    -0.200 F 
ENDBRANCH  40  54
BRANCH  41  65
ATOM     65  C   UNL A   1      39.787  33.488  36.644  1.00  0.00     0.064 A 
ATOM     66  C   UNL A   1      38.822  33.124  37.592  1.00  0.00     0.173 A 
ATOM     67  C   UNL A   1      40.528  34.654  36.879  1.00  0.00     0.173 A 
ATOM     68  F   UNL A   1      38.067  32.032  37.394  1.00  0.00    -0.203 F 
ATOM     69  C   UNL A   1      38.598  33.902  38.725  1.00  0.00     0.198 A 
ATOM     70  C   UNL A   1      40.322  35.418  38.027  1.00  0.00     0.198 A 
ATOM     71  F   UNL A   1      41.460  35.048  35.999  1.00  0.00    -0.203 F 
ATOM     72  F   UNL A   1      37.640  33.555  39.596  1.00  0.00    -0.200 F 
ATOM     73  C   UNL A   1      39.353  35.045  38.945  1.00  0.00     0.200 A 
ATOM     74  F   UNL A   1      41.059  36.517  38.239  1.00  0.00    -0.200 F 
ATOM     75  F   UNL A   1      39.139  35.791  40.037  1.00  0.00    -0.200 F 
ENDBRANCH  41  65
BRANCH  53  76
ATOM     76  C   UNL A   1      44.145  28.273  35.134  1.00  0.00     0.064 A 
ATOM     77  C   UNL A   1      43.892  27.129  35.902  1.00  0.00     0.173 A 
ATOM     78  C   UNL A   1      45.461  28.757  35.087  1.00  0.00     0.173 A 
ATOM     79  F   UNL A   1      42.647  26.637  35.991  1.00  0.00    -0.203 F 
ATOM     80  C   UNL A   1      44.914  26.505  36.615  1.00  0.00     0.198 A 
ATOM     81  C   UNL A   1      46.485  28.117  35.781  1.00  0.00     0.198 A 
ATOM     82  F   UNL A   1      45.756  29.847  34.362  1.00  0.00    -0.203 F 
ATOM     83  F   UNL A   1      44.641  25.437  37.376  1.00  0.00    -0.200 F 
ATOM     84  C   UNL A   1      46.209  26.996  36.548  1.00  0.00     0.200 A 
ATOM     85  F   UNL A   1      47.738  28.587  35.707  1.00  0.00    -0.200 F 
ATOM     86  F   UNL A   1      47.192  26.391  37.230  1.00  0.00    -0.200 F 
ENDBRANCH  53  76
ENDBRANCH  27  28
ENDBRANCH  20  22
ENDBRANCH  19  20
ENDBRANCH  18  19
ENDBRANCH  17  18
ENDBRANCH  16  17
ENDBRANCH   1  16
TORSDOF 18
ENDMDL
MODEL 3
REMARK VINA RESULT:      -9.2      3.898      9.653
REMARK SMILES C[N@@H+](CCCCC(=O)OCCOC(=O)c1ccc(-c2c3nc(c(-c4c(F)c(F)c(F)c(F)c4F)c4ccc([nH]4)c(-c4c(F)c(F)c(F)c(F)c4F)c4nc(c(-c5c(F)c(F)c(F)c(F)c5F)c5ccc2[nH]5)C=C4)C=C3)cc1)CC(C)(C)O
REMARK SMILES IDX 7 1 8 2 6 3 5 4 4 5 3 6 2 7 1 8 78 10 79 11 80 12 81 13
REMARK SMILES IDX 82 14 9 16 10 17 11 18 12 19 13 20 14 21 15 22 16 23 77 24
REMARK SMILES IDX 17 25 76 26 18 27 19 28 20 29 70 30 21 31 75 32 69 33 71 34
REMARK SMILES IDX 22 35 74 36 68 37 67 38 23 40 55 41 35 42 54 43 36 44 39 45
REMARK SMILES IDX 53 46 72 47 37 48 38 49 52 51 73 52 40 53 24 54 25 55 33 56
REMARK SMILES IDX 26 57 27 58 31 59 34 60 28 61 29 62 32 63 30 64 56 65 57 66
REMARK SMILES IDX 65 67 58 68 59 69 63 70 66 71 60 72 61 73 64 74 62 75 41 76
REMARK SMILES IDX 42 77 50 78 43 79 44 80 48 81 51 82 45 83 46 84 49 85 47 86
REMARK H PARENT 2 9 82 15 71 39 39 50
REMARK Flexibility Score: inf
ROOT
ATOM      1  C   UNL A   1      33.525  28.102  23.002  1.00  0.00     0.305 C 
ATOM      2  O   UNL A   1      34.044  28.124  21.893  1.00  0.00    -0.252 OA
ENDROOT
BRANCH   1   3
ATOM      3  C   UNL A   1      33.346  26.846  23.812  1.00  0.00     0.123 C 
BRANCH   3   4
ATOM      4  C   UNL A   1      33.450  25.584  22.949  1.00  0.00     0.017 C 
BRANCH   4   5
ATOM      5  C   UNL A   1      33.761  24.303  23.731  1.00  0.00     0.062 C 
BRANCH   5   6
ATOM      6  C   UNL A   1      34.763  24.456  24.887  1.00  0.00     0.262 C 
BRANCH   6   7
ATOM      7  N   UNL A   1      35.597  23.317  25.278  1.00  0.00    -0.335 N 
ATOM      8  C   UNL A   1      36.983  23.667  25.513  1.00  0.00     0.332 C 
ATOM      9  H   UNL A   1      35.242  23.072  26.203  1.00  0.00     0.347 HD
BRANCH   7  10
ATOM     10  C   UNL A   1      35.352  22.042  24.592  1.00  0.00     0.296 C 
BRANCH  10  11
ATOM     11  C   UNL A   1      34.457  20.904  25.207  1.00  0.00     0.108 C 
ATOM     12  C   UNL A   1      33.898  21.265  26.588  1.00  0.00     0.048 C 
ATOM     13  C   UNL A   1      33.277  20.633  24.259  1.00  0.00     0.048 C 
BRANCH  11  14
ATOM     14  O   UNL A   1      35.184  19.680  25.329  1.00  0.00    -0.385 OA
ATOM     15  H   UNL A   1      35.893  19.788  25.984  1.00  0.00     0.211 HD
ENDBRANCH  11  14
ENDBRANCH  10  11
ENDBRANCH   7  10
ENDBRANCH   6   7
ENDBRANCH   5   6
ENDBRANCH   4   5
ENDBRANCH   3   4
ENDBRANCH   1   3
BRANCH   1  16
ATOM     16  O   UNL A   1      33.058  29.183  23.683  1.00  0.00    -0.462 OA
BRANCH  16  17
ATOM     17  C   UNL A   1      31.802  28.996  24.358  1.00  0.00     0.274 C 
BRANCH  17  18
ATOM     18  C   UNL A   1      31.777  29.890  25.599  1.00  0.00     0.275 C 
BRANCH  18  19
ATOM     19  O   UNL A   1      33.106  30.384  25.846  1.00  0.00    -0.458 OA
BRANCH  19  20
ATOM     20  C   UNL A   1      33.235  31.206  26.911  1.00  0.00     0.338 C 
ATOM     21  O   UNL A   1      32.488  32.103  27.256  1.00  0.00    -0.246 OA
BRANCH  20  22
ATOM     22  C   UNL A   1      34.501  30.889  27.593  1.00  0.00     0.060 A 
ATOM     23  C   UNL A   1      34.809  29.576  27.957  1.00  0.00     0.016 A 
ATOM     24  C   UNL A   1      35.361  31.938  27.916  1.00  0.00     0.016 A 
ATOM     25  C   UNL A   1      35.984  29.311  28.669  1.00  0.00     0.010 A 
ATOM     26  C   UNL A   1      36.551  31.667  28.594  1.00  0.00     0.010 A 
ATOM     27  C   UNL A   1      36.864  30.355  28.993  1.00  0.00    -0.014 A 
BRANCH  27  28
ATOM     28  C   UNL A   1      38.102  30.108  29.777  1.00  0.00     0.031 A 
ATOM     29  C   UNL A   1      39.166  29.199  29.227  1.00  0.00     0.074 A 
ATOM     30  C   UNL A   1      38.253  30.651  30.999  1.00  0.00     0.049 A 
ATOM     31  N   UNL A   1      40.238  28.724  29.810  1.00  0.00    -0.248 NA
ATOM     32  C   UNL A   1      38.994  28.759  27.834  1.00  0.00     0.031 C 
ATOM     33  C   UNL A   1      37.309  31.563  31.641  1.00  0.00     0.029 A 
ATOM     34  N   UNL A   1      39.253  30.492  31.929  1.00  0.00    -0.354 N 
ATOM     35  C   UNL A   1      40.852  27.909  28.869  1.00  0.00     0.074 A 
ATOM     36  C   UNL A   1      40.026  27.941  27.680  1.00  0.00     0.031 C 
ATOM     37  C   UNL A   1      37.769  31.881  32.862  1.00  0.00     0.029 A 
ATOM     38  C   UNL A   1      39.012  31.154  33.107  1.00  0.00     0.049 A 
ATOM     39  H   UNL A   1      40.061  29.957  31.765  1.00  0.00     0.167 HD
ATOM     40  C   UNL A   1      42.001  27.201  28.985  1.00  0.00     0.037 A 
ATOM     41  C   UNL A   1      39.699  31.148  34.267  1.00  0.00     0.037 A 
ATOM     42  C   UNL A   1      42.833  27.184  30.160  1.00  0.00     0.049 A 
ATOM     43  C   UNL A   1      40.946  30.315  34.387  1.00  0.00     0.074 A 
ATOM     44  C   UNL A   1      44.033  26.522  30.361  1.00  0.00     0.029 A 
ATOM     45  N   UNL A   1      42.551  27.862  31.336  1.00  0.00    -0.354 N 
ATOM     46  N   UNL A   1      41.523  29.553  33.491  1.00  0.00    -0.248 NA
ATOM     47  C   UNL A   1      41.635  30.338  35.686  1.00  0.00     0.031 C 
ATOM     48  C   UNL A   1      44.457  26.767  31.671  1.00  0.00     0.029 A 
ATOM     49  C   UNL A   1      43.544  27.618  32.274  1.00  0.00     0.049 A 
ATOM     50  H   UNL A   1      41.764  28.433  31.485  1.00  0.00     0.167 HD
ATOM     51  C   UNL A   1      42.647  29.021  34.108  1.00  0.00     0.074 A 
ATOM     52  C   UNL A   1      42.682  29.560  35.451  1.00  0.00     0.031 C 
ATOM     53  C   UNL A   1      43.568  28.163  33.606  1.00  0.00     0.037 A 
BRANCH  40  54
ATOM     54  C   UNL A   1      42.420  26.364  27.813  1.00  0.00     0.064 A 
ATOM     55  C   UNL A   1      43.349  26.828  26.871  1.00  0.00     0.173 A 
ATOM     56  C   UNL A   1      41.915  25.064  27.655  1.00  0.00     0.173 A 
ATOM     57  F   UNL A   1      43.853  28.067  26.972  1.00  0.00    -0.203 F 
ATOM     58  C   UNL A   1      43.739  26.030  25.798  1.00  0.00     0.198 A 
ATOM     59  C   UNL A   1      42.326  24.260  26.595  1.00  0.00     0.198 A 
ATOM     60  F   UNL A   1      41.028  24.571  28.532  1.00  0.00    -0.203 F 
ATOM     61  F   UNL A   1      44.597  26.508  24.887  1.00  0.00    -0.200 F 
ATOM     62  C   UNL A   1      43.232  24.745  25.665  1.00  0.00     0.200 A 
ATOM     63  F   UNL A   1      41.844  23.016  26.474  1.00  0.00    -0.200 F 
ATOM     64  F   UNL A   1      43.614  23.977  24.635  1.00  0.00    -0.200 F 
ENDBRANCH  40  54
BRANCH  41  65
ATOM     65  C   UNL A   1      39.207  31.945  35.420  1.00  0.00     0.064 A 
ATOM     66  C   UNL A   1      38.387  31.364  36.397  1.00  0.00     0.173 A 
ATOM     67  C   UNL A   1      39.539  33.299  35.565  1.00  0.00     0.173 A 
ATOM     68  F   UNL A   1      38.019  30.078  36.284  1.00  0.00    -0.203 F 
ATOM     69  C   UNL A   1      37.907  32.111  37.469  1.00  0.00     0.198 A 
ATOM     70  C   UNL A   1      39.080  34.040  36.653  1.00  0.00     0.198 A 
ATOM     71  F   UNL A   1      40.316  33.902  34.654  1.00  0.00    -0.203 F 
ATOM     72  F   UNL A   1      37.090  31.543  38.367  1.00  0.00    -0.200 F 
ATOM     73  C   UNL A   1      38.259  33.447  37.600  1.00  0.00     0.200 A 
ATOM     74  F   UNL A   1      39.428  35.327  36.780  1.00  0.00    -0.200 F 
ATOM     75  F   UNL A   1      37.799  34.164  38.634  1.00  0.00    -0.200 F 
ENDBRANCH  41  65
BRANCH  53  76
ATOM     76  C   UNL A   1      44.707  27.775  34.503  1.00  0.00     0.064 A 
ATOM     77  C   UNL A   1      44.652  26.626  35.303  1.00  0.00     0.173 A 
ATOM     78  C   UNL A   1      45.881  28.543  34.531  1.00  0.00     0.173 A 
ATOM     79  F   UNL A   1      43.545  25.869  35.323  1.00  0.00    -0.203 F 
ATOM     80  C   UNL A   1      45.724  26.271  36.119  1.00  0.00     0.198 A 
ATOM     81  C   UNL A   1      46.961  28.171  35.328  1.00  0.00     0.198 A 
ATOM     82  F   UNL A   1      45.984  29.649  33.779  1.00  0.00    -0.203 F 
ATOM     83  F   UNL A   1      45.634  25.193  36.908  1.00  0.00    -0.200 F 
ATOM     84  C   UNL A   1      46.878  27.040  36.126  1.00  0.00     0.200 A 
ATOM     85  F   UNL A   1      48.078  28.910  35.326  1.00  0.00    -0.200 F 
ATOM     86  F   UNL A   1      47.911  26.694  36.907  1.00  0.00    -0.200 F 
ENDBRANCH  53  76
ENDBRANCH  27  28
ENDBRANCH  20  22
ENDBRANCH  19  20
ENDBRANCH  18  19
ENDBRANCH  17  18
ENDBRANCH  16  17
ENDBRANCH   1  16
TORSDOF 18
ENDMDL
