MODEL 1
REMARK VINA RESULT:     -12.1      0.000      0.000
REMARK SMILES C[NH+]1CCC([N@@H+](C)Cc2ccc(C(=O)OCCOC(=O)c3ccc(-c4c5nc(c(-c6c(F)c(F)c(F)c(F)c6F)c6ccc([nH]6)c(-c6c(F)c(F)c(F)c(F)c6F)c6nc(c(-c7c(F)c(F)c(F)c(F)c7F)c7ccc4[nH]7)C=C6)C=C5)cc3)cn2)CC1
REMARK SMILES IDX 16 1 15 2 13 3 14 4 12 5 9 6 10 7 85 8 11 9 84 10 8 11 6 12
REMARK SMILES IDX 7 13 5 15 1 16 2 17 3 18 87 19 4 21 86 22 17 23 18 24 19 25
REMARK SMILES IDX 20 26 21 27 22 28 83 29 23 30 82 31 24 32 25 33 26 34 76 35
REMARK SMILES IDX 27 36 81 37 75 38 77 39 28 40 80 41 74 42 73 43 29 45 61 46
REMARK SMILES IDX 41 47 60 48 42 49 45 50 59 51 78 52 43 53 44 54 58 56 79 57
REMARK SMILES IDX 46 58 30 59 31 60 39 61 32 62 33 63 37 64 40 65 34 66 35 67
REMARK SMILES IDX 38 68 36 69 62 70 63 71 71 72 64 73 65 74 69 75 72 76 66 77
REMARK SMILES IDX 67 78 70 79 68 80 47 81 48 82 56 83 49 84 50 85 54 86 57 87
REMARK SMILES IDX 51 88 52 89 55 90 53 91
REMARK H PARENT 6 14 2 20 77 44 45 55
REMARK Flexibility Score: inf
ROOT
ATOM      1  C   UNL A   1      32.360  29.218  24.974  1.00  0.00     0.275 C 
ENDROOT
BRANCH   1   2
ATOM      2  O   UNL A   1      31.465  28.086  24.933  1.00  0.00    -0.458 OA
BRANCH   2   3
ATOM      3  C   UNL A   1      31.798  27.072  25.764  1.00  0.00     0.339 C 
ATOM      4  O   UNL A   1      31.287  26.818  26.841  1.00  0.00    -0.246 OA
BRANCH   3   5
ATOM      5  C   UNL A   1      32.830  26.205  25.178  1.00  0.00     0.078 A 
ATOM      6  C   UNL A   1      34.239  24.068  24.183  1.00  0.00     0.095 A 
ATOM      7  C   UNL A   1      34.692  24.709  25.345  1.00  0.00     0.031 A 
ATOM      8  N   UNL A   1      33.228  24.567  23.441  1.00  0.00    -0.254 NA
ATOM      9  C   UNL A   1      33.972  25.798  25.852  1.00  0.00     0.019 A 
ATOM     10  C   UNL A   1      32.538  25.593  23.971  1.00  0.00     0.127 A 
BRANCH   6  11
ATOM     11  C   UNL A   1      34.694  22.669  23.810  1.00  0.00     0.319 C 
BRANCH  11  12
ATOM     12  N   UNL A   1      34.780  21.677  24.917  1.00  0.00    -0.330 N 
ATOM     13  C   UNL A   1      36.116  21.622  25.514  1.00  0.00     0.333 C 
ATOM     14  H   UNL A   1      34.131  22.067  25.601  1.00  0.00     0.348 HD
BRANCH  12  15
ATOM     15  C   UNL A   1      34.201  20.330  24.690  1.00  0.00     0.195 C 
ATOM     16  C   UNL A   1      33.285  16.189  25.559  1.00  0.00     0.332 C 
ATOM     17  N   UNL A   1      33.705  17.589  25.565  1.00  0.00    -0.337 N 
ATOM     18  C   UNL A   1      32.554  18.482  25.383  1.00  0.00     0.268 C 
ATOM     19  C   UNL A   1      34.698  17.843  24.516  1.00  0.00     0.268 C 
ATOM     20  H   UNL A   1      34.131  17.778  26.472  1.00  0.00     0.347 HD
ATOM     21  C   UNL A   1      32.973  19.943  25.546  1.00  0.00     0.126 C 
ATOM     22  C   UNL A   1      35.284  19.239  24.699  1.00  0.00     0.126 C 
ENDBRANCH  12  15
ENDBRANCH  11  12
ENDBRANCH   6  11
ENDBRANCH   3   5
ENDBRANCH   2   3
ENDBRANCH   1   2
BRANCH   1  23
ATOM     23  C   UNL A   1      31.799  30.332  25.862  1.00  0.00     0.275 C 
BRANCH  23  24
ATOM     24  O   UNL A   1      32.483  30.391  27.130  1.00  0.00    -0.458 OA
BRANCH  24  25
ATOM     25  C   UNL A   1      33.210  31.511  27.334  1.00  0.00     0.338 C 
ATOM     26  O   UNL A   1      32.815  32.666  27.302  1.00  0.00    -0.246 OA
BRANCH  25  27
ATOM     27  C   UNL A   1      34.598  31.186  27.692  1.00  0.00     0.060 A 
ATOM     28  C   UNL A   1      34.902  29.871  28.023  1.00  0.00     0.016 A 
ATOM     29  C   UNL A   1      35.512  32.201  27.965  1.00  0.00     0.016 A 
ATOM     30  C   UNL A   1      36.017  29.597  28.809  1.00  0.00     0.010 A 
ATOM     31  C   UNL A   1      36.727  31.885  28.588  1.00  0.00     0.010 A 
ATOM     32  C   UNL A   1      36.974  30.587  29.070  1.00  0.00    -0.014 A 
BRANCH  32  33
ATOM     33  C   UNL A   1      38.219  30.257  29.831  1.00  0.00     0.031 A 
ATOM     34  C   UNL A   1      39.270  29.345  29.246  1.00  0.00     0.074 A 
ATOM     35  C   UNL A   1      38.411  30.772  31.065  1.00  0.00     0.049 A 
ATOM     36  N   UNL A   1      40.297  28.778  29.831  1.00  0.00    -0.248 NA
ATOM     37  C   UNL A   1      39.137  29.009  27.821  1.00  0.00     0.031 C 
ATOM     38  C   UNL A   1      37.509  31.701  31.749  1.00  0.00     0.029 A 
ATOM     39  N   UNL A   1      39.432  30.589  31.969  1.00  0.00    -0.354 N 
ATOM     40  C   UNL A   1      40.892  27.973  28.865  1.00  0.00     0.074 A 
ATOM     41  C   UNL A   1      40.103  28.115  27.660  1.00  0.00     0.031 C 
ATOM     42  C   UNL A   1      38.037  32.049  32.929  1.00  0.00     0.029 A 
ATOM     43  C   UNL A   1      39.247  31.271  33.147  1.00  0.00     0.049 A 
ATOM     44  H   UNL A   1      40.218  30.025  31.788  1.00  0.00     0.167 HD
ATOM     45  C   UNL A   1      41.994  27.190  28.977  1.00  0.00     0.037 A 
ATOM     46  C   UNL A   1      39.931  31.236  34.306  1.00  0.00     0.037 A 
ATOM     47  C   UNL A   1      42.805  27.097  30.166  1.00  0.00     0.049 A 
ATOM     48  C   UNL A   1      41.112  30.318  34.424  1.00  0.00     0.074 A 
ATOM     49  C   UNL A   1      43.953  26.353  30.374  1.00  0.00     0.029 A 
ATOM     50  N   UNL A   1      42.555  27.780  31.349  1.00  0.00    -0.354 N 
ATOM     51  N   UNL A   1      41.637  29.527  33.523  1.00  0.00    -0.248 NA
ATOM     52  C   UNL A   1      41.785  30.277  35.729  1.00  0.00     0.031 C 
ATOM     53  C   UNL A   1      44.366  26.541  31.698  1.00  0.00     0.029 A 
ATOM     54  C   UNL A   1      43.514  27.454  32.297  1.00  0.00     0.049 A 
ATOM     55  H   UNL A   1      41.808  28.404  31.494  1.00  0.00     0.167 HD
ATOM     56  C   UNL A   1      42.714  28.908  34.141  1.00  0.00     0.074 A 
ATOM     57  C   UNL A   1      42.777  29.432  35.490  1.00  0.00     0.031 C 
ATOM     58  C   UNL A   1      43.570  27.987  33.635  1.00  0.00     0.037 A 
BRANCH  45  59
ATOM     59  C   UNL A   1      42.371  26.334  27.796  1.00  0.00     0.064 A 
ATOM     60  C   UNL A   1      41.776  25.087  27.552  1.00  0.00     0.173 A 
ATOM     61  C   UNL A   1      43.328  26.789  26.873  1.00  0.00     0.173 A 
ATOM     62  F   UNL A   1      40.859  24.600  28.402  1.00  0.00    -0.203 F 
ATOM     63  C   UNL A   1      42.150  24.313  26.455  1.00  0.00     0.198 A 
ATOM     64  C   UNL A   1      43.674  26.029  25.758  1.00  0.00     0.198 A 
ATOM     65  F   UNL A   1      43.922  27.980  27.045  1.00  0.00    -0.203 F 
ATOM     66  F   UNL A   1      41.610  23.100  26.277  1.00  0.00    -0.200 F 
ATOM     67  C   UNL A   1      43.094  24.788  25.556  1.00  0.00     0.200 A 
ATOM     68  F   UNL A   1      44.571  26.499  24.880  1.00  0.00    -0.200 F 
ATOM     69  F   UNL A   1      43.449  24.044  24.499  1.00  0.00    -0.200 F 
ENDBRANCH  45  59
BRANCH  46  70
ATOM     70  C   UNL A   1      39.479  32.065  35.455  1.00  0.00     0.064 A 
ATOM     71  C   UNL A   1      39.902  33.393  35.594  1.00  0.00     0.173 A 
ATOM     72  C   UNL A   1      38.600  31.556  36.424  1.00  0.00     0.173 A 
ATOM     73  F   UNL A   1      40.761  33.919  34.708  1.00  0.00    -0.203 F 
ATOM     74  C   UNL A   1      39.471  34.177  36.662  1.00  0.00     0.198 A 
ATOM     75  C   UNL A   1      38.140  32.353  37.470  1.00  0.00     0.198 A 
ATOM     76  F   UNL A   1      38.161  30.291  36.336  1.00  0.00    -0.203 F 
ATOM     77  F   UNL A   1      39.924  35.432  36.795  1.00  0.00    -0.200 F 
ATOM     78  C   UNL A   1      38.582  33.660  37.593  1.00  0.00     0.200 A 
ATOM     79  F   UNL A   1      37.265  31.854  38.353  1.00  0.00    -0.200 F 
ATOM     80  F   UNL A   1      38.156  34.420  38.611  1.00  0.00    -0.200 F 
ENDBRANCH  46  70
BRANCH  58  81
ATOM     81  C   UNL A   1      44.681  27.525  34.532  1.00  0.00     0.064 A 
ATOM     82  C   UNL A   1      45.899  28.216  34.618  1.00  0.00     0.173 A 
ATOM     83  C   UNL A   1      44.514  26.387  35.336  1.00  0.00     0.173 A 
ATOM     84  F   UNL A   1      46.117  29.298  33.856  1.00  0.00    -0.203 F 
ATOM     85  C   UNL A   1      46.918  27.768  35.455  1.00  0.00     0.198 A 
ATOM     86  C   UNL A   1      45.522  25.962  36.195  1.00  0.00     0.198 A 
ATOM     87  F   UNL A   1      43.367  25.692  35.294  1.00  0.00    -0.203 F 
ATOM     88  F   UNL A   1      48.093  28.411  35.479  1.00  0.00    -0.200 F 
ATOM     89  C   UNL A   1      46.726  26.647  36.248  1.00  0.00     0.200 A 
ATOM     90  F   UNL A   1      45.329  24.886  36.972  1.00  0.00    -0.200 F 
ATOM     91  F   UNL A   1      47.705  26.221  37.057  1.00  0.00    -0.200 F 
ENDBRANCH  58  81
ENDBRANCH  32  33
ENDBRANCH  25  27
ENDBRANCH  24  25
ENDBRANCH  23  24
ENDBRANCH   1  23
TORSDOF 14
ENDMDL
MODEL 2
REMARK VINA RESULT:     -12.1      0.195      1.622
REMARK SMILES C[NH+]1CCC([N@@H+](C)Cc2ccc(C(=O)OCCOC(=O)c3ccc(-c4c5nc(c(-c6c(F)c(F)c(F)c(F)c6F)c6ccc([nH]6)c(-c6c(F)c(F)c(F)c(F)c6F)c6nc(c(-c7c(F)c(F)c(F)c(F)c7F)c7ccc4[nH]7)C=C6)C=C5)cc3)cn2)CC1
REMARK SMILES IDX 16 1 15 2 13 3 14 4 12 5 9 6 10 7 85 8 11 9 84 10 8 11 6 12
REMARK SMILES IDX 7 13 5 15 1 16 2 17 3 18 87 19 4 21 86 22 17 23 18 24 19 25
REMARK SMILES IDX 20 26 21 27 22 28 83 29 23 30 82 31 24 32 25 33 26 34 76 35
REMARK SMILES IDX 27 36 81 37 75 38 77 39 28 40 80 41 74 42 73 43 29 45 61 46
REMARK SMILES IDX 41 47 60 48 42 49 45 50 59 51 78 52 43 53 44 54 58 56 79 57
REMARK SMILES IDX 46 58 30 59 31 60 39 61 32 62 33 63 37 64 40 65 34 66 35 67
REMARK SMILES IDX 38 68 36 69 62 70 63 71 71 72 64 73 65 74 69 75 72 76 66 77
REMARK SMILES IDX 67 78 70 79 68 80 47 81 48 82 56 83 49 84 50 85 54 86 57 87
REMARK SMILES IDX 51 88 52 89 55 90 53 91
REMARK H PARENT 6 14 2 20 77 44 45 55
REMARK Flexibility Score: inf
ROOT
ATOM      1  C   UNL A   1      32.218  29.066  24.895  1.00  0.00     0.275 C 
ENDROOT
BRANCH   1   2
ATOM      2  O   UNL A   1      31.286  27.963  24.924  1.00  0.00    -0.458 OA
BRANCH   2   3
ATOM      3  C   UNL A   1      31.644  26.943  25.735  1.00  0.00     0.339 C 
ATOM      4  O   UNL A   1      31.143  26.660  26.810  1.00  0.00    -0.246 OA
BRANCH   3   5
ATOM      5  C   UNL A   1      32.692  26.108  25.131  1.00  0.00     0.078 A 
ATOM      6  C   UNL A   1      34.182  24.005  24.182  1.00  0.00     0.095 A 
ATOM      7  C   UNL A   1      34.672  24.767  25.251  1.00  0.00     0.031 A 
ATOM      8  N   UNL A   1      33.080  24.369  23.493  1.00  0.00    -0.254 NA
ATOM      9  C   UNL A   1      33.912  25.840  25.736  1.00  0.00     0.019 A 
ATOM     10  C   UNL A   1      32.356  25.383  24.001  1.00  0.00     0.127 A 
BRANCH   6  11
ATOM     11  C   UNL A   1      34.714  22.617  23.877  1.00  0.00     0.319 C 
BRANCH  11  12
ATOM     12  N   UNL A   1      34.653  21.620  24.981  1.00  0.00    -0.330 N 
ATOM     13  C   UNL A   1      35.894  21.570  25.757  1.00  0.00     0.333 C 
ATOM     14  H   UNL A   1      33.914  22.003  25.571  1.00  0.00     0.348 HD
BRANCH  12  15
ATOM     15  C   UNL A   1      34.119  20.271  24.670  1.00  0.00     0.195 C 
ATOM     16  C   UNL A   1      33.332  16.060  25.289  1.00  0.00     0.332 C 
ATOM     17  N   UNL A   1      33.706  17.469  25.380  1.00  0.00    -0.337 N 
ATOM     18  C   UNL A   1      32.529  18.334  25.240  1.00  0.00     0.268 C 
ATOM     19  C   UNL A   1      34.698  17.815  24.357  1.00  0.00     0.268 C 
ATOM     20  H   UNL A   1      34.119  17.619  26.300  1.00  0.00     0.347 HD
ATOM     21  C   UNL A   1      32.898  19.795  25.491  1.00  0.00     0.126 C 
ATOM     22  C   UNL A   1      35.237  19.216  24.627  1.00  0.00     0.126 C 
ENDBRANCH  12  15
ENDBRANCH  11  12
ENDBRANCH   6  11
ENDBRANCH   3   5
ENDBRANCH   2   3
ENDBRANCH   1   2
BRANCH   1  23
ATOM     23  C   UNL A   1      31.777  30.184  25.842  1.00  0.00     0.275 C 
BRANCH  23  24
ATOM     24  O   UNL A   1      32.567  30.194  27.050  1.00  0.00    -0.458 OA
BRANCH  24  25
ATOM     25  C   UNL A   1      33.259  31.333  27.269  1.00  0.00     0.338 C 
ATOM     26  O   UNL A   1      32.834  32.477  27.227  1.00  0.00    -0.246 OA
BRANCH  25  27
ATOM     27  C   UNL A   1      34.646  31.045  27.660  1.00  0.00     0.060 A 
ATOM     28  C   UNL A   1      34.990  29.730  27.950  1.00  0.00     0.016 A 
ATOM     29  C   UNL A   1      35.512  32.081  28.002  1.00  0.00     0.016 A 
ATOM     30  C   UNL A   1      36.089  29.467  28.760  1.00  0.00     0.010 A 
ATOM     31  C   UNL A   1      36.718  31.787  28.651  1.00  0.00     0.010 A 
ATOM     32  C   UNL A   1      36.999  30.480  29.091  1.00  0.00    -0.014 A 
BRANCH  32  33
ATOM     33  C   UNL A   1      38.231  30.167  29.879  1.00  0.00     0.031 A 
ATOM     34  C   UNL A   1      39.311  29.277  29.313  1.00  0.00     0.074 A 
ATOM     35  C   UNL A   1      38.386  30.676  31.121  1.00  0.00     0.049 A 
ATOM     36  N   UNL A   1      40.335  28.724  29.918  1.00  0.00    -0.248 NA
ATOM     37  C   UNL A   1      39.218  28.949  27.882  1.00  0.00     0.031 C 
ATOM     38  C   UNL A   1      37.452  31.585  31.789  1.00  0.00     0.029 A 
ATOM     39  N   UNL A   1      39.388  30.505  32.047  1.00  0.00    -0.354 N 
ATOM     40  C   UNL A   1      40.966  27.936  28.961  1.00  0.00     0.074 A 
ATOM     41  C   UNL A   1      40.204  28.073  27.738  1.00  0.00     0.031 C 
ATOM     42  C   UNL A   1      37.945  31.933  32.984  1.00  0.00     0.029 A 
ATOM     43  C   UNL A   1      39.163  31.175  33.225  1.00  0.00     0.049 A 
ATOM     44  H   UNL A   1      40.188  29.955  31.881  1.00  0.00     0.167 HD
ATOM     45  C   UNL A   1      42.079  27.172  29.094  1.00  0.00     0.037 A 
ATOM     46  C   UNL A   1      39.820  31.143  34.399  1.00  0.00     0.037 A 
ATOM     47  C   UNL A   1      42.862  27.084  30.302  1.00  0.00     0.049 A 
ATOM     48  C   UNL A   1      41.014  30.245  34.540  1.00  0.00     0.074 A 
ATOM     49  C   UNL A   1      44.019  26.359  30.532  1.00  0.00     0.029 A 
ATOM     50  N   UNL A   1      42.573  27.754  31.483  1.00  0.00    -0.354 N 
ATOM     51  N   UNL A   1      41.574  29.469  33.646  1.00  0.00    -0.248 NA
ATOM     52  C   UNL A   1      41.656  30.206  35.859  1.00  0.00     0.031 C 
ATOM     53  C   UNL A   1      44.397  26.544  31.866  1.00  0.00     0.029 A 
ATOM     54  C   UNL A   1      43.515  27.438  32.451  1.00  0.00     0.049 A 
ATOM     55  H   UNL A   1      41.812  28.365  31.614  1.00  0.00     0.167 HD
ATOM     56  C   UNL A   1      42.646  28.865  34.285  1.00  0.00     0.074 A 
ATOM     57  C   UNL A   1      42.668  29.380  35.639  1.00  0.00     0.031 C 
ATOM     58  C   UNL A   1      43.530  27.963  33.793  1.00  0.00     0.037 A 
BRANCH  45  59
ATOM     59  C   UNL A   1      42.498  26.331  27.917  1.00  0.00     0.064 A 
ATOM     60  C   UNL A   1      41.966  25.055  27.678  1.00  0.00     0.173 A 
ATOM     61  C   UNL A   1      43.432  26.829  26.992  1.00  0.00     0.173 A 
ATOM     62  F   UNL A   1      41.074  24.526  28.529  1.00  0.00    -0.203 F 
ATOM     63  C   UNL A   1      42.379  24.296  26.584  1.00  0.00     0.198 A 
ATOM     64  C   UNL A   1      43.816  26.082  25.880  1.00  0.00     0.198 A 
ATOM     65  F   UNL A   1      43.966  28.049  27.160  1.00  0.00    -0.203 F 
ATOM     66  F   UNL A   1      41.899  23.057  26.410  1.00  0.00    -0.200 F 
ATOM     67  C   UNL A   1      43.298  24.813  25.683  1.00  0.00     0.200 A 
ATOM     68  F   UNL A   1      44.689  26.593  25.001  1.00  0.00    -0.200 F 
ATOM     69  F   UNL A   1      43.690  24.084  24.629  1.00  0.00    -0.200 F 
ENDBRANCH  45  59
BRANCH  46  70
ATOM     70  C   UNL A   1      39.327  31.956  35.543  1.00  0.00     0.064 A 
ATOM     71  C   UNL A   1      38.426  31.420  36.472  1.00  0.00     0.173 A 
ATOM     72  C   UNL A   1      39.762  33.276  35.744  1.00  0.00     0.173 A 
ATOM     73  F   UNL A   1      37.963  30.172  36.311  1.00  0.00    -0.203 F 
ATOM     74  C   UNL A   1      37.972  32.174  37.552  1.00  0.00     0.198 A 
ATOM     75  C   UNL A   1      39.337  34.016  36.845  1.00  0.00     0.198 A 
ATOM     76  F   UNL A   1      40.628  33.837  34.886  1.00  0.00    -0.203 F 
ATOM     77  F   UNL A   1      37.077  31.652  38.402  1.00  0.00    -0.200 F 
ATOM     78  C   UNL A   1      38.436  33.467  37.744  1.00  0.00     0.200 A 
ATOM     79  F   UNL A   1      39.805  35.256  37.036  1.00  0.00    -0.200 F 
ATOM     80  F   UNL A   1      38.011  34.187  38.791  1.00  0.00    -0.200 F 
ENDBRANCH  46  70
BRANCH  58  81
ATOM     81  C   UNL A   1      44.628  27.513  34.713  1.00  0.00     0.064 A 
ATOM     82  C   UNL A   1      44.499  26.369  35.515  1.00  0.00     0.173 A 
ATOM     83  C   UNL A   1      45.837  28.224  34.772  1.00  0.00     0.173 A 
ATOM     84  F   UNL A   1      43.357  25.666  35.510  1.00  0.00    -0.203 F 
ATOM     85  C   UNL A   1      45.529  25.971  36.364  1.00  0.00     0.198 A 
ATOM     86  C   UNL A   1      46.875  27.804  35.597  1.00  0.00     0.198 A 
ATOM     87  F   UNL A   1      46.012  29.323  34.023  1.00  0.00    -0.203 F 
ATOM     88  F   UNL A   1      45.363  24.909  37.163  1.00  0.00    -0.200 F 
ATOM     89  C   UNL A   1      46.718  26.683  36.398  1.00  0.00     0.200 A 
ATOM     90  F   UNL A   1      48.030  28.485  35.618  1.00  0.00    -0.200 F 
ATOM     91  F   UNL A   1      47.710  26.296  37.211  1.00  0.00    -0.200 F 
ENDBRANCH  58  81
ENDBRANCH  32  33
ENDBRANCH  25  27
ENDBRANCH  24  25
ENDBRANCH  23  24
ENDBRANCH   1  23
TORSDOF 14
ENDMDL
MODEL 3
REMARK VINA RESULT:     -11.9      1.151      2.501
REMARK SMILES C[NH+]1CCC([N@@H+](C)Cc2ccc(C(=O)OCCOC(=O)c3ccc(-c4c5nc(c(-c6c(F)c(F)c(F)c(F)c6F)c6ccc([nH]6)c(-c6c(F)c(F)c(F)c(F)c6F)c6nc(c(-c7c(F)c(F)c(F)c(F)c7F)c7ccc4[nH]7)C=C6)C=C5)cc3)cn2)CC1
REMARK SMILES IDX 16 1 15 2 13 3 14 4 12 5 9 6 10 7 85 8 11 9 84 10 8 11 6 12
REMARK SMILES IDX 7 13 5 15 1 16 2 17 3 18 87 19 4 21 86 22 17 23 18 24 19 25
REMARK SMILES IDX 20 26 21 27 22 28 83 29 23 30 82 31 24 32 25 33 26 34 76 35
REMARK SMILES IDX 27 36 81 37 75 38 77 39 28 40 80 41 74 42 73 43 29 45 61 46
REMARK SMILES IDX 41 47 60 48 42 49 45 50 59 51 78 52 43 53 44 54 58 56 79 57
REMARK SMILES IDX 46 58 30 59 31 60 39 61 32 62 33 63 37 64 40 65 34 66 35 67
REMARK SMILES IDX 38 68 36 69 62 70 63 71 71 72 64 73 65 74 69 75 72 76 66 77
REMARK SMILES IDX 67 78 70 79 68 80 47 81 48 82 56 83 49 84 50 85 54 86 57 87
REMARK SMILES IDX 51 88 52 89 55 90 53 91
REMARK H PARENT 6 14 2 20 77 44 45 55
REMARK Flexibility Score: inf
ROOT
ATOM      1  C   UNL A   1      32.543  28.618  24.938  1.00  0.00     0.275 C 
ENDROOT
BRANCH   1   2
ATOM      2  O   UNL A   1      31.508  27.788  25.508  1.00  0.00    -0.458 OA
BRANCH   2   3
ATOM      3  C   UNL A   1      30.611  27.310  24.617  1.00  0.00     0.339 C 
ATOM      4  O   UNL A   1      29.976  27.963  23.807  1.00  0.00    -0.246 OA
BRANCH   3   5
ATOM      5  C   UNL A   1      30.532  25.844  24.656  1.00  0.00     0.078 A 
ATOM      6  C   UNL A   1      31.072  23.172  24.992  1.00  0.00     0.095 A 
ATOM      7  C   UNL A   1      30.860  23.672  23.701  1.00  0.00     0.031 A 
ATOM      8  N   UNL A   1      30.855  23.923  26.093  1.00  0.00    -0.254 NA
ATOM      9  C   UNL A   1      30.586  25.036  23.529  1.00  0.00     0.019 A 
ATOM     10  C   UNL A   1      30.625  25.233  25.895  1.00  0.00     0.127 A 
BRANCH   6  11
ATOM     11  C   UNL A   1      31.768  21.845  25.234  1.00  0.00     0.319 C 
BRANCH  11  12
ATOM     12  N   UNL A   1      32.691  21.370  24.167  1.00  0.00    -0.330 N 
ATOM     13  C   UNL A   1      32.394  20.002  23.739  1.00  0.00     0.333 C 
ATOM     14  H   UNL A   1      32.473  22.008  23.401  1.00  0.00     0.348 HD
BRANCH  12  15
ATOM     15  C   UNL A   1      34.145  21.609  24.350  1.00  0.00     0.195 C 
ATOM     16  C   UNL A   1      37.703  23.635  25.753  1.00  0.00     0.332 C 
ATOM     17  N   UNL A   1      36.351  23.159  25.470  1.00  0.00    -0.337 N 
ATOM     18  C   UNL A   1      36.185  21.766  25.905  1.00  0.00     0.268 C 
ATOM     19  C   UNL A   1      36.045  23.269  24.040  1.00  0.00     0.268 C 
ATOM     20  H   UNL A   1      35.702  23.747  25.990  1.00  0.00     0.347 HD
ATOM     21  C   UNL A   1      34.731  21.322  25.751  1.00  0.00     0.126 C 
ATOM     22  C   UNL A   1      34.563  22.989  23.815  1.00  0.00     0.126 C 
ENDBRANCH  12  15
ENDBRANCH  11  12
ENDBRANCH   6  11
ENDBRANCH   3   5
ENDBRANCH   2   3
ENDBRANCH   1   2
BRANCH   1  23
ATOM     23  C   UNL A   1      32.377  30.078  25.367  1.00  0.00     0.275 C 
BRANCH  23  24
ATOM     24  O   UNL A   1      32.485  30.222  26.798  1.00  0.00    -0.458 OA
BRANCH  24  25
ATOM     25  C   UNL A   1      33.122  31.339  27.212  1.00  0.00     0.338 C 
ATOM     26  O   UNL A   1      32.646  32.456  27.346  1.00  0.00    -0.246 OA
BRANCH  25  27
ATOM     27  C   UNL A   1      34.516  31.052  27.579  1.00  0.00     0.060 A 
ATOM     28  C   UNL A   1      34.852  29.747  27.917  1.00  0.00     0.016 A 
ATOM     29  C   UNL A   1      35.402  32.091  27.851  1.00  0.00     0.016 A 
ATOM     30  C   UNL A   1      35.970  29.505  28.710  1.00  0.00     0.010 A 
ATOM     31  C   UNL A   1      36.621  31.810  28.480  1.00  0.00     0.010 A 
ATOM     32  C   UNL A   1      36.899  30.521  28.971  1.00  0.00    -0.014 A 
BRANCH  32  33
ATOM     33  C   UNL A   1      38.148  30.227  29.740  1.00  0.00     0.031 A 
ATOM     34  C   UNL A   1      39.228  29.344  29.162  1.00  0.00     0.074 A 
ATOM     35  C   UNL A   1      38.320  30.749  30.974  1.00  0.00     0.049 A 
ATOM     36  N   UNL A   1      40.267  28.806  29.754  1.00  0.00    -0.248 NA
ATOM     37  C   UNL A   1      39.112  29.001  27.737  1.00  0.00     0.031 C 
ATOM     38  C   UNL A   1      37.389  31.655  31.651  1.00  0.00     0.029 A 
ATOM     39  N   UNL A   1      39.340  30.597  31.883  1.00  0.00    -0.354 N 
ATOM     40  C   UNL A   1      40.889  28.016  28.793  1.00  0.00     0.074 A 
ATOM     41  C   UNL A   1      40.104  28.134  27.583  1.00  0.00     0.031 C 
ATOM     42  C   UNL A   1      37.899  32.020  32.833  1.00  0.00     0.029 A 
ATOM     43  C   UNL A   1      39.130  31.276  33.059  1.00  0.00     0.049 A 
ATOM     44  H   UNL A   1      40.143  30.054  31.708  1.00  0.00     0.167 HD
ATOM     45  C   UNL A   1      42.012  27.264  28.913  1.00  0.00     0.037 A 
ATOM     46  C   UNL A   1      39.808  31.261  34.221  1.00  0.00     0.037 A 
ATOM     47  C   UNL A   1      42.818  27.196  30.107  1.00  0.00     0.049 A 
ATOM     48  C   UNL A   1      41.013  30.377  34.348  1.00  0.00     0.074 A 
ATOM     49  C   UNL A   1      43.985  26.484  30.323  1.00  0.00     0.029 A 
ATOM     50  N   UNL A   1      42.543  27.874  31.287  1.00  0.00    -0.354 N 
ATOM     51  N   UNL A   1      41.565  29.598  33.452  1.00  0.00    -0.248 NA
ATOM     52  C   UNL A   1      41.679  30.357  35.657  1.00  0.00     0.031 C 
ATOM     53  C   UNL A   1      44.386  26.686  31.648  1.00  0.00     0.029 A 
ATOM     54  C   UNL A   1      43.505  27.576  32.240  1.00  0.00     0.049 A 
ATOM     55  H   UNL A   1      41.778  28.478  31.426  1.00  0.00     0.167 HD
ATOM     56  C   UNL A   1      42.655  29.011  34.077  1.00  0.00     0.074 A 
ATOM     57  C   UNL A   1      42.696  29.539  35.426  1.00  0.00     0.031 C 
ATOM     58  C   UNL A   1      43.539  28.113  33.578  1.00  0.00     0.037 A 
BRANCH  45  59
ATOM     59  C   UNL A   1      42.419  26.417  27.736  1.00  0.00     0.064 A 
ATOM     60  C   UNL A   1      43.414  26.817  26.830  1.00  0.00     0.173 A 
ATOM     61  C   UNL A   1      41.820  25.163  27.530  1.00  0.00     0.173 A 
ATOM     62  F   UNL A   1      44.017  28.006  26.974  1.00  0.00    -0.203 F 
ATOM     63  C   UNL A   1      43.764  26.015  25.746  1.00  0.00     0.198 A 
ATOM     64  C   UNL A   1      42.198  24.348  26.465  1.00  0.00     0.198 A 
ATOM     65  F   UNL A   1      40.871  24.719  28.370  1.00  0.00    -0.203 F 
ATOM     66  F   UNL A   1      44.675  26.445  24.862  1.00  0.00    -0.200 F 
ATOM     67  C   UNL A   1      43.161  24.779  25.568  1.00  0.00     0.200 A 
ATOM     68  F   UNL A   1      41.627  23.145  26.308  1.00  0.00    -0.200 F 
ATOM     69  F   UNL A   1      43.503  24.006  24.527  1.00  0.00    -0.200 F 
ENDBRANCH  45  59
BRANCH  46  70
ATOM     70  C   UNL A   1      39.327  32.080  35.367  1.00  0.00     0.064 A 
ATOM     71  C   UNL A   1      38.498  31.525  36.350  1.00  0.00     0.173 A 
ATOM     72  C   UNL A   1      39.703  33.425  35.513  1.00  0.00     0.173 A 
ATOM     73  F   UNL A   1      38.093  30.251  36.243  1.00  0.00    -0.203 F 
ATOM     74  C   UNL A   1      38.057  32.285  37.431  1.00  0.00     0.198 A 
ATOM     75  C   UNL A   1      39.291  34.173  36.614  1.00  0.00     0.198 A 
ATOM     76  F   UNL A   1      40.498  34.005  34.602  1.00  0.00    -0.203 F 
ATOM     77  F   UNL A   1      37.230  31.743  38.336  1.00  0.00    -0.200 F 
ATOM     78  C   UNL A   1      38.462  33.605  37.568  1.00  0.00     0.200 A 
ATOM     79  F   UNL A   1      39.704  35.439  36.752  1.00  0.00    -0.200 F 
ATOM     80  F   UNL A   1      38.049  34.330  38.616  1.00  0.00    -0.200 F 
ENDBRANCH  46  70
BRANCH  58  81
ATOM     81  C   UNL A   1      44.657  27.683  34.482  1.00  0.00     0.064 A 
ATOM     82  C   UNL A   1      45.863  28.396  34.558  1.00  0.00     0.173 A 
ATOM     83  C   UNL A   1      44.509  26.555  35.304  1.00  0.00     0.173 A 
ATOM     84  F   UNL A   1      46.063  29.470  33.779  1.00  0.00    -0.203 F 
ATOM     85  C   UNL A   1      46.889  27.978  35.401  1.00  0.00     0.198 A 
ATOM     86  C   UNL A   1      45.523  26.160  36.169  1.00  0.00     0.198 A 
ATOM     87  F   UNL A   1      43.374  25.841  35.272  1.00  0.00    -0.203 F 
ATOM     88  F   UNL A   1      48.054  28.641  35.416  1.00  0.00    -0.200 F 
ATOM     89  C   UNL A   1      46.716  26.867  36.211  1.00  0.00     0.200 A 
ATOM     90  F   UNL A   1      45.348  25.094  36.963  1.00  0.00    -0.200 F 
ATOM     91  F   UNL A   1      47.702  26.469  37.027  1.00  0.00    -0.200 F 
ENDBRANCH  58  81
ENDBRANCH  32  33
ENDBRANCH  25  27
ENDBRANCH  24  25
ENDBRANCH  23  24
ENDBRANCH   1  23
TORSDOF 14
ENDMDL
