MODEL 1
REMARK VINA RESULT:     -11.7      0.000      0.000
REMARK SMILES O=C(OCCOC(=O)c1cn(C[C@@H]2CCS(=O)(=O)C2)c(=O)[nH]c1=O)c1ccc(-c2c3nc(c(-c4c(F)c(F)c(F)c(F)c4F)c4ccc([nH]4)c(-c4c(F)c(F)c(F)c(F)c4F)c4nc(c(-c5c(F)c(F)c(F)c(F)c5F)c5ccc2[nH]5)C=C4)C=C3)cc1
REMARK SMILES IDX 4 1 3 2 2 3 1 4 25 5 26 6 87 7 27 8 86 9 28 10 29 11 30 12
REMARK SMILES IDX 80 13 31 14 85 15 79 16 81 17 32 18 84 19 78 20 77 21 33 23
REMARK SMILES IDX 65 24 45 25 64 26 46 27 49 28 63 29 82 30 47 31 48 32 62 34
REMARK SMILES IDX 83 35 50 36 34 37 35 38 43 39 36 40 37 41 41 42 44 43 38 44
REMARK SMILES IDX 39 45 42 46 40 47 66 48 67 49 75 50 68 51 69 52 73 53 76 54
REMARK SMILES IDX 70 55 71 56 74 57 72 58 51 59 52 60 60 61 53 62 54 63 58 64
REMARK SMILES IDX 61 65 55 66 56 67 59 68 57 69 5 70 6 71 7 72 8 73 9 74 10 75
REMARK SMILES IDX 23 76 11 77 22 78 24 79 20 80 21 82 12 83 13 84 14 85 19 86
REMARK SMILES IDX 15 87 16 88 17 89 18 90
REMARK H PARENT 81 22 49 33 22 81
REMARK Flexibility Score: inf
ROOT
ATOM      1  C   UNL A   1      34.304  32.717  28.059  1.00  0.00     0.275 C 
ENDROOT
BRANCH   1   2
ATOM      2  O   UNL A   1      33.781  31.380  28.081  1.00  0.00    -0.458 OA
BRANCH   2   3
ATOM      3  C   UNL A   1      34.438  30.240  27.749  1.00  0.00     0.338 C 
ATOM      4  O   UNL A   1      33.835  29.317  27.210  1.00  0.00    -0.246 OA
BRANCH   3   5
ATOM      5  C   UNL A   1      35.826  29.980  28.237  1.00  0.00     0.060 A 
ATOM      6  C   UNL A   1      36.831  30.083  27.274  1.00  0.00     0.016 A 
ATOM      7  C   UNL A   1      36.205  29.647  29.544  1.00  0.00     0.016 A 
ATOM      8  C   UNL A   1      38.144  29.724  27.581  1.00  0.00     0.010 A 
ATOM      9  C   UNL A   1      37.532  29.293  29.857  1.00  0.00     0.010 A 
ATOM     10  C   UNL A   1      38.516  29.298  28.873  1.00  0.00    -0.014 A 
BRANCH  10  11
ATOM     11  C   UNL A   1      39.960  29.056  29.164  1.00  0.00     0.031 A 
ATOM     12  C   UNL A   1      40.820  29.987  29.991  1.00  0.00     0.074 A 
ATOM     13  C   UNL A   1      40.449  27.859  28.784  1.00  0.00     0.049 A 
ATOM     14  N   UNL A   1      41.909  29.698  30.666  1.00  0.00    -0.248 NA
ATOM     15  C   UNL A   1      40.378  31.380  30.178  1.00  0.00     0.031 C 
ATOM     16  C   UNL A   1      39.718  26.873  27.979  1.00  0.00     0.029 A 
ATOM     17  N   UNL A   1      41.646  27.250  29.047  1.00  0.00    -0.354 N 
ATOM     18  C   UNL A   1      42.189  30.801  31.467  1.00  0.00     0.074 A 
ATOM     19  C   UNL A   1      41.219  31.818  31.117  1.00  0.00     0.031 C 
ATOM     20  C   UNL A   1      40.463  25.770  27.850  1.00  0.00     0.029 A 
ATOM     21  C   UNL A   1      41.752  26.003  28.482  1.00  0.00     0.049 A 
ATOM     22  H   UNL A   1      42.358  27.663  29.586  1.00  0.00     0.167 HD
ATOM     23  C   UNL A   1      43.121  30.894  32.452  1.00  0.00     0.037 A 
ATOM     24  C   UNL A   1      42.794  25.156  28.433  1.00  0.00     0.037 A 
ATOM     25  C   UNL A   1      44.193  29.945  32.617  1.00  0.00     0.049 A 
ATOM     26  C   UNL A   1      44.032  25.515  29.188  1.00  0.00     0.074 A 
ATOM     27  C   UNL A   1      45.246  29.983  33.514  1.00  0.00     0.029 A 
ATOM     28  N   UNL A   1      44.394  28.836  31.810  1.00  0.00    -0.354 N 
ATOM     29  N   UNL A   1      44.206  26.478  30.062  1.00  0.00    -0.248 NA
ATOM     30  C   UNL A   1      45.219  24.690  28.947  1.00  0.00     0.031 C 
ATOM     31  C   UNL A   1      46.130  28.946  33.189  1.00  0.00     0.029 A 
ATOM     32  C   UNL A   1      45.606  28.239  32.119  1.00  0.00     0.049 A 
ATOM     33  H   UNL A   1      43.769  28.519  31.119  1.00  0.00     0.167 HD
ATOM     34  C   UNL A   1      45.517  26.366  30.493  1.00  0.00     0.074 A 
ATOM     35  C   UNL A   1      46.089  25.233  29.789  1.00  0.00     0.031 C 
ATOM     36  C   UNL A   1      46.179  27.133  31.394  1.00  0.00     0.037 A 
BRANCH  23  37
ATOM     37  C   UNL A   1      43.042  32.010  33.460  1.00  0.00     0.064 A 
ATOM     38  C   UNL A   1      42.318  31.820  34.650  1.00  0.00     0.173 A 
ATOM     39  C   UNL A   1      43.793  33.184  33.357  1.00  0.00     0.173 A 
ATOM     40  F   UNL A   1      41.716  30.651  34.892  1.00  0.00    -0.203 F 
ATOM     41  C   UNL A   1      42.260  32.793  35.644  1.00  0.00     0.198 A 
ATOM     42  C   UNL A   1      43.775  34.143  34.377  1.00  0.00     0.198 A 
ATOM     43  F   UNL A   1      44.577  33.388  32.289  1.00  0.00    -0.203 F 
ATOM     44  F   UNL A   1      41.514  32.585  36.738  1.00  0.00    -0.200 F 
ATOM     45  C   UNL A   1      42.992  33.957  35.508  1.00  0.00     0.200 A 
ATOM     46  F   UNL A   1      44.534  35.242  34.273  1.00  0.00    -0.200 F 
ATOM     47  F   UNL A   1      42.963  34.885  36.474  1.00  0.00    -0.200 F 
ENDBRANCH  23  37
BRANCH  24  48
ATOM     48  C   UNL A   1      42.695  23.951  27.571  1.00  0.00     0.064 A 
ATOM     49  C   UNL A   1      43.007  23.986  26.209  1.00  0.00     0.173 A 
ATOM     50  C   UNL A   1      42.357  22.705  28.133  1.00  0.00     0.173 A 
ATOM     51  F   UNL A   1      43.313  25.151  25.622  1.00  0.00    -0.203 F 
ATOM     52  C   UNL A   1      43.007  22.820  25.446  1.00  0.00     0.198 A 
ATOM     53  C   UNL A   1      42.392  21.538  27.379  1.00  0.00     0.198 A 
ATOM     54  F   UNL A   1      42.043  22.619  29.435  1.00  0.00    -0.203 F 
ATOM     55  F   UNL A   1      43.296  22.878  24.139  1.00  0.00    -0.200 F 
ATOM     56  C   UNL A   1      42.716  21.596  26.034  1.00  0.00     0.200 A 
ATOM     57  F   UNL A   1      42.134  20.359  27.962  1.00  0.00    -0.200 F 
ATOM     58  F   UNL A   1      42.750  20.472  25.305  1.00  0.00    -0.200 F 
ENDBRANCH  24  48
BRANCH  36  59
ATOM     59  C   UNL A   1      47.613  26.785  31.656  1.00  0.00     0.064 A 
ATOM     60  C   UNL A   1      47.957  25.782  32.574  1.00  0.00     0.173 A 
ATOM     61  C   UNL A   1      48.649  27.434  30.969  1.00  0.00     0.173 A 
ATOM     62  F   UNL A   1      47.002  25.146  33.269  1.00  0.00    -0.203 F 
ATOM     63  C   UNL A   1      49.290  25.460  32.813  1.00  0.00     0.198 A 
ATOM     64  C   UNL A   1      49.978  27.082  31.182  1.00  0.00     0.198 A 
ATOM     65  F   UNL A   1      48.371  28.397  30.077  1.00  0.00    -0.203 F 
ATOM     66  F   UNL A   1      49.598  24.535  33.733  1.00  0.00    -0.200 F 
ATOM     67  C   UNL A   1      50.297  26.103  32.110  1.00  0.00     0.200 A 
ATOM     68  F   UNL A   1      50.949  27.692  30.490  1.00  0.00    -0.200 F 
ATOM     69  F   UNL A   1      51.580  25.783  32.334  1.00  0.00    -0.200 F 
ENDBRANCH  36  59
ENDBRANCH  10  11
ENDBRANCH   3   5
ENDBRANCH   2   3
ENDBRANCH   1   2
BRANCH   1  70
ATOM     70  C   UNL A   1      33.246  33.812  27.873  1.00  0.00     0.275 C 
BRANCH  70  71
ATOM     71  O   UNL A   1      32.644  34.225  29.114  1.00  0.00    -0.458 OA
BRANCH  71  72
ATOM     72  C   UNL A   1      32.869  35.519  29.482  1.00  0.00     0.345 C 
ATOM     73  O   UNL A   1      32.455  36.504  28.896  1.00  0.00    -0.246 OA
BRANCH  72  74
ATOM     74  C   UNL A   1      33.620  35.551  30.752  1.00  0.00     0.141 A 
ATOM     75  C   UNL A   1      34.384  34.523  31.152  1.00  0.00     0.112 A 
ATOM     76  C   UNL A   1      33.497  36.709  31.658  1.00  0.00     0.268 A 
ATOM     77  N   UNL A   1      34.978  34.483  32.414  1.00  0.00    -0.299 N 
ATOM     78  N   UNL A   1      34.038  36.558  32.904  1.00  0.00    -0.273 N 
ATOM     79  O   UNL A   1      32.868  37.718  31.363  1.00  0.00    -0.268 OA
ATOM     80  C   UNL A   1      34.701  35.460  33.363  1.00  0.00     0.328 A 
ATOM     81  H   UNL A   1      33.941  37.313  33.529  1.00  0.00     0.175 HD
ATOM     82  O   UNL A   1      34.985  35.350  34.553  1.00  0.00    -0.248 OA
BRANCH  77  83
ATOM     83  C   UNL A   1      35.721  33.308  32.836  1.00  0.00     0.131 C 
BRANCH  83  84
ATOM     84  C   UNL A   1      37.104  33.040  32.237  1.00  0.00     0.025 C 
ATOM     85  C   UNL A   1      37.974  31.977  32.910  1.00  0.00     0.022 C 
ATOM     86  C   UNL A   1      37.968  34.287  32.083  1.00  0.00     0.142 C 
ATOM     87  C   UNL A   1      38.828  32.631  33.989  1.00  0.00     0.137 C 
ATOM     88  S   UNL A   1      38.999  34.346  33.533  1.00  0.00     0.150 S 
ATOM     89  O   UNL A   1      38.347  35.172  34.523  1.00  0.00    -0.229 OA
ATOM     90  O   UNL A   1      40.365  34.592  33.110  1.00  0.00    -0.229 OA
ENDBRANCH  83  84
ENDBRANCH  77  83
ENDBRANCH  72  74
ENDBRANCH  71  72
ENDBRANCH  70  71
ENDBRANCH   1  70
TORSDOF 13
ENDMDL
MODEL 2
REMARK VINA RESULT:     -11.4      1.115      1.888
REMARK SMILES O=C(OCCOC(=O)c1cn(C[C@@H]2CCS(=O)(=O)C2)c(=O)[nH]c1=O)c1ccc(-c2c3nc(c(-c4c(F)c(F)c(F)c(F)c4F)c4ccc([nH]4)c(-c4c(F)c(F)c(F)c(F)c4F)c4nc(c(-c5c(F)c(F)c(F)c(F)c5F)c5ccc2[nH]5)C=C4)C=C3)cc1
REMARK SMILES IDX 4 1 3 2 2 3 1 4 25 5 26 6 87 7 27 8 86 9 28 10 29 11 30 12
REMARK SMILES IDX 80 13 31 14 85 15 79 16 81 17 32 18 84 19 78 20 77 21 33 23
REMARK SMILES IDX 65 24 45 25 64 26 46 27 49 28 63 29 82 30 47 31 48 32 62 34
REMARK SMILES IDX 83 35 50 36 34 37 35 38 43 39 36 40 37 41 41 42 44 43 38 44
REMARK SMILES IDX 39 45 42 46 40 47 66 48 67 49 75 50 68 51 69 52 73 53 76 54
REMARK SMILES IDX 70 55 71 56 74 57 72 58 51 59 52 60 60 61 53 62 54 63 58 64
REMARK SMILES IDX 61 65 55 66 56 67 59 68 57 69 5 70 6 71 7 72 8 73 9 74 10 75
REMARK SMILES IDX 23 76 11 77 22 78 24 79 20 80 21 82 12 83 13 84 14 85 19 86
REMARK SMILES IDX 15 87 16 88 17 89 18 90
REMARK H PARENT 81 22 49 33 22 81
REMARK Flexibility Score: inf
ROOT
ATOM      1  C   UNL A   1      34.425  32.330  28.727  1.00  0.00     0.275 C 
ENDROOT
BRANCH   1   2
ATOM      2  O   UNL A   1      34.030  31.279  27.831  1.00  0.00    -0.458 OA
BRANCH   2   3
ATOM      3  C   UNL A   1      34.589  30.049  27.717  1.00  0.00     0.338 C 
ATOM      4  O   UNL A   1      33.898  29.086  27.399  1.00  0.00    -0.246 OA
BRANCH   3   5
ATOM      5  C   UNL A   1      35.979  29.785  28.200  1.00  0.00     0.060 A 
ATOM      6  C   UNL A   1      36.990  29.982  27.259  1.00  0.00     0.016 A 
ATOM      7  C   UNL A   1      36.352  29.364  29.484  1.00  0.00     0.016 A 
ATOM      8  C   UNL A   1      38.308  29.632  27.554  1.00  0.00     0.010 A 
ATOM      9  C   UNL A   1      37.684  29.018  29.785  1.00  0.00     0.010 A 
ATOM     10  C   UNL A   1      38.678  29.120  28.815  1.00  0.00    -0.014 A 
BRANCH  10  11
ATOM     11  C   UNL A   1      40.123  28.890  29.104  1.00  0.00     0.031 A 
ATOM     12  C   UNL A   1      40.974  29.823  29.939  1.00  0.00     0.074 A 
ATOM     13  C   UNL A   1      40.625  27.701  28.714  1.00  0.00     0.049 A 
ATOM     14  N   UNL A   1      42.066  29.539  30.611  1.00  0.00    -0.248 NA
ATOM     15  C   UNL A   1      40.518  31.210  30.138  1.00  0.00     0.031 C 
ATOM     16  C   UNL A   1      39.904  26.715  27.901  1.00  0.00     0.029 A 
ATOM     17  N   UNL A   1      41.828  27.102  28.972  1.00  0.00    -0.354 N 
ATOM     18  C   UNL A   1      42.335  30.639  31.422  1.00  0.00     0.074 A 
ATOM     19  C   UNL A   1      41.355  31.648  31.081  1.00  0.00     0.031 C 
ATOM     20  C   UNL A   1      40.660  25.620  27.763  1.00  0.00     0.029 A 
ATOM     21  C   UNL A   1      41.947  25.862  28.397  1.00  0.00     0.049 A 
ATOM     22  H   UNL A   1      42.536  27.518  29.514  1.00  0.00     0.167 HD
ATOM     23  C   UNL A   1      43.266  30.732  32.407  1.00  0.00     0.037 A 
ATOM     24  C   UNL A   1      42.997  25.025  28.340  1.00  0.00     0.037 A 
ATOM     25  C   UNL A   1      44.347  29.792  32.565  1.00  0.00     0.049 A 
ATOM     26  C   UNL A   1      44.232  25.391  29.098  1.00  0.00     0.074 A 
ATOM     27  C   UNL A   1      45.401  29.834  33.462  1.00  0.00     0.029 A 
ATOM     28  N   UNL A   1      44.560  28.692  31.748  1.00  0.00    -0.354 N 
ATOM     29  N   UNL A   1      44.396  26.348  29.980  1.00  0.00    -0.248 NA
ATOM     30  C   UNL A   1      45.427  24.580  28.850  1.00  0.00     0.031 C 
ATOM     31  C   UNL A   1      46.295  28.809  33.128  1.00  0.00     0.029 A 
ATOM     32  C   UNL A   1      45.778  28.106  32.052  1.00  0.00     0.049 A 
ATOM     33  H   UNL A   1      43.938  28.375  31.055  1.00  0.00     0.167 HD
ATOM     34  C   UNL A   1      45.708  26.246  30.410  1.00  0.00     0.074 A 
ATOM     35  C   UNL A   1      46.291  25.125  29.696  1.00  0.00     0.031 C 
ATOM     36  C   UNL A   1      46.363  27.012  31.317  1.00  0.00     0.037 A 
BRANCH  23  37
ATOM     37  C   UNL A   1      43.176  31.839  33.425  1.00  0.00     0.064 A 
ATOM     38  C   UNL A   1      43.798  33.073  33.164  1.00  0.00     0.173 A 
ATOM     39  C   UNL A   1      42.361  31.769  34.557  1.00  0.00     0.173 A 
ATOM     40  F   UNL A   1      44.452  33.268  32.014  1.00  0.00    -0.203 F 
ATOM     41  C   UNL A   1      43.698  34.151  34.039  1.00  0.00     0.198 A 
ATOM     42  C   UNL A   1      42.220  32.868  35.413  1.00  0.00     0.198 A 
ATOM     43  F   UNL A   1      41.667  30.651  34.816  1.00  0.00    -0.203 F 
ATOM     44  F   UNL A   1      44.352  35.291  33.771  1.00  0.00    -0.200 F 
ATOM     45  C   UNL A   1      42.905  34.049  35.166  1.00  0.00     0.200 A 
ATOM     46  F   UNL A   1      41.402  32.789  36.472  1.00  0.00    -0.200 F 
ATOM     47  F   UNL A   1      42.783  35.093  35.997  1.00  0.00    -0.200 F 
ENDBRANCH  23  37
BRANCH  24  48
ATOM     48  C   UNL A   1      42.911  23.827  27.468  1.00  0.00     0.064 A 
ATOM     49  C   UNL A   1      43.295  23.858  26.125  1.00  0.00     0.173 A 
ATOM     50  C   UNL A   1      42.508  22.589  28.005  1.00  0.00     0.173 A 
ATOM     51  F   UNL A   1      43.664  25.017  25.561  1.00  0.00    -0.203 F 
ATOM     52  C   UNL A   1      43.303  22.695  25.356  1.00  0.00     0.198 A 
ATOM     53  C   UNL A   1      42.552  21.424  27.248  1.00  0.00     0.198 A 
ATOM     54  F   UNL A   1      42.124  22.507  29.288  1.00  0.00    -0.203 F 
ATOM     55  F   UNL A   1      43.662  22.750  24.067  1.00  0.00    -0.200 F 
ATOM     56  C   UNL A   1      42.948  21.478  25.922  1.00  0.00     0.200 A 
ATOM     57  F   UNL A   1      42.230  20.251  27.810  1.00  0.00    -0.200 F 
ATOM     58  F   UNL A   1      42.988  20.356  25.191  1.00  0.00    -0.200 F 
ENDBRANCH  24  48
BRANCH  36  59
ATOM     59  C   UNL A   1      47.800  26.676  31.577  1.00  0.00     0.064 A 
ATOM     60  C   UNL A   1      48.155  25.682  32.500  1.00  0.00     0.173 A 
ATOM     61  C   UNL A   1      48.828  27.328  30.882  1.00  0.00     0.173 A 
ATOM     62  F   UNL A   1      47.207  25.044  33.203  1.00  0.00    -0.203 F 
ATOM     63  C   UNL A   1      49.490  25.371  32.737  1.00  0.00     0.198 A 
ATOM     64  C   UNL A   1      50.161  26.987  31.092  1.00  0.00     0.198 A 
ATOM     65  F   UNL A   1      48.540  28.282  29.984  1.00  0.00    -0.203 F 
ATOM     66  F   UNL A   1      49.809  24.456  33.663  1.00  0.00    -0.200 F 
ATOM     67  C   UNL A   1      50.491  26.017  32.025  1.00  0.00     0.200 A 
ATOM     68  F   UNL A   1      51.125  27.599  30.392  1.00  0.00    -0.200 F 
ATOM     69  F   UNL A   1      51.776  25.708  32.247  1.00  0.00    -0.200 F 
ENDBRANCH  36  59
ENDBRANCH  10  11
ENDBRANCH   3   5
ENDBRANCH   2   3
ENDBRANCH   1   2
BRANCH   1  70
ATOM     70  C   UNL A   1      35.273  33.433  28.080  1.00  0.00     0.275 C 
BRANCH  70  71
ATOM     71  O   UNL A   1      34.483  34.540  27.607  1.00  0.00    -0.458 OA
BRANCH  71  72
ATOM     72  C   UNL A   1      33.286  34.727  28.235  1.00  0.00     0.345 C 
ATOM     73  O   UNL A   1      32.233  34.196  27.927  1.00  0.00    -0.246 OA
BRANCH  72  74
ATOM     74  C   UNL A   1      33.471  35.608  29.405  1.00  0.00     0.141 A 
ATOM     75  C   UNL A   1      33.614  35.120  30.647  1.00  0.00     0.112 A 
ATOM     76  C   UNL A   1      33.440  37.074  29.242  1.00  0.00     0.268 A 
ATOM     77  N   UNL A   1      33.642  35.944  31.773  1.00  0.00    -0.299 N 
ATOM     78  N   UNL A   1      33.389  37.806  30.396  1.00  0.00    -0.273 N 
ATOM     79  O   UNL A   1      33.367  37.618  28.148  1.00  0.00    -0.268 OA
ATOM     80  C   UNL A   1      33.400  37.307  31.663  1.00  0.00     0.328 A 
ATOM     81  H   UNL A   1      33.342  38.785  30.301  1.00  0.00     0.175 HD
ATOM     82  O   UNL A   1      33.163  38.034  32.625  1.00  0.00    -0.248 OA
BRANCH  77  83
ATOM     83  C   UNL A   1      33.708  35.364  33.102  1.00  0.00     0.131 C 
BRANCH  83  84
ATOM     84  C   UNL A   1      35.068  34.966  33.682  1.00  0.00     0.025 C 
ATOM     85  C   UNL A   1      36.297  35.136  32.788  1.00  0.00     0.022 C 
ATOM     86  C   UNL A   1      35.117  33.547  34.237  1.00  0.00     0.142 C 
ATOM     87  C   UNL A   1      36.526  33.856  31.994  1.00  0.00     0.137 C 
ATOM     88  S   UNL A   1      35.778  32.536  32.930  1.00  0.00     0.150 S 
ATOM     89  O   UNL A   1      34.674  31.983  32.179  1.00  0.00    -0.229 OA
ATOM     90  O   UNL A   1      36.821  31.696  33.487  1.00  0.00    -0.229 OA
ENDBRANCH  83  84
ENDBRANCH  77  83
ENDBRANCH  72  74
ENDBRANCH  71  72
ENDBRANCH  70  71
ENDBRANCH   1  70
TORSDOF 13
ENDMDL
MODEL 3
REMARK VINA RESULT:     -11.4      5.267     11.679
REMARK SMILES O=C(OCCOC(=O)c1cn(C[C@@H]2CCS(=O)(=O)C2)c(=O)[nH]c1=O)c1ccc(-c2c3nc(c(-c4c(F)c(F)c(F)c(F)c4F)c4ccc([nH]4)c(-c4c(F)c(F)c(F)c(F)c4F)c4nc(c(-c5c(F)c(F)c(F)c(F)c5F)c5ccc2[nH]5)C=C4)C=C3)cc1
REMARK SMILES IDX 4 1 3 2 2 3 1 4 25 5 26 6 87 7 27 8 86 9 28 10 29 11 30 12
REMARK SMILES IDX 80 13 31 14 85 15 79 16 81 17 32 18 84 19 78 20 77 21 33 23
REMARK SMILES IDX 65 24 45 25 64 26 46 27 49 28 63 29 82 30 47 31 48 32 62 34
REMARK SMILES IDX 83 35 50 36 34 37 35 38 43 39 36 40 37 41 41 42 44 43 38 44
REMARK SMILES IDX 39 45 42 46 40 47 66 48 67 49 75 50 68 51 69 52 73 53 76 54
REMARK SMILES IDX 70 55 71 56 74 57 72 58 51 59 52 60 60 61 53 62 54 63 58 64
REMARK SMILES IDX 61 65 55 66 56 67 59 68 57 69 5 70 6 71 7 72 8 73 9 74 10 75
REMARK SMILES IDX 23 76 11 77 22 78 24 79 20 80 21 82 12 83 13 84 14 85 19 86
REMARK SMILES IDX 15 87 16 88 17 89 18 90
REMARK H PARENT 81 22 49 33 22 81
REMARK Flexibility Score: inf
ROOT
ATOM      1  C   UNL A   1      40.343  21.172  26.959  1.00  0.00     0.275 C 
ENDROOT
BRANCH   1   2
ATOM      2  O   UNL A   1      39.665  21.919  25.937  1.00  0.00    -0.458 OA
BRANCH   2   3
ATOM      3  C   UNL A   1      38.902  23.028  26.106  1.00  0.00     0.338 C 
ATOM      4  O   UNL A   1      37.808  23.111  25.554  1.00  0.00    -0.246 OA
BRANCH   3   5
ATOM      5  C   UNL A   1      39.455  24.255  26.753  1.00  0.00     0.060 A 
ATOM      6  C   UNL A   1      39.099  24.443  28.090  1.00  0.00     0.016 A 
ATOM      7  C   UNL A   1      40.280  25.217  26.155  1.00  0.00     0.016 A 
ATOM      8  C   UNL A   1      39.440  25.622  28.753  1.00  0.00     0.010 A 
ATOM      9  C   UNL A   1      40.631  26.404  26.826  1.00  0.00     0.010 A 
ATOM     10  C   UNL A   1      40.192  26.637  28.127  1.00  0.00    -0.014 A 
BRANCH  10  11
ATOM     11  C   UNL A   1      40.631  27.812  28.936  1.00  0.00     0.031 A 
ATOM     12  C   UNL A   1      42.037  27.991  29.466  1.00  0.00     0.074 A 
ATOM     13  C   UNL A   1      39.743  28.820  29.048  1.00  0.00     0.049 A 
ATOM     14  N   UNL A   1      42.647  29.110  29.783  1.00  0.00    -0.248 NA
ATOM     15  C   UNL A   1      42.910  26.809  29.572  1.00  0.00     0.031 C 
ATOM     16  C   UNL A   1      38.354  28.768  28.579  1.00  0.00     0.029 A 
ATOM     17  N   UNL A   1      39.877  30.086  29.550  1.00  0.00    -0.354 N 
ATOM     18  C   UNL A   1      43.991  28.796  29.967  1.00  0.00     0.074 A 
ATOM     19  C   UNL A   1      44.097  27.358  29.837  1.00  0.00     0.031 C 
ATOM     20  C   UNL A   1      37.777  29.959  28.776  1.00  0.00     0.029 A 
ATOM     21  C   UNL A   1      38.723  30.824  29.464  1.00  0.00     0.049 A 
ATOM     22  H   UNL A   1      40.714  30.433  29.934  1.00  0.00     0.167 HD
ATOM     23  C   UNL A   1      45.026  29.659  30.142  1.00  0.00     0.037 A 
ATOM     24  C   UNL A   1      38.436  32.050  29.935  1.00  0.00     0.037 A 
ATOM     25  C   UNL A   1      44.847  31.050  30.475  1.00  0.00     0.049 A 
ATOM     26  C   UNL A   1      39.538  32.839  30.564  1.00  0.00     0.074 A 
ATOM     27  C   UNL A   1      45.814  31.997  30.767  1.00  0.00     0.029 A 
ATOM     28  N   UNL A   1      43.618  31.667  30.647  1.00  0.00    -0.354 N 
ATOM     29  N   UNL A   1      40.824  32.582  30.576  1.00  0.00    -0.248 NA
ATOM     30  C   UNL A   1      39.157  34.073  31.257  1.00  0.00     0.031 C 
ATOM     31  C   UNL A   1      45.166  33.159  31.201  1.00  0.00     0.029 A 
ATOM     32  C   UNL A   1      43.797  32.950  31.140  1.00  0.00     0.049 A 
ATOM     33  H   UNL A   1      42.747  31.255  30.449  1.00  0.00     0.167 HD
ATOM     34  C   UNL A   1      41.413  33.632  31.259  1.00  0.00     0.074 A 
ATOM     35  C   UNL A   1      40.342  34.534  31.638  1.00  0.00     0.031 C 
ATOM     36  C   UNL A   1      42.726  33.827  31.541  1.00  0.00     0.037 A 
BRANCH  23  37
ATOM     37  C   UNL A   1      46.442  29.184  29.951  1.00  0.00     0.064 A 
ATOM     38  C   UNL A   1      47.105  28.536  31.009  1.00  0.00     0.173 A 
ATOM     39  C   UNL A   1      47.092  29.201  28.714  1.00  0.00     0.173 A 
ATOM     40  F   UNL A   1      46.476  28.330  32.172  1.00  0.00    -0.203 F 
ATOM     41  C   UNL A   1      48.391  28.022  30.872  1.00  0.00     0.198 A 
ATOM     42  C   UNL A   1      48.366  28.641  28.562  1.00  0.00     0.198 A 
ATOM     43  F   UNL A   1      46.480  29.722  27.642  1.00  0.00    -0.203 F 
ATOM     44  F   UNL A   1      49.000  27.459  31.925  1.00  0.00    -0.200 F 
ATOM     45  C   UNL A   1      49.024  28.073  29.645  1.00  0.00     0.200 A 
ATOM     46  F   UNL A   1      48.953  28.635  27.357  1.00  0.00    -0.200 F 
ATOM     47  F   UNL A   1      50.251  27.555  29.500  1.00  0.00    -0.200 F 
ENDBRANCH  23  37
BRANCH  24  48
ATOM     48  C   UNL A   1      37.031  32.528  29.878  1.00  0.00     0.064 A 
ATOM     49  C   UNL A   1      36.143  32.342  30.941  1.00  0.00     0.173 A 
ATOM     50  C   UNL A   1      36.578  33.261  28.766  1.00  0.00     0.173 A 
ATOM     51  F   UNL A   1      36.520  31.631  32.013  1.00  0.00    -0.203 F 
ATOM     52  C   UNL A   1      34.862  32.891  30.906  1.00  0.00     0.198 A 
ATOM     53  C   UNL A   1      35.313  33.838  28.748  1.00  0.00     0.198 A 
ATOM     54  F   UNL A   1      37.389  33.461  27.717  1.00  0.00    -0.203 F 
ATOM     55  F   UNL A   1      34.022  32.691  31.930  1.00  0.00    -0.200 F 
ATOM     56  C   UNL A   1      34.454  33.651  29.818  1.00  0.00     0.200 A 
ATOM     57  F   UNL A   1      34.938  34.591  27.704  1.00  0.00    -0.200 F 
ATOM     58  F   UNL A   1      33.234  34.206  29.801  1.00  0.00    -0.200 F 
ENDBRANCH  24  48
BRANCH  36  59
ATOM     59  C   UNL A   1      43.077  35.059  32.318  1.00  0.00     0.064 A 
ATOM     60  C   UNL A   1      43.111  35.046  33.719  1.00  0.00     0.173 A 
ATOM     61  C   UNL A   1      43.409  36.254  31.661  1.00  0.00     0.173 A 
ATOM     62  F   UNL A   1      42.783  33.933  34.392  1.00  0.00    -0.203 F 
ATOM     63  C   UNL A   1      43.440  36.192  34.436  1.00  0.00     0.198 A 
ATOM     64  C   UNL A   1      43.775  37.387  32.381  1.00  0.00     0.198 A 
ATOM     65  F   UNL A   1      43.396  36.316  30.321  1.00  0.00    -0.203 F 
ATOM     66  F   UNL A   1      43.414  36.171  35.776  1.00  0.00    -0.200 F 
ATOM     67  C   UNL A   1      43.782  37.357  33.767  1.00  0.00     0.200 A 
ATOM     68  F   UNL A   1      44.122  38.506  31.732  1.00  0.00    -0.200 F 
ATOM     69  F   UNL A   1      44.109  38.457  34.460  1.00  0.00    -0.200 F 
ENDBRANCH  36  59
ENDBRANCH  10  11
ENDBRANCH   3   5
ENDBRANCH   2   3
ENDBRANCH   1   2
BRANCH   1  70
ATOM     70  C   UNL A   1      40.984  19.865  26.474  1.00  0.00     0.275 C 
BRANCH  70  71
ATOM     71  O   UNL A   1      42.399  19.806  26.735  1.00  0.00    -0.458 OA
BRANCH  71  72
ATOM     72  C   UNL A   1      43.182  19.434  25.681  1.00  0.00     0.345 C 
ATOM     73  O   UNL A   1      43.065  18.405  25.040  1.00  0.00    -0.246 OA
BRANCH  72  74
ATOM     74  C   UNL A   1      44.145  20.510  25.375  1.00  0.00     0.141 A 
ATOM     75  C   UNL A   1      43.806  21.807  25.436  1.00  0.00     0.112 A 
ATOM     76  C   UNL A   1      45.510  20.178  24.924  1.00  0.00     0.268 A 
ATOM     77  N   UNL A   1      44.661  22.822  25.008  1.00  0.00    -0.299 N 
ATOM     78  N   UNL A   1      46.256  21.219  24.445  1.00  0.00    -0.273 N 
ATOM     79  O   UNL A   1      45.934  19.029  24.885  1.00  0.00    -0.268 OA
ATOM     80  C   UNL A   1      45.865  22.522  24.381  1.00  0.00     0.328 A 
ATOM     81  H   UNL A   1      47.160  21.007  24.117  1.00  0.00     0.175 HD
ATOM     82  O   UNL A   1      46.534  23.348  23.765  1.00  0.00    -0.248 OA
BRANCH  77  83
ATOM     83  C   UNL A   1      44.215  24.204  25.009  1.00  0.00     0.131 C 
BRANCH  83  84
ATOM     84  C   UNL A   1      44.148  24.970  26.333  1.00  0.00     0.025 C 
ATOM     85  C   UNL A   1      44.656  26.412  26.345  1.00  0.00     0.022 C 
ATOM     86  C   UNL A   1      44.818  24.254  27.501  1.00  0.00     0.142 C 
ATOM     87  C   UNL A   1      46.141  26.423  26.687  1.00  0.00     0.137 C 
ATOM     88  S   UNL A   1      46.462  24.928  27.605  1.00  0.00     0.150 S 
ATOM     89  O   UNL A   1      47.352  24.080  26.843  1.00  0.00    -0.229 OA
ATOM     90  O   UNL A   1      46.728  25.268  28.990  1.00  0.00    -0.229 OA
ENDBRANCH  83  84
ENDBRANCH  77  83
ENDBRANCH  72  74
ENDBRANCH  71  72
ENDBRANCH  70  71
ENDBRANCH   1  70
TORSDOF 13
ENDMDL
