MODEL 1
REMARK VINA RESULT:     -11.3      0.000      0.000
REMARK SMILES Cc1nc(C[N@@H+]2CCC[C@H]2C(=O)OCCOC(=O)c2ccc(-c3c4nc(c(-c5c(F)c(F)c(F)c(F)c5F)c5ccc([nH]5)c(-c5c(F)c(F)c(F)c(F)c5F)c5nc(c(-c6c(F)c(F)c(F)c(F)c6F)c6ccc3[nH]6)C=C5)C=C4)cc2)cs1
REMARK SMILES IDX 14 1 13 2 11 3 12 4 10 5 6 6 7 7 8 9 9 10 5 11 4 12 1 13
REMARK SMILES IDX 2 14 3 15 83 16 82 17 15 18 16 19 17 20 18 21 19 22 20 23
REMARK SMILES IDX 81 24 21 25 80 26 22 27 23 28 24 29 74 30 25 31 79 32 73 33
REMARK SMILES IDX 75 34 26 35 78 36 72 37 71 38 27 40 59 41 39 42 58 43 40 44
REMARK SMILES IDX 43 45 57 46 76 47 41 48 42 49 56 51 77 52 44 53 28 54 29 55
REMARK SMILES IDX 37 56 30 57 31 58 35 59 38 60 32 61 33 62 36 63 34 64 60 65
REMARK SMILES IDX 61 66 69 67 62 68 63 69 67 70 70 71 64 72 65 73 68 74 66 75
REMARK SMILES IDX 45 76 46 77 54 78 47 79 48 80 52 81 55 82 49 83 50 84 53 85
REMARK SMILES IDX 51 86
REMARK H PARENT 6 8 75 39 43 50
REMARK Flexibility Score: inf
ROOT
ATOM      1  C   UNL A   1      31.928  28.484  26.867  1.00  0.00     0.274 C 
ENDROOT
BRANCH   1   2
ATOM      2  O   UNL A   1      31.316  27.606  25.906  1.00  0.00    -0.458 OA
BRANCH   2   3
ATOM      3  C   UNL A   1      32.160  26.779  25.218  1.00  0.00     0.365 C 
ATOM      4  O   UNL A   1      32.997  26.050  25.736  1.00  0.00    -0.245 OA
BRANCH   3   5
ATOM      5  C   UNL A   1      31.831  26.812  23.715  1.00  0.00     0.295 C 
ATOM      6  N   UNL A   1      31.481  28.178  23.291  1.00  0.00    -0.318 N 
ATOM      7  C   UNL A   1      32.718  28.812  22.846  1.00  0.00     0.263 C 
ATOM      8  H   UNL A   1      31.104  28.719  24.069  1.00  0.00     0.349 HD
ATOM      9  C   UNL A   1      33.653  27.708  22.377  1.00  0.00     0.068 C 
ATOM     10  C   UNL A   1      33.042  26.407  22.871  1.00  0.00     0.083 C 
BRANCH   6  11
ATOM     11  C   UNL A   1      30.358  28.223  22.341  1.00  0.00     0.321 C 
BRANCH  11  12
ATOM     12  C   UNL A   1      29.523  29.476  22.377  1.00  0.00     0.106 A 
ATOM     13  C   UNL A   1      27.966  32.105  20.357  1.00  0.00     0.079 C 
ATOM     14  C   UNL A   1      28.478  31.186  21.412  1.00  0.00     0.090 A 
ATOM     15  N   UNL A   1      29.282  30.168  21.192  1.00  0.00    -0.241 NA
ATOM     16  S   UNL A   1      28.022  31.423  23.051  1.00  0.00    -0.127 S 
ATOM     17  C   UNL A   1      28.901  30.021  23.486  1.00  0.00     0.096 A 
ENDBRANCH  11  12
ENDBRANCH   6  11
ENDBRANCH   3   5
ENDBRANCH   2   3
ENDBRANCH   1   2
BRANCH   1  18
ATOM     18  C   UNL A   1      31.804  29.927  26.383  1.00  0.00     0.275 C 
BRANCH  18  19
ATOM     19  O   UNL A   1      33.116  30.505  26.240  1.00  0.00    -0.458 OA
BRANCH  19  20
ATOM     20  C   UNL A   1      33.399  31.544  27.060  1.00  0.00     0.338 C 
ATOM     21  O   UNL A   1      32.760  32.565  27.233  1.00  0.00    -0.246 OA
BRANCH  20  22
ATOM     22  C   UNL A   1      34.645  31.242  27.778  1.00  0.00     0.060 A 
ATOM     23  C   UNL A   1      34.825  29.971  28.322  1.00  0.00     0.016 A 
ATOM     24  C   UNL A   1      35.607  32.233  27.966  1.00  0.00     0.016 A 
ATOM     25  C   UNL A   1      35.962  29.676  29.066  1.00  0.00     0.010 A 
ATOM     26  C   UNL A   1      36.773  31.925  28.672  1.00  0.00     0.010 A 
ATOM     27  C   UNL A   1      36.958  30.646  29.228  1.00  0.00    -0.014 A 
BRANCH  27  28
ATOM     28  C   UNL A   1      38.202  30.317  29.964  1.00  0.00     0.031 A 
ATOM     29  C   UNL A   1      39.222  29.405  29.352  1.00  0.00     0.074 A 
ATOM     30  C   UNL A   1      38.406  30.838  31.189  1.00  0.00     0.049 A 
ATOM     31  N   UNL A   1      40.285  28.871  29.896  1.00  0.00    -0.248 NA
ATOM     32  C   UNL A   1      39.021  29.044  27.940  1.00  0.00     0.031 C 
ATOM     33  C   UNL A   1      37.518  31.785  31.864  1.00  0.00     0.029 A 
ATOM     34  N   UNL A   1      39.424  30.636  32.088  1.00  0.00    -0.354 N 
ATOM     35  C   UNL A   1      40.860  28.085  28.908  1.00  0.00     0.074 A 
ATOM     36  C   UNL A   1      40.031  28.213  27.728  1.00  0.00     0.031 C 
ATOM     37  C   UNL A   1      38.032  32.087  33.066  1.00  0.00     0.029 A 
ATOM     38  C   UNL A   1      39.243  31.301  33.276  1.00  0.00     0.049 A 
ATOM     39  H   UNL A   1      40.207  30.070  31.899  1.00  0.00     0.167 HD
ATOM     40  C   UNL A   1      41.978  27.324  28.987  1.00  0.00     0.037 A 
ATOM     41  C   UNL A   1      39.945  31.243  34.422  1.00  0.00     0.037 A 
ATOM     42  C   UNL A   1      42.814  27.230  30.155  1.00  0.00     0.049 A 
ATOM     43  C   UNL A   1      41.125  30.318  34.511  1.00  0.00     0.074 A 
ATOM     44  C   UNL A   1      43.994  26.525  30.317  1.00  0.00     0.029 A 
ATOM     45  N   UNL A   1      42.555  27.859  31.363  1.00  0.00    -0.354 N 
ATOM     46  N   UNL A   1      41.655  29.562  33.581  1.00  0.00    -0.248 NA
ATOM     47  C   UNL A   1      41.788  30.214  35.820  1.00  0.00     0.031 C 
ATOM     48  C   UNL A   1      44.426  26.694  31.637  1.00  0.00     0.029 A 
ATOM     49  C   UNL A   1      43.533  27.530  32.287  1.00  0.00     0.049 A 
ATOM     50  H   UNL A   1      41.789  28.452  31.538  1.00  0.00     0.167 HD
ATOM     51  C   UNL A   1      42.710  28.897  34.186  1.00  0.00     0.074 A 
ATOM     52  C   UNL A   1      42.762  29.353  35.560  1.00  0.00     0.031 C 
ATOM     53  C   UNL A   1      43.558  27.983  33.653  1.00  0.00     0.037 A 
BRANCH  40  54
ATOM     54  C   UNL A   1      42.347  26.504  27.790  1.00  0.00     0.064 A 
ATOM     55  C   UNL A   1      43.299  26.940  26.859  1.00  0.00     0.173 A 
ATOM     56  C   UNL A   1      41.773  25.237  27.603  1.00  0.00     0.173 A 
ATOM     57  F   UNL A   1      43.866  28.148  26.987  1.00  0.00    -0.203 F 
ATOM     58  C   UNL A   1      43.654  26.141  25.774  1.00  0.00     0.198 A 
ATOM     59  C   UNL A   1      42.144  24.434  26.529  1.00  0.00     0.198 A 
ATOM     60  F   UNL A   1      40.858  24.775  28.470  1.00  0.00    -0.203 F 
ATOM     61  F   UNL A   1      44.546  26.588  24.878  1.00  0.00    -0.200 F 
ATOM     62  C   UNL A   1      43.082  24.887  25.614  1.00  0.00     0.200 A 
ATOM     63  F   UNL A   1      41.597  23.219  26.382  1.00  0.00    -0.200 F 
ATOM     64  F   UNL A   1      43.432  24.117  24.574  1.00  0.00    -0.200 F 
ENDBRANCH  40  54
BRANCH  41  65
ATOM     65  C   UNL A   1      39.511  32.040  35.598  1.00  0.00     0.064 A 
ATOM     66  C   UNL A   1      38.566  31.534  36.500  1.00  0.00     0.173 A 
ATOM     67  C   UNL A   1      40.027  33.321  35.840  1.00  0.00     0.173 A 
ATOM     68  F   UNL A   1      38.023  30.326  36.294  1.00  0.00    -0.203 F 
ATOM     69  C   UNL A   1      38.150  32.283  37.599  1.00  0.00     0.198 A 
ATOM     70  C   UNL A   1      39.630  34.059  36.953  1.00  0.00     0.198 A 
ATOM     71  F   UNL A   1      40.927  33.853  35.001  1.00  0.00    -0.203 F 
ATOM     72  F   UNL A   1      37.218  31.794  38.427  1.00  0.00    -0.200 F 
ATOM     73  C   UNL A   1      38.687  33.542  37.828  1.00  0.00     0.200 A 
ATOM     74  F   UNL A   1      40.158  35.271  37.175  1.00  0.00    -0.200 F 
ATOM     75  F   UNL A   1      38.290  34.260  38.888  1.00  0.00    -0.200 F 
ENDBRANCH  41  65
BRANCH  53  76
ATOM     76  C   UNL A   1      44.608  27.418  34.559  1.00  0.00     0.064 A 
ATOM     77  C   UNL A   1      45.836  28.071  34.744  1.00  0.00     0.173 A 
ATOM     78  C   UNL A   1      44.373  26.238  35.278  1.00  0.00     0.173 A 
ATOM     79  F   UNL A   1      46.111  29.193  34.061  1.00  0.00    -0.203 F 
ATOM     80  C   UNL A   1      46.797  27.554  35.606  1.00  0.00     0.198 A 
ATOM     81  C   UNL A   1      45.328  25.735  36.156  1.00  0.00     0.198 A 
ATOM     82  F   UNL A   1      43.213  25.579  35.136  1.00  0.00    -0.203 F 
ATOM     83  F   UNL A   1      47.978  28.174  35.741  1.00  0.00    -0.200 F 
ATOM     84  C   UNL A   1      46.540  26.390  36.317  1.00  0.00     0.200 A 
ATOM     85  F   UNL A   1      45.076  24.616  36.849  1.00  0.00    -0.200 F 
ATOM     86  F   UNL A   1      47.464  25.896  37.152  1.00  0.00    -0.200 F 
ENDBRANCH  53  76
ENDBRANCH  27  28
ENDBRANCH  20  22
ENDBRANCH  19  20
ENDBRANCH  18  19
ENDBRANCH   1  18
TORSDOF 13
ENDMDL
MODEL 2
REMARK VINA RESULT:     -11.1      0.232      2.032
REMARK SMILES Cc1nc(C[N@@H+]2CCC[C@H]2C(=O)OCCOC(=O)c2ccc(-c3c4nc(c(-c5c(F)c(F)c(F)c(F)c5F)c5ccc([nH]5)c(-c5c(F)c(F)c(F)c(F)c5F)c5nc(c(-c6c(F)c(F)c(F)c(F)c6F)c6ccc3[nH]6)C=C5)C=C4)cc2)cs1
REMARK SMILES IDX 14 1 13 2 11 3 12 4 10 5 6 6 7 7 8 9 9 10 5 11 4 12 1 13
REMARK SMILES IDX 2 14 3 15 83 16 82 17 15 18 16 19 17 20 18 21 19 22 20 23
REMARK SMILES IDX 81 24 21 25 80 26 22 27 23 28 24 29 74 30 25 31 79 32 73 33
REMARK SMILES IDX 75 34 26 35 78 36 72 37 71 38 27 40 59 41 39 42 58 43 40 44
REMARK SMILES IDX 43 45 57 46 76 47 41 48 42 49 56 51 77 52 44 53 28 54 29 55
REMARK SMILES IDX 37 56 30 57 31 58 35 59 38 60 32 61 33 62 36 63 34 64 60 65
REMARK SMILES IDX 61 66 69 67 62 68 63 69 67 70 70 71 64 72 65 73 68 74 66 75
REMARK SMILES IDX 45 76 46 77 54 78 47 79 48 80 52 81 55 82 49 83 50 84 53 85
REMARK SMILES IDX 51 86
REMARK H PARENT 6 8 75 39 43 50
REMARK Flexibility Score: inf
ROOT
ATOM      1  C   UNL A   1      31.845  28.460  26.986  1.00  0.00     0.274 C 
ENDROOT
BRANCH   1   2
ATOM      2  O   UNL A   1      31.141  27.731  25.965  1.00  0.00    -0.458 OA
BRANCH   2   3
ATOM      3  C   UNL A   1      31.826  26.709  25.370  1.00  0.00     0.365 C 
ATOM      4  O   UNL A   1      32.472  25.860  25.971  1.00  0.00    -0.245 OA
BRANCH   3   5
ATOM      5  C   UNL A   1      31.577  26.713  23.851  1.00  0.00     0.295 C 
ATOM      6  N   UNL A   1      31.533  28.092  23.337  1.00  0.00    -0.318 N 
ATOM      7  C   UNL A   1      32.892  28.435  22.929  1.00  0.00     0.263 C 
ATOM      8  H   UNL A   1      31.240  28.746  24.063  1.00  0.00     0.349 HD
ATOM      9  C   UNL A   1      33.600  27.138  22.571  1.00  0.00     0.068 C 
ATOM     10  C   UNL A   1      32.716  26.021  23.098  1.00  0.00     0.083 C 
BRANCH   6  11
ATOM     11  C   UNL A   1      30.486  28.304  22.325  1.00  0.00     0.321 C 
BRANCH  11  12
ATOM     12  C   UNL A   1      29.718  29.595  22.439  1.00  0.00     0.106 A 
ATOM     13  C   UNL A   1      28.017  32.249  20.575  1.00  0.00     0.079 C 
ATOM     14  C   UNL A   1      28.627  31.331  21.577  1.00  0.00     0.090 A 
ATOM     15  N   UNL A   1      29.349  30.271  21.278  1.00  0.00    -0.241 NA
ATOM     16  S   UNL A   1      28.409  31.623  23.256  1.00  0.00    -0.127 S 
ATOM     17  C   UNL A   1      29.277  30.191  23.606  1.00  0.00     0.096 A 
ENDBRANCH  11  12
ENDBRANCH   6  11
ENDBRANCH   3   5
ENDBRANCH   2   3
ENDBRANCH   1   2
BRANCH   1  18
ATOM     18  C   UNL A   1      31.787  29.954  26.671  1.00  0.00     0.275 C 
BRANCH  18  19
ATOM     19  O   UNL A   1      33.116  30.446  26.414  1.00  0.00    -0.458 OA
BRANCH  19  20
ATOM     20  C   UNL A   1      33.483  31.550  27.107  1.00  0.00     0.338 C 
ATOM     21  O   UNL A   1      32.919  32.626  27.166  1.00  0.00    -0.246 OA
BRANCH  20  22
ATOM     22  C   UNL A   1      34.717  31.246  27.844  1.00  0.00     0.060 A 
ATOM     23  C   UNL A   1      34.874  29.983  28.414  1.00  0.00     0.016 A 
ATOM     24  C   UNL A   1      35.690  32.227  28.025  1.00  0.00     0.016 A 
ATOM     25  C   UNL A   1      35.999  29.687  29.176  1.00  0.00     0.010 A 
ATOM     26  C   UNL A   1      36.844  31.918  28.750  1.00  0.00     0.010 A 
ATOM     27  C   UNL A   1      37.006  30.646  29.331  1.00  0.00    -0.014 A 
BRANCH  27  28
ATOM     28  C   UNL A   1      38.237  30.315  30.088  1.00  0.00     0.031 A 
ATOM     29  C   UNL A   1      39.268  29.407  29.490  1.00  0.00     0.074 A 
ATOM     30  C   UNL A   1      38.419  30.831  31.319  1.00  0.00     0.049 A 
ATOM     31  N   UNL A   1      40.322  28.872  30.050  1.00  0.00    -0.248 NA
ATOM     32  C   UNL A   1      39.092  29.053  28.073  1.00  0.00     0.031 C 
ATOM     33  C   UNL A   1      37.518  31.774  31.982  1.00  0.00     0.029 A 
ATOM     34  N   UNL A   1      39.421  30.626  32.234  1.00  0.00    -0.354 N 
ATOM     35  C   UNL A   1      40.916  28.091  29.069  1.00  0.00     0.074 A 
ATOM     36  C   UNL A   1      40.107  28.224  27.874  1.00  0.00     0.031 C 
ATOM     37  C   UNL A   1      38.010  32.071  33.195  1.00  0.00     0.029 A 
ATOM     38  C   UNL A   1      39.218  31.285  33.422  1.00  0.00     0.049 A 
ATOM     39  H   UNL A   1      40.207  30.062  32.057  1.00  0.00     0.167 HD
ATOM     40  C   UNL A   1      42.032  27.331  29.164  1.00  0.00     0.037 A 
ATOM     41  C   UNL A   1      39.900  31.222  34.580  1.00  0.00     0.037 A 
ATOM     42  C   UNL A   1      42.848  27.232  30.346  1.00  0.00     0.049 A 
ATOM     43  C   UNL A   1      41.080  30.298  34.686  1.00  0.00     0.074 A 
ATOM     44  C   UNL A   1      44.026  26.528  30.524  1.00  0.00     0.029 A 
ATOM     45  N   UNL A   1      42.567  27.855  31.552  1.00  0.00    -0.354 N 
ATOM     46  N   UNL A   1      41.626  29.547  33.762  1.00  0.00    -0.248 NA
ATOM     47  C   UNL A   1      41.720  30.189  36.005  1.00  0.00     0.031 C 
ATOM     48  C   UNL A   1      44.435  26.690  31.853  1.00  0.00     0.029 A 
ATOM     49  C   UNL A   1      43.530  27.523  32.491  1.00  0.00     0.049 A 
ATOM     50  H   UNL A   1      41.798  28.447  31.716  1.00  0.00     0.167 HD
ATOM     51  C   UNL A   1      42.672  28.880  34.382  1.00  0.00     0.074 A 
ATOM     52  C   UNL A   1      42.699  29.330  35.759  1.00  0.00     0.031 C 
ATOM     53  C   UNL A   1      43.530  27.970  33.860  1.00  0.00     0.037 A 
BRANCH  40  54
ATOM     54  C   UNL A   1      42.424  26.517  27.969  1.00  0.00     0.064 A 
ATOM     55  C   UNL A   1      41.877  25.250  27.725  1.00  0.00     0.173 A 
ATOM     56  C   UNL A   1      43.324  27.040  27.027  1.00  0.00     0.173 A 
ATOM     57  F   UNL A   1      41.023  24.702  28.603  1.00  0.00    -0.203 F 
ATOM     58  C   UNL A   1      42.228  24.529  26.586  1.00  0.00     0.198 A 
ATOM     59  C   UNL A   1      43.656  26.325  25.881  1.00  0.00     0.198 A 
ATOM     60  F   UNL A   1      43.871  28.250  27.216  1.00  0.00    -0.203 F 
ATOM     61  F   UNL A   1      41.715  23.306  26.385  1.00  0.00    -0.200 F 
ATOM     62  C   UNL A   1      43.111  25.069  25.663  1.00  0.00     0.200 A 
ATOM     63  F   UNL A   1      44.503  26.853  24.986  1.00  0.00    -0.200 F 
ATOM     64  F   UNL A   1      43.439  24.377  24.563  1.00  0.00    -0.200 F 
ENDBRANCH  40  54
BRANCH  41  65
ATOM     65  C   UNL A   1      39.444  32.013  35.752  1.00  0.00     0.064 A 
ATOM     66  C   UNL A   1      39.996  33.270  36.030  1.00  0.00     0.173 A 
ATOM     67  C   UNL A   1      38.452  31.528  36.617  1.00  0.00     0.173 A 
ATOM     68  F   UNL A   1      40.968  33.763  35.248  1.00  0.00    -0.203 F 
ATOM     69  C   UNL A   1      39.577  34.011  37.134  1.00  0.00     0.198 A 
ATOM     70  C   UNL A   1      38.015  32.280  37.705  1.00  0.00     0.198 A 
ATOM     71  F   UNL A   1      37.899  30.326  36.399  1.00  0.00    -0.203 F 
ATOM     72  F   UNL A   1      40.146  35.194  37.400  1.00  0.00    -0.200 F 
ATOM     73  C   UNL A   1      38.582  33.518  37.965  1.00  0.00     0.200 A 
ATOM     74  F   UNL A   1      37.048  31.803  38.501  1.00  0.00    -0.200 F 
ATOM     75  F   UNL A   1      38.176  34.233  39.024  1.00  0.00    -0.200 F 
ENDBRANCH  41  65
BRANCH  53  76
ATOM     76  C   UNL A   1      44.565  27.402  34.781  1.00  0.00     0.064 A 
ATOM     77  C   UNL A   1      44.344  26.200  35.469  1.00  0.00     0.173 A 
ATOM     78  C   UNL A   1      45.802  28.042  34.949  1.00  0.00     0.173 A 
ATOM     79  F   UNL A   1      43.168  25.564  35.353  1.00  0.00    -0.203 F 
ATOM     80  C   UNL A   1      45.320  25.666  36.304  1.00  0.00     0.198 A 
ATOM     81  C   UNL A   1      46.783  27.492  35.768  1.00  0.00     0.198 A 
ATOM     82  F   UNL A   1      46.060  29.192  34.309  1.00  0.00    -0.203 F 
ATOM     83  F   UNL A   1      45.075  24.534  36.980  1.00  0.00    -0.200 F 
ATOM     84  C   UNL A   1      46.541  26.309  36.448  1.00  0.00     0.200 A 
ATOM     85  F   UNL A   1      47.966  28.109  35.899  1.00  0.00    -0.200 F 
ATOM     86  F   UNL A   1      47.483  25.789  37.247  1.00  0.00    -0.200 F 
ENDBRANCH  53  76
ENDBRANCH  27  28
ENDBRANCH  20  22
ENDBRANCH  19  20
ENDBRANCH  18  19
ENDBRANCH   1  18
TORSDOF 13
ENDMDL
MODEL 3
REMARK VINA RESULT:     -11.1      2.186      3.989
REMARK SMILES Cc1nc(C[N@@H+]2CCC[C@H]2C(=O)OCCOC(=O)c2ccc(-c3c4nc(c(-c5c(F)c(F)c(F)c(F)c5F)c5ccc([nH]5)c(-c5c(F)c(F)c(F)c(F)c5F)c5nc(c(-c6c(F)c(F)c(F)c(F)c6F)c6ccc3[nH]6)C=C5)C=C4)cc2)cs1
REMARK SMILES IDX 14 1 13 2 11 3 12 4 10 5 6 6 7 7 8 9 9 10 5 11 4 12 1 13
REMARK SMILES IDX 2 14 3 15 83 16 82 17 15 18 16 19 17 20 18 21 19 22 20 23
REMARK SMILES IDX 81 24 21 25 80 26 22 27 23 28 24 29 74 30 25 31 79 32 73 33
REMARK SMILES IDX 75 34 26 35 78 36 72 37 71 38 27 40 59 41 39 42 58 43 40 44
REMARK SMILES IDX 43 45 57 46 76 47 41 48 42 49 56 51 77 52 44 53 28 54 29 55
REMARK SMILES IDX 37 56 30 57 31 58 35 59 38 60 32 61 33 62 36 63 34 64 60 65
REMARK SMILES IDX 61 66 69 67 62 68 63 69 67 70 70 71 64 72 65 73 68 74 66 75
REMARK SMILES IDX 45 76 46 77 54 78 47 79 48 80 52 81 55 82 49 83 50 84 53 85
REMARK SMILES IDX 51 86
REMARK H PARENT 6 8 75 39 43 50
REMARK Flexibility Score: inf
ROOT
ATOM      1  C   UNL A   1      31.589  28.872  24.872  1.00  0.00     0.274 C 
ENDROOT
BRANCH   1   2
ATOM      2  O   UNL A   1      32.419  27.879  25.499  1.00  0.00    -0.458 OA
BRANCH   2   3
ATOM      3  C   UNL A   1      31.768  26.865  26.144  1.00  0.00     0.365 C 
ATOM      4  O   UNL A   1      31.180  26.982  27.212  1.00  0.00    -0.245 OA
BRANCH   3   5
ATOM      5  C   UNL A   1      31.782  25.589  25.284  1.00  0.00     0.295 C 
ATOM      6  N   UNL A   1      32.946  24.752  25.621  1.00  0.00    -0.318 N 
ATOM      7  C   UNL A   1      32.512  23.824  26.661  1.00  0.00     0.263 C 
ATOM      8  H   UNL A   1      33.710  25.316  25.990  1.00  0.00     0.349 HD
ATOM      9  C   UNL A   1      31.013  23.630  26.502  1.00  0.00     0.068 C 
ATOM     10  C   UNL A   1      30.550  24.722  25.552  1.00  0.00     0.083 C 
BRANCH   6  11
ATOM     11  C   UNL A   1      33.586  24.143  24.444  1.00  0.00     0.321 C 
BRANCH  11  12
ATOM     12  C   UNL A   1      34.960  23.570  24.670  1.00  0.00     0.106 A 
ATOM     13  C   UNL A   1      38.187  24.074  26.328  1.00  0.00     0.079 C 
ATOM     14  C   UNL A   1      37.003  23.614  25.551  1.00  0.00     0.090 A 
ATOM     15  N   UNL A   1      35.893  24.306  25.397  1.00  0.00    -0.241 NA
ATOM     16  S   UNL A   1      37.026  22.081  24.775  1.00  0.00    -0.127 S 
ATOM     17  C   UNL A   1      35.413  22.328  24.263  1.00  0.00     0.096 A 
ENDBRANCH  11  12
ENDBRANCH   6  11
ENDBRANCH   3   5
ENDBRANCH   2   3
ENDBRANCH   1   2
BRANCH   1  18
ATOM     18  C   UNL A   1      31.743  30.199  25.612  1.00  0.00     0.275 C 
BRANCH  18  19
ATOM     19  O   UNL A   1      33.091  30.325  26.104  1.00  0.00    -0.458 OA
BRANCH  19  20
ATOM     20  C   UNL A   1      33.305  31.319  26.998  1.00  0.00     0.338 C 
ATOM     21  O   UNL A   1      32.638  32.318  27.189  1.00  0.00    -0.246 OA
BRANCH  20  22
ATOM     22  C   UNL A   1      34.511  30.995  27.772  1.00  0.00     0.060 A 
ATOM     23  C   UNL A   1      35.451  31.997  28.016  1.00  0.00     0.016 A 
ATOM     24  C   UNL A   1      34.743  29.691  28.203  1.00  0.00     0.016 A 
ATOM     25  C   UNL A   1      36.634  31.706  28.685  1.00  0.00     0.010 A 
ATOM     26  C   UNL A   1      35.910  29.406  28.917  1.00  0.00     0.010 A 
ATOM     27  C   UNL A   1      36.864  30.411  29.163  1.00  0.00    -0.014 A 
BRANCH  27  28
ATOM     28  C   UNL A   1      38.094  30.110  29.933  1.00  0.00     0.031 A 
ATOM     29  C   UNL A   1      39.140  29.204  29.358  1.00  0.00     0.074 A 
ATOM     30  C   UNL A   1      38.263  30.652  31.154  1.00  0.00     0.049 A 
ATOM     31  N   UNL A   1      40.198  28.693  29.935  1.00  0.00    -0.248 NA
ATOM     32  C   UNL A   1      38.978  28.820  27.947  1.00  0.00     0.031 C 
ATOM     33  C   UNL A   1      37.346  31.596  31.794  1.00  0.00     0.029 A 
ATOM     34  N   UNL A   1      39.261  30.478  32.079  1.00  0.00    -0.354 N 
ATOM     35  C   UNL A   1      40.807  27.902  28.972  1.00  0.00     0.074 A 
ATOM     36  C   UNL A   1      40.004  28.000  27.771  1.00  0.00     0.031 C 
ATOM     37  C   UNL A   1      37.827  31.923  33.003  1.00  0.00     0.029 A 
ATOM     38  C   UNL A   1      39.044  31.158  33.252  1.00  0.00     0.049 A 
ATOM     39  H   UNL A   1      40.056  29.921  31.917  1.00  0.00     0.167 HD
ATOM     40  C   UNL A   1      41.933  27.158  29.088  1.00  0.00     0.037 A 
ATOM     41  C   UNL A   1      39.720  31.126  34.415  1.00  0.00     0.037 A 
ATOM     42  C   UNL A   1      42.743  27.093  30.276  1.00  0.00     0.049 A 
ATOM     43  C   UNL A   1      40.910  30.220  34.545  1.00  0.00     0.074 A 
ATOM     44  C   UNL A   1      43.929  26.407  30.475  1.00  0.00     0.029 A 
ATOM     45  N   UNL A   1      42.447  27.735  31.468  1.00  0.00    -0.354 N 
ATOM     46  N   UNL A   1      41.472  29.458  33.639  1.00  0.00    -0.248 NA
ATOM     47  C   UNL A   1      41.544  30.145  35.870  1.00  0.00     0.031 C 
ATOM     48  C   UNL A   1      44.328  26.601  31.803  1.00  0.00     0.029 A 
ATOM     49  C   UNL A   1      43.408  27.434  32.419  1.00  0.00     0.049 A 
ATOM     50  H   UNL A   1      41.669  28.320  31.617  1.00  0.00     0.167 HD
ATOM     51  C   UNL A   1      42.522  28.816  34.278  1.00  0.00     0.074 A 
ATOM     52  C   UNL A   1      42.536  29.294  35.646  1.00  0.00     0.031 C 
ATOM     53  C   UNL A   1      43.395  27.907  33.779  1.00  0.00     0.037 A 
BRANCH  40  54
ATOM     54  C   UNL A   1      42.342  26.325  27.912  1.00  0.00     0.064 A 
ATOM     55  C   UNL A   1      41.766  25.074  27.655  1.00  0.00     0.173 A 
ATOM     56  C   UNL A   1      43.289  26.816  27.000  1.00  0.00     0.173 A 
ATOM     57  F   UNL A   1      40.865  24.557  28.504  1.00  0.00    -0.203 F 
ATOM     58  C   UNL A   1      42.135  24.336  26.532  1.00  0.00     0.198 A 
ATOM     59  C   UNL A   1      43.641  26.085  25.870  1.00  0.00     0.198 A 
ATOM     60  F   UNL A   1      43.866  28.010  27.203  1.00  0.00    -0.203 F 
ATOM     61  F   UNL A   1      41.593  23.128  26.319  1.00  0.00    -0.200 F 
ATOM     62  C   UNL A   1      43.066  24.845  25.638  1.00  0.00     0.200 A 
ATOM     63  F   UNL A   1      44.534  26.582  25.003  1.00  0.00    -0.200 F 
ATOM     64  F   UNL A   1      43.412  24.136  24.554  1.00  0.00    -0.200 F 
ENDBRANCH  40  54
BRANCH  41  65
ATOM     65  C   UNL A   1      39.247  31.934  35.568  1.00  0.00     0.064 A 
ATOM     66  C   UNL A   1      39.672  33.257  35.742  1.00  0.00     0.173 A 
ATOM     67  C   UNL A   1      38.365  31.399  36.520  1.00  0.00     0.173 A 
ATOM     68  F   UNL A   1      40.538  33.802  34.875  1.00  0.00    -0.203 F 
ATOM     69  C   UNL A   1      39.237  34.015  36.828  1.00  0.00     0.198 A 
ATOM     70  C   UNL A   1      37.911  32.165  37.590  1.00  0.00     0.198 A 
ATOM     71  F   UNL A   1      37.936  30.135  36.402  1.00  0.00    -0.203 F 
ATOM     72  F   UNL A   1      39.687  35.265  36.993  1.00  0.00    -0.200 F 
ATOM     73  C   UNL A   1      38.352  33.471  37.747  1.00  0.00     0.200 A 
ATOM     74  F   UNL A   1      37.048  31.638  38.471  1.00  0.00    -0.200 F 
ATOM     75  F   UNL A   1      37.930  34.201  38.789  1.00  0.00    -0.200 F 
ENDBRANCH  41  65
BRANCH  53  76
ATOM     76  C   UNL A   1      44.431  27.371  34.717  1.00  0.00     0.064 A 
ATOM     77  C   UNL A   1      44.231  26.169  35.410  1.00  0.00     0.173 A 
ATOM     78  C   UNL A   1      45.650  28.042  34.895  1.00  0.00     0.173 A 
ATOM     79  F   UNL A   1      43.072  25.504  35.285  1.00  0.00    -0.203 F 
ATOM     80  C   UNL A   1      45.209  25.664  36.261  1.00  0.00     0.198 A 
ATOM     81  C   UNL A   1      46.635  27.522  35.730  1.00  0.00     0.198 A 
ATOM     82  F   UNL A   1      45.889  29.194  34.251  1.00  0.00    -0.203 F 
ATOM     83  F   UNL A   1      44.983  24.532  36.943  1.00  0.00    -0.200 F 
ATOM     84  C   UNL A   1      46.413  26.337  36.415  1.00  0.00     0.200 A 
ATOM     85  F   UNL A   1      47.801  28.168  35.872  1.00  0.00    -0.200 F 
ATOM     86  F   UNL A   1      47.357  25.846  37.231  1.00  0.00    -0.200 F 
ENDBRANCH  53  76
ENDBRANCH  27  28
ENDBRANCH  20  22
ENDBRANCH  19  20
ENDBRANCH  18  19
ENDBRANCH   1  18
TORSDOF 13
ENDMDL
