MODEL 1
REMARK VINA RESULT:     -13.2      0.000      0.000
REMARK SMILES O=C(OCCOC(=O)c1ccc2c(c1O)C(=O)c1ccccc1C2=O)c1ccc(-c2c3nc(c(-c4c(F)c(F)c(F)c(F)c4F)c4ccc([nH]4)c(-c4c(F)c(F)c(F)c(F)c4F)c4nc(c(-c5c(F)c(F)c(F)c(F)c5F)c5ccc2[nH]5)C=C4)C=C3)cc1
REMARK SMILES IDX 4 1 3 2 2 3 1 4 26 5 27 6 88 7 28 8 87 9 29 10 30 11 31 12
REMARK SMILES IDX 81 13 32 14 86 15 80 16 82 17 33 18 85 19 79 20 78 21 34 23
REMARK SMILES IDX 66 24 46 25 65 26 47 27 50 28 64 29 83 30 48 31 49 32 63 34
REMARK SMILES IDX 84 35 51 36 35 37 36 38 44 39 37 40 38 41 42 42 45 43 39 44
REMARK SMILES IDX 40 45 43 46 41 47 67 48 68 49 76 50 69 51 70 52 74 53 77 54
REMARK SMILES IDX 71 55 72 56 75 57 73 58 52 59 53 60 61 61 54 62 55 63 59 64
REMARK SMILES IDX 62 65 56 66 57 67 60 68 58 69 5 70 6 71 7 72 8 73 9 74 10 75
REMARK SMILES IDX 14 76 11 77 13 78 12 79 16 80 24 81 17 82 18 83 23 84 25 85
REMARK SMILES IDX 19 86 22 87 20 88 21 89 15 90
REMARK H PARENT 82 22 50 33 15 91
REMARK Flexibility Score: inf
ROOT
ATOM      1  C   UNL A   1      43.942  21.943  25.337  1.00  0.00     0.275 C 
ENDROOT
BRANCH   1   2
ATOM      2  O   UNL A   1      43.401  23.176  24.835  1.00  0.00    -0.458 OA
BRANCH   2   3
ATOM      3  C   UNL A   1      43.928  24.414  24.988  1.00  0.00     0.338 C 
ATOM      4  O   UNL A   1      45.048  24.659  24.548  1.00  0.00    -0.246 OA
BRANCH   3   5
ATOM      5  C   UNL A   1      43.306  25.415  25.906  1.00  0.00     0.060 A 
ATOM      6  C   UNL A   1      43.572  26.786  25.927  1.00  0.00     0.016 A 
ATOM      7  C   UNL A   1      42.417  24.898  26.866  1.00  0.00     0.016 A 
ATOM      8  C   UNL A   1      42.942  27.627  26.853  1.00  0.00     0.010 A 
ATOM      9  C   UNL A   1      41.771  25.734  27.779  1.00  0.00     0.010 A 
ATOM     10  C   UNL A   1      42.050  27.105  27.791  1.00  0.00    -0.014 A 
BRANCH  10  11
ATOM     11  C   UNL A   1      41.587  27.933  28.927  1.00  0.00     0.031 A 
ATOM     12  C   UNL A   1      42.340  27.828  30.224  1.00  0.00     0.074 A 
ATOM     13  C   UNL A   1      40.544  28.772  28.815  1.00  0.00     0.049 A 
ATOM     14  N   UNL A   1      42.084  28.373  31.384  1.00  0.00    -0.248 NA
ATOM     15  C   UNL A   1      43.555  26.997  30.202  1.00  0.00     0.031 C 
ATOM     16  C   UNL A   1      39.785  29.030  27.595  1.00  0.00     0.029 A 
ATOM     17  N   UNL A   1      39.929  29.551  29.762  1.00  0.00    -0.354 N 
ATOM     18  C   UNL A   1      43.116  27.970  32.218  1.00  0.00     0.074 A 
ATOM     19  C   UNL A   1      43.960  27.077  31.459  1.00  0.00     0.031 C 
ATOM     20  C   UNL A   1      38.770  29.865  27.877  1.00  0.00     0.029 A 
ATOM     21  C   UNL A   1      38.808  30.194  29.297  1.00  0.00     0.049 A 
ATOM     22  H   UNL A   1      40.259  29.640  30.685  1.00  0.00     0.167 HD
ATOM     23  C   UNL A   1      43.362  28.343  33.496  1.00  0.00     0.037 A 
ATOM     24  C   UNL A   1      37.901  30.933  29.962  1.00  0.00     0.037 A 
ATOM     25  C   UNL A   1      42.511  29.214  34.255  1.00  0.00     0.049 A 
ATOM     26  C   UNL A   1      38.070  31.158  31.435  1.00  0.00     0.074 A 
ATOM     27  C   UNL A   1      42.672  29.676  35.548  1.00  0.00     0.029 A 
ATOM     28  N   UNL A   1      41.320  29.745  33.781  1.00  0.00    -0.354 N 
ATOM     29  N   UNL A   1      39.034  30.757  32.226  1.00  0.00    -0.248 NA
ATOM     30  C   UNL A   1      37.025  31.945  32.105  1.00  0.00     0.031 C 
ATOM     31  C   UNL A   1      41.555  30.458  35.871  1.00  0.00     0.029 A 
ATOM     32  C   UNL A   1      40.723  30.516  34.764  1.00  0.00     0.049 A 
ATOM     33  H   UNL A   1      40.954  29.596  32.880  1.00  0.00     0.167 HD
ATOM     34  C   UNL A   1      38.741  31.280  33.476  1.00  0.00     0.074 A 
ATOM     35  C   UNL A   1      37.484  31.991  33.349  1.00  0.00     0.031 C 
ATOM     36  C   UNL A   1      39.471  31.213  34.615  1.00  0.00     0.037 A 
BRANCH  23  37
ATOM     37  C   UNL A   1      44.604  27.791  34.127  1.00  0.00     0.064 A 
ATOM     38  C   UNL A   1      45.836  28.458  34.012  1.00  0.00     0.173 A 
ATOM     39  C   UNL A   1      44.582  26.565  34.803  1.00  0.00     0.173 A 
ATOM     40  F   UNL A   1      45.913  29.624  33.353  1.00  0.00    -0.203 F 
ATOM     41  C   UNL A   1      47.005  27.893  34.514  1.00  0.00     0.198 A 
ATOM     42  C   UNL A   1      45.749  26.016  35.326  1.00  0.00     0.198 A 
ATOM     43  F   UNL A   1      43.431  25.888  34.937  1.00  0.00    -0.203 F 
ATOM     44  F   UNL A   1      48.178  28.514  34.330  1.00  0.00    -0.200 F 
ATOM     45  C   UNL A   1      46.960  26.673  35.171  1.00  0.00     0.200 A 
ATOM     46  F   UNL A   1      45.706  24.838  35.965  1.00  0.00    -0.200 F 
ATOM     47  F   UNL A   1      48.089  26.123  35.638  1.00  0.00    -0.200 F 
ENDBRANCH  23  37
BRANCH  24  48
ATOM     48  C   UNL A   1      36.703  31.445  29.257  1.00  0.00     0.064 A 
ATOM     49  C   UNL A   1      35.645  30.613  28.882  1.00  0.00     0.173 A 
ATOM     50  C   UNL A   1      36.622  32.803  28.931  1.00  0.00     0.173 A 
ATOM     51  F   UNL A   1      35.706  29.296  29.129  1.00  0.00    -0.203 F 
ATOM     52  C   UNL A   1      34.531  31.131  28.222  1.00  0.00     0.198 A 
ATOM     53  C   UNL A   1      35.501  33.324  28.290  1.00  0.00     0.198 A 
ATOM     54  F   UNL A   1      37.657  33.609  29.196  1.00  0.00    -0.203 F 
ATOM     55  F   UNL A   1      33.537  30.313  27.845  1.00  0.00    -0.200 F 
ATOM     56  C   UNL A   1      34.455  32.487  27.937  1.00  0.00     0.200 A 
ATOM     57  F   UNL A   1      35.445  34.631  27.997  1.00  0.00    -0.200 F 
ATOM     58  F   UNL A   1      33.384  32.983  27.300  1.00  0.00    -0.200 F 
ENDBRANCH  24  48
BRANCH  36  59
ATOM     59  C   UNL A   1      38.977  32.000  35.787  1.00  0.00     0.064 A 
ATOM     60  C   UNL A   1      38.199  31.419  36.796  1.00  0.00     0.173 A 
ATOM     61  C   UNL A   1      39.334  33.350  35.914  1.00  0.00     0.173 A 
ATOM     62  F   UNL A   1      37.815  30.138  36.701  1.00  0.00    -0.203 F 
ATOM     63  C   UNL A   1      37.787  32.170  37.893  1.00  0.00     0.198 A 
ATOM     64  C   UNL A   1      38.938  34.091  37.022  1.00  0.00     0.198 A 
ATOM     65  F   UNL A   1      40.074  33.946  34.968  1.00  0.00    -0.203 F 
ATOM     66  F   UNL A   1      37.018  31.609  38.836  1.00  0.00    -0.200 F 
ATOM     67  C   UNL A   1      38.164  33.501  38.010  1.00  0.00     0.200 A 
ATOM     68  F   UNL A   1      39.308  35.374  37.135  1.00  0.00    -0.200 F 
ATOM     69  F   UNL A   1      37.774  34.219  39.072  1.00  0.00    -0.200 F 
ENDBRANCH  36  59
ENDBRANCH  10  11
ENDBRANCH   3   5
ENDBRANCH   2   3
ENDBRANCH   1   2
BRANCH   1  70
ATOM     70  C   UNL A   1      42.889  21.039  25.985  1.00  0.00     0.275 C 
BRANCH  70  71
ATOM     71  O   UNL A   1      41.538  21.432  25.678  1.00  0.00    -0.458 OA
BRANCH  71  72
ATOM     72  C   UNL A   1      40.781  21.729  26.769  1.00  0.00     0.342 C 
ATOM     73  O   UNL A   1      41.170  21.883  27.913  1.00  0.00    -0.246 OA
BRANCH  72  74
ATOM     74  C   UNL A   1      39.396  22.003  26.340  1.00  0.00     0.102 A 
ATOM     75  C   UNL A   1      38.941  23.311  26.542  1.00  0.00     0.020 A 
ATOM     76  C   UNL A   1      38.556  21.041  25.754  1.00  0.00     0.142 A 
ATOM     77  C   UNL A   1      37.703  23.696  26.042  1.00  0.00     0.014 A 
ATOM     78  C   UNL A   1      37.248  21.399  25.374  1.00  0.00     0.076 A 
ATOM     79  C   UNL A   1      36.878  22.746  25.429  1.00  0.00     0.037 A 
ATOM     80  C   UNL A   1      36.217  20.404  24.956  1.00  0.00     0.198 C 
ATOM     81  C   UNL A   1      35.637  23.212  24.783  1.00  0.00     0.194 C 
ATOM     82  O   UNL A   1      36.448  19.205  24.874  1.00  0.00    -0.288 OA
ATOM     83  C   UNL A   1      34.843  20.876  24.665  1.00  0.00     0.034 A 
ATOM     84  C   UNL A   1      34.585  22.232  24.492  1.00  0.00     0.034 A 
ATOM     85  O   UNL A   1      35.492  24.397  24.512  1.00  0.00    -0.289 OA
ATOM     86  C   UNL A   1      33.793  19.959  24.555  1.00  0.00     0.013 A 
ATOM     87  C   UNL A   1      33.312  22.673  24.115  1.00  0.00     0.013 A 
ATOM     88  C   UNL A   1      32.507  20.403  24.237  1.00  0.00     0.001 A 
ATOM     89  C   UNL A   1      32.273  21.754  23.985  1.00  0.00     0.001 A 
BRANCH  76  90
ATOM     90  O   UNL A   1      38.999  19.765  25.532  1.00  0.00    -0.506 OA
ATOM     91  H   UNL A   1      39.299  19.514  24.680  1.00  0.00     0.293 HD
ENDBRANCH  76  90
ENDBRANCH  72  74
ENDBRANCH  71  72
ENDBRANCH  70  71
ENDBRANCH   1  70
TORSDOF 12
ENDMDL
MODEL 2
REMARK VINA RESULT:     -13.1      0.186      1.612
REMARK SMILES O=C(OCCOC(=O)c1ccc2c(c1O)C(=O)c1ccccc1C2=O)c1ccc(-c2c3nc(c(-c4c(F)c(F)c(F)c(F)c4F)c4ccc([nH]4)c(-c4c(F)c(F)c(F)c(F)c4F)c4nc(c(-c5c(F)c(F)c(F)c(F)c5F)c5ccc2[nH]5)C=C4)C=C3)cc1
REMARK SMILES IDX 4 1 3 2 2 3 1 4 26 5 27 6 88 7 28 8 87 9 29 10 30 11 31 12
REMARK SMILES IDX 81 13 32 14 86 15 80 16 82 17 33 18 85 19 79 20 78 21 34 23
REMARK SMILES IDX 66 24 46 25 65 26 47 27 50 28 64 29 83 30 48 31 49 32 63 34
REMARK SMILES IDX 84 35 51 36 35 37 36 38 44 39 37 40 38 41 42 42 45 43 39 44
REMARK SMILES IDX 40 45 43 46 41 47 67 48 68 49 76 50 69 51 70 52 74 53 77 54
REMARK SMILES IDX 71 55 72 56 75 57 73 58 52 59 53 60 61 61 54 62 55 63 59 64
REMARK SMILES IDX 62 65 56 66 57 67 60 68 58 69 5 70 6 71 7 72 8 73 9 74 10 75
REMARK SMILES IDX 14 76 11 77 13 78 12 79 16 80 24 81 17 82 18 83 23 84 25 85
REMARK SMILES IDX 19 86 22 87 20 88 21 89 15 90
REMARK H PARENT 82 22 50 33 15 91
REMARK Flexibility Score: inf
ROOT
ATOM      1  C   UNL A   1      43.793  21.756  25.422  1.00  0.00     0.275 C 
ENDROOT
BRANCH   1   2
ATOM      2  O   UNL A   1      43.173  22.952  24.921  1.00  0.00    -0.458 OA
BRANCH   2   3
ATOM      3  C   UNL A   1      43.673  24.209  24.979  1.00  0.00     0.338 C 
ATOM      4  O   UNL A   1      44.747  24.465  24.441  1.00  0.00    -0.246 OA
BRANCH   3   5
ATOM      5  C   UNL A   1      43.095  25.233  25.901  1.00  0.00     0.060 A 
ATOM      6  C   UNL A   1      43.433  26.588  25.939  1.00  0.00     0.016 A 
ATOM      7  C   UNL A   1      42.171  24.754  26.847  1.00  0.00     0.016 A 
ATOM      8  C   UNL A   1      42.838  27.451  26.867  1.00  0.00     0.010 A 
ATOM      9  C   UNL A   1      41.560  25.614  27.763  1.00  0.00     0.010 A 
ATOM     10  C   UNL A   1      41.911  26.968  27.791  1.00  0.00    -0.014 A 
BRANCH  10  11
ATOM     11  C   UNL A   1      41.481  27.809  28.931  1.00  0.00     0.031 A 
ATOM     12  C   UNL A   1      42.241  27.682  30.222  1.00  0.00     0.074 A 
ATOM     13  C   UNL A   1      40.462  28.677  28.828  1.00  0.00     0.049 A 
ATOM     14  N   UNL A   1      42.010  28.234  31.384  1.00  0.00    -0.248 NA
ATOM     15  C   UNL A   1      43.432  26.817  30.190  1.00  0.00     0.031 C 
ATOM     16  C   UNL A   1      39.700  28.957  27.614  1.00  0.00     0.029 A 
ATOM     17  N   UNL A   1      39.876  29.473  29.780  1.00  0.00    -0.354 N 
ATOM     18  C   UNL A   1      43.037  27.801  32.210  1.00  0.00     0.074 A 
ATOM     19  C   UNL A   1      43.849  26.885  31.443  1.00  0.00     0.031 C 
ATOM     20  C   UNL A   1      38.712  29.821  27.905  1.00  0.00     0.029 A 
ATOM     21  C   UNL A   1      38.771  30.148  29.324  1.00  0.00     0.049 A 
ATOM     22  H   UNL A   1      40.216  29.552  30.700  1.00  0.00     0.167 HD
ATOM     23  C   UNL A   1      43.304  28.166  33.486  1.00  0.00     0.037 A 
ATOM     24  C   UNL A   1      37.890  30.912  29.996  1.00  0.00     0.037 A 
ATOM     25  C   UNL A   1      42.484  29.061  34.251  1.00  0.00     0.049 A 
ATOM     26  C   UNL A   1      38.077  31.132  31.468  1.00  0.00     0.074 A 
ATOM     27  C   UNL A   1      42.668  29.517  35.544  1.00  0.00     0.029 A 
ATOM     28  N   UNL A   1      41.305  29.626  33.787  1.00  0.00    -0.354 N 
ATOM     29  N   UNL A   1      39.036  30.703  32.251  1.00  0.00    -0.248 NA
ATOM     30  C   UNL A   1      37.060  31.948  32.147  1.00  0.00     0.031 C 
ATOM     31  C   UNL A   1      41.577  30.331  35.875  1.00  0.00     0.029 A 
ATOM     32  C   UNL A   1      40.738  30.413  34.775  1.00  0.00     0.049 A 
ATOM     33  H   UNL A   1      40.927  29.488  32.889  1.00  0.00     0.167 HD
ATOM     34  C   UNL A   1      38.768  31.234  33.504  1.00  0.00     0.074 A 
ATOM     35  C   UNL A   1      37.531  31.980  33.387  1.00  0.00     0.031 C 
ATOM     36  C   UNL A   1      39.505  31.145  34.636  1.00  0.00     0.037 A 
BRANCH  23  37
ATOM     37  C   UNL A   1      44.535  27.579  34.106  1.00  0.00     0.064 A 
ATOM     38  C   UNL A   1      44.479  26.379  34.836  1.00  0.00     0.173 A 
ATOM     39  C   UNL A   1      45.767  28.239  34.020  1.00  0.00     0.173 A 
ATOM     40  F   UNL A   1      43.317  25.722  34.967  1.00  0.00    -0.203 F 
ATOM     41  C   UNL A   1      45.604  25.889  35.494  1.00  0.00     0.198 A 
ATOM     42  C   UNL A   1      46.896  27.731  34.657  1.00  0.00     0.198 A 
ATOM     43  F   UNL A   1      45.871  29.389  33.336  1.00  0.00    -0.203 F 
ATOM     44  F   UNL A   1      45.510  24.782  36.243  1.00  0.00    -0.200 F 
ATOM     45  C   UNL A   1      46.811  26.565  35.403  1.00  0.00     0.200 A 
ATOM     46  F   UNL A   1      48.064  28.383  34.567  1.00  0.00    -0.200 F 
ATOM     47  F   UNL A   1      47.888  26.101  36.050  1.00  0.00    -0.200 F 
ENDBRANCH  23  37
BRANCH  24  48
ATOM     48  C   UNL A   1      36.702  31.458  29.301  1.00  0.00     0.064 A 
ATOM     49  C   UNL A   1      35.630  30.651  28.908  1.00  0.00     0.173 A 
ATOM     50  C   UNL A   1      36.642  32.824  29.004  1.00  0.00     0.173 A 
ATOM     51  F   UNL A   1      35.670  29.329  29.126  1.00  0.00    -0.203 F 
ATOM     52  C   UNL A   1      34.526  31.201  28.257  1.00  0.00     0.198 A 
ATOM     53  C   UNL A   1      35.531  33.376  28.373  1.00  0.00     0.198 A 
ATOM     54  F   UNL A   1      37.690  33.607  29.287  1.00  0.00    -0.203 F 
ATOM     55  F   UNL A   1      33.520  30.407  27.862  1.00  0.00    -0.200 F 
ATOM     56  C   UNL A   1      34.472  32.563  28.001  1.00  0.00     0.200 A 
ATOM     57  F   UNL A   1      35.496  34.689  28.108  1.00  0.00    -0.200 F 
ATOM     58  F   UNL A   1      33.410  33.090  27.374  1.00  0.00    -0.200 F 
ENDBRANCH  24  48
BRANCH  36  59
ATOM     59  C   UNL A   1      39.043  31.945  35.812  1.00  0.00     0.064 A 
ATOM     60  C   UNL A   1      39.408  33.286  35.988  1.00  0.00     0.173 A 
ATOM     61  C   UNL A   1      38.181  31.360  36.752  1.00  0.00     0.173 A 
ATOM     62  F   UNL A   1      40.249  33.876  35.127  1.00  0.00    -0.203 F 
ATOM     63  C   UNL A   1      38.928  34.013  37.073  1.00  0.00     0.198 A 
ATOM     64  C   UNL A   1      37.688  32.097  37.823  1.00  0.00     0.198 A 
ATOM     65  F   UNL A   1      37.811  30.078  36.624  1.00  0.00    -0.203 F 
ATOM     66  F   UNL A   1      39.310  35.287  37.245  1.00  0.00    -0.200 F 
ATOM     67  C   UNL A   1      38.063  33.422  37.983  1.00  0.00     0.200 A 
ATOM     68  F   UNL A   1      36.849  31.525  38.697  1.00  0.00    -0.200 F 
ATOM     69  F   UNL A   1      37.596  34.129  39.022  1.00  0.00    -0.200 F 
ENDBRANCH  36  59
ENDBRANCH  10  11
ENDBRANCH   3   5
ENDBRANCH   2   3
ENDBRANCH   1   2
BRANCH   1  70
ATOM     70  C   UNL A   1      42.788  20.734  25.964  1.00  0.00     0.275 C 
BRANCH  70  71
ATOM     71  O   UNL A   1      41.419  21.077  25.675  1.00  0.00    -0.458 OA
BRANCH  71  72
ATOM     72  C   UNL A   1      40.712  21.509  26.754  1.00  0.00     0.342 C 
ATOM     73  O   UNL A   1      41.141  21.733  27.871  1.00  0.00    -0.246 OA
BRANCH  72  74
ATOM     74  C   UNL A   1      39.335  21.831  26.335  1.00  0.00     0.102 A 
ATOM     75  C   UNL A   1      38.924  23.153  26.546  1.00  0.00     0.020 A 
ATOM     76  C   UNL A   1      38.459  20.900  25.751  1.00  0.00     0.142 A 
ATOM     77  C   UNL A   1      37.696  23.580  26.056  1.00  0.00     0.014 A 
ATOM     78  C   UNL A   1      37.161  21.303  25.381  1.00  0.00     0.076 A 
ATOM     79  C   UNL A   1      36.836  22.662  25.444  1.00  0.00     0.037 A 
ATOM     80  C   UNL A   1      36.096  20.345  24.966  1.00  0.00     0.198 C 
ATOM     81  C   UNL A   1      35.608  23.172  24.809  1.00  0.00     0.194 C 
ATOM     82  O   UNL A   1      36.286  19.139  24.877  1.00  0.00    -0.288 OA
ATOM     83  C   UNL A   1      34.736  20.864  24.686  1.00  0.00     0.034 A 
ATOM     84  C   UNL A   1      34.522  22.228  24.521  1.00  0.00     0.034 A 
ATOM     85  O   UNL A   1      35.501  24.362  24.544  1.00  0.00    -0.289 OA
ATOM     86  C   UNL A   1      33.655  19.982  24.579  1.00  0.00     0.013 A 
ATOM     87  C   UNL A   1      33.262  22.713  24.154  1.00  0.00     0.013 A 
ATOM     88  C   UNL A   1      32.383  20.470  24.272  1.00  0.00     0.001 A 
ATOM     89  C   UNL A   1      32.192  21.830  24.027  1.00  0.00     0.001 A 
BRANCH  76  90
ATOM     90  O   UNL A   1      38.858  19.611  25.521  1.00  0.00    -0.506 OA
ATOM     91  H   UNL A   1      38.406  18.900  25.933  1.00  0.00     0.293 HD
ENDBRANCH  76  90
ENDBRANCH  72  74
ENDBRANCH  71  72
ENDBRANCH  70  71
ENDBRANCH   1  70
TORSDOF 12
ENDMDL
MODEL 3
REMARK VINA RESULT:     -13.1      0.640      1.772
REMARK SMILES O=C(OCCOC(=O)c1ccc2c(c1O)C(=O)c1ccccc1C2=O)c1ccc(-c2c3nc(c(-c4c(F)c(F)c(F)c(F)c4F)c4ccc([nH]4)c(-c4c(F)c(F)c(F)c(F)c4F)c4nc(c(-c5c(F)c(F)c(F)c(F)c5F)c5ccc2[nH]5)C=C4)C=C3)cc1
REMARK SMILES IDX 4 1 3 2 2 3 1 4 26 5 27 6 88 7 28 8 87 9 29 10 30 11 31 12
REMARK SMILES IDX 81 13 32 14 86 15 80 16 82 17 33 18 85 19 79 20 78 21 34 23
REMARK SMILES IDX 66 24 46 25 65 26 47 27 50 28 64 29 83 30 48 31 49 32 63 34
REMARK SMILES IDX 84 35 51 36 35 37 36 38 44 39 37 40 38 41 42 42 45 43 39 44
REMARK SMILES IDX 40 45 43 46 41 47 67 48 68 49 76 50 69 51 70 52 74 53 77 54
REMARK SMILES IDX 71 55 72 56 75 57 73 58 52 59 53 60 61 61 54 62 55 63 59 64
REMARK SMILES IDX 62 65 56 66 57 67 60 68 58 69 5 70 6 71 7 72 8 73 9 74 10 75
REMARK SMILES IDX 14 76 11 77 13 78 12 79 16 80 24 81 17 82 18 83 23 84 25 85
REMARK SMILES IDX 19 86 22 87 20 88 21 89 15 90
REMARK H PARENT 82 22 50 33 15 91
REMARK Flexibility Score: inf
ROOT
ATOM      1  C   UNL A   1      43.695  21.659  25.379  1.00  0.00     0.275 C 
ENDROOT
BRANCH   1   2
ATOM      2  O   UNL A   1      43.134  22.864  24.833  1.00  0.00    -0.458 OA
BRANCH   2   3
ATOM      3  C   UNL A   1      43.653  24.112  24.922  1.00  0.00     0.338 C 
ATOM      4  O   UNL A   1      44.749  24.354  24.425  1.00  0.00    -0.246 OA
BRANCH   3   5
ATOM      5  C   UNL A   1      43.059  25.137  25.831  1.00  0.00     0.060 A 
ATOM      6  C   UNL A   1      43.363  26.501  25.842  1.00  0.00     0.016 A 
ATOM      7  C   UNL A   1      42.157  24.653  26.796  1.00  0.00     0.016 A 
ATOM      8  C   UNL A   1      42.757  27.366  26.761  1.00  0.00     0.010 A 
ATOM      9  C   UNL A   1      41.534  25.513  27.703  1.00  0.00     0.010 A 
ATOM     10  C   UNL A   1      41.852  26.876  27.704  1.00  0.00    -0.014 A 
BRANCH  10  11
ATOM     11  C   UNL A   1      41.413  27.726  28.833  1.00  0.00     0.031 A 
ATOM     12  C   UNL A   1      42.163  27.611  30.130  1.00  0.00     0.074 A 
ATOM     13  C   UNL A   1      40.393  28.592  28.715  1.00  0.00     0.049 A 
ATOM     14  N   UNL A   1      41.924  28.173  31.285  1.00  0.00    -0.248 NA
ATOM     15  C   UNL A   1      43.356  26.747  30.114  1.00  0.00     0.031 C 
ATOM     16  C   UNL A   1      39.640  28.860  27.494  1.00  0.00     0.029 A 
ATOM     17  N   UNL A   1      39.800  29.395  29.656  1.00  0.00    -0.354 N 
ATOM     18  C   UNL A   1      42.945  27.748  32.123  1.00  0.00     0.074 A 
ATOM     19  C   UNL A   1      43.764  26.826  31.370  1.00  0.00     0.031 C 
ATOM     20  C   UNL A   1      38.648  29.726  27.770  1.00  0.00     0.029 A 
ATOM     21  C   UNL A   1      38.697  30.065  29.187  1.00  0.00     0.049 A 
ATOM     22  H   UNL A   1      40.134  29.483  30.578  1.00  0.00     0.167 HD
ATOM     23  C   UNL A   1      43.203  28.125  33.397  1.00  0.00     0.037 A 
ATOM     24  C   UNL A   1      37.810  30.834  29.846  1.00  0.00     0.037 A 
ATOM     25  C   UNL A   1      42.377  29.025  34.149  1.00  0.00     0.049 A 
ATOM     26  C   UNL A   1      37.987  31.067  31.317  1.00  0.00     0.074 A 
ATOM     27  C   UNL A   1      42.551  29.493  35.439  1.00  0.00     0.029 A 
ATOM     28  N   UNL A   1      41.200  29.585  33.672  1.00  0.00    -0.354 N 
ATOM     29  N   UNL A   1      38.941  30.645  32.111  1.00  0.00    -0.248 NA
ATOM     30  C   UNL A   1      36.965  31.887  31.982  1.00  0.00     0.031 C 
ATOM     31  C   UNL A   1      41.456  30.307  35.756  1.00  0.00     0.029 A 
ATOM     32  C   UNL A   1      40.625  30.379  34.649  1.00  0.00     0.049 A 
ATOM     33  H   UNL A   1      40.829  29.438  32.772  1.00  0.00     0.167 HD
ATOM     34  C   UNL A   1      38.663  31.187  33.357  1.00  0.00     0.074 A 
ATOM     35  C   UNL A   1      37.426  31.930  33.225  1.00  0.00     0.031 C 
ATOM     36  C   UNL A   1      39.393  31.109  34.495  1.00  0.00     0.037 A 
BRANCH  23  37
ATOM     37  C   UNL A   1      44.430  27.544  34.031  1.00  0.00     0.064 A 
ATOM     38  C   UNL A   1      45.677  28.184  33.921  1.00  0.00     0.173 A 
ATOM     39  C   UNL A   1      44.377  26.319  34.706  1.00  0.00     0.173 A 
ATOM     40  F   UNL A   1      45.782  29.348  33.263  1.00  0.00    -0.203 F 
ATOM     41  C   UNL A   1      46.831  27.592  34.426  1.00  0.00     0.198 A 
ATOM     42  C   UNL A   1      45.530  25.743  35.234  1.00  0.00     0.198 A 
ATOM     43  F   UNL A   1      43.211  25.668  34.837  1.00  0.00    -0.203 F 
ATOM     44  F   UNL A   1      48.019  28.186  34.247  1.00  0.00    -0.200 F 
ATOM     45  C   UNL A   1      46.757  26.373  35.082  1.00  0.00     0.200 A 
ATOM     46  F   UNL A   1      45.458  24.566  35.871  1.00  0.00    -0.200 F 
ATOM     47  F   UNL A   1      47.871  25.797  35.552  1.00  0.00    -0.200 F 
ENDBRANCH  23  37
BRANCH  24  48
ATOM     48  C   UNL A   1      36.627  31.373  29.137  1.00  0.00     0.064 A 
ATOM     49  C   UNL A   1      36.508  32.725  28.804  1.00  0.00     0.173 A 
ATOM     50  C   UNL A   1      35.574  30.515  28.800  1.00  0.00     0.173 A 
ATOM     51  F   UNL A   1      37.470  33.590  29.155  1.00  0.00    -0.203 F 
ATOM     52  C   UNL A   1      35.380  33.196  28.133  1.00  0.00     0.198 A 
ATOM     53  C   UNL A   1      34.456  30.982  28.113  1.00  0.00     0.198 A 
ATOM     54  F   UNL A   1      35.618  29.234  29.185  1.00  0.00    -0.203 F 
ATOM     55  F   UNL A   1      35.269  34.501  27.846  1.00  0.00    -0.200 F 
ATOM     56  C   UNL A   1      34.361  32.323  27.778  1.00  0.00     0.200 A 
ATOM     57  F   UNL A   1      33.467  30.137  27.794  1.00  0.00    -0.200 F 
ATOM     58  F   UNL A   1      33.276  32.778  27.136  1.00  0.00    -0.200 F 
ENDBRANCH  24  48
BRANCH  36  59
ATOM     59  C   UNL A   1      38.921  31.918  35.661  1.00  0.00     0.064 A 
ATOM     60  C   UNL A   1      38.166  31.357  36.698  1.00  0.00     0.173 A 
ATOM     61  C   UNL A   1      39.277  33.272  35.753  1.00  0.00     0.173 A 
ATOM     62  F   UNL A   1      37.784  30.073  36.638  1.00  0.00    -0.203 F 
ATOM     63  C   UNL A   1      37.776  32.129  37.788  1.00  0.00     0.198 A 
ATOM     64  C   UNL A   1      38.903  34.035  36.854  1.00  0.00     0.198 A 
ATOM     65  F   UNL A   1      39.995  33.850  34.779  1.00  0.00    -0.203 F 
ATOM     66  F   UNL A   1      37.029  31.586  38.759  1.00  0.00    -0.200 F 
ATOM     67  C   UNL A   1      38.152  33.463  37.869  1.00  0.00     0.200 A 
ATOM     68  F   UNL A   1      39.271  35.321  36.932  1.00  0.00    -0.200 F 
ATOM     69  F   UNL A   1      37.782  34.202  38.925  1.00  0.00    -0.200 F 
ENDBRANCH  36  59
ENDBRANCH  10  11
ENDBRANCH   3   5
ENDBRANCH   2   3
ENDBRANCH   1   2
BRANCH   1  70
ATOM     70  C   UNL A   1      42.668  20.794  26.117  1.00  0.00     0.275 C 
BRANCH  70  71
ATOM     71  O   UNL A   1      41.324  20.971  25.632  1.00  0.00    -0.458 OA
BRANCH  71  72
ATOM     72  C   UNL A   1      40.398  21.161  26.611  1.00  0.00     0.342 C 
ATOM     73  O   UNL A   1      40.609  21.449  27.776  1.00  0.00    -0.246 OA
BRANCH  72  74
ATOM     74  C   UNL A   1      39.048  21.120  26.018  1.00  0.00     0.102 A 
ATOM     75  C   UNL A   1      38.678  19.908  25.422  1.00  0.00     0.020 A 
ATOM     76  C   UNL A   1      38.156  22.205  26.034  1.00  0.00     0.142 A 
ATOM     77  C   UNL A   1      37.378  19.734  24.963  1.00  0.00     0.014 A 
ATOM     78  C   UNL A   1      36.885  22.070  25.443  1.00  0.00     0.076 A 
ATOM     79  C   UNL A   1      36.478  20.804  25.009  1.00  0.00     0.037 A 
ATOM     80  C   UNL A   1      35.963  23.220  25.214  1.00  0.00     0.198 C 
ATOM     81  C   UNL A   1      35.071  20.548  24.650  1.00  0.00     0.194 C 
ATOM     82  O   UNL A   1      36.229  24.363  25.562  1.00  0.00    -0.288 OA
ATOM     83  C   UNL A   1      34.686  22.983  24.500  1.00  0.00     0.034 A 
ATOM     84  C   UNL A   1      34.214  21.689  24.309  1.00  0.00     0.034 A 
ATOM     85  O   UNL A   1      34.641  19.402  24.627  1.00  0.00    -0.289 OA
ATOM     86  C   UNL A   1      33.941  24.064  24.016  1.00  0.00     0.013 A 
ATOM     87  C   UNL A   1      32.961  21.465  23.728  1.00  0.00     0.013 A 
ATOM     88  C   UNL A   1      32.717  23.840  23.381  1.00  0.00     0.001 A 
ATOM     89  C   UNL A   1      32.211  22.545  23.266  1.00  0.00     0.001 A 
BRANCH  76  90
ATOM     90  O   UNL A   1      38.499  23.387  26.633  1.00  0.00    -0.506 OA
ATOM     91  H   UNL A   1      37.916  24.120  26.593  1.00  0.00     0.293 HD
ENDBRANCH  76  90
ENDBRANCH  72  74
ENDBRANCH  71  72
ENDBRANCH  70  71
ENDBRANCH   1  70
TORSDOF 12
ENDMDL
