MODEL 1
REMARK VINA RESULT:     -11.1      0.000      0.000
REMARK SMILES O=C(OCCOC(=O)c1ccc(-c2c3nc(c(-c4c(F)c(F)c(F)c(F)c4F)c4ccc([nH]4)c(-c4c(F)c(F)c(F)c(F)c4F)c4nc(c(-c5c(F)c(F)c(F)c(F)c5F)c5ccc2[nH]5)C=C4)C=C3)cc1)C1=Cc2ccc(Cl)c(Cl)c2O[C@@H]1C(F)(F)F
REMARK SMILES IDX 5 1 4 2 3 3 2 4 1 5 72 6 73 7 83 8 74 9 82 10 75 11 81 12
REMARK SMILES IDX 76 13 79 14 77 15 80 16 78 17 84 18 85 19 86 20 87 21 6 22
REMARK SMILES IDX 7 23 8 24 9 25 10 26 71 27 11 28 70 29 12 30 13 31 14 32
REMARK SMILES IDX 64 33 15 34 69 35 63 36 65 37 16 38 68 39 62 40 61 41 17 43
REMARK SMILES IDX 49 44 29 45 48 46 30 47 33 48 47 49 66 50 31 51 32 52 46 54
REMARK SMILES IDX 67 55 34 56 18 57 19 58 27 59 20 60 21 61 25 62 28 63 22 64
REMARK SMILES IDX 23 65 26 66 24 67 50 68 51 69 59 70 52 71 53 72 57 73 60 74
REMARK SMILES IDX 54 75 55 76 58 77 56 78 35 79 36 80 44 81 37 82 38 83 42 84
REMARK SMILES IDX 45 85 39 86 40 87 43 88 41 89
REMARK H PARENT 65 42 33 53
REMARK Flexibility Score: inf
ROOT
ATOM      1  C   UNL A   1      40.234  20.696  26.469  1.00  0.00     0.275 C 
ENDROOT
BRANCH   1   2
ATOM      2  C   UNL A   1      41.705  20.371  26.129  1.00  0.00     0.275 C 
BRANCH   2   3
ATOM      3  O   UNL A   1      42.368  21.426  25.380  1.00  0.00    -0.459 OA
BRANCH   3   4
ATOM      4  C   UNL A   1      43.726  21.522  25.438  1.00  0.00     0.338 C 
ATOM      5  O   UNL A   1      44.470  20.844  24.746  1.00  0.00    -0.246 OA
BRANCH   4   6
ATOM      6  C   UNL A   1      44.223  22.518  26.411  1.00  0.00     0.087 C 
ATOM      7  C   UNL A   1      45.542  22.760  26.391  1.00  0.00     0.027 C 
ATOM      8  C   UNL A   1      43.295  23.507  27.030  1.00  0.00     0.316 C 
ATOM      9  C   UNL A   1      45.842  24.188  26.187  1.00  0.00     0.019 A 
ATOM     10  O   UNL A   1      43.510  24.830  26.504  1.00  0.00    -0.474 OA
ATOM     11  C   UNL A   1      47.116  24.540  25.738  1.00  0.00     0.013 A 
ATOM     12  C   UNL A   1      44.789  25.124  26.088  1.00  0.00     0.148 A 
ATOM     13  C   UNL A   1      47.319  25.770  25.108  1.00  0.00     0.023 A 
ATOM     14  C   UNL A   1      44.986  26.347  25.428  1.00  0.00     0.102 A 
ATOM     15  C   UNL A   1      46.253  26.656  24.921  1.00  0.00     0.063 A 
ATOM     16  Cl  UNL A   1      43.624  27.385  25.141  1.00  0.00    -0.079 Cl
ATOM     17  Cl  UNL A   1      46.559  28.087  24.002  1.00  0.00    -0.083 Cl
BRANCH   8  18
ATOM     18  C   UNL A   1      43.301  23.464  28.565  1.00  0.00     0.430 C 
ATOM     19  F   UNL A   1      42.157  23.995  29.062  1.00  0.00    -0.167 F 
ATOM     20  F   UNL A   1      43.413  22.211  29.058  1.00  0.00    -0.167 F 
ATOM     21  F   UNL A   1      44.324  24.193  29.072  1.00  0.00    -0.167 F 
ENDBRANCH   8  18
ENDBRANCH   4   6
ENDBRANCH   3   4
ENDBRANCH   2   3
ENDBRANCH   1   2
BRANCH   1  22
ATOM     22  O   UNL A   1      40.108  21.951  27.151  1.00  0.00    -0.458 OA
BRANCH  22  23
ATOM     23  C   UNL A   1      39.314  22.843  26.511  1.00  0.00     0.338 C 
ATOM     24  O   UNL A   1      38.447  22.585  25.692  1.00  0.00    -0.246 OA
BRANCH  23  25
ATOM     25  C   UNL A   1      39.478  24.180  27.127  1.00  0.00     0.060 A 
ATOM     26  C   UNL A   1      40.060  25.173  26.333  1.00  0.00     0.016 A 
ATOM     27  C   UNL A   1      39.034  24.490  28.420  1.00  0.00     0.016 A 
ATOM     28  C   UNL A   1      40.256  26.453  26.845  1.00  0.00     0.010 A 
ATOM     29  C   UNL A   1      39.203  25.790  28.921  1.00  0.00     0.010 A 
ATOM     30  C   UNL A   1      39.858  26.766  28.152  1.00  0.00    -0.014 A 
BRANCH  30  31
ATOM     31  C   UNL A   1      40.306  28.063  28.725  1.00  0.00     0.031 A 
ATOM     32  C   UNL A   1      41.781  28.334  28.845  1.00  0.00     0.074 A 
ATOM     33  C   UNL A   1      39.424  29.042  29.005  1.00  0.00     0.049 A 
ATOM     34  N   UNL A   1      42.404  29.466  29.058  1.00  0.00    -0.248 NA
ATOM     35  C   UNL A   1      42.676  27.176  28.698  1.00  0.00     0.031 C 
ATOM     36  C   UNL A   1      37.969  28.913  28.959  1.00  0.00     0.029 A 
ATOM     37  N   UNL A   1      39.634  30.354  29.361  1.00  0.00    -0.354 N 
ATOM     38  C   UNL A   1      43.758  29.163  29.017  1.00  0.00     0.074 A 
ATOM     39  C   UNL A   1      43.868  27.730  28.853  1.00  0.00     0.031 C 
ATOM     40  C   UNL A   1      37.415  30.101  29.257  1.00  0.00     0.029 A 
ATOM     41  C   UNL A   1      38.475  31.078  29.504  1.00  0.00     0.049 A 
ATOM     42  H   UNL A   1      40.530  30.737  29.501  1.00  0.00     0.167 HD
ATOM     43  C   UNL A   1      44.820  30.001  29.067  1.00  0.00     0.037 A 
ATOM     44  C   UNL A   1      38.294  32.385  29.780  1.00  0.00     0.037 A 
ATOM     45  C   UNL A   1      44.724  31.421  29.270  1.00  0.00     0.049 A 
ATOM     46  C   UNL A   1      39.495  33.293  29.894  1.00  0.00     0.074 A 
ATOM     47  C   UNL A   1      45.740  32.355  29.352  1.00  0.00     0.029 A 
ATOM     48  N   UNL A   1      43.532  32.110  29.440  1.00  0.00    -0.354 N 
ATOM     49  N   UNL A   1      40.767  33.013  29.751  1.00  0.00    -0.248 NA
ATOM     50  C   UNL A   1      39.227  34.712  30.176  1.00  0.00     0.031 C 
ATOM     51  C   UNL A   1      45.167  33.604  29.614  1.00  0.00     0.029 A 
ATOM     52  C   UNL A   1      43.790  33.455  29.646  1.00  0.00     0.049 A 
ATOM     53  H   UNL A   1      42.636  31.703  29.419  1.00  0.00     0.167 HD
ATOM     54  C   UNL A   1      41.445  34.218  29.892  1.00  0.00     0.074 A 
ATOM     55  C   UNL A   1      40.441  35.238  30.110  1.00  0.00     0.031 C 
ATOM     56  C   UNL A   1      42.778  34.461  29.849  1.00  0.00     0.037 A 
BRANCH  43  57
ATOM     57  C   UNL A   1      46.175  29.387  28.885  1.00  0.00     0.064 A 
ATOM     58  C   UNL A   1      46.884  28.860  29.978  1.00  0.00     0.173 A 
ATOM     59  C   UNL A   1      46.777  29.327  27.621  1.00  0.00     0.173 A 
ATOM     60  F   UNL A   1      46.358  28.910  31.211  1.00  0.00    -0.203 F 
ATOM     61  C   UNL A   1      48.159  28.329  29.816  1.00  0.00     0.198 A 
ATOM     62  C   UNL A   1      48.042  28.768  27.458  1.00  0.00     0.198 A 
ATOM     63  F   UNL A   1      46.141  29.814  26.545  1.00  0.00    -0.203 F 
ATOM     64  F   UNL A   1      48.840  27.885  30.881  1.00  0.00    -0.200 F 
ATOM     65  C   UNL A   1      48.735  28.279  28.555  1.00  0.00     0.200 A 
ATOM     66  F   UNL A   1      48.596  28.714  26.239  1.00  0.00    -0.200 F 
ATOM     67  F   UNL A   1      49.966  27.771  28.400  1.00  0.00    -0.200 F 
ENDBRANCH  43  57
BRANCH  44  68
ATOM     68  C   UNL A   1      36.921  32.937  29.941  1.00  0.00     0.064 A 
ATOM     69  C   UNL A   1      36.174  33.375  28.838  1.00  0.00     0.173 A 
ATOM     70  C   UNL A   1      36.357  33.099  31.215  1.00  0.00     0.173 A 
ATOM     71  F   UNL A   1      36.681  33.265  27.601  1.00  0.00    -0.203 F 
ATOM     72  C   UNL A   1      34.934  33.987  29.005  1.00  0.00     0.198 A 
ATOM     73  C   UNL A   1      35.103  33.686  31.379  1.00  0.00     0.198 A 
ATOM     74  F   UNL A   1      37.030  32.701  32.304  1.00  0.00    -0.203 F 
ATOM     75  F   UNL A   1      34.273  34.458  27.939  1.00  0.00    -0.200 F 
ATOM     76  C   UNL A   1      34.399  34.141  30.276  1.00  0.00     0.200 A 
ATOM     77  F   UNL A   1      34.587  33.827  32.607  1.00  0.00    -0.200 F 
ATOM     78  F   UNL A   1      33.212  34.743  30.436  1.00  0.00    -0.200 F 
ENDBRANCH  44  68
BRANCH  56  79
ATOM     79  C   UNL A   1      43.230  35.886  30.006  1.00  0.00     0.064 A 
ATOM     80  C   UNL A   1      43.287  36.766  28.915  1.00  0.00     0.173 A 
ATOM     81  C   UNL A   1      43.576  36.387  31.272  1.00  0.00     0.173 A 
ATOM     82  F   UNL A   1      42.978  36.336  27.683  1.00  0.00    -0.203 F 
ATOM     83  C   UNL A   1      43.705  38.085  29.080  1.00  0.00     0.198 A 
ATOM     84  C   UNL A   1      43.962  37.713  31.437  1.00  0.00     0.198 A 
ATOM     85  F   UNL A   1      43.530  35.590  32.351  1.00  0.00    -0.203 F 
ATOM     86  F   UNL A   1      43.803  38.893  28.014  1.00  0.00    -0.200 F 
ATOM     87  C   UNL A   1      44.036  38.559  30.341  1.00  0.00     0.200 A 
ATOM     88  F   UNL A   1      44.266  38.175  32.659  1.00  0.00    -0.200 F 
ATOM     89  F   UNL A   1      44.432  39.829  30.497  1.00  0.00    -0.200 F 
ENDBRANCH  56  79
ENDBRANCH  30  31
ENDBRANCH  23  25
ENDBRANCH  22  23
ENDBRANCH   1  22
TORSDOF 12
ENDMDL
MODEL 2
REMARK VINA RESULT:     -11.1      0.104      1.662
REMARK SMILES O=C(OCCOC(=O)c1ccc(-c2c3nc(c(-c4c(F)c(F)c(F)c(F)c4F)c4ccc([nH]4)c(-c4c(F)c(F)c(F)c(F)c4F)c4nc(c(-c5c(F)c(F)c(F)c(F)c5F)c5ccc2[nH]5)C=C4)C=C3)cc1)C1=Cc2ccc(Cl)c(Cl)c2O[C@@H]1C(F)(F)F
REMARK SMILES IDX 5 1 4 2 3 3 2 4 1 5 72 6 73 7 83 8 74 9 82 10 75 11 81 12
REMARK SMILES IDX 76 13 79 14 77 15 80 16 78 17 84 18 85 19 86 20 87 21 6 22
REMARK SMILES IDX 7 23 8 24 9 25 10 26 71 27 11 28 70 29 12 30 13 31 14 32
REMARK SMILES IDX 64 33 15 34 69 35 63 36 65 37 16 38 68 39 62 40 61 41 17 43
REMARK SMILES IDX 49 44 29 45 48 46 30 47 33 48 47 49 66 50 31 51 32 52 46 54
REMARK SMILES IDX 67 55 34 56 18 57 19 58 27 59 20 60 21 61 25 62 28 63 22 64
REMARK SMILES IDX 23 65 26 66 24 67 50 68 51 69 59 70 52 71 53 72 57 73 60 74
REMARK SMILES IDX 54 75 55 76 58 77 56 78 35 79 36 80 44 81 37 82 38 83 42 84
REMARK SMILES IDX 45 85 39 86 40 87 43 88 41 89
REMARK H PARENT 65 42 33 53
REMARK Flexibility Score: inf
ROOT
ATOM      1  C   UNL A   1      40.348  20.738  26.479  1.00  0.00     0.275 C 
ENDROOT
BRANCH   1   2
ATOM      2  C   UNL A   1      41.810  20.389  26.126  1.00  0.00     0.275 C 
BRANCH   2   3
ATOM      3  O   UNL A   1      42.487  21.434  25.375  1.00  0.00    -0.459 OA
BRANCH   3   4
ATOM      4  C   UNL A   1      43.843  21.532  25.457  1.00  0.00     0.338 C 
ATOM      5  O   UNL A   1      44.600  20.839  24.793  1.00  0.00    -0.246 OA
BRANCH   4   6
ATOM      6  C   UNL A   1      44.322  22.548  26.417  1.00  0.00     0.087 C 
ATOM      7  C   UNL A   1      45.634  22.826  26.382  1.00  0.00     0.027 C 
ATOM      8  C   UNL A   1      43.373  23.517  27.038  1.00  0.00     0.316 C 
ATOM      9  C   UNL A   1      45.892  24.261  26.164  1.00  0.00     0.019 A 
ATOM     10  O   UNL A   1      43.546  24.841  26.501  1.00  0.00    -0.474 OA
ATOM     11  C   UNL A   1      47.152  24.644  25.700  1.00  0.00     0.013 A 
ATOM     12  C   UNL A   1      44.813  25.166  26.070  1.00  0.00     0.148 A 
ATOM     13  C   UNL A   1      47.314  25.874  25.060  1.00  0.00     0.023 A 
ATOM     14  C   UNL A   1      44.970  26.389  25.398  1.00  0.00     0.102 A 
ATOM     15  C   UNL A   1      46.222  26.728  24.876  1.00  0.00     0.063 A 
ATOM     16  Cl  UNL A   1      43.577  27.387  25.118  1.00  0.00    -0.079 Cl
ATOM     17  Cl  UNL A   1      46.480  28.160  23.943  1.00  0.00    -0.083 Cl
BRANCH   8  18
ATOM     18  C   UNL A   1      43.396  23.485  28.574  1.00  0.00     0.430 C 
ATOM     19  F   UNL A   1      43.399  22.205  29.024  1.00  0.00    -0.167 F 
ATOM     20  F   UNL A   1      44.476  24.101  29.099  1.00  0.00    -0.167 F 
ATOM     21  F   UNL A   1      42.295  24.080  29.093  1.00  0.00    -0.167 F 
ENDBRANCH   8  18
ENDBRANCH   4   6
ENDBRANCH   3   4
ENDBRANCH   2   3
ENDBRANCH   1   2
BRANCH   1  22
ATOM     22  O   UNL A   1      40.249  22.005  27.144  1.00  0.00    -0.458 OA
BRANCH  22  23
ATOM     23  C   UNL A   1      39.408  22.877  26.535  1.00  0.00     0.338 C 
ATOM     24  O   UNL A   1      38.517  22.596  25.750  1.00  0.00    -0.246 OA
BRANCH  23  25
ATOM     25  C   UNL A   1      39.562  24.218  27.145  1.00  0.00     0.060 A 
ATOM     26  C   UNL A   1      40.136  25.211  26.345  1.00  0.00     0.016 A 
ATOM     27  C   UNL A   1      39.118  24.531  28.436  1.00  0.00     0.016 A 
ATOM     28  C   UNL A   1      40.322  26.495  26.849  1.00  0.00     0.010 A 
ATOM     29  C   UNL A   1      39.277  25.834  28.930  1.00  0.00     0.010 A 
ATOM     30  C   UNL A   1      39.924  26.812  28.156  1.00  0.00    -0.014 A 
BRANCH  30  31
ATOM     31  C   UNL A   1      40.362  28.115  28.722  1.00  0.00     0.031 A 
ATOM     32  C   UNL A   1      41.835  28.402  28.830  1.00  0.00     0.074 A 
ATOM     33  C   UNL A   1      39.472  29.086  29.005  1.00  0.00     0.049 A 
ATOM     34  N   UNL A   1      42.448  29.541  29.036  1.00  0.00    -0.248 NA
ATOM     35  C   UNL A   1      42.741  27.252  28.681  1.00  0.00     0.031 C 
ATOM     36  C   UNL A   1      38.018  28.941  28.970  1.00  0.00     0.029 A 
ATOM     37  N   UNL A   1      39.671  30.401  29.356  1.00  0.00    -0.354 N 
ATOM     38  C   UNL A   1      43.805  29.251  28.986  1.00  0.00     0.074 A 
ATOM     39  C   UNL A   1      43.928  27.820  28.826  1.00  0.00     0.031 C 
ATOM     40  C   UNL A   1      37.454  30.125  29.268  1.00  0.00     0.029 A 
ATOM     41  C   UNL A   1      38.505  31.114  29.505  1.00  0.00     0.049 A 
ATOM     42  H   UNL A   1      40.564  30.793  29.488  1.00  0.00     0.167 HD
ATOM     43  C   UNL A   1      44.858  30.101  29.026  1.00  0.00     0.037 A 
ATOM     44  C   UNL A   1      38.313  32.420  29.778  1.00  0.00     0.037 A 
ATOM     45  C   UNL A   1      44.749  31.521  29.225  1.00  0.00     0.049 A 
ATOM     46  C   UNL A   1      39.505  33.341  29.880  1.00  0.00     0.074 A 
ATOM     47  C   UNL A   1      45.756  32.465  29.297  1.00  0.00     0.029 A 
ATOM     48  N   UNL A   1      43.551  32.197  29.402  1.00  0.00    -0.354 N 
ATOM     49  N   UNL A   1      40.779  33.073  29.730  1.00  0.00    -0.248 NA
ATOM     50  C   UNL A   1      39.225  34.757  30.161  1.00  0.00     0.031 C 
ATOM     51  C   UNL A   1      45.172  33.709  29.560  1.00  0.00     0.029 A 
ATOM     52  C   UNL A   1      43.796  33.546  29.602  1.00  0.00     0.049 A 
ATOM     53  H   UNL A   1      42.659  31.781  29.388  1.00  0.00     0.167 HD
ATOM     54  C   UNL A   1      41.445  34.285  29.863  1.00  0.00     0.074 A 
ATOM     55  C   UNL A   1      40.433  35.295  30.084  1.00  0.00     0.031 C 
ATOM     56  C   UNL A   1      42.776  34.542  29.809  1.00  0.00     0.037 A 
BRANCH  43  57
ATOM     57  C   UNL A   1      46.219  29.500  28.837  1.00  0.00     0.064 A 
ATOM     58  C   UNL A   1      46.812  29.441  27.565  1.00  0.00     0.173 A 
ATOM     59  C   UNL A   1      46.934  28.977  29.921  1.00  0.00     0.173 A 
ATOM     60  F   UNL A   1      46.160  29.914  26.492  1.00  0.00    -0.203 F 
ATOM     61  C   UNL A   1      48.056  28.846  27.382  1.00  0.00     0.198 A 
ATOM     62  C   UNL A   1      48.192  28.407  29.739  1.00  0.00     0.198 A 
ATOM     63  F   UNL A   1      46.412  29.012  31.157  1.00  0.00    -0.203 F 
ATOM     64  F   UNL A   1      48.577  28.747  26.151  1.00  0.00    -0.200 F 
ATOM     65  C   UNL A   1      48.747  28.333  28.470  1.00  0.00     0.200 A 
ATOM     66  F   UNL A   1      48.862  27.918  30.791  1.00  0.00    -0.200 F 
ATOM     67  F   UNL A   1      49.944  27.756  28.293  1.00  0.00    -0.200 F 
ENDBRANCH  43  57
BRANCH  44  68
ATOM     68  C   UNL A   1      36.936  32.957  29.947  1.00  0.00     0.064 A 
ATOM     69  C   UNL A   1      36.180  33.393  28.849  1.00  0.00     0.173 A 
ATOM     70  C   UNL A   1      36.376  33.109  31.224  1.00  0.00     0.173 A 
ATOM     71  F   UNL A   1      36.683  33.294  27.609  1.00  0.00    -0.203 F 
ATOM     72  C   UNL A   1      34.934  33.993  29.023  1.00  0.00     0.198 A 
ATOM     73  C   UNL A   1      35.116  33.683  31.395  1.00  0.00     0.198 A 
ATOM     74  F   UNL A   1      37.057  32.713  32.308  1.00  0.00    -0.203 F 
ATOM     75  F   UNL A   1      34.265  34.462  27.963  1.00  0.00    -0.200 F 
ATOM     76  C   UNL A   1      34.403  34.137  30.297  1.00  0.00     0.200 A 
ATOM     77  F   UNL A   1      34.605  33.815  32.626  1.00  0.00    -0.200 F 
ATOM     78  F   UNL A   1      33.212  34.727  30.465  1.00  0.00    -0.200 F 
ENDBRANCH  44  68
BRANCH  56  79
ATOM     79  C   UNL A   1      43.214  35.972  29.959  1.00  0.00     0.064 A 
ATOM     80  C   UNL A   1      43.640  36.488  31.193  1.00  0.00     0.173 A 
ATOM     81  C   UNL A   1      43.242  36.827  28.846  1.00  0.00     0.173 A 
ATOM     82  F   UNL A   1      43.622  35.716  32.289  1.00  0.00    -0.203 F 
ATOM     83  C   UNL A   1      44.045  37.815  31.312  1.00  0.00     0.198 A 
ATOM     84  C   UNL A   1      43.678  38.144  28.963  1.00  0.00     0.198 A 
ATOM     85  F   UNL A   1      42.854  36.383  27.641  1.00  0.00    -0.203 F 
ATOM     86  F   UNL A   1      44.397  38.300  32.512  1.00  0.00    -0.200 F 
ATOM     87  C   UNL A   1      44.071  38.640  30.198  1.00  0.00     0.200 A 
ATOM     88  F   UNL A   1      43.717  38.935  27.882  1.00  0.00    -0.200 F 
ATOM     89  F   UNL A   1      44.467  39.914  30.314  1.00  0.00    -0.200 F 
ENDBRANCH  56  79
ENDBRANCH  30  31
ENDBRANCH  23  25
ENDBRANCH  22  23
ENDBRANCH   1  22
TORSDOF 12
ENDMDL
MODEL 3
REMARK VINA RESULT:     -11.0      5.451     10.931
REMARK SMILES O=C(OCCOC(=O)c1ccc(-c2c3nc(c(-c4c(F)c(F)c(F)c(F)c4F)c4ccc([nH]4)c(-c4c(F)c(F)c(F)c(F)c4F)c4nc(c(-c5c(F)c(F)c(F)c(F)c5F)c5ccc2[nH]5)C=C4)C=C3)cc1)C1=Cc2ccc(Cl)c(Cl)c2O[C@@H]1C(F)(F)F
REMARK SMILES IDX 5 1 4 2 3 3 2 4 1 5 72 6 73 7 83 8 74 9 82 10 75 11 81 12
REMARK SMILES IDX 76 13 79 14 77 15 80 16 78 17 84 18 85 19 86 20 87 21 6 22
REMARK SMILES IDX 7 23 8 24 9 25 10 26 71 27 11 28 70 29 12 30 13 31 14 32
REMARK SMILES IDX 64 33 15 34 69 35 63 36 65 37 16 38 68 39 62 40 61 41 17 43
REMARK SMILES IDX 49 44 29 45 48 46 30 47 33 48 47 49 66 50 31 51 32 52 46 54
REMARK SMILES IDX 67 55 34 56 18 57 19 58 27 59 20 60 21 61 25 62 28 63 22 64
REMARK SMILES IDX 23 65 26 66 24 67 50 68 51 69 59 70 52 71 53 72 57 73 60 74
REMARK SMILES IDX 54 75 55 76 58 77 56 78 35 79 36 80 44 81 37 82 38 83 42 84
REMARK SMILES IDX 45 85 39 86 40 87 43 88 41 89
REMARK H PARENT 65 42 33 53
REMARK Flexibility Score: inf
ROOT
ATOM      1  C   UNL A   1      31.798  30.573  26.124  1.00  0.00     0.275 C 
ENDROOT
BRANCH   1   2
ATOM      2  C   UNL A   1      31.724  29.173  25.476  1.00  0.00     0.275 C 
BRANCH   2   3
ATOM      3  O   UNL A   1      31.988  28.091  26.410  1.00  0.00    -0.459 OA
BRANCH   3   4
ATOM      4  C   UNL A   1      31.807  26.805  25.998  1.00  0.00     0.338 C 
ATOM      5  O   UNL A   1      30.993  26.052  26.511  1.00  0.00    -0.246 OA
BRANCH   4   6
ATOM      6  C   UNL A   1      32.680  26.398  24.877  1.00  0.00     0.087 C 
ATOM      7  C   UNL A   1      33.964  26.159  25.181  1.00  0.00     0.027 C 
ATOM      8  C   UNL A   1      32.098  25.844  23.620  1.00  0.00     0.316 C 
ATOM      9  C   UNL A   1      34.388  24.807  24.777  1.00  0.00     0.019 A 
ATOM     10  O   UNL A   1      32.339  24.430  23.508  1.00  0.00    -0.474 OA
ATOM     11  C   UNL A   1      35.529  24.265  25.374  1.00  0.00     0.013 A 
ATOM     12  C   UNL A   1      33.485  23.955  24.105  1.00  0.00     0.148 A 
ATOM     13  C   UNL A   1      35.718  22.882  25.388  1.00  0.00     0.023 A 
ATOM     14  C   UNL A   1      33.660  22.562  24.146  1.00  0.00     0.102 A 
ATOM     15  C   UNL A   1      34.771  22.030  24.808  1.00  0.00     0.063 A 
ATOM     16  Cl  UNL A   1      32.425  21.533  23.489  1.00  0.00    -0.079 Cl
ATOM     17  Cl  UNL A   1      35.008  20.329  25.001  1.00  0.00    -0.083 Cl
BRANCH   8  18
ATOM     18  C   UNL A   1      32.515  26.626  22.365  1.00  0.00     0.430 C 
ATOM     19  F   UNL A   1      31.558  26.535  21.407  1.00  0.00    -0.167 F 
ATOM     20  F   UNL A   1      32.724  27.938  22.605  1.00  0.00    -0.167 F 
ATOM     21  F   UNL A   1      33.653  26.122  21.830  1.00  0.00    -0.167 F 
ENDBRANCH   8  18
ENDBRANCH   4   6
ENDBRANCH   3   4
ENDBRANCH   2   3
ENDBRANCH   1   2
BRANCH   1  22
ATOM     22  O   UNL A   1      32.632  30.576  27.291  1.00  0.00    -0.458 OA
BRANCH  22  23
ATOM     23  C   UNL A   1      33.299  31.741  27.482  1.00  0.00     0.338 C 
ATOM     24  O   UNL A   1      32.811  32.859  27.514  1.00  0.00    -0.246 OA
BRANCH  23  25
ATOM     25  C   UNL A   1      34.692  31.450  27.895  1.00  0.00     0.060 A 
ATOM     26  C   UNL A   1      35.012  30.109  28.129  1.00  0.00     0.016 A 
ATOM     27  C   UNL A   1      35.683  32.434  28.004  1.00  0.00     0.016 A 
ATOM     28  C   UNL A   1      36.298  29.756  28.529  1.00  0.00     0.010 A 
ATOM     29  C   UNL A   1      36.986  32.072  28.375  1.00  0.00     0.010 A 
ATOM     30  C   UNL A   1      37.289  30.736  28.686  1.00  0.00    -0.014 A 
BRANCH  30  31
ATOM     31  C   UNL A   1      38.563  30.340  29.341  1.00  0.00     0.031 A 
ATOM     32  C   UNL A   1      38.832  30.805  30.747  1.00  0.00     0.074 A 
ATOM     33  C   UNL A   1      39.406  29.466  28.756  1.00  0.00     0.049 A 
ATOM     34  N   UNL A   1      39.726  30.381  31.606  1.00  0.00    -0.248 NA
ATOM     35  C   UNL A   1      37.977  31.888  31.256  1.00  0.00     0.031 C 
ATOM     36  C   UNL A   1      39.284  28.953  27.393  1.00  0.00     0.029 A 
ATOM     37  N   UNL A   1      40.523  28.838  29.253  1.00  0.00    -0.354 N 
ATOM     38  C   UNL A   1      39.502  31.108  32.768  1.00  0.00     0.074 A 
ATOM     39  C   UNL A   1      38.455  32.062  32.478  1.00  0.00     0.031 C 
ATOM     40  C   UNL A   1      40.275  28.073  27.167  1.00  0.00     0.029 A 
ATOM     41  C   UNL A   1      41.096  27.953  28.371  1.00  0.00     0.049 A 
ATOM     42  H   UNL A   1      40.878  29.006  30.155  1.00  0.00     0.167 HD
ATOM     43  C   UNL A   1      40.083  30.969  33.983  1.00  0.00     0.037 A 
ATOM     44  C   UNL A   1      42.148  27.125  28.530  1.00  0.00     0.037 A 
ATOM     45  C   UNL A   1      41.152  30.052  34.272  1.00  0.00     0.049 A 
ATOM     46  C   UNL A   1      42.822  27.030  29.877  1.00  0.00     0.074 A 
ATOM     47  C   UNL A   1      41.818  29.847  35.466  1.00  0.00     0.029 A 
ATOM     48  N   UNL A   1      41.722  29.196  33.342  1.00  0.00    -0.354 N 
ATOM     49  N   UNL A   1      42.536  27.647  30.997  1.00  0.00    -0.248 NA
ATOM     50  C   UNL A   1      43.951  26.093  29.988  1.00  0.00     0.031 C 
ATOM     51  C   UNL A   1      42.821  28.897  35.250  1.00  0.00     0.029 A 
ATOM     52  C   UNL A   1      42.747  28.474  33.933  1.00  0.00     0.049 A 
ATOM     53  H   UNL A   1      41.442  29.114  32.402  1.00  0.00     0.167 HD
ATOM     54  C   UNL A   1      43.421  27.152  31.947  1.00  0.00     0.074 A 
ATOM     55  C   UNL A   1      44.241  26.165  31.278  1.00  0.00     0.031 C 
ATOM     56  C   UNL A   1      43.547  27.485  33.256  1.00  0.00     0.037 A 
BRANCH  43  57
ATOM     57  C   UNL A   1      39.552  31.831  35.088  1.00  0.00     0.064 A 
ATOM     58  C   UNL A   1      39.988  33.158  35.245  1.00  0.00     0.173 A 
ATOM     59  C   UNL A   1      38.609  31.337  36.000  1.00  0.00     0.173 A 
ATOM     60  F   UNL A   1      40.902  33.671  34.408  1.00  0.00    -0.203 F 
ATOM     61  C   UNL A   1      39.527  33.944  36.296  1.00  0.00     0.198 A 
ATOM     62  C   UNL A   1      38.128  32.136  37.034  1.00  0.00     0.198 A 
ATOM     63  F   UNL A   1      38.159  30.078  35.892  1.00  0.00    -0.203 F 
ATOM     64  F   UNL A   1      40.000  35.186  36.461  1.00  0.00    -0.200 F 
ATOM     65  C   UNL A   1      38.594  33.434  37.187  1.00  0.00     0.200 A 
ATOM     66  F   UNL A   1      37.222  31.646  37.890  1.00  0.00    -0.200 F 
ATOM     67  F   UNL A   1      38.153  34.191  38.202  1.00  0.00    -0.200 F 
ENDBRANCH  43  57
BRANCH  44  68
ATOM     68  C   UNL A   1      42.623  26.287  27.395  1.00  0.00     0.064 A 
ATOM     69  C   UNL A   1      42.105  25.005  27.165  1.00  0.00     0.173 A 
ATOM     70  C   UNL A   1      43.657  26.732  26.558  1.00  0.00     0.173 A 
ATOM     71  F   UNL A   1      41.133  24.524  27.954  1.00  0.00    -0.203 F 
ATOM     72  C   UNL A   1      42.628  24.184  26.167  1.00  0.00     0.198 A 
ATOM     73  C   UNL A   1      44.160  25.921  25.541  1.00  0.00     0.198 A 
ATOM     74  F   UNL A   1      44.190  27.949  26.737  1.00  0.00    -0.203 F 
ATOM     75  F   UNL A   1      42.161  22.938  26.013  1.00  0.00    -0.200 F 
ATOM     76  C   UNL A   1      43.654  24.644  25.355  1.00  0.00     0.200 A 
ATOM     77  F   UNL A   1      45.147  26.372  24.755  1.00  0.00    -0.200 F 
ATOM     78  F   UNL A   1      44.166  23.850  24.404  1.00  0.00    -0.200 F 
ENDBRANCH  44  68
BRANCH  56  79
ATOM     79  C   UNL A   1      44.586  26.755  34.061  1.00  0.00     0.064 A 
ATOM     80  C   UNL A   1      45.891  27.249  34.202  1.00  0.00     0.173 A 
ATOM     81  C   UNL A   1      44.259  25.564  34.729  1.00  0.00     0.173 A 
ATOM     82  F   UNL A   1      46.258  28.377  33.575  1.00  0.00    -0.203 F 
ATOM     83  C   UNL A   1      46.840  26.560  34.954  1.00  0.00     0.198 A 
ATOM     84  C   UNL A   1      45.201  24.896  35.506  1.00  0.00     0.198 A 
ATOM     85  F   UNL A   1      43.023  25.052  34.636  1.00  0.00    -0.203 F 
ATOM     86  F   UNL A   1      48.096  27.024  35.030  1.00  0.00    -0.200 F 
ATOM     87  C   UNL A   1      46.494  25.389  35.611  1.00  0.00     0.200 A 
ATOM     88  F   UNL A   1      44.861  23.773  36.153  1.00  0.00    -0.200 F 
ATOM     89  F   UNL A   1      47.406  24.733  36.339  1.00  0.00    -0.200 F 
ENDBRANCH  56  79
ENDBRANCH  30  31
ENDBRANCH  23  25
ENDBRANCH  22  23
ENDBRANCH   1  22
TORSDOF 12
ENDMDL
