MODEL 1
REMARK VINA RESULT:     -11.1      0.000      0.000
REMARK SMILES O=C(COc1ccccc1/C=N/NC(=O)C1CC1)OCCOC(=O)c1ccc(-c2c3nc(c(-c4c(F)c(F)c(F)c(F)c4F)c4ccc([nH]4)c(-c4c(F)c(F)c(F)c(F)c4F)c4nc(c(-c5c(F)c(F)c(F)c(F)c5F)c5ccc2[nH]5)C=C4)C=C3)cc1
REMARK SMILES IDX 19 1 2 2 1 3 3 4 4 5 5 6 6 7 10 8 7 9 9 10 8 11 11 12 12 13
REMARK SMILES IDX 13 14 14 15 15 17 16 18 17 19 18 20 20 21 21 22 22 23 23 24
REMARK SMILES IDX 24 25 25 26 26 27 87 28 27 29 86 30 28 31 29 32 30 33 80 34
REMARK SMILES IDX 31 35 85 36 79 37 81 38 32 39 84 40 78 41 77 42 33 44 65 45
REMARK SMILES IDX 45 46 64 47 46 48 49 49 63 50 82 51 47 52 48 53 62 55 83 56
REMARK SMILES IDX 50 57 34 58 35 59 43 60 36 61 37 62 41 63 44 64 38 65 39 66
REMARK SMILES IDX 42 67 40 68 66 69 67 70 75 71 68 72 69 73 73 74 76 75 70 76
REMARK SMILES IDX 71 77 74 78 72 79 51 80 52 81 60 82 53 83 54 84 58 85 61 86
REMARK SMILES IDX 55 87 56 88 59 89 57 90
REMARK H PARENT 13 16 81 43 49 54
REMARK Flexibility Score: inf
ROOT
ATOM      1  O   UNL A   1      32.494  30.470  26.300  1.00  0.00    -0.460 OA
ENDROOT
BRANCH   1   2
ATOM      2  C   UNL A   1      32.455  29.248  26.880  1.00  0.00     0.344 C 
ATOM      3  O   UNL A   1      31.474  28.915  27.537  1.00  0.00    -0.248 OA
BRANCH   2   4
ATOM      4  C   UNL A   1      33.569  28.273  26.543  1.00  0.00     0.352 C 
BRANCH   4   5
ATOM      5  O   UNL A   1      33.748  28.259  25.124  1.00  0.00    -0.481 OA
BRANCH   5   6
ATOM      6  C   UNL A   1      33.711  27.000  24.589  1.00  0.00     0.129 A 
ATOM      7  C   UNL A   1      34.220  25.964  25.375  1.00  0.00     0.047 A 
ATOM      8  C   UNL A   1      33.264  26.718  23.294  1.00  0.00     0.037 A 
ATOM      9  C   UNL A   1      34.259  24.657  24.878  1.00  0.00     0.004 A 
ATOM     10  C   UNL A   1      33.292  25.408  22.800  1.00  0.00     0.013 A 
ATOM     11  C   UNL A   1      33.798  24.379  23.591  1.00  0.00     0.001 A 
BRANCH   8  12
ATOM     12  C   UNL A   1      32.704  27.760  22.426  1.00  0.00     0.145 C 
ATOM     13  N   UNL A   1      31.724  28.468  22.880  1.00  0.00    -0.181 NA
BRANCH  13  14
ATOM     14  N   UNL A   1      31.240  29.419  22.039  1.00  0.00    -0.247 N 
ATOM     15  C   UNL A   1      29.897  29.737  22.006  1.00  0.00     0.243 C 
ATOM     16  H   UNL A   1      31.861  29.892  21.440  1.00  0.00     0.193 HD
ATOM     17  O   UNL A   1      29.398  30.452  21.144  1.00  0.00    -0.273 OA
BRANCH  15  18
ATOM     18  C   UNL A   1      29.094  29.262  23.168  1.00  0.00     0.080 C 
ATOM     19  C   UNL A   1      27.590  29.188  23.160  1.00  0.00     0.014 C 
ATOM     20  C   UNL A   1      28.392  27.924  23.104  1.00  0.00     0.014 C 
ENDBRANCH  15  18
ENDBRANCH  13  14
ENDBRANCH   8  12
ENDBRANCH   5   6
ENDBRANCH   4   5
ENDBRANCH   2   4
ENDBRANCH   1   2
BRANCH   1  21
ATOM     21  C   UNL A   1      31.316  31.288  26.166  1.00  0.00     0.274 C 
BRANCH  21  22
ATOM     22  C   UNL A   1      31.495  32.628  26.881  1.00  0.00     0.275 C 
BRANCH  22  23
ATOM     23  O   UNL A   1      32.875  33.049  26.790  1.00  0.00    -0.458 OA
BRANCH  23  24
ATOM     24  C   UNL A   1      33.392  33.595  27.911  1.00  0.00     0.338 C 
ATOM     25  O   UNL A   1      32.908  34.485  28.597  1.00  0.00    -0.246 OA
BRANCH  24  26
ATOM     26  C   UNL A   1      34.631  32.900  28.287  1.00  0.00     0.060 A 
ATOM     27  C   UNL A   1      34.536  31.565  28.673  1.00  0.00     0.016 A 
ATOM     28  C   UNL A   1      35.843  33.582  28.405  1.00  0.00     0.016 A 
ATOM     29  C   UNL A   1      35.640  30.911  29.223  1.00  0.00     0.010 A 
ATOM     30  C   UNL A   1      36.959  32.918  28.940  1.00  0.00     0.010 A 
ATOM     31  C   UNL A   1      36.860  31.585  29.383  1.00  0.00    -0.014 A 
BRANCH  31  32
ATOM     32  C   UNL A   1      37.985  30.926  30.109  1.00  0.00     0.031 A 
ATOM     33  C   UNL A   1      38.225  31.232  31.566  1.00  0.00     0.074 A 
ATOM     34  C   UNL A   1      38.762  30.010  29.498  1.00  0.00     0.049 A 
ATOM     35  N   UNL A   1      39.199  30.839  32.351  1.00  0.00    -0.248 NA
ATOM     36  C   UNL A   1      37.235  32.095  32.226  1.00  0.00     0.031 C 
ATOM     37  C   UNL A   1      38.615  29.567  28.113  1.00  0.00     0.029 A 
ATOM     38  N   UNL A   1      39.829  29.282  29.970  1.00  0.00    -0.354 N 
ATOM     39  C   UNL A   1      38.952  31.424  33.587  1.00  0.00     0.074 A 
ATOM     40  C   UNL A   1      37.748  32.216  33.443  1.00  0.00     0.031 C 
ATOM     41  C   UNL A   1      39.545  28.635  27.850  1.00  0.00     0.029 A 
ATOM     42  C   UNL A   1      40.390  28.453  29.029  1.00  0.00     0.049 A 
ATOM     43  H   UNL A   1      40.160  29.349  30.894  1.00  0.00     0.167 HD
ATOM     44  C   UNL A   1      39.657  31.309  34.740  1.00  0.00     0.037 A 
ATOM     45  C   UNL A   1      41.477  27.657  29.096  1.00  0.00     0.037 A 
ATOM     46  C   UNL A   1      40.841  30.504  34.903  1.00  0.00     0.049 A 
ATOM     47  C   UNL A   1      42.269  27.580  30.376  1.00  0.00     0.074 A 
ATOM     48  C   UNL A   1      41.636  30.352  36.026  1.00  0.00     0.029 A 
ATOM     49  N   UNL A   1      41.390  29.701  33.916  1.00  0.00    -0.354 N 
ATOM     50  N   UNL A   1      42.057  28.185  31.519  1.00  0.00    -0.248 NA
ATOM     51  C   UNL A   1      43.456  26.713  30.369  1.00  0.00     0.031 C 
ATOM     52  C   UNL A   1      42.685  29.480  35.711  1.00  0.00     0.029 A 
ATOM     53  C   UNL A   1      42.517  29.055  34.404  1.00  0.00     0.049 A 
ATOM     54  H   UNL A   1      41.034  29.602  33.004  1.00  0.00     0.167 HD
ATOM     55  C   UNL A   1      43.074  27.764  32.367  1.00  0.00     0.074 A 
ATOM     56  C   UNL A   1      43.885  26.829  31.617  1.00  0.00     0.031 C 
ATOM     57  C   UNL A   1      43.319  28.127  33.649  1.00  0.00     0.037 A 
BRANCH  44  58
ATOM     58  C   UNL A   1      39.177  32.099  35.923  1.00  0.00     0.064 A 
ATOM     59  C   UNL A   1      39.606  33.414  36.155  1.00  0.00     0.173 A 
ATOM     60  C   UNL A   1      38.249  31.544  36.818  1.00  0.00     0.173 A 
ATOM     61  F   UNL A   1      40.502  33.985  35.336  1.00  0.00    -0.203 F 
ATOM     62  C   UNL A   1      39.142  34.136  37.253  1.00  0.00     0.198 A 
ATOM     63  C   UNL A   1      37.766  32.278  37.899  1.00  0.00     0.198 A 
ATOM     64  F   UNL A   1      37.802  30.292  36.638  1.00  0.00    -0.203 F 
ATOM     65  F   UNL A   1      39.599  35.374  37.481  1.00  0.00    -0.200 F 
ATOM     66  C   UNL A   1      38.219  33.570  38.119  1.00  0.00     0.200 A 
ATOM     67  F   UNL A   1      36.865  31.733  38.728  1.00  0.00    -0.200 F 
ATOM     68  F   UNL A   1      37.770  34.266  39.172  1.00  0.00    -0.200 F 
ENDBRANCH  44  58
BRANCH  45  69
ATOM     69  C   UNL A   1      41.911  26.891  27.897  1.00  0.00     0.064 A 
ATOM     70  C   UNL A   1      41.442  25.591  27.655  1.00  0.00     0.173 A 
ATOM     71  C   UNL A   1      42.829  27.432  26.987  1.00  0.00     0.173 A 
ATOM     72  F   UNL A   1      40.587  25.017  28.513  1.00  0.00    -0.203 F 
ATOM     73  C   UNL A   1      41.892  24.858  26.558  1.00  0.00     0.198 A 
ATOM     74  C   UNL A   1      43.253  26.711  25.874  1.00  0.00     0.198 A 
ATOM     75  F   UNL A   1      43.313  28.670  27.175  1.00  0.00    -0.203 F 
ATOM     76  F   UNL A   1      41.470  23.598  26.379  1.00  0.00    -0.200 F 
ATOM     77  C   UNL A   1      42.791  25.420  25.665  1.00  0.00     0.200 A 
ATOM     78  F   UNL A   1      44.111  27.264  25.006  1.00  0.00    -0.200 F 
ATOM     79  F   UNL A   1      43.220  24.716  24.609  1.00  0.00    -0.200 F 
ENDBRANCH  45  69
BRANCH  57  80
ATOM     80  C   UNL A   1      44.502  27.496  34.327  1.00  0.00     0.064 A 
ATOM     81  C   UNL A   1      45.773  28.093  34.294  1.00  0.00     0.173 A 
ATOM     82  C   UNL A   1      44.364  26.287  35.025  1.00  0.00     0.173 A 
ATOM     83  F   UNL A   1      45.961  29.241  33.626  1.00  0.00    -0.203 F 
ATOM     84  C   UNL A   1      46.866  27.485  34.905  1.00  0.00     0.198 A 
ATOM     85  C   UNL A   1      45.454  25.696  35.659  1.00  0.00     0.198 A 
ATOM     86  F   UNL A   1      43.171  25.678  35.093  1.00  0.00    -0.203 F 
ATOM     87  F   UNL A   1      48.080  28.044  34.812  1.00  0.00    -0.200 F 
ATOM     88  C   UNL A   1      46.705  26.289  35.590  1.00  0.00     0.200 A 
ATOM     89  F   UNL A   1      45.296  24.546  36.329  1.00  0.00    -0.200 F 
ATOM     90  F   UNL A   1      47.760  25.704  36.174  1.00  0.00    -0.200 F 
ENDBRANCH  57  80
ENDBRANCH  31  32
ENDBRANCH  24  26
ENDBRANCH  23  24
ENDBRANCH  22  23
ENDBRANCH  21  22
ENDBRANCH   1  21
TORSDOF 16
ENDMDL
MODEL 2
REMARK VINA RESULT:     -11.0      2.311      8.213
REMARK SMILES O=C(COc1ccccc1/C=N/NC(=O)C1CC1)OCCOC(=O)c1ccc(-c2c3nc(c(-c4c(F)c(F)c(F)c(F)c4F)c4ccc([nH]4)c(-c4c(F)c(F)c(F)c(F)c4F)c4nc(c(-c5c(F)c(F)c(F)c(F)c5F)c5ccc2[nH]5)C=C4)C=C3)cc1
REMARK SMILES IDX 19 1 2 2 1 3 3 4 4 5 5 6 6 7 10 8 7 9 9 10 8 11 11 12 12 13
REMARK SMILES IDX 13 14 14 15 15 17 16 18 17 19 18 20 20 21 21 22 22 23 23 24
REMARK SMILES IDX 24 25 25 26 26 27 87 28 27 29 86 30 28 31 29 32 30 33 80 34
REMARK SMILES IDX 31 35 85 36 79 37 81 38 32 39 84 40 78 41 77 42 33 44 65 45
REMARK SMILES IDX 45 46 64 47 46 48 49 49 63 50 82 51 47 52 48 53 62 55 83 56
REMARK SMILES IDX 50 57 34 58 35 59 43 60 36 61 37 62 41 63 44 64 38 65 39 66
REMARK SMILES IDX 42 67 40 68 66 69 67 70 75 71 68 72 69 73 73 74 76 75 70 76
REMARK SMILES IDX 71 77 74 78 72 79 51 80 52 81 60 82 53 83 54 84 58 85 61 86
REMARK SMILES IDX 55 87 56 88 59 89 57 90
REMARK H PARENT 13 16 81 43 49 54
REMARK Flexibility Score: inf
ROOT
ATOM      1  O   UNL A   1      32.450  28.299  26.190  1.00  0.00    -0.460 OA
ENDROOT
BRANCH   1   2
ATOM      2  C   UNL A   1      31.742  27.341  26.832  1.00  0.00     0.344 C 
ATOM      3  O   UNL A   1      31.237  27.582  27.924  1.00  0.00    -0.248 OA
BRANCH   2   4
ATOM      4  C   UNL A   1      31.463  26.051  26.081  1.00  0.00     0.352 C 
BRANCH   4   5
ATOM      5  O   UNL A   1      32.704  25.376  25.859  1.00  0.00    -0.481 OA
BRANCH   5   6
ATOM      6  C   UNL A   1      32.880  24.988  24.558  1.00  0.00     0.129 A 
ATOM      7  C   UNL A   1      33.116  25.998  23.623  1.00  0.00     0.047 A 
ATOM      8  C   UNL A   1      32.767  23.664  24.119  1.00  0.00     0.037 A 
ATOM      9  C   UNL A   1      33.259  25.682  22.267  1.00  0.00     0.004 A 
ATOM     10  C   UNL A   1      32.921  23.346  22.765  1.00  0.00     0.013 A 
ATOM     11  C   UNL A   1      33.159  24.359  21.838  1.00  0.00     0.001 A 
BRANCH   8  12
ATOM     12  C   UNL A   1      32.537  22.557  25.055  1.00  0.00     0.145 C 
ATOM     13  N   UNL A   1      33.131  21.434  24.825  1.00  0.00    -0.181 NA
BRANCH  13  14
ATOM     14  N   UNL A   1      32.885  20.440  25.719  1.00  0.00    -0.247 N 
ATOM     15  C   UNL A   1      32.779  19.122  25.322  1.00  0.00     0.243 C 
ATOM     16  H   UNL A   1      32.781  20.665  26.672  1.00  0.00     0.193 HD
ATOM     17  O   UNL A   1      32.383  18.228  26.062  1.00  0.00    -0.273 OA
BRANCH  15  18
ATOM     18  C   UNL A   1      33.303  18.816  23.961  1.00  0.00     0.080 C 
ATOM     19  C   UNL A   1      33.292  17.434  23.362  1.00  0.00     0.014 C 
ATOM     20  C   UNL A   1      32.345  18.472  22.843  1.00  0.00     0.014 C 
ENDBRANCH  15  18
ENDBRANCH  13  14
ENDBRANCH   8  12
ENDBRANCH   5   6
ENDBRANCH   4   5
ENDBRANCH   2   4
ENDBRANCH   1   2
BRANCH   1  21
ATOM     21  C   UNL A   1      31.819  29.255  25.317  1.00  0.00     0.274 C 
BRANCH  21  22
ATOM     22  C   UNL A   1      31.737  30.632  25.979  1.00  0.00     0.275 C 
BRANCH  22  23
ATOM     23  O   UNL A   1      32.559  30.651  27.168  1.00  0.00    -0.458 OA
BRANCH  23  24
ATOM     24  C   UNL A   1      33.325  31.752  27.328  1.00  0.00     0.338 C 
ATOM     25  O   UNL A   1      32.991  32.919  27.178  1.00  0.00    -0.246 OA
BRANCH  24  26
ATOM     26  C   UNL A   1      34.658  31.373  27.816  1.00  0.00     0.060 A 
ATOM     27  C   UNL A   1      34.859  30.047  28.196  1.00  0.00     0.016 A 
ATOM     28  C   UNL A   1      35.651  32.328  28.041  1.00  0.00     0.016 A 
ATOM     29  C   UNL A   1      36.036  29.673  28.845  1.00  0.00     0.010 A 
ATOM     30  C   UNL A   1      36.844  31.946  28.677  1.00  0.00     0.010 A 
ATOM     31  C   UNL A   1      37.035  30.621  29.114  1.00  0.00    -0.014 A 
BRANCH  31  32
ATOM     32  C   UNL A   1      38.218  30.242  29.940  1.00  0.00     0.031 A 
ATOM     33  C   UNL A   1      39.278  29.334  29.369  1.00  0.00     0.074 A 
ATOM     34  C   UNL A   1      38.389  30.746  31.178  1.00  0.00     0.049 A 
ATOM     35  N   UNL A   1      40.331  28.812  29.950  1.00  0.00    -0.248 NA
ATOM     36  C   UNL A   1      39.131  28.964  27.953  1.00  0.00     0.031 C 
ATOM     37  C   UNL A   1      37.483  31.681  31.841  1.00  0.00     0.029 A 
ATOM     38  N   UNL A   1      39.393  30.546  32.096  1.00  0.00    -0.354 N 
ATOM     39  C   UNL A   1      40.957  28.037  28.981  1.00  0.00     0.074 A 
ATOM     40  C   UNL A   1      40.155  28.140  27.779  1.00  0.00     0.031 C 
ATOM     41  C   UNL A   1      37.976  31.985  33.053  1.00  0.00     0.029 A 
ATOM     42  C   UNL A   1      39.205  31.225  33.275  1.00  0.00     0.049 A 
ATOM     43  H   UNL A   1      40.173  29.970  31.925  1.00  0.00     0.167 HD
ATOM     44  C   UNL A   1      42.099  27.313  29.077  1.00  0.00     0.037 A 
ATOM     45  C   UNL A   1      39.923  31.218  34.417  1.00  0.00     0.037 A 
ATOM     46  C   UNL A   1      42.920  27.224  30.258  1.00  0.00     0.049 A 
ATOM     47  C   UNL A   1      41.165  30.369  34.513  1.00  0.00     0.074 A 
ATOM     48  C   UNL A   1      44.077  26.489  30.454  1.00  0.00     0.029 A 
ATOM     49  N   UNL A   1      42.678  27.907  31.439  1.00  0.00    -0.354 N 
ATOM     50  N   UNL A   1      41.712  29.596  33.608  1.00  0.00    -0.248 NA
ATOM     51  C   UNL A   1      41.883  30.389  35.796  1.00  0.00     0.031 C 
ATOM     52  C   UNL A   1      44.520  26.703  31.765  1.00  0.00     0.029 A 
ATOM     53  C   UNL A   1      43.662  27.606  32.370  1.00  0.00     0.049 A 
ATOM     54  H   UNL A   1      41.921  28.516  31.595  1.00  0.00     0.167 HD
ATOM     55  C   UNL A   1      42.841  29.049  34.206  1.00  0.00     0.074 A 
ATOM     56  C   UNL A   1      42.918  29.602  35.541  1.00  0.00     0.031 C 
ATOM     57  C   UNL A   1      43.729  28.160  33.697  1.00  0.00     0.037 A 
BRANCH  44  58
ATOM     58  C   UNL A   1      42.522  26.528  27.868  1.00  0.00     0.064 A 
ATOM     59  C   UNL A   1      42.013  25.247  27.605  1.00  0.00     0.173 A 
ATOM     60  C   UNL A   1      43.421  27.080  26.943  1.00  0.00     0.173 A 
ATOM     61  F   UNL A   1      41.160  24.671  28.465  1.00  0.00    -0.203 F 
ATOM     62  C   UNL A   1      42.409  24.538  26.473  1.00  0.00     0.198 A 
ATOM     63  C   UNL A   1      43.793  26.379  25.798  1.00  0.00     0.198 A 
ATOM     64  F   UNL A   1      43.932  28.303  27.144  1.00  0.00    -0.203 F 
ATOM     65  F   UNL A   1      41.945  23.299  26.264  1.00  0.00    -0.200 F 
ATOM     66  C   UNL A   1      43.292  25.107  25.568  1.00  0.00     0.200 A 
ATOM     67  F   UNL A   1      44.639  26.935  24.919  1.00  0.00    -0.200 F 
ATOM     68  F   UNL A   1      43.668  24.426  24.477  1.00  0.00    -0.200 F 
ENDBRANCH  44  58
BRANCH  45  69
ATOM     69  C   UNL A   1      39.466  32.014  35.587  1.00  0.00     0.064 A 
ATOM     70  C   UNL A   1      38.538  31.497  36.502  1.00  0.00     0.173 A 
ATOM     71  C   UNL A   1      39.926  33.323  35.794  1.00  0.00     0.173 A 
ATOM     72  F   UNL A   1      38.044  30.262  36.330  1.00  0.00    -0.203 F 
ATOM     73  C   UNL A   1      38.074  32.266  37.568  1.00  0.00     0.198 A 
ATOM     74  C   UNL A   1      39.486  34.078  36.878  1.00  0.00     0.198 A 
ATOM     75  F   UNL A   1      40.811  33.867  34.945  1.00  0.00    -0.203 F 
ATOM     76  F   UNL A   1      37.146  31.768  38.397  1.00  0.00    -0.200 F 
ATOM     77  C   UNL A   1      38.553  33.553  37.759  1.00  0.00     0.200 A 
ATOM     78  F   UNL A   1      39.963  35.317  37.066  1.00  0.00    -0.200 F 
ATOM     79  F   UNL A   1      38.110  34.291  38.786  1.00  0.00    -0.200 F 
ENDBRANCH  45  69
BRANCH  57  80
ATOM     80  C   UNL A   1      44.870  27.746  34.583  1.00  0.00     0.064 A 
ATOM     81  C   UNL A   1      44.780  26.624  35.421  1.00  0.00     0.173 A 
ATOM     82  C   UNL A   1      46.069  28.474  34.588  1.00  0.00     0.173 A 
ATOM     83  F   UNL A   1      43.649  25.904  35.465  1.00  0.00    -0.203 F 
ATOM     84  C   UNL A   1      45.836  26.266  36.255  1.00  0.00     0.198 A 
ATOM     85  C   UNL A   1      47.134  28.097  35.403  1.00  0.00     0.198 A 
ATOM     86  F   UNL A   1      46.210  29.551  33.801  1.00  0.00    -0.203 F 
ATOM     87  F   UNL A   1      45.707  25.225  37.087  1.00  0.00    -0.200 F 
ATOM     88  C   UNL A   1      47.013  27.001  36.243  1.00  0.00     0.200 A 
ATOM     89  F   UNL A   1      48.274  28.801  35.384  1.00  0.00    -0.200 F 
ATOM     90  F   UNL A   1      48.027  26.657  37.050  1.00  0.00    -0.200 F 
ENDBRANCH  57  80
ENDBRANCH  31  32
ENDBRANCH  24  26
ENDBRANCH  23  24
ENDBRANCH  22  23
ENDBRANCH  21  22
ENDBRANCH   1  21
TORSDOF 16
ENDMDL
MODEL 3
REMARK VINA RESULT:     -11.0      2.790      8.467
REMARK SMILES O=C(COc1ccccc1/C=N/NC(=O)C1CC1)OCCOC(=O)c1ccc(-c2c3nc(c(-c4c(F)c(F)c(F)c(F)c4F)c4ccc([nH]4)c(-c4c(F)c(F)c(F)c(F)c4F)c4nc(c(-c5c(F)c(F)c(F)c(F)c5F)c5ccc2[nH]5)C=C4)C=C3)cc1
REMARK SMILES IDX 19 1 2 2 1 3 3 4 4 5 5 6 6 7 10 8 7 9 9 10 8 11 11 12 12 13
REMARK SMILES IDX 13 14 14 15 15 17 16 18 17 19 18 20 20 21 21 22 22 23 23 24
REMARK SMILES IDX 24 25 25 26 26 27 87 28 27 29 86 30 28 31 29 32 30 33 80 34
REMARK SMILES IDX 31 35 85 36 79 37 81 38 32 39 84 40 78 41 77 42 33 44 65 45
REMARK SMILES IDX 45 46 64 47 46 48 49 49 63 50 82 51 47 52 48 53 62 55 83 56
REMARK SMILES IDX 50 57 34 58 35 59 43 60 36 61 37 62 41 63 44 64 38 65 39 66
REMARK SMILES IDX 42 67 40 68 66 69 67 70 75 71 68 72 69 73 73 74 76 75 70 76
REMARK SMILES IDX 71 77 74 78 72 79 51 80 52 81 60 82 53 83 54 84 58 85 61 86
REMARK SMILES IDX 55 87 56 88 59 89 57 90
REMARK H PARENT 13 16 81 43 49 54
REMARK Flexibility Score: inf
ROOT
ATOM      1  O   UNL A   1      32.661  27.453  25.663  1.00  0.00    -0.460 OA
ENDROOT
BRANCH   1   2
ATOM      2  C   UNL A   1      32.046  26.296  26.003  1.00  0.00     0.344 C 
ATOM      3  O   UNL A   1      31.184  26.296  26.876  1.00  0.00    -0.248 OA
BRANCH   2   4
ATOM      4  C   UNL A   1      32.339  25.069  25.159  1.00  0.00     0.352 C 
BRANCH   4   5
ATOM      5  O   UNL A   1      32.936  24.073  25.994  1.00  0.00    -0.481 OA
BRANCH   5   6
ATOM      6  C   UNL A   1      34.107  23.577  25.489  1.00  0.00     0.129 A 
ATOM      7  C   UNL A   1      35.110  24.504  25.192  1.00  0.00     0.047 A 
ATOM      8  C   UNL A   1      34.319  22.226  25.197  1.00  0.00     0.037 A 
ATOM      9  C   UNL A   1      36.318  24.078  24.630  1.00  0.00     0.004 A 
ATOM     10  C   UNL A   1      35.531  21.797  24.644  1.00  0.00     0.013 A 
ATOM     11  C   UNL A   1      36.528  22.726  24.353  1.00  0.00     0.001 A 
BRANCH   8  12
ATOM     12  C   UNL A   1      33.311  21.203  25.501  1.00  0.00     0.145 C 
ATOM     13  N   UNL A   1      33.691  19.969  25.543  1.00  0.00    -0.181 NA
BRANCH  13  14
ATOM     14  N   UNL A   1      32.722  19.061  25.828  1.00  0.00    -0.247 N 
ATOM     15  C   UNL A   1      32.723  17.803  25.257  1.00  0.00     0.243 C 
ATOM     16  H   UNL A   1      32.004  19.304  26.455  1.00  0.00     0.193 HD
ATOM     17  O   UNL A   1      31.778  17.026  25.346  1.00  0.00    -0.273 OA
BRANCH  15  18
ATOM     18  C   UNL A   1      34.005  17.383  24.626  1.00  0.00     0.080 C 
ATOM     19  C   UNL A   1      34.317  15.957  24.257  1.00  0.00     0.014 C 
ATOM     20  C   UNL A   1      34.028  16.953  23.176  1.00  0.00     0.014 C 
ENDBRANCH  15  18
ENDBRANCH  13  14
ENDBRANCH   8  12
ENDBRANCH   5   6
ENDBRANCH   4   5
ENDBRANCH   2   4
ENDBRANCH   1   2
BRANCH   1  21
ATOM     21  C   UNL A   1      32.081  28.374  24.719  1.00  0.00     0.274 C 
BRANCH  21  22
ATOM     22  C   UNL A   1      31.735  29.703  25.393  1.00  0.00     0.275 C 
BRANCH  22  23
ATOM     23  O   UNL A   1      32.385  29.781  26.682  1.00  0.00    -0.458 OA
BRANCH  23  24
ATOM     24  C   UNL A   1      32.967  30.965  26.970  1.00  0.00     0.338 C 
ATOM     25  O   UNL A   1      32.465  32.078  26.896  1.00  0.00    -0.246 OA
BRANCH  24  26
ATOM     26  C   UNL A   1      34.321  30.747  27.497  1.00  0.00     0.060 A 
ATOM     27  C   UNL A   1      34.746  29.432  27.675  1.00  0.00     0.016 A 
ATOM     28  C   UNL A   1      35.107  31.808  27.950  1.00  0.00     0.016 A 
ATOM     29  C   UNL A   1      35.939  29.164  28.349  1.00  0.00     0.010 A 
ATOM     30  C   UNL A   1      36.316  31.539  28.611  1.00  0.00     0.010 A 
ATOM     31  C   UNL A   1      36.729  30.212  28.844  1.00  0.00    -0.014 A 
BRANCH  31  32
ATOM     32  C   UNL A   1      37.920  29.911  29.692  1.00  0.00     0.031 A 
ATOM     33  C   UNL A   1      39.015  29.019  29.164  1.00  0.00     0.074 A 
ATOM     34  C   UNL A   1      38.064  30.471  30.909  1.00  0.00     0.049 A 
ATOM     35  N   UNL A   1      40.082  28.560  29.772  1.00  0.00    -0.248 NA
ATOM     36  C   UNL A   1      38.891  28.587  27.764  1.00  0.00     0.031 C 
ATOM     37  C   UNL A   1      37.120  31.398  31.529  1.00  0.00     0.029 A 
ATOM     38  N   UNL A   1      39.068  30.345  31.840  1.00  0.00    -0.354 N 
ATOM     39  C   UNL A   1      40.743  27.770  28.838  1.00  0.00     0.074 A 
ATOM     40  C   UNL A   1      39.946  27.794  27.629  1.00  0.00     0.031 C 
ATOM     41  C   UNL A   1      37.594  31.769  32.729  1.00  0.00     0.029 A 
ATOM     42  C   UNL A   1      38.847  31.064  32.989  1.00  0.00     0.049 A 
ATOM     43  H   UNL A   1      39.869  29.791  31.697  1.00  0.00     0.167 HD
ATOM     44  C   UNL A   1      41.910  27.092  28.970  1.00  0.00     0.037 A 
ATOM     45  C   UNL A   1      39.557  31.129  34.134  1.00  0.00     0.037 A 
ATOM     46  C   UNL A   1      42.725  27.081  30.158  1.00  0.00     0.049 A 
ATOM     47  C   UNL A   1      40.828  30.331  34.272  1.00  0.00     0.074 A 
ATOM     48  C   UNL A   1      43.906  26.397  30.391  1.00  0.00     0.029 A 
ATOM     49  N   UNL A   1      42.450  27.802  31.310  1.00  0.00    -0.354 N 
ATOM     50  N   UNL A   1      41.409  29.542  33.402  1.00  0.00    -0.248 NA
ATOM     51  C   UNL A   1      41.536  30.429  35.557  1.00  0.00     0.031 C 
ATOM     52  C   UNL A   1      44.332  26.681  31.694  1.00  0.00     0.029 A 
ATOM     53  C   UNL A   1      43.438  27.576  32.258  1.00  0.00     0.049 A 
ATOM     54  H   UNL A   1      41.671  28.389  31.436  1.00  0.00     0.167 HD
ATOM     55  C   UNL A   1      42.553  29.061  34.028  1.00  0.00     0.074 A 
ATOM     56  C   UNL A   1      42.601  29.670  35.340  1.00  0.00     0.031 C 
ATOM     57  C   UNL A   1      43.476  28.185  33.561  1.00  0.00     0.037 A 
BRANCH  44  58
ATOM     58  C   UNL A   1      42.369  26.274  27.797  1.00  0.00     0.064 A 
ATOM     59  C   UNL A   1      41.850  24.996  27.540  1.00  0.00     0.173 A 
ATOM     60  C   UNL A   1      43.315  26.791  26.899  1.00  0.00     0.173 A 
ATOM     61  F   UNL A   1      40.952  24.453  28.376  1.00  0.00    -0.203 F 
ATOM     62  C   UNL A   1      42.280  24.257  26.440  1.00  0.00     0.198 A 
ATOM     63  C   UNL A   1      43.722  26.060  25.786  1.00  0.00     0.198 A 
ATOM     64  F   UNL A   1      43.838  28.011  27.095  1.00  0.00    -0.203 F 
ATOM     65  F   UNL A   1      41.804  23.021  26.238  1.00  0.00    -0.200 F 
ATOM     66  C   UNL A   1      43.210  24.792  25.562  1.00  0.00     0.200 A 
ATOM     67  F   UNL A   1      44.613  26.584  24.931  1.00  0.00    -0.200 F 
ATOM     68  F   UNL A   1      43.619  24.081  24.502  1.00  0.00    -0.200 F 
ENDBRANCH  44  58
BRANCH  45  69
ATOM     69  C   UNL A   1      39.064  31.956  35.268  1.00  0.00     0.064 A 
ATOM     70  C   UNL A   1      39.358  33.324  35.354  1.00  0.00     0.173 A 
ATOM     71  C   UNL A   1      38.313  31.385  36.306  1.00  0.00     0.173 A 
ATOM     72  F   UNL A   1      40.099  33.911  34.402  1.00  0.00    -0.203 F 
ATOM     73  C   UNL A   1      38.937  34.084  36.444  1.00  0.00     0.198 A 
ATOM     74  C   UNL A   1      37.866  32.151  37.379  1.00  0.00     0.198 A 
ATOM     75  F   UNL A   1      38.009  30.078  36.275  1.00  0.00    -0.203 F 
ATOM     76  F   UNL A   1      39.278  35.377  36.529  1.00  0.00    -0.200 F 
ATOM     77  C   UNL A   1      38.186  33.498  37.452  1.00  0.00     0.200 A 
ATOM     78  F   UNL A   1      37.128  31.584  38.343  1.00  0.00    -0.200 F 
ATOM     79  F   UNL A   1      37.778  34.229  38.498  1.00  0.00    -0.200 F 
ENDBRANCH  45  69
BRANCH  57  80
ATOM     80  C   UNL A   1      44.625  27.850  34.469  1.00  0.00     0.064 A 
ATOM     81  C   UNL A   1      45.804  28.612  34.474  1.00  0.00     0.173 A 
ATOM     82  C   UNL A   1      44.544  26.761  35.350  1.00  0.00     0.173 A 
ATOM     83  F   UNL A   1      45.938  29.653  33.639  1.00  0.00    -0.203 F 
ATOM     84  C   UNL A   1      46.871  28.275  35.303  1.00  0.00     0.198 A 
ATOM     85  C   UNL A   1      45.603  26.444  36.198  1.00  0.00     0.198 A 
ATOM     86  F   UNL A   1      43.438  26.004  35.390  1.00  0.00    -0.203 F 
ATOM     87  F   UNL A   1      48.007  28.983  35.250  1.00  0.00    -0.200 F 
ATOM     88  C   UNL A   1      46.768  27.194  36.167  1.00  0.00     0.200 A 
ATOM     89  F   UNL A   1      45.499  25.405  37.039  1.00  0.00    -0.200 F 
ATOM     90  F   UNL A   1      47.798  26.870  36.961  1.00  0.00    -0.200 F 
ENDBRANCH  57  80
ENDBRANCH  31  32
ENDBRANCH  24  26
ENDBRANCH  23  24
ENDBRANCH  22  23
ENDBRANCH  21  22
ENDBRANCH   1  21
TORSDOF 16
ENDMDL
