MODEL 1
REMARK VINA RESULT:     -11.8      0.000      0.000
REMARK SMILES COc1ccc(/C=C/c2cc(OC)cc(OC)c2/C=C/C(=O)OCCOC(=O)c2ccc(-c3c4nc(c(-c5c(F)c(F)c(F)c(F)c5F)c5ccc([nH]5)c(-c5c(F)c(F)c(F)c(F)c5F)c5nc(c(-c6c(F)c(F)c(F)c(F)c6F)c6ccc3[nH]6)C=C5)C=C4)cc2)cc1
REMARK SMILES IDX 24 1 23 2 21 3 22 4 20 5 19 6 18 7 9 8 10 9 11 10 15 11
REMARK SMILES IDX 14 12 8 13 7 14 6 15 3 16 4 17 93 18 5 19 92 20 2 21 1 22
REMARK SMILES IDX 12 23 13 24 16 25 17 26 25 27 26 28 27 29 28 30 29 31 30 32
REMARK SMILES IDX 91 33 31 34 90 35 32 36 33 37 34 38 84 39 35 40 89 41 83 42
REMARK SMILES IDX 85 43 36 44 88 45 82 46 81 47 37 49 69 50 49 51 68 52 50 53
REMARK SMILES IDX 53 54 67 55 86 56 51 57 52 58 66 60 87 61 54 62 38 63 39 64
REMARK SMILES IDX 47 65 40 66 41 67 45 68 48 69 42 70 43 71 46 72 44 73 70 74
REMARK SMILES IDX 71 75 79 76 72 77 73 78 77 79 80 80 74 81 75 82 78 83 76 84
REMARK SMILES IDX 55 85 56 86 64 87 57 88 58 89 62 90 65 91 59 92 60 93 63 94
REMARK SMILES IDX 61 95
REMARK H PARENT 85 48 53 59
REMARK Flexibility Score: inf
ROOT
ATOM      1  C   UNL A   1      31.755  29.980  25.906  1.00  0.00     0.275 C 
ENDROOT
BRANCH   1   2
ATOM      2  O   UNL A   1      32.524  29.185  26.831  1.00  0.00    -0.459 OA
BRANCH   2   3
ATOM      3  C   UNL A   1      31.942  28.041  27.263  1.00  0.00     0.330 C 
ATOM      4  O   UNL A   1      31.344  27.887  28.318  1.00  0.00    -0.247 OA
BRANCH   3   5
ATOM      5  C   UNL A   1      32.106  26.923  26.310  1.00  0.00     0.094 C 
ATOM      6  C   UNL A   1      31.468  25.746  26.392  1.00  0.00     0.020 C 
BRANCH   6   7
ATOM      7  C   UNL A   1      31.639  24.656  25.404  1.00  0.00     0.024 A 
ATOM      8  C   UNL A   1      30.968  24.724  24.162  1.00  0.00    -0.011 A 
ATOM      9  C   UNL A   1      31.071  23.659  23.249  1.00  0.00     0.055 A 
ATOM     10  C   UNL A   1      31.827  22.522  23.539  1.00  0.00     0.123 A 
ATOM     11  C   UNL A   1      32.410  23.505  25.668  1.00  0.00     0.130 A 
ATOM     12  C   UNL A   1      32.517  22.460  24.742  1.00  0.00     0.093 A 
BRANCH   8  13
ATOM     13  C   UNL A   1      30.122  25.860  23.757  1.00  0.00     0.009 C 
ATOM     14  C   UNL A   1      30.613  26.952  23.149  1.00  0.00     0.009 C 
BRANCH  14  15
ATOM     15  C   UNL A   1      29.815  28.125  22.765  1.00  0.00    -0.025 A 
ATOM     16  C   UNL A   1      28.216  30.352  22.118  1.00  0.00     0.118 A 
ATOM     17  C   UNL A   1      29.572  30.344  21.803  1.00  0.00     0.047 A 
ATOM     18  C   UNL A   1      27.646  29.241  22.737  1.00  0.00     0.047 A 
ATOM     19  C   UNL A   1      30.371  29.248  22.140  1.00  0.00     0.012 A 
ATOM     20  C   UNL A   1      28.445  28.138  23.063  1.00  0.00     0.012 A 
BRANCH  16  21
ATOM     21  O   UNL A   1      27.525  31.471  21.740  1.00  0.00    -0.497 OA
ATOM     22  C   UNL A   1      27.918  32.009  20.482  1.00  0.00     0.278 C 
ENDBRANCH  16  21
ENDBRANCH  14  15
ENDBRANCH   8  13
BRANCH  10  23
ATOM     23  O   UNL A   1      31.826  21.555  22.572  1.00  0.00    -0.497 OA
ATOM     24  C   UNL A   1      32.260  20.259  22.973  1.00  0.00     0.278 C 
ENDBRANCH  10  23
BRANCH  11  25
ATOM     25  O   UNL A   1      33.161  23.343  26.802  1.00  0.00    -0.496 OA
ATOM     26  C   UNL A   1      34.370  22.637  26.548  1.00  0.00     0.278 C 
ENDBRANCH  11  25
ENDBRANCH   6   7
ENDBRANCH   3   5
ENDBRANCH   2   3
ENDBRANCH   1   2
BRANCH   1  27
ATOM     27  C   UNL A   1      31.776  31.452  26.308  1.00  0.00     0.275 C 
BRANCH  27  28
ATOM     28  O   UNL A   1      32.485  31.604  27.550  1.00  0.00    -0.458 OA
BRANCH  28  29
ATOM     29  C   UNL A   1      33.381  32.611  27.590  1.00  0.00     0.338 C 
ATOM     30  O   UNL A   1      33.183  33.805  27.407  1.00  0.00    -0.246 OA
BRANCH  29  31
ATOM     31  C   UNL A   1      34.698  32.088  27.970  1.00  0.00     0.060 A 
ATOM     32  C   UNL A   1      34.815  30.730  28.240  1.00  0.00     0.016 A 
ATOM     33  C   UNL A   1      35.761  32.951  28.235  1.00  0.00     0.016 A 
ATOM     34  C   UNL A   1      35.952  30.250  28.889  1.00  0.00     0.010 A 
ATOM     35  C   UNL A   1      36.943  32.444  28.793  1.00  0.00     0.010 A 
ATOM     36  C   UNL A   1      37.035  31.095  29.181  1.00  0.00    -0.014 A 
BRANCH  36  37
ATOM     37  C   UNL A   1      38.217  30.566  29.932  1.00  0.00     0.031 A 
ATOM     38  C   UNL A   1      38.422  30.896  31.392  1.00  0.00     0.074 A 
ATOM     39  C   UNL A   1      39.092  29.734  29.330  1.00  0.00     0.049 A 
ATOM     40  N   UNL A   1      39.434  30.605  32.176  1.00  0.00    -0.248 NA
ATOM     41  C   UNL A   1      37.360  31.662  32.061  1.00  0.00     0.031 C 
ATOM     42  C   UNL A   1      39.018  29.291  27.937  1.00  0.00     0.029 A 
ATOM     43  N   UNL A   1      40.201  29.085  29.821  1.00  0.00    -0.354 N 
ATOM     44  C   UNL A   1      39.159  31.201  33.401  1.00  0.00     0.074 A 
ATOM     45  C   UNL A   1      37.883  31.870  33.262  1.00  0.00     0.031 C 
ATOM     46  C   UNL A   1      39.989  28.396  27.705  1.00  0.00     0.029 A 
ATOM     47  C   UNL A   1      40.811  28.265  28.904  1.00  0.00     0.049 A 
ATOM     48  H   UNL A   1      40.527  29.200  30.743  1.00  0.00     0.167 HD
ATOM     49  C   UNL A   1      39.897  31.192  34.538  1.00  0.00     0.037 A 
ATOM     50  C   UNL A   1      41.923  27.510  28.996  1.00  0.00     0.037 A 
ATOM     51  C   UNL A   1      41.131  30.470  34.713  1.00  0.00     0.049 A 
ATOM     52  C   UNL A   1      42.720  27.512  30.269  1.00  0.00     0.074 A 
ATOM     53  C   UNL A   1      41.932  30.389  35.839  1.00  0.00     0.029 A 
ATOM     54  N   UNL A   1      41.733  29.684  33.742  1.00  0.00    -0.354 N 
ATOM     55  N   UNL A   1      42.476  28.131  31.397  1.00  0.00    -0.248 NA
ATOM     56  C   UNL A   1      43.964  26.727  30.271  1.00  0.00     0.031 C 
ATOM     57  C   UNL A   1      43.033  29.577  35.544  1.00  0.00     0.029 A 
ATOM     58  C   UNL A   1      42.899  29.124  34.242  1.00  0.00     0.049 A 
ATOM     59  H   UNL A   1      41.384  29.545  32.831  1.00  0.00     0.167 HD
ATOM     60  C   UNL A   1      43.532  27.816  32.239  1.00  0.00     0.074 A 
ATOM     61  C   UNL A   1      44.404  26.924  31.506  1.00  0.00     0.031 C 
ATOM     62  C   UNL A   1      43.765  28.243  33.504  1.00  0.00     0.037 A 
BRANCH  49  63
ATOM     63  C   UNL A   1      39.408  32.015  35.693  1.00  0.00     0.064 A 
ATOM     64  C   UNL A   1      38.500  31.510  36.633  1.00  0.00     0.173 A 
ATOM     65  C   UNL A   1      39.907  33.313  35.892  1.00  0.00     0.173 A 
ATOM     66  F   UNL A   1      37.986  30.280  36.482  1.00  0.00    -0.203 F 
ATOM     67  C   UNL A   1      38.094  32.280  37.721  1.00  0.00     0.198 A 
ATOM     68  C   UNL A   1      39.517  34.070  36.994  1.00  0.00     0.198 A 
ATOM     69  F   UNL A   1      40.784  33.839  35.025  1.00  0.00    -0.203 F 
ATOM     70  F   UNL A   1      37.198  31.790  38.590  1.00  0.00    -0.200 F 
ATOM     71  C   UNL A   1      38.608  33.556  37.905  1.00  0.00     0.200 A 
ATOM     72  F   UNL A   1      40.026  35.298  37.175  1.00  0.00    -0.200 F 
ATOM     73  F   UNL A   1      38.225  34.291  38.958  1.00  0.00    -0.200 F 
ENDBRANCH  49  63
BRANCH  50  74
ATOM     74  C   UNL A   1      42.365  26.705  27.829  1.00  0.00     0.064 A 
ATOM     75  C   UNL A   1      43.284  27.220  26.904  1.00  0.00     0.173 A 
ATOM     76  C   UNL A   1      41.882  25.405  27.617  1.00  0.00     0.173 A 
ATOM     77  F   UNL A   1      43.749  28.470  27.049  1.00  0.00    -0.203 F 
ATOM     78  C   UNL A   1      43.700  26.466  25.809  1.00  0.00     0.198 A 
ATOM     79  C   UNL A   1      42.322  24.641  26.538  1.00  0.00     0.198 A 
ATOM     80  F   UNL A   1      40.997  24.870  28.470  1.00  0.00    -0.203 F 
ATOM     81  F   UNL A   1      44.551  26.995  24.919  1.00  0.00    -0.200 F 
ATOM     82  C   UNL A   1      43.227  25.174  25.633  1.00  0.00     0.200 A 
ATOM     83  F   UNL A   1      41.872  23.390  26.379  1.00  0.00    -0.200 F 
ATOM     84  F   UNL A   1      43.635  24.446  24.585  1.00  0.00    -0.200 F 
ENDBRANCH  50  74
BRANCH  62  85
ATOM     85  C   UNL A   1      45.009  27.743  34.174  1.00  0.00     0.064 A 
ATOM     86  C   UNL A   1      45.014  26.543  34.899  1.00  0.00     0.173 A 
ATOM     87  C   UNL A   1      46.210  28.462  34.080  1.00  0.00     0.173 A 
ATOM     88  F   UNL A   1      43.885  25.830  35.031  1.00  0.00    -0.203 F 
ATOM     89  C   UNL A   1      46.172  26.092  35.529  1.00  0.00     0.198 A 
ATOM     90  C   UNL A   1      47.371  27.997  34.693  1.00  0.00     0.198 A 
ATOM     91  F   UNL A   1      46.257  29.614  33.396  1.00  0.00    -0.203 F 
ATOM     92  F   UNL A   1      46.143  24.966  36.255  1.00  0.00    -0.200 F 
ATOM     93  C   UNL A   1      47.349  26.818  35.422  1.00  0.00     0.200 A 
ATOM     94  F   UNL A   1      48.510  28.695  34.583  1.00  0.00    -0.200 F 
ATOM     95  F   UNL A   1      48.461  26.384  36.030  1.00  0.00    -0.200 F 
ENDBRANCH  62  85
ENDBRANCH  36  37
ENDBRANCH  29  31
ENDBRANCH  28  29
ENDBRANCH  27  28
ENDBRANCH   1  27
TORSDOF 17
ENDMDL
MODEL 2
REMARK VINA RESULT:     -11.6      0.482      7.327
REMARK SMILES COc1ccc(/C=C/c2cc(OC)cc(OC)c2/C=C/C(=O)OCCOC(=O)c2ccc(-c3c4nc(c(-c5c(F)c(F)c(F)c(F)c5F)c5ccc([nH]5)c(-c5c(F)c(F)c(F)c(F)c5F)c5nc(c(-c6c(F)c(F)c(F)c(F)c6F)c6ccc3[nH]6)C=C5)C=C4)cc2)cc1
REMARK SMILES IDX 24 1 23 2 21 3 22 4 20 5 19 6 18 7 9 8 10 9 11 10 15 11
REMARK SMILES IDX 14 12 8 13 7 14 6 15 3 16 4 17 93 18 5 19 92 20 2 21 1 22
REMARK SMILES IDX 12 23 13 24 16 25 17 26 25 27 26 28 27 29 28 30 29 31 30 32
REMARK SMILES IDX 91 33 31 34 90 35 32 36 33 37 34 38 84 39 35 40 89 41 83 42
REMARK SMILES IDX 85 43 36 44 88 45 82 46 81 47 37 49 69 50 49 51 68 52 50 53
REMARK SMILES IDX 53 54 67 55 86 56 51 57 52 58 66 60 87 61 54 62 38 63 39 64
REMARK SMILES IDX 47 65 40 66 41 67 45 68 48 69 42 70 43 71 46 72 44 73 70 74
REMARK SMILES IDX 71 75 79 76 72 77 73 78 77 79 80 80 74 81 75 82 78 83 76 84
REMARK SMILES IDX 55 85 56 86 64 87 57 88 58 89 62 90 65 91 59 92 60 93 63 94
REMARK SMILES IDX 61 95
REMARK H PARENT 85 48 53 59
REMARK Flexibility Score: inf
ROOT
ATOM      1  C   UNL A   1      31.708  29.911  25.897  1.00  0.00     0.275 C 
ENDROOT
BRANCH   1   2
ATOM      2  O   UNL A   1      32.529  29.128  26.786  1.00  0.00    -0.459 OA
BRANCH   2   3
ATOM      3  C   UNL A   1      31.962  28.005  27.290  1.00  0.00     0.330 C 
ATOM      4  O   UNL A   1      31.332  27.919  28.333  1.00  0.00    -0.247 OA
BRANCH   3   5
ATOM      5  C   UNL A   1      32.189  26.820  26.436  1.00  0.00     0.094 C 
ATOM      6  C   UNL A   1      31.289  25.851  26.216  1.00  0.00     0.020 C 
BRANCH   6   7
ATOM      7  C   UNL A   1      31.543  24.688  25.334  1.00  0.00     0.024 A 
ATOM      8  C   UNL A   1      31.371  24.817  23.938  1.00  0.00    -0.011 A 
ATOM      9  C   UNL A   1      31.542  23.698  23.103  1.00  0.00     0.055 A 
ATOM     10  C   UNL A   1      31.881  22.447  23.622  1.00  0.00     0.123 A 
ATOM     11  C   UNL A   1      31.902  23.419  25.834  1.00  0.00     0.130 A 
ATOM     12  C   UNL A   1      32.085  22.318  24.989  1.00  0.00     0.093 A 
BRANCH   8  13
ATOM     13  C   UNL A   1      30.988  26.079  23.280  1.00  0.00     0.009 C 
ATOM     14  C   UNL A   1      29.911  26.791  23.647  1.00  0.00     0.009 C 
BRANCH  14  15
ATOM     15  C   UNL A   1      29.468  28.032  22.994  1.00  0.00    -0.025 A 
ATOM     16  C   UNL A   1      28.701  30.394  21.665  1.00  0.00     0.118 A 
ATOM     17  C   UNL A   1      27.759  29.639  22.357  1.00  0.00     0.047 A 
ATOM     18  C   UNL A   1      30.034  29.986  21.650  1.00  0.00     0.047 A 
ATOM     19  C   UNL A   1      28.134  28.457  23.003  1.00  0.00     0.012 A 
ATOM     20  C   UNL A   1      30.411  28.809  22.306  1.00  0.00     0.012 A 
BRANCH  16  21
ATOM     21  O   UNL A   1      28.230  31.534  21.074  1.00  0.00    -0.497 OA
ATOM     22  C   UNL A   1      28.104  32.645  21.956  1.00  0.00     0.278 C 
ENDBRANCH  16  21
ENDBRANCH  14  15
ENDBRANCH   8  13
BRANCH  10  23
ATOM     23  O   UNL A   1      31.998  21.443  22.701  1.00  0.00    -0.497 OA
ATOM     24  C   UNL A   1      32.300  20.148  23.213  1.00  0.00     0.278 C 
ENDBRANCH  10  23
BRANCH  11  25
ATOM     25  O   UNL A   1      32.162  23.174  27.157  1.00  0.00    -0.496 OA
ATOM     26  C   UNL A   1      33.539  22.900  27.390  1.00  0.00     0.278 C 
ENDBRANCH  11  25
ENDBRANCH   6   7
ENDBRANCH   3   5
ENDBRANCH   2   3
ENDBRANCH   1   2
BRANCH   1  27
ATOM     27  C   UNL A   1      31.686  31.375  26.325  1.00  0.00     0.275 C 
BRANCH  27  28
ATOM     28  O   UNL A   1      32.437  31.533  27.542  1.00  0.00    -0.458 OA
BRANCH  28  29
ATOM     29  C   UNL A   1      33.338  32.536  27.545  1.00  0.00     0.338 C 
ATOM     30  O   UNL A   1      33.151  33.720  27.297  1.00  0.00    -0.246 OA
BRANCH  29  31
ATOM     31  C   UNL A   1      34.646  32.026  27.972  1.00  0.00     0.060 A 
ATOM     32  C   UNL A   1      34.747  30.686  28.325  1.00  0.00     0.016 A 
ATOM     33  C   UNL A   1      35.714  32.894  28.197  1.00  0.00     0.016 A 
ATOM     34  C   UNL A   1      35.872  30.237  29.017  1.00  0.00     0.010 A 
ATOM     35  C   UNL A   1      36.884  32.412  28.800  1.00  0.00     0.010 A 
ATOM     36  C   UNL A   1      36.960  31.089  29.270  1.00  0.00    -0.014 A 
BRANCH  36  37
ATOM     37  C   UNL A   1      38.127  30.596  30.066  1.00  0.00     0.031 A 
ATOM     38  C   UNL A   1      39.177  29.707  29.439  1.00  0.00     0.074 A 
ATOM     39  C   UNL A   1      38.294  30.987  31.347  1.00  0.00     0.049 A 
ATOM     40  N   UNL A   1      40.203  29.111  30.001  1.00  0.00    -0.248 NA
ATOM     41  C   UNL A   1      39.057  29.443  27.998  1.00  0.00     0.031 C 
ATOM     42  C   UNL A   1      37.391  31.867  32.088  1.00  0.00     0.029 A 
ATOM     43  N   UNL A   1      39.300  30.718  32.246  1.00  0.00    -0.354 N 
ATOM     44  C   UNL A   1      40.807  28.358  29.000  1.00  0.00     0.074 A 
ATOM     45  C   UNL A   1      40.037  28.573  27.794  1.00  0.00     0.031 C 
ATOM     46  C   UNL A   1      37.913  32.122  33.296  1.00  0.00     0.029 A 
ATOM     47  C   UNL A   1      39.143  31.353  33.454  1.00  0.00     0.049 A 
ATOM     48  H   UNL A   1      40.059  30.124  32.044  1.00  0.00     0.167 HD
ATOM     49  C   UNL A   1      41.902  27.563  29.076  1.00  0.00     0.037 A 
ATOM     50  C   UNL A   1      39.885  31.309  34.578  1.00  0.00     0.037 A 
ATOM     51  C   UNL A   1      42.721  27.399  30.249  1.00  0.00     0.049 A 
ATOM     52  C   UNL A   1      41.098  30.425  34.634  1.00  0.00     0.074 A 
ATOM     53  C   UNL A   1      43.861  26.629  30.406  1.00  0.00     0.029 A 
ATOM     54  N   UNL A   1      42.501  28.031  31.463  1.00  0.00    -0.354 N 
ATOM     55  N   UNL A   1      41.618  29.673  33.696  1.00  0.00    -0.248 NA
ATOM     56  C   UNL A   1      41.813  30.365  35.918  1.00  0.00     0.031 C 
ATOM     57  C   UNL A   1      44.317  26.774  31.721  1.00  0.00     0.029 A 
ATOM     58  C   UNL A   1      43.479  27.662  32.374  1.00  0.00     0.049 A 
ATOM     59  H   UNL A   1      41.759  28.652  31.650  1.00  0.00     0.167 HD
ATOM     60  C   UNL A   1      42.714  29.050  34.274  1.00  0.00     0.074 A 
ATOM     61  C   UNL A   1      42.807  29.536  35.634  1.00  0.00     0.031 C 
ATOM     62  C   UNL A   1      43.560  28.144  33.727  1.00  0.00     0.037 A 
BRANCH  49  63
ATOM     63  C   UNL A   1      42.277  26.776  27.854  1.00  0.00     0.064 A 
ATOM     64  C   UNL A   1      43.219  27.244  26.929  1.00  0.00     0.173 A 
ATOM     65  C   UNL A   1      41.725  25.501  27.644  1.00  0.00     0.173 A 
ATOM     66  F   UNL A   1      43.767  28.459  27.079  1.00  0.00    -0.203 F 
ATOM     67  C   UNL A   1      43.581  26.474  25.825  1.00  0.00     0.198 A 
ATOM     68  C   UNL A   1      42.108  24.725  26.554  1.00  0.00     0.198 A 
ATOM     69  F   UNL A   1      40.826  25.004  28.506  1.00  0.00    -0.203 F 
ATOM     70  F   UNL A   1      44.458  26.955  24.933  1.00  0.00    -0.200 F 
ATOM     71  C   UNL A   1      43.032  25.213  25.643  1.00  0.00     0.200 A 
ATOM     72  F   UNL A   1      41.585  23.501  26.387  1.00  0.00    -0.200 F 
ATOM     73  F   UNL A   1      43.390  24.469  24.587  1.00  0.00    -0.200 F 
ENDBRANCH  49  63
BRANCH  50  74
ATOM     74  C   UNL A   1      39.479  32.112  35.759  1.00  0.00     0.064 A 
ATOM     75  C   UNL A   1      38.531  31.626  36.671  1.00  0.00     0.173 A 
ATOM     76  C   UNL A   1      40.033  33.378  36.004  1.00  0.00     0.173 A 
ATOM     77  F   UNL A   1      37.952  30.435  36.461  1.00  0.00    -0.203 F 
ATOM     78  C   UNL A   1      38.151  32.379  37.780  1.00  0.00     0.198 A 
ATOM     79  C   UNL A   1      39.674  34.115  37.129  1.00  0.00     0.198 A 
ATOM     80  F   UNL A   1      40.940  33.889  35.158  1.00  0.00    -0.203 F 
ATOM     81  F   UNL A   1      37.215  31.907  38.616  1.00  0.00    -0.200 F 
ATOM     82  C   UNL A   1      38.729  33.617  38.014  1.00  0.00     0.200 A 
ATOM     83  F   UNL A   1      40.245  35.305  37.357  1.00  0.00    -0.200 F 
ATOM     84  F   UNL A   1      38.370  34.335  39.086  1.00  0.00    -0.200 F 
ENDBRANCH  50  74
BRANCH  62  85
ATOM     85  C   UNL A   1      44.662  27.624  34.602  1.00  0.00     0.064 A 
ATOM     86  C   UNL A   1      45.894  28.288  34.693  1.00  0.00     0.173 A 
ATOM     87  C   UNL A   1      44.480  26.462  35.367  1.00  0.00     0.173 A 
ATOM     88  F   UNL A   1      46.120  29.393  33.967  1.00  0.00    -0.203 F 
ATOM     89  C   UNL A   1      46.915  27.791  35.499  1.00  0.00     0.198 A 
ATOM     90  C   UNL A   1      45.496  25.981  36.188  1.00  0.00     0.198 A 
ATOM     91  F   UNL A   1      43.319  25.794  35.316  1.00  0.00    -0.203 F 
ATOM     92  F   UNL A   1      48.101  28.415  35.536  1.00  0.00    -0.200 F 
ATOM     93  C   UNL A   1      46.714  26.641  36.248  1.00  0.00     0.200 A 
ATOM     94  F   UNL A   1      45.298  24.875  36.917  1.00  0.00    -0.200 F 
ATOM     95  F   UNL A   1      47.699  26.164  37.021  1.00  0.00    -0.200 F 
ENDBRANCH  62  85
ENDBRANCH  36  37
ENDBRANCH  29  31
ENDBRANCH  28  29
ENDBRANCH  27  28
ENDBRANCH   1  27
TORSDOF 17
ENDMDL
MODEL 3
REMARK VINA RESULT:     -11.2      4.577      9.639
REMARK SMILES COc1ccc(/C=C/c2cc(OC)cc(OC)c2/C=C/C(=O)OCCOC(=O)c2ccc(-c3c4nc(c(-c5c(F)c(F)c(F)c(F)c5F)c5ccc([nH]5)c(-c5c(F)c(F)c(F)c(F)c5F)c5nc(c(-c6c(F)c(F)c(F)c(F)c6F)c6ccc3[nH]6)C=C5)C=C4)cc2)cc1
REMARK SMILES IDX 24 1 23 2 21 3 22 4 20 5 19 6 18 7 9 8 10 9 11 10 15 11
REMARK SMILES IDX 14 12 8 13 7 14 6 15 3 16 4 17 93 18 5 19 92 20 2 21 1 22
REMARK SMILES IDX 12 23 13 24 16 25 17 26 25 27 26 28 27 29 28 30 29 31 30 32
REMARK SMILES IDX 91 33 31 34 90 35 32 36 33 37 34 38 84 39 35 40 89 41 83 42
REMARK SMILES IDX 85 43 36 44 88 45 82 46 81 47 37 49 69 50 49 51 68 52 50 53
REMARK SMILES IDX 53 54 67 55 86 56 51 57 52 58 66 60 87 61 54 62 38 63 39 64
REMARK SMILES IDX 47 65 40 66 41 67 45 68 48 69 42 70 43 71 46 72 44 73 70 74
REMARK SMILES IDX 71 75 79 76 72 77 73 78 77 79 80 80 74 81 75 82 78 83 76 84
REMARK SMILES IDX 55 85 56 86 64 87 57 88 58 89 62 90 65 91 59 92 60 93 63 94
REMARK SMILES IDX 61 95
REMARK H PARENT 85 48 53 59
REMARK Flexibility Score: inf
ROOT
ATOM      1  C   UNL A   1      36.864  34.781  32.622  1.00  0.00     0.275 C 
ENDROOT
BRANCH   1   2
ATOM      2  O   UNL A   1      38.287  34.638  32.434  1.00  0.00    -0.459 OA
BRANCH   2   3
ATOM      3  C   UNL A   1      38.690  34.222  31.210  1.00  0.00     0.330 C 
ATOM      4  O   UNL A   1      39.760  34.475  30.677  1.00  0.00    -0.247 OA
BRANCH   3   5
ATOM      5  C   UNL A   1      37.672  33.399  30.525  1.00  0.00     0.094 C 
ATOM      6  C   UNL A   1      37.817  32.859  29.306  1.00  0.00     0.020 C 
BRANCH   6   7
ATOM      7  C   UNL A   1      36.783  32.019  28.659  1.00  0.00     0.024 A 
ATOM      8  C   UNL A   1      37.070  30.672  28.343  1.00  0.00    -0.011 A 
ATOM      9  C   UNL A   1      36.117  29.891  27.665  1.00  0.00     0.055 A 
ATOM     10  C   UNL A   1      34.879  30.415  27.291  1.00  0.00     0.123 A 
ATOM     11  C   UNL A   1      35.519  32.522  28.285  1.00  0.00     0.130 A 
ATOM     12  C   UNL A   1      34.574  31.727  27.626  1.00  0.00     0.093 A 
BRANCH   8  13
ATOM     13  C   UNL A   1      38.351  30.018  28.664  1.00  0.00     0.009 C 
ATOM     14  C   UNL A   1      39.063  29.330  27.756  1.00  0.00     0.009 C 
BRANCH  14  15
ATOM     15  C   UNL A   1      40.324  28.628  28.041  1.00  0.00    -0.025 A 
ATOM     16  C   UNL A   1      42.796  27.378  28.552  1.00  0.00     0.118 A 
ATOM     17  C   UNL A   1      41.667  27.035  29.291  1.00  0.00     0.047 A 
ATOM     18  C   UNL A   1      42.691  28.331  27.540  1.00  0.00     0.047 A 
ATOM     19  C   UNL A   1      40.443  27.667  29.051  1.00  0.00     0.012 A 
ATOM     20  C   UNL A   1      41.463  28.955  27.292  1.00  0.00     0.012 A 
BRANCH  16  21
ATOM     21  O   UNL A   1      43.939  26.696  28.863  1.00  0.00    -0.497 OA
ATOM     22  C   UNL A   1      43.733  25.531  29.656  1.00  0.00     0.278 C 
ENDBRANCH  16  21
ENDBRANCH  14  15
ENDBRANCH   8  13
BRANCH  10  23
ATOM     23  O   UNL A   1      34.055  29.552  26.622  1.00  0.00    -0.497 OA
ATOM     24  C   UNL A   1      32.752  30.034  26.312  1.00  0.00     0.278 C 
ENDBRANCH  10  23
BRANCH  11  25
ATOM     25  O   UNL A   1      35.090  33.787  28.589  1.00  0.00    -0.496 OA
ATOM     26  C   UNL A   1      34.061  33.782  29.571  1.00  0.00     0.278 C 
ENDBRANCH  11  25
ENDBRANCH   6   7
ENDBRANCH   3   5
ENDBRANCH   2   3
ENDBRANCH   1   2
BRANCH   1  27
ATOM     27  C   UNL A   1      36.439  34.240  33.983  1.00  0.00     0.275 C 
BRANCH  27  28
ATOM     28  O   UNL A   1      37.216  33.073  34.304  1.00  0.00    -0.458 OA
BRANCH  28  29
ATOM     29  C   UNL A   1      36.919  31.963  33.599  1.00  0.00     0.338 C 
ATOM     30  O   UNL A   1      35.828  31.611  33.168  1.00  0.00    -0.246 OA
BRANCH  29  31
ATOM     31  C   UNL A   1      38.145  31.204  33.328  1.00  0.00     0.060 A 
ATOM     32  C   UNL A   1      39.306  31.565  34.003  1.00  0.00     0.016 A 
ATOM     33  C   UNL A   1      38.196  30.271  32.293  1.00  0.00     0.016 A 
ATOM     34  C   UNL A   1      40.539  31.085  33.562  1.00  0.00     0.010 A 
ATOM     35  C   UNL A   1      39.428  29.714  31.922  1.00  0.00     0.010 A 
ATOM     36  C   UNL A   1      40.625  30.154  32.513  1.00  0.00    -0.014 A 
BRANCH  36  37
ATOM     37  C   UNL A   1      41.965  29.702  32.022  1.00  0.00     0.031 A 
ATOM     38  C   UNL A   1      42.704  30.478  30.956  1.00  0.00     0.074 A 
ATOM     39  C   UNL A   1      42.564  28.622  32.566  1.00  0.00     0.049 A 
ATOM     40  N   UNL A   1      43.828  30.184  30.344  1.00  0.00    -0.248 NA
ATOM     41  C   UNL A   1      42.103  31.743  30.510  1.00  0.00     0.031 C 
ATOM     42  C   UNL A   1      41.999  27.785  33.625  1.00  0.00     0.029 A 
ATOM     43  N   UNL A   1      43.795  28.059  32.325  1.00  0.00    -0.354 N 
ATOM     44  C   UNL A   1      44.030  31.189  29.405  1.00  0.00     0.074 A 
ATOM     45  C   UNL A   1      42.917  32.105  29.528  1.00  0.00     0.031 C 
ATOM     46  C   UNL A   1      42.903  26.864  33.990  1.00  0.00     0.029 A 
ATOM     47  C   UNL A   1      44.077  26.984  33.132  1.00  0.00     0.049 A 
ATOM     48  H   UNL A   1      44.415  28.394  31.637  1.00  0.00     0.167 HD
ATOM     49  C   UNL A   1      45.049  31.338  28.523  1.00  0.00     0.037 A 
ATOM     50  C   UNL A   1      45.145  26.163  33.170  1.00  0.00     0.037 A 
ATOM     51  C   UNL A   1      46.200  30.476  28.442  1.00  0.00     0.049 A 
ATOM     52  C   UNL A   1      46.264  26.354  32.186  1.00  0.00     0.074 A 
ATOM     53  C   UNL A   1      47.290  30.569  27.591  1.00  0.00     0.029 A 
ATOM     54  N   UNL A   1      46.424  29.375  29.253  1.00  0.00    -0.354 N 
ATOM     55  N   UNL A   1      46.408  27.274  31.265  1.00  0.00    -0.248 NA
ATOM     56  C   UNL A   1      47.358  25.373  32.233  1.00  0.00     0.031 C 
ATOM     57  C   UNL A   1      48.161  29.509  27.869  1.00  0.00     0.029 A 
ATOM     58  C   UNL A   1      47.629  28.776  28.917  1.00  0.00     0.049 A 
ATOM     59  H   UNL A   1      45.817  29.064  29.964  1.00  0.00     0.167 HD
ATOM     60  C   UNL A   1      47.602  26.983  30.622  1.00  0.00     0.074 A 
ATOM     61  C   UNL A   1      48.162  25.820  31.278  1.00  0.00     0.031 C 
ATOM     62  C   UNL A   1      48.175  27.615  29.570  1.00  0.00     0.037 A 
BRANCH  49  63
ATOM     63  C   UNL A   1      44.962  32.471  27.543  1.00  0.00     0.064 A 
ATOM     64  C   UNL A   1      45.654  33.674  27.734  1.00  0.00     0.173 A 
ATOM     65  C   UNL A   1      44.218  32.320  26.360  1.00  0.00     0.173 A 
ATOM     66  F   UNL A   1      46.369  33.872  28.851  1.00  0.00    -0.203 F 
ATOM     67  C   UNL A   1      45.589  34.694  26.786  1.00  0.00     0.198 A 
ATOM     68  C   UNL A   1      44.177  33.331  25.405  1.00  0.00     0.198 A 
ATOM     69  F   UNL A   1      43.546  31.183  26.126  1.00  0.00    -0.203 F 
ATOM     70  F   UNL A   1      46.231  35.851  27.005  1.00  0.00    -0.200 F 
ATOM     71  C   UNL A   1      44.858  34.519  25.620  1.00  0.00     0.200 A 
ATOM     72  F   UNL A   1      43.479  33.154  24.273  1.00  0.00    -0.200 F 
ATOM     73  F   UNL A   1      44.807  35.497  24.705  1.00  0.00    -0.200 F 
ENDBRANCH  49  63
BRANCH  50  74
ATOM     74  C   UNL A   1      45.191  25.061  34.164  1.00  0.00     0.064 A 
ATOM     75  C   UNL A   1      45.734  25.263  35.440  1.00  0.00     0.173 A 
ATOM     76  C   UNL A   1      44.690  23.787  33.861  1.00  0.00     0.173 A 
ATOM     77  F   UNL A   1      46.254  26.457  35.764  1.00  0.00    -0.203 F 
ATOM     78  C   UNL A   1      45.777  24.231  36.374  1.00  0.00     0.198 A 
ATOM     79  C   UNL A   1      44.706  22.763  34.805  1.00  0.00     0.198 A 
ATOM     80  F   UNL A   1      44.165  23.541  32.651  1.00  0.00    -0.203 F 
ATOM     81  F   UNL A   1      46.336  24.439  37.575  1.00  0.00    -0.200 F 
ATOM     82  C   UNL A   1      45.254  22.985  36.060  1.00  0.00     0.200 A 
ATOM     83  F   UNL A   1      44.189  21.566  34.502  1.00  0.00    -0.200 F 
ATOM     84  F   UNL A   1      45.287  21.995  36.962  1.00  0.00    -0.200 F 
ENDBRANCH  50  74
BRANCH  62  85
ATOM     85  C   UNL A   1      49.477  27.065  29.069  1.00  0.00     0.064 A 
ATOM     86  C   UNL A   1      50.693  27.396  29.684  1.00  0.00     0.173 A 
ATOM     87  C   UNL A   1      49.508  26.188  27.974  1.00  0.00     0.173 A 
ATOM     88  F   UNL A   1      50.714  28.244  30.723  1.00  0.00    -0.203 F 
ATOM     89  C   UNL A   1      51.898  26.890  29.205  1.00  0.00     0.198 A 
ATOM     90  C   UNL A   1      50.714  25.667  27.511  1.00  0.00     0.198 A 
ATOM     91  F   UNL A   1      48.372  25.840  27.354  1.00  0.00    -0.203 F 
ATOM     92  F   UNL A   1      53.052  27.255  29.779  1.00  0.00    -0.200 F 
ATOM     93  C   UNL A   1      51.907  26.023  28.122  1.00  0.00     0.200 A 
ATOM     94  F   UNL A   1      50.721  24.824  26.470  1.00  0.00    -0.200 F 
ATOM     95  F   UNL A   1      53.068  25.538  27.660  1.00  0.00    -0.200 F 
ENDBRANCH  62  85
ENDBRANCH  36  37
ENDBRANCH  29  31
ENDBRANCH  28  29
ENDBRANCH  27  28
ENDBRANCH   1  27
TORSDOF 17
ENDMDL
