MODEL 1
REMARK VINA RESULT:     -11.7      0.000      0.000
REMARK SMILES O=C(CNC(=O)c1cccs1)N[C@@H]1C=C[C@H](C(=O)OCCOC(=O)c2ccc(-c3c4nc(c(-c5c(F)c(F)c(F)c(F)c5F)c5ccc([nH]5)c(-c5c(F)c(F)c(F)c(F)c5F)c5nc(c(-c6c(F)c(F)c(F)c(F)c6F)c6ccc3[nH]6)C=C5)C=C4)cc2)C1
REMARK SMILES IDX 20 1 19 2 17 3 18 4 16 5 13 6 14 7 88 8 15 9 12 10 1 11 2 12
REMARK SMILES IDX 3 14 4 15 5 16 6 18 7 19 8 20 11 21 9 22 10 23 21 24 22 25
REMARK SMILES IDX 23 26 24 27 25 28 26 29 87 30 27 31 86 32 28 33 29 34 30 35
REMARK SMILES IDX 80 36 31 37 85 38 79 39 81 40 32 41 84 42 78 43 77 44 33 46
REMARK SMILES IDX 65 47 45 48 64 49 46 50 49 51 63 52 82 53 47 54 48 55 62 57
REMARK SMILES IDX 83 58 50 59 34 60 35 61 43 62 36 63 37 64 41 65 44 66 38 67
REMARK SMILES IDX 39 68 42 69 40 70 66 71 67 72 75 73 68 74 69 75 73 76 76 77
REMARK SMILES IDX 70 78 71 79 74 80 72 81 51 82 52 83 60 84 53 85 54 86 58 87
REMARK SMILES IDX 61 88 55 89 56 90 59 91 57 92
REMARK H PARENT 12 13 4 17 81 45 49 56
REMARK Flexibility Score: inf
ROOT
ATOM      1  C   UNL A   1      32.335  31.755  27.197  1.00  0.00     0.274 C 
ENDROOT
BRANCH   1   2
ATOM      2  O   UNL A   1      33.300  30.711  27.427  1.00  0.00    -0.462 OA
BRANCH   2   3
ATOM      3  C   UNL A   1      33.227  29.625  26.609  1.00  0.00     0.312 C 
ATOM      4  O   UNL A   1      34.199  29.009  26.189  1.00  0.00    -0.252 OA
BRANCH   3   5
ATOM      5  C   UNL A   1      31.784  29.161  26.411  1.00  0.00     0.124 C 
ATOM      6  C   UNL A   1      31.426  26.748  26.142  1.00  0.00     0.106 C 
ATOM      7  C   UNL A   1      31.181  27.489  24.872  1.00  0.00    -0.006 C 
ATOM      8  C   UNL A   1      31.478  27.868  27.188  1.00  0.00     0.048 C 
ATOM      9  C   UNL A   1      31.401  28.800  25.008  1.00  0.00    -0.014 C 
BRANCH   6  10
ATOM     10  N   UNL A   1      32.685  26.064  25.995  1.00  0.00    -0.348 N 
ATOM     11  O   UNL A   1      31.851  23.979  26.446  1.00  0.00    -0.273 OA
ATOM     12  C   UNL A   1      32.794  24.700  26.130  1.00  0.00     0.239 C 
ATOM     13  H   UNL A   1      33.492  26.589  25.790  1.00  0.00     0.164 HD
BRANCH  12  14
ATOM     14  C   UNL A   1      34.226  24.166  26.022  1.00  0.00     0.216 C 
BRANCH  14  15
ATOM     15  N   UNL A   1      34.699  24.154  24.641  1.00  0.00    -0.342 N 
ATOM     16  C   UNL A   1      34.826  23.107  23.762  1.00  0.00     0.261 C 
ATOM     17  H   UNL A   1      34.969  25.031  24.286  1.00  0.00     0.164 HD
ATOM     18  O   UNL A   1      35.497  23.318  22.751  1.00  0.00    -0.268 OA
BRANCH  16  19
ATOM     19  C   UNL A   1      34.192  21.838  24.063  1.00  0.00     0.092 A 
ATOM     20  C   UNL A   1      34.695  20.721  24.704  1.00  0.00     0.025 A 
ATOM     21  S   UNL A   1      32.541  21.622  23.644  1.00  0.00    -0.139 S 
ATOM     22  C   UNL A   1      33.740  19.667  24.795  1.00  0.00     0.012 A 
ATOM     23  C   UNL A   1      32.526  20.026  24.257  1.00  0.00     0.065 A 
ENDBRANCH  16  19
ENDBRANCH  14  15
ENDBRANCH  12  14
ENDBRANCH   6  10
ENDBRANCH   3   5
ENDBRANCH   2   3
ENDBRANCH   1   2
BRANCH   1  24
ATOM     24  C   UNL A   1      33.002  33.133  27.260  1.00  0.00     0.275 C 
BRANCH  24  25
ATOM     25  O   UNL A   1      32.207  34.087  27.993  1.00  0.00    -0.458 OA
BRANCH  25  26
ATOM     26  C   UNL A   1      32.904  34.979  28.736  1.00  0.00     0.338 C 
ATOM     27  O   UNL A   1      32.585  36.121  29.018  1.00  0.00    -0.246 OA
BRANCH  26  28
ATOM     28  C   UNL A   1      34.102  34.329  29.291  1.00  0.00     0.060 A 
ATOM     29  C   UNL A   1      33.942  33.446  30.364  1.00  0.00     0.016 A 
ATOM     30  C   UNL A   1      35.376  34.638  28.811  1.00  0.00     0.016 A 
ATOM     31  C   UNL A   1      35.054  32.868  30.965  1.00  0.00     0.010 A 
ATOM     32  C   UNL A   1      36.494  34.048  29.409  1.00  0.00     0.010 A 
ATOM     33  C   UNL A   1      36.338  33.162  30.491  1.00  0.00    -0.014 A 
BRANCH  33  34
ATOM     34  C   UNL A   1      37.521  32.538  31.127  1.00  0.00     0.031 A 
ATOM     35  C   UNL A   1      38.255  31.433  30.430  1.00  0.00     0.074 A 
ATOM     36  C   UNL A   1      37.929  32.974  32.332  1.00  0.00     0.049 A 
ATOM     37  N   UNL A   1      39.235  30.685  30.869  1.00  0.00    -0.248 NA
ATOM     38  C   UNL A   1      37.832  31.127  29.055  1.00  0.00     0.031 C 
ATOM     39  C   UNL A   1      37.322  34.077  33.078  1.00  0.00     0.029 A 
ATOM     40  N   UNL A   1      38.941  32.534  33.146  1.00  0.00    -0.354 N 
ATOM     41  C   UNL A   1      39.535  29.810  29.834  1.00  0.00     0.074 A 
ATOM     42  C   UNL A   1      38.625  30.110  28.749  1.00  0.00     0.031 C 
ATOM     43  C   UNL A   1      37.971  34.222  34.244  1.00  0.00     0.029 A 
ATOM     44  C   UNL A   1      38.998  33.190  34.349  1.00  0.00     0.049 A 
ATOM     45  H   UNL A   1      39.567  31.817  32.891  1.00  0.00     0.167 HD
ATOM     46  C   UNL A   1      40.486  28.847  29.801  1.00  0.00     0.037 A 
ATOM     47  C   UNL A   1      39.764  32.957  35.432  1.00  0.00     0.037 A 
ATOM     48  C   UNL A   1      41.395  28.567  30.882  1.00  0.00     0.049 A 
ATOM     49  C   UNL A   1      40.749  31.823  35.401  1.00  0.00     0.074 A 
ATOM     50  C   UNL A   1      42.415  27.634  30.932  1.00  0.00     0.029 A 
ATOM     51  N   UNL A   1      41.385  29.217  32.108  1.00  0.00    -0.354 N 
ATOM     52  N   UNL A   1      41.028  30.998  34.421  1.00  0.00    -0.248 NA
ATOM     53  C   UNL A   1      41.513  31.574  36.632  1.00  0.00     0.031 C 
ATOM     54  C   UNL A   1      42.994  27.688  32.206  1.00  0.00     0.029 A 
ATOM     55  C   UNL A   1      42.360  28.682  32.934  1.00  0.00     0.049 A 
ATOM     56  H   UNL A   1      40.777  29.950  32.353  1.00  0.00     0.167 HD
ATOM     57  C   UNL A   1      42.006  30.142  34.910  1.00  0.00     0.074 A 
ATOM     58  C   UNL A   1      42.283  30.558  36.269  1.00  0.00     0.031 C 
ATOM     59  C   UNL A   1      42.615  29.103  34.288  1.00  0.00     0.037 A 
BRANCH  46  60
ATOM     60  C   UNL A   1      40.576  28.003  28.565  1.00  0.00     0.064 A 
ATOM     61  C   UNL A   1      41.347  28.389  27.461  1.00  0.00     0.173 A 
ATOM     62  C   UNL A   1      39.912  26.767  28.506  1.00  0.00     0.173 A 
ATOM     63  F   UNL A   1      41.990  29.567  27.465  1.00  0.00    -0.203 F 
ATOM     64  C   UNL A   1      41.436  27.579  26.332  1.00  0.00     0.198 A 
ATOM     65  C   UNL A   1      40.022  25.949  27.385  1.00  0.00     0.198 A 
ATOM     66  F   UNL A   1      39.165  26.350  29.538  1.00  0.00    -0.203 F 
ATOM     67  F   UNL A   1      42.150  27.984  25.273  1.00  0.00    -0.200 F 
ATOM     68  C   UNL A   1      40.779  26.357  26.297  1.00  0.00     0.200 A 
ATOM     69  F   UNL A   1      39.395  24.765  27.357  1.00  0.00    -0.200 F 
ATOM     70  F   UNL A   1      40.871  25.575  25.213  1.00  0.00    -0.200 F 
ENDBRANCH  46  60
BRANCH  47  71
ATOM     71  C   UNL A   1      39.591  33.789  36.650  1.00  0.00     0.064 A 
ATOM     72  C   UNL A   1      38.765  33.368  37.700  1.00  0.00     0.173 A 
ATOM     73  C   UNL A   1      40.252  35.019  36.789  1.00  0.00     0.173 A 
ATOM     74  F   UNL A   1      38.092  32.213  37.601  1.00  0.00    -0.203 F 
ATOM     75  C   UNL A   1      38.600  34.151  38.842  1.00  0.00     0.198 A 
ATOM     76  C   UNL A   1      40.107  35.787  37.941  1.00  0.00     0.198 A 
ATOM     77  F   UNL A   1      41.049  35.468  35.809  1.00  0.00    -0.203 F 
ATOM     78  F   UNL A   1      37.776  33.744  39.817  1.00  0.00    -0.200 F 
ATOM     79  C   UNL A   1      39.277  35.355  38.965  1.00  0.00     0.200 A 
ATOM     80  F   UNL A   1      40.771  36.946  38.060  1.00  0.00    -0.200 F 
ATOM     81  F   UNL A   1      39.123  36.104  40.065  1.00  0.00    -0.200 F 
ENDBRANCH  47  71
BRANCH  59  82
ATOM     82  C   UNL A   1      43.647  28.348  35.071  1.00  0.00     0.064 A 
ATOM     83  C   UNL A   1      43.309  27.204  35.806  1.00  0.00     0.173 A 
ATOM     84  C   UNL A   1      44.993  28.742  35.042  1.00  0.00     0.173 A 
ATOM     85  F   UNL A   1      42.031  26.800  35.877  1.00  0.00    -0.203 F 
ATOM     86  C   UNL A   1      44.281  26.488  36.499  1.00  0.00     0.198 A 
ATOM     87  C   UNL A   1      45.966  28.009  35.716  1.00  0.00     0.198 A 
ATOM     88  F   UNL A   1      45.366  29.827  34.348  1.00  0.00    -0.203 F 
ATOM     89  F   UNL A   1      43.932  25.416  37.225  1.00  0.00    -0.200 F 
ATOM     90  C   UNL A   1      45.609  26.885  36.446  1.00  0.00     0.200 A 
ATOM     91  F   UNL A   1      47.250  28.388  35.655  1.00  0.00    -0.200 F 
ATOM     92  F   UNL A   1      46.545  26.188  37.105  1.00  0.00    -0.200 F 
ENDBRANCH  59  82
ENDBRANCH  33  34
ENDBRANCH  26  28
ENDBRANCH  25  26
ENDBRANCH  24  25
ENDBRANCH   1  24
TORSDOF 15
ENDMDL
MODEL 2
REMARK VINA RESULT:     -11.7      0.474      2.033
REMARK SMILES O=C(CNC(=O)c1cccs1)N[C@@H]1C=C[C@H](C(=O)OCCOC(=O)c2ccc(-c3c4nc(c(-c5c(F)c(F)c(F)c(F)c5F)c5ccc([nH]5)c(-c5c(F)c(F)c(F)c(F)c5F)c5nc(c(-c6c(F)c(F)c(F)c(F)c6F)c6ccc3[nH]6)C=C5)C=C4)cc2)C1
REMARK SMILES IDX 20 1 19 2 17 3 18 4 16 5 13 6 14 7 88 8 15 9 12 10 1 11 2 12
REMARK SMILES IDX 3 14 4 15 5 16 6 18 7 19 8 20 11 21 9 22 10 23 21 24 22 25
REMARK SMILES IDX 23 26 24 27 25 28 26 29 87 30 27 31 86 32 28 33 29 34 30 35
REMARK SMILES IDX 80 36 31 37 85 38 79 39 81 40 32 41 84 42 78 43 77 44 33 46
REMARK SMILES IDX 65 47 45 48 64 49 46 50 49 51 63 52 82 53 47 54 48 55 62 57
REMARK SMILES IDX 83 58 50 59 34 60 35 61 43 62 36 63 37 64 41 65 44 66 38 67
REMARK SMILES IDX 39 68 42 69 40 70 66 71 67 72 75 73 68 74 69 75 73 76 76 77
REMARK SMILES IDX 70 78 71 79 74 80 72 81 51 82 52 83 60 84 53 85 54 86 58 87
REMARK SMILES IDX 61 88 55 89 56 90 59 91 57 92
REMARK H PARENT 12 13 4 17 81 45 49 56
REMARK Flexibility Score: inf
ROOT
ATOM      1  C   UNL A   1      32.253  32.025  27.268  1.00  0.00     0.274 C 
ENDROOT
BRANCH   1   2
ATOM      2  O   UNL A   1      33.348  31.110  27.460  1.00  0.00    -0.462 OA
BRANCH   2   3
ATOM      3  C   UNL A   1      33.278  29.929  26.786  1.00  0.00     0.312 C 
ATOM      4  O   UNL A   1      34.252  29.275  26.431  1.00  0.00    -0.252 OA
BRANCH   3   5
ATOM      5  C   UNL A   1      31.838  29.427  26.670  1.00  0.00     0.124 C 
ATOM      6  C   UNL A   1      31.524  26.999  26.490  1.00  0.00     0.106 C 
ATOM      7  C   UNL A   1      31.203  27.696  25.211  1.00  0.00    -0.006 C 
ATOM      8  C   UNL A   1      31.599  28.152  27.499  1.00  0.00     0.048 C 
ATOM      9  C   UNL A   1      31.400  29.014  25.297  1.00  0.00    -0.014 C 
BRANCH   6  10
ATOM     10  N   UNL A   1      32.791  26.339  26.305  1.00  0.00    -0.348 N 
ATOM     11  O   UNL A   1      31.897  24.354  25.594  1.00  0.00    -0.273 OA
ATOM     12  C   UNL A   1      32.880  25.051  25.831  1.00  0.00     0.239 C 
ATOM     13  H   UNL A   1      33.619  26.825  26.523  1.00  0.00     0.164 HD
BRANCH  12  14
ATOM     14  C   UNL A   1      34.305  24.492  25.780  1.00  0.00     0.216 C 
BRANCH  14  15
ATOM     15  N   UNL A   1      34.778  24.332  24.409  1.00  0.00    -0.342 N 
ATOM     16  C   UNL A   1      34.825  23.210  23.618  1.00  0.00     0.261 C 
ATOM     17  H   UNL A   1      35.116  25.153  23.986  1.00  0.00     0.164 HD
ATOM     18  O   UNL A   1      35.512  23.286  22.599  1.00  0.00    -0.268 OA
BRANCH  16  19
ATOM     19  C   UNL A   1      34.094  22.022  24.016  1.00  0.00     0.092 A 
ATOM     20  C   UNL A   1      32.848  21.569  23.625  1.00  0.00     0.025 A 
ATOM     21  S   UNL A   1      34.844  20.919  25.096  1.00  0.00    -0.139 S 
ATOM     22  C   UNL A   1      32.486  20.346  24.261  1.00  0.00     0.012 A 
ATOM     23  C   UNL A   1      33.484  19.883  25.087  1.00  0.00     0.065 A 
ENDBRANCH  16  19
ENDBRANCH  14  15
ENDBRANCH  12  14
ENDBRANCH   6  10
ENDBRANCH   3   5
ENDBRANCH   2   3
ENDBRANCH   1   2
BRANCH   1  24
ATOM     24  C   UNL A   1      32.759  33.470  27.204  1.00  0.00     0.275 C 
BRANCH  24  25
ATOM     25  O   UNL A   1      32.268  34.266  28.302  1.00  0.00    -0.458 OA
BRANCH  25  26
ATOM     26  C   UNL A   1      33.131  35.191  28.782  1.00  0.00     0.338 C 
ATOM     27  O   UNL A   1      32.966  36.397  28.846  1.00  0.00    -0.246 OA
BRANCH  26  28
ATOM     28  C   UNL A   1      34.307  34.519  29.358  1.00  0.00     0.060 A 
ATOM     29  C   UNL A   1      34.131  33.741  30.506  1.00  0.00     0.016 A 
ATOM     30  C   UNL A   1      35.580  34.709  28.818  1.00  0.00     0.016 A 
ATOM     31  C   UNL A   1      35.226  33.149  31.124  1.00  0.00     0.010 A 
ATOM     32  C   UNL A   1      36.680  34.105  29.434  1.00  0.00     0.010 A 
ATOM     33  C   UNL A   1      36.509  33.324  30.592  1.00  0.00    -0.014 A 
BRANCH  33  34
ATOM     34  C   UNL A   1      37.673  32.685  31.246  1.00  0.00     0.031 A 
ATOM     35  C   UNL A   1      38.388  31.553  30.573  1.00  0.00     0.074 A 
ATOM     36  C   UNL A   1      38.082  33.131  32.447  1.00  0.00     0.049 A 
ATOM     37  N   UNL A   1      39.348  30.791  31.031  1.00  0.00    -0.248 NA
ATOM     38  C   UNL A   1      37.968  31.233  29.200  1.00  0.00     0.031 C 
ATOM     39  C   UNL A   1      37.495  34.259  33.170  1.00  0.00     0.029 A 
ATOM     40  N   UNL A   1      39.079  32.683  33.275  1.00  0.00    -0.354 N 
ATOM     41  C   UNL A   1      39.636  29.893  30.013  1.00  0.00     0.074 A 
ATOM     42  C   UNL A   1      38.741  30.195  28.917  1.00  0.00     0.031 C 
ATOM     43  C   UNL A   1      38.138  34.410  34.339  1.00  0.00     0.029 A 
ATOM     44  C   UNL A   1      39.141  33.357  34.469  1.00  0.00     0.049 A 
ATOM     45  H   UNL A   1      39.691  31.948  33.037  1.00  0.00     0.167 HD
ATOM     46  C   UNL A   1      40.567  28.910  30.002  1.00  0.00     0.037 A 
ATOM     47  C   UNL A   1      39.894  33.125  35.561  1.00  0.00     0.037 A 
ATOM     48  C   UNL A   1      41.462  28.628  31.094  1.00  0.00     0.049 A 
ATOM     49  C   UNL A   1      40.855  31.970  35.555  1.00  0.00     0.074 A 
ATOM     50  C   UNL A   1      42.461  27.673  31.167  1.00  0.00     0.029 A 
ATOM     51  N   UNL A   1      41.457  29.297  32.309  1.00  0.00    -0.354 N 
ATOM     52  N   UNL A   1      41.123  31.123  34.591  1.00  0.00    -0.248 NA
ATOM     53  C   UNL A   1      41.605  31.724  36.795  1.00  0.00     0.031 C 
ATOM     54  C   UNL A   1      43.032  27.735  32.444  1.00  0.00     0.029 A 
ATOM     55  C   UNL A   1      42.415  28.754  33.151  1.00  0.00     0.049 A 
ATOM     56  H   UNL A   1      40.863  30.047  32.538  1.00  0.00     0.167 HD
ATOM     57  C   UNL A   1      42.078  30.255  35.100  1.00  0.00     0.074 A 
ATOM     58  C   UNL A   1      42.355  30.686  36.454  1.00  0.00     0.031 C 
ATOM     59  C   UNL A   1      42.669  29.193  34.500  1.00  0.00     0.037 A 
BRANCH  46  60
ATOM     60  C   UNL A   1      40.646  28.043  28.781  1.00  0.00     0.064 A 
ATOM     61  C   UNL A   1      39.926  26.845  28.677  1.00  0.00     0.173 A 
ATOM     62  C   UNL A   1      41.424  28.442  27.682  1.00  0.00     0.173 A 
ATOM     63  F   UNL A   1      39.178  26.416  29.705  1.00  0.00    -0.203 F 
ATOM     64  C   UNL A   1      39.995  26.067  27.525  1.00  0.00     0.198 A 
ATOM     65  C   UNL A   1      41.473  27.672  26.523  1.00  0.00     0.198 A 
ATOM     66  F   UNL A   1      42.128  29.582  27.731  1.00  0.00    -0.203 F 
ATOM     67  F   UNL A   1      39.327  24.907  27.460  1.00  0.00    -0.200 F 
ATOM     68  C   UNL A   1      40.763  26.484  26.447  1.00  0.00     0.200 A 
ATOM     69  F   UNL A   1      42.207  28.082  25.480  1.00  0.00    -0.200 F 
ATOM     70  F   UNL A   1      40.823  25.737  25.336  1.00  0.00    -0.200 F 
ENDBRANCH  46  60
BRANCH  47  71
ATOM     71  C   UNL A   1      39.731  33.981  36.763  1.00  0.00     0.064 A 
ATOM     72  C   UNL A   1      40.402  35.206  36.874  1.00  0.00     0.173 A 
ATOM     73  C   UNL A   1      38.899  33.592  37.824  1.00  0.00     0.173 A 
ATOM     74  F   UNL A   1      41.229  35.607  35.898  1.00  0.00    -0.203 F 
ATOM     75  C   UNL A   1      40.251  36.007  38.004  1.00  0.00     0.198 A 
ATOM     76  C   UNL A   1      38.729  34.405  38.941  1.00  0.00     0.198 A 
ATOM     77  F   UNL A   1      38.240  32.425  37.767  1.00  0.00    -0.203 F 
ATOM     78  F   UNL A   1      40.932  37.157  38.102  1.00  0.00    -0.200 F 
ATOM     79  C   UNL A   1      39.410  35.610  39.033  1.00  0.00     0.200 A 
ATOM     80  F   UNL A   1      37.907  34.023  39.928  1.00  0.00    -0.200 F 
ATOM     81  F   UNL A   1      39.261  36.384  40.116  1.00  0.00    -0.200 F 
ENDBRANCH  47  71
BRANCH  59  82
ATOM     82  C   UNL A   1      43.679  28.428  35.302  1.00  0.00     0.064 A 
ATOM     83  C   UNL A   1      45.047  28.720  35.218  1.00  0.00     0.173 A 
ATOM     84  C   UNL A   1      43.270  27.432  36.201  1.00  0.00     0.173 A 
ATOM     85  F   UNL A   1      45.487  29.652  34.359  1.00  0.00    -0.203 F 
ATOM     86  C   UNL A   1      45.973  28.030  35.995  1.00  0.00     0.198 A 
ATOM     87  C   UNL A   1      44.196  26.762  36.995  1.00  0.00     0.198 A 
ATOM     88  F   UNL A   1      41.971  27.121  36.321  1.00  0.00    -0.203 F 
ATOM     89  F   UNL A   1      47.281  28.301  35.874  1.00  0.00    -0.200 F 
ATOM     90  C   UNL A   1      45.547  27.059  36.889  1.00  0.00     0.200 A 
ATOM     91  F   UNL A   1      43.782  25.831  37.865  1.00  0.00    -0.200 F 
ATOM     92  F   UNL A   1      46.439  26.404  37.644  1.00  0.00    -0.200 F 
ENDBRANCH  59  82
ENDBRANCH  33  34
ENDBRANCH  26  28
ENDBRANCH  25  26
ENDBRANCH  24  25
ENDBRANCH   1  24
TORSDOF 15
ENDMDL
MODEL 3
REMARK VINA RESULT:     -11.6      1.936      2.998
REMARK SMILES O=C(CNC(=O)c1cccs1)N[C@@H]1C=C[C@H](C(=O)OCCOC(=O)c2ccc(-c3c4nc(c(-c5c(F)c(F)c(F)c(F)c5F)c5ccc([nH]5)c(-c5c(F)c(F)c(F)c(F)c5F)c5nc(c(-c6c(F)c(F)c(F)c(F)c6F)c6ccc3[nH]6)C=C5)C=C4)cc2)C1
REMARK SMILES IDX 20 1 19 2 17 3 18 4 16 5 13 6 14 7 88 8 15 9 12 10 1 11 2 12
REMARK SMILES IDX 3 14 4 15 5 16 6 18 7 19 8 20 11 21 9 22 10 23 21 24 22 25
REMARK SMILES IDX 23 26 24 27 25 28 26 29 87 30 27 31 86 32 28 33 29 34 30 35
REMARK SMILES IDX 80 36 31 37 85 38 79 39 81 40 32 41 84 42 78 43 77 44 33 46
REMARK SMILES IDX 65 47 45 48 64 49 46 50 49 51 63 52 82 53 47 54 48 55 62 57
REMARK SMILES IDX 83 58 50 59 34 60 35 61 43 62 36 63 37 64 41 65 44 66 38 67
REMARK SMILES IDX 39 68 42 69 40 70 66 71 67 72 75 73 68 74 69 75 73 76 76 77
REMARK SMILES IDX 70 78 71 79 74 80 72 81 51 82 52 83 60 84 53 85 54 86 58 87
REMARK SMILES IDX 61 88 55 89 56 90 59 91 57 92
REMARK H PARENT 12 13 4 17 81 45 49 56
REMARK Flexibility Score: inf
ROOT
ATOM      1  C   UNL A   1      31.563  29.269  24.199  1.00  0.00     0.274 C 
ENDROOT
BRANCH   1   2
ATOM      2  O   UNL A   1      32.735  28.437  24.105  1.00  0.00    -0.462 OA
BRANCH   2   3
ATOM      3  C   UNL A   1      32.575  27.124  24.428  1.00  0.00     0.312 C 
ATOM      4  O   UNL A   1      33.429  26.438  24.977  1.00  0.00    -0.252 OA
BRANCH   3   5
ATOM      5  C   UNL A   1      31.144  26.649  24.178  1.00  0.00     0.124 C 
ATOM      6  C   UNL A   1      30.536  24.448  25.079  1.00  0.00     0.106 C 
ATOM      7  C   UNL A   1      30.619  24.434  23.590  1.00  0.00    -0.006 C 
ATOM      8  C   UNL A   1      30.542  25.946  25.408  1.00  0.00     0.048 C 
ATOM      9  C   UNL A   1      30.977  25.623  23.098  1.00  0.00    -0.014 C 
BRANCH   6  10
ATOM     10  N   UNL A   1      31.704  23.766  25.573  1.00  0.00    -0.348 N 
ATOM     11  O   UNL A   1      30.809  23.263  27.621  1.00  0.00    -0.273 OA
ATOM     12  C   UNL A   1      31.737  23.187  26.820  1.00  0.00     0.239 C 
ATOM     13  H   UNL A   1      32.503  23.710  25.000  1.00  0.00     0.164 HD
BRANCH  12  14
ATOM     14  C   UNL A   1      33.091  22.581  27.201  1.00  0.00     0.216 C 
BRANCH  14  15
ATOM     15  N   UNL A   1      33.207  21.191  26.768  1.00  0.00    -0.342 N 
ATOM     16  C   UNL A   1      33.803  20.664  25.649  1.00  0.00     0.261 C 
ATOM     17  H   UNL A   1      32.794  20.531  27.370  1.00  0.00     0.164 HD
ATOM     18  O   UNL A   1      33.531  19.493  25.383  1.00  0.00    -0.268 OA
BRANCH  16  19
ATOM     19  C   UNL A   1      34.687  21.491  24.851  1.00  0.00     0.092 A 
ATOM     20  C   UNL A   1      34.395  22.405  23.856  1.00  0.00     0.025 A 
ATOM     21  S   UNL A   1      36.374  21.432  25.164  1.00  0.00    -0.139 S 
ATOM     22  C   UNL A   1      35.565  23.010  23.309  1.00  0.00     0.012 A 
ATOM     23  C   UNL A   1      36.709  22.570  23.933  1.00  0.00     0.065 A 
ENDBRANCH  16  19
ENDBRANCH  14  15
ENDBRANCH  12  14
ENDBRANCH   6  10
ENDBRANCH   3   5
ENDBRANCH   2   3
ENDBRANCH   1   2
BRANCH   1  24
ATOM     24  C   UNL A   1      31.657  30.204  25.409  1.00  0.00     0.275 C 
BRANCH  24  25
ATOM     25  O   UNL A   1      32.987  30.240  25.965  1.00  0.00    -0.458 OA
BRANCH  25  26
ATOM     26  C   UNL A   1      33.224  31.241  26.845  1.00  0.00     0.338 C 
ATOM     27  O   UNL A   1      32.543  32.232  27.042  1.00  0.00    -0.246 OA
BRANCH  26  28
ATOM     28  C   UNL A   1      34.402  30.911  27.663  1.00  0.00     0.060 A 
ATOM     29  C   UNL A   1      35.264  31.948  28.034  1.00  0.00     0.016 A 
ATOM     30  C   UNL A   1      34.696  29.590  28.001  1.00  0.00     0.016 A 
ATOM     31  C   UNL A   1      36.426  31.671  28.745  1.00  0.00     0.010 A 
ATOM     32  C   UNL A   1      35.860  29.312  28.724  1.00  0.00     0.010 A 
ATOM     33  C   UNL A   1      36.732  30.351  29.097  1.00  0.00    -0.014 A 
BRANCH  33  34
ATOM     34  C   UNL A   1      37.966  30.059  29.862  1.00  0.00     0.031 A 
ATOM     35  C   UNL A   1      39.009  29.148  29.289  1.00  0.00     0.074 A 
ATOM     36  C   UNL A   1      38.141  30.620  31.072  1.00  0.00     0.049 A 
ATOM     37  N   UNL A   1      40.095  28.680  29.847  1.00  0.00    -0.248 NA
ATOM     38  C   UNL A   1      38.804  28.703  27.902  1.00  0.00     0.031 C 
ATOM     39  C   UNL A   1      37.218  31.562  31.704  1.00  0.00     0.029 A 
ATOM     40  N   UNL A   1      39.150  30.470  31.989  1.00  0.00    -0.354 N 
ATOM     41  C   UNL A   1      40.694  27.874  28.890  1.00  0.00     0.074 A 
ATOM     42  C   UNL A   1      39.845  27.904  27.719  1.00  0.00     0.031 C 
ATOM     43  C   UNL A   1      37.699  31.900  32.911  1.00  0.00     0.029 A 
ATOM     44  C   UNL A   1      38.932  31.158  33.156  1.00  0.00     0.049 A 
ATOM     45  H   UNL A   1      39.952  29.922  31.826  1.00  0.00     0.167 HD
ATOM     46  C   UNL A   1      41.850  27.175  28.987  1.00  0.00     0.037 A 
ATOM     47  C   UNL A   1      39.626  31.156  34.310  1.00  0.00     0.037 A 
ATOM     48  C   UNL A   1      42.695  27.162  30.154  1.00  0.00     0.049 A 
ATOM     49  C   UNL A   1      40.857  30.299  34.421  1.00  0.00     0.074 A 
ATOM     50  C   UNL A   1      43.902  26.512  30.338  1.00  0.00     0.029 A 
ATOM     51  N   UNL A   1      42.413  27.828  31.337  1.00  0.00    -0.354 N 
ATOM     52  N   UNL A   1      41.418  29.539  33.514  1.00  0.00    -0.248 NA
ATOM     53  C   UNL A   1      41.540  30.286  35.723  1.00  0.00     0.031 C 
ATOM     54  C   UNL A   1      44.329  26.748  31.651  1.00  0.00     0.029 A 
ATOM     55  C   UNL A   1      43.407  27.577  32.269  1.00  0.00     0.049 A 
ATOM     56  H   UNL A   1      41.624  28.396  31.492  1.00  0.00     0.167 HD
ATOM     57  C   UNL A   1      42.524  28.967  34.127  1.00  0.00     0.074 A 
ATOM     58  C   UNL A   1      42.564  29.481  35.480  1.00  0.00     0.031 C 
ATOM     59  C   UNL A   1      43.423  28.091  33.615  1.00  0.00     0.037 A 
BRANCH  46  60
ATOM     60  C   UNL A   1      42.258  26.339  27.810  1.00  0.00     0.064 A 
ATOM     61  C   UNL A   1      43.190  26.795  26.868  1.00  0.00     0.173 A 
ATOM     62  C   UNL A   1      41.738  25.046  27.650  1.00  0.00     0.173 A 
ATOM     63  F   UNL A   1      43.707  28.030  26.973  1.00  0.00    -0.203 F 
ATOM     64  C   UNL A   1      43.573  25.995  25.796  1.00  0.00     0.198 A 
ATOM     65  C   UNL A   1      42.140  24.239  26.588  1.00  0.00     0.198 A 
ATOM     66  F   UNL A   1      40.846  24.562  28.526  1.00  0.00    -0.203 F 
ATOM     67  F   UNL A   1      44.439  26.464  24.887  1.00  0.00    -0.200 F 
ATOM     68  C   UNL A   1      43.053  24.715  25.660  1.00  0.00     0.200 A 
ATOM     69  F   UNL A   1      41.644  23.000  26.465  1.00  0.00    -0.200 F 
ATOM     70  F   UNL A   1      43.427  23.944  24.631  1.00  0.00    -0.200 F 
ENDBRANCH  46  60
BRANCH  47  71
ATOM     71  C   UNL A   1      39.143  31.957  35.462  1.00  0.00     0.064 A 
ATOM     72  C   UNL A   1      39.467  33.315  35.583  1.00  0.00     0.173 A 
ATOM     73  C   UNL A   1      38.345  31.383  36.463  1.00  0.00     0.173 A 
ATOM     74  F   UNL A   1      40.250  33.901  34.666  1.00  0.00    -0.203 F 
ATOM     75  C   UNL A   1      39.017  34.067  36.666  1.00  0.00     0.198 A 
ATOM     76  C   UNL A   1      37.873  32.142  37.531  1.00  0.00     0.198 A 
ATOM     77  F   UNL A   1      38.012  30.086  36.394  1.00  0.00    -0.203 F 
ATOM     78  F   UNL A   1      39.371  35.354  36.779  1.00  0.00    -0.200 F 
ATOM     79  C   UNL A   1      38.215  33.482  37.635  1.00  0.00     0.200 A 
ATOM     80  F   UNL A   1      37.090  31.575  38.459  1.00  0.00    -0.200 F 
ATOM     81  F   UNL A   1      37.777  34.207  38.673  1.00  0.00    -0.200 F 
ENDBRANCH  47  71
BRANCH  59  82
ATOM     82  C   UNL A   1      44.530  27.640  34.520  1.00  0.00     0.064 A 
ATOM     83  C   UNL A   1      44.416  26.468  35.281  1.00  0.00     0.173 A 
ATOM     84  C   UNL A   1      45.734  28.356  34.587  1.00  0.00     0.173 A 
ATOM     85  F   UNL A   1      43.276  25.760  35.263  1.00  0.00    -0.203 F 
ATOM     86  C   UNL A   1      45.464  26.037  36.089  1.00  0.00     0.198 A 
ATOM     87  C   UNL A   1      46.789  27.909  35.377  1.00  0.00     0.198 A 
ATOM     88  F   UNL A   1      45.893  29.480  33.873  1.00  0.00    -0.203 F 
ATOM     89  F   UNL A   1      45.321  24.932  36.835  1.00  0.00    -0.200 F 
ATOM     90  C   UNL A   1      46.651  26.751  36.130  1.00  0.00     0.200 A 
ATOM     91  F   UNL A   1      47.940  28.594  35.408  1.00  0.00    -0.200 F 
ATOM     92  F   UNL A   1      47.663  26.329  36.901  1.00  0.00    -0.200 F 
ENDBRANCH  59  82
ENDBRANCH  33  34
ENDBRANCH  26  28
ENDBRANCH  25  26
ENDBRANCH  24  25
ENDBRANCH   1  24
TORSDOF 15
ENDMDL
