MODEL 1
REMARK VINA RESULT:     -13.2      0.000      0.000
REMARK SMILES CC(C)CCn1nc(C(=O)OCCOC(=O)c2ccc(-c3c4nc(c(-c5c(F)c(F)c(F)c(F)c5F)c5ccc([nH]5)c(-c5c(F)c(F)c(F)c(F)c5F)c5nc(c(-c6c(F)c(F)c(F)c(F)c6F)c6ccc3[nH]6)C=C5)C=C4)cc2)c2c1CCN(C(=O)[C@@H]1CCc3nn(C)c(=O)n3C1)C2
REMARK SMILES IDX 12 1 11 2 9 3 10 4 8 5 6 6 7 7 81 8 80 9 82 10 98 11 83 12
REMARK SMILES IDX 84 13 5 14 4 15 2 16 1 17 3 18 85 19 86 20 87 21 88 22 97 23
REMARK SMILES IDX 89 24 96 25 90 26 94 27 91 28 92 29 95 30 93 31 13 32 14 33
REMARK SMILES IDX 15 34 16 35 17 36 18 37 79 38 19 39 78 40 20 41 21 42 22 43
REMARK SMILES IDX 72 44 23 45 77 46 71 47 73 48 24 49 76 50 70 51 69 52 25 54
REMARK SMILES IDX 57 55 37 56 56 57 38 58 41 59 55 60 74 61 39 62 40 63 54 65
REMARK SMILES IDX 75 66 42 67 26 68 27 69 35 70 28 71 29 72 33 73 36 74 30 75
REMARK SMILES IDX 31 76 34 77 32 78 58 79 59 80 67 81 60 82 61 83 65 84 68 85
REMARK SMILES IDX 62 86 63 87 66 88 64 89 43 90 44 91 52 92 45 93 46 94 50 95
REMARK SMILES IDX 53 96 47 97 48 98 51 99 49 100
REMARK H PARENT 73 53 41 64
REMARK Flexibility Score: inf
ROOT
ATOM      1  C   UNL A   1      33.253  31.464  27.734  1.00  0.00     0.275 C 
ENDROOT
BRANCH   1   2
ATOM      2  O   UNL A   1      33.146  30.667  26.547  1.00  0.00    -0.457 OA
BRANCH   2   3
ATOM      3  C   UNL A   1      33.117  29.303  26.660  1.00  0.00     0.359 C 
ATOM      4  O   UNL A   1      33.736  28.674  27.517  1.00  0.00    -0.244 OA
BRANCH   3   5
ATOM      5  C   UNL A   1      32.206  28.719  25.659  1.00  0.00     0.175 A 
ATOM      6  N   UNL A   1      30.741  28.526  24.107  1.00  0.00    -0.268 N 
ATOM      7  N   UNL A   1      31.485  29.441  24.764  1.00  0.00    -0.165 NA
ATOM      8  C   UNL A   1      30.860  27.293  24.664  1.00  0.00     0.046 A 
ATOM      9  C   UNL A   1      31.949  27.328  25.499  1.00  0.00     0.028 A 
ATOM     10  C   UNL A   1      29.996  26.109  24.509  1.00  0.00     0.078 C 
ATOM     11  C   UNL A   1      32.539  26.121  26.171  1.00  0.00     0.159 C 
ATOM     12  C   UNL A   1      30.289  25.238  25.749  1.00  0.00     0.126 C 
ATOM     13  N   UNL A   1      31.715  24.928  25.878  1.00  0.00    -0.338 N 
BRANCH   6  14
ATOM     14  C   UNL A   1      29.924  28.834  22.946  1.00  0.00     0.145 C 
BRANCH  14  15
ATOM     15  C   UNL A   1      28.408  28.917  23.125  1.00  0.00     0.027 C 
BRANCH  15  16
ATOM     16  C   UNL A   1      27.757  30.256  22.728  1.00  0.00    -0.016 C 
ATOM     17  C   UNL A   1      28.267  31.436  23.560  1.00  0.00     0.007 C 
ATOM     18  C   UNL A   1      28.028  30.525  21.245  1.00  0.00     0.007 C 
ENDBRANCH  15  16
ENDBRANCH  14  15
ENDBRANCH   6  14
BRANCH  13  19
ATOM     19  C   UNL A   1      32.345  23.699  25.899  1.00  0.00     0.227 C 
ATOM     20  O   UNL A   1      32.841  23.292  26.961  1.00  0.00    -0.274 OA
BRANCH  19  21
ATOM     21  C   UNL A   1      32.510  22.763  24.677  1.00  0.00     0.099 C 
ATOM     22  C   UNL A   1      32.188  21.282  24.900  1.00  0.00     0.023 C 
ATOM     23  C   UNL A   1      33.741  22.962  23.802  1.00  0.00     0.142 C 
ATOM     24  C   UNL A   1      33.364  20.416  25.328  1.00  0.00     0.078 C 
ATOM     25  N   UNL A   1      34.799  22.022  24.094  1.00  0.00    -0.278 N 
ATOM     26  C   UNL A   1      34.696  20.905  24.843  1.00  0.00     0.133 A 
ATOM     27  C   UNL A   1      36.138  22.333  24.047  1.00  0.00     0.345 A 
ATOM     28  N   UNL A   1      35.830  20.431  25.273  1.00  0.00    -0.155 NA
ATOM     29  N   UNL A   1      36.766  21.324  24.789  1.00  0.00    -0.216 N 
ATOM     30  O   UNL A   1      36.640  23.357  23.613  1.00  0.00    -0.246 OA
ATOM     31  C   UNL A   1      38.074  21.456  25.375  1.00  0.00     0.179 C 
ENDBRANCH  19  21
ENDBRANCH  13  19
ENDBRANCH   3   5
ENDBRANCH   2   3
ENDBRANCH   1   2
BRANCH   1  32
ATOM     32  C   UNL A   1      34.644  32.069  27.828  1.00  0.00     0.275 C 
BRANCH  32  33
ATOM     33  O   UNL A   1      34.799  32.682  29.101  1.00  0.00    -0.458 OA
BRANCH  33  34
ATOM     34  C   UNL A   1      35.333  31.925  30.083  1.00  0.00     0.338 C 
ATOM     35  O   UNL A   1      35.041  31.932  31.264  1.00  0.00    -0.246 OA
BRANCH  34  36
ATOM     36  C   UNL A   1      36.469  31.193  29.518  1.00  0.00     0.060 A 
ATOM     37  C   UNL A   1      36.419  29.797  29.528  1.00  0.00     0.016 A 
ATOM     38  C   UNL A   1      37.657  31.899  29.280  1.00  0.00     0.016 A 
ATOM     39  C   UNL A   1      37.611  29.107  29.514  1.00  0.00     0.010 A 
ATOM     40  C   UNL A   1      38.840  31.218  29.298  1.00  0.00     0.010 A 
ATOM     41  C   UNL A   1      38.801  29.842  29.503  1.00  0.00    -0.014 A 
BRANCH  41  42
ATOM     42  C   UNL A   1      40.058  29.146  29.632  1.00  0.00     0.031 A 
ATOM     43  C   UNL A   1      40.512  29.051  31.036  1.00  0.00     0.074 A 
ATOM     44  C   UNL A   1      40.614  28.516  28.580  1.00  0.00     0.049 A 
ATOM     45  N   UNL A   1      41.572  29.562  31.565  1.00  0.00    -0.248 NA
ATOM     46  C   UNL A   1      39.582  28.453  32.011  1.00  0.00     0.031 C 
ATOM     47  C   UNL A   1      40.041  28.306  27.245  1.00  0.00     0.029 A 
ATOM     48  N   UNL A   1      41.780  27.826  28.519  1.00  0.00    -0.354 N 
ATOM     49  C   UNL A   1      41.539  29.175  32.900  1.00  0.00     0.074 A 
ATOM     50  C   UNL A   1      40.213  28.688  33.159  1.00  0.00     0.031 C 
ATOM     51  C   UNL A   1      40.756  27.359  26.595  1.00  0.00     0.029 A 
ATOM     52  C   UNL A   1      41.902  27.000  27.409  1.00  0.00     0.049 A 
ATOM     53  H   UNL A   1      42.482  27.904  29.205  1.00  0.00     0.167 HD
ATOM     54  C   UNL A   1      42.692  29.008  33.600  1.00  0.00     0.037 A 
ATOM     55  C   UNL A   1      42.841  26.035  27.243  1.00  0.00     0.037 A 
ATOM     56  C   UNL A   1      43.782  29.712  32.974  1.00  0.00     0.049 A 
ATOM     57  C   UNL A   1      43.937  26.316  28.208  1.00  0.00     0.074 A 
ATOM     58  C   UNL A   1      44.047  31.036  32.688  1.00  0.00     0.029 A 
ATOM     59  N   UNL A   1      44.638  28.981  32.190  1.00  0.00    -0.354 N 
ATOM     60  N   UNL A   1      44.719  27.358  28.140  1.00  0.00    -0.248 NA
ATOM     61  C   UNL A   1      43.858  25.681  29.515  1.00  0.00     0.031 C 
ATOM     62  C   UNL A   1      44.719  31.020  31.430  1.00  0.00     0.029 A 
ATOM     63  C   UNL A   1      44.879  29.689  31.042  1.00  0.00     0.049 A 
ATOM     64  H   UNL A   1      45.015  28.098  32.414  1.00  0.00     0.167 HD
ATOM     65  C   UNL A   1      44.890  27.762  29.457  1.00  0.00     0.074 A 
ATOM     66  C   UNL A   1      44.408  26.642  30.262  1.00  0.00     0.031 C 
ATOM     67  C   UNL A   1      45.134  29.072  29.760  1.00  0.00     0.037 A 
BRANCH  54  68
ATOM     68  C   UNL A   1      42.910  27.879  34.579  1.00  0.00     0.064 A 
ATOM     69  C   UNL A   1      43.213  28.194  35.917  1.00  0.00     0.173 A 
ATOM     70  C   UNL A   1      43.137  26.534  34.206  1.00  0.00     0.173 A 
ATOM     71  F   UNL A   1      43.057  29.444  36.376  1.00  0.00    -0.203 F 
ATOM     72  C   UNL A   1      43.781  27.257  36.784  1.00  0.00     0.198 A 
ATOM     73  C   UNL A   1      43.649  25.588  35.091  1.00  0.00     0.198 A 
ATOM     74  F   UNL A   1      42.989  26.098  32.951  1.00  0.00    -0.203 F 
ATOM     75  F   UNL A   1      44.178  27.638  38.005  1.00  0.00    -0.200 F 
ATOM     76  C   UNL A   1      44.004  25.956  36.369  1.00  0.00     0.200 A 
ATOM     77  F   UNL A   1      43.875  24.339  34.659  1.00  0.00    -0.200 F 
ATOM     78  F   UNL A   1      44.607  25.075  37.176  1.00  0.00    -0.200 F 
ENDBRANCH  54  68
BRANCH  55  79
ATOM     79  C   UNL A   1      42.666  24.705  26.611  1.00  0.00     0.064 A 
ATOM     80  C   UNL A   1      43.462  24.307  25.525  1.00  0.00     0.173 A 
ATOM     81  C   UNL A   1      41.909  23.693  27.236  1.00  0.00     0.173 A 
ATOM     82  F   UNL A   1      44.255  25.196  24.911  1.00  0.00    -0.203 F 
ATOM     83  C   UNL A   1      43.511  22.973  25.101  1.00  0.00     0.198 A 
ATOM     84  C   UNL A   1      41.953  22.365  26.808  1.00  0.00     0.198 A 
ATOM     85  F   UNL A   1      41.188  23.954  28.335  1.00  0.00    -0.203 F 
ATOM     86  F   UNL A   1      44.327  22.619  24.098  1.00  0.00    -0.200 F 
ATOM     87  C   UNL A   1      42.762  22.002  25.748  1.00  0.00     0.200 A 
ATOM     88  F   UNL A   1      41.256  21.430  27.470  1.00  0.00    -0.200 F 
ATOM     89  F   UNL A   1      42.853  20.717  25.380  1.00  0.00    -0.200 F 
ENDBRANCH  55  79
BRANCH  67  90
ATOM     90  C   UNL A   1      45.489  29.993  28.625  1.00  0.00     0.064 A 
ATOM     91  C   UNL A   1      44.547  30.692  27.850  1.00  0.00     0.173 A 
ATOM     92  C   UNL A   1      46.841  30.285  28.410  1.00  0.00     0.173 A 
ATOM     93  F   UNL A   1      43.233  30.543  28.058  1.00  0.00    -0.203 F 
ATOM     94  C   UNL A   1      44.947  31.608  26.877  1.00  0.00     0.198 A 
ATOM     95  C   UNL A   1      47.237  31.227  27.465  1.00  0.00     0.198 A 
ATOM     96  F   UNL A   1      47.783  29.689  29.158  1.00  0.00    -0.203 F 
ATOM     97  F   UNL A   1      44.030  32.254  26.140  1.00  0.00    -0.200 F 
ATOM     98  C   UNL A   1      46.292  31.880  26.691  1.00  0.00     0.200 A 
ATOM     99  F   UNL A   1      48.537  31.523  27.326  1.00  0.00    -0.200 F 
ATOM    100  F   UNL A   1      46.677  32.792  25.787  1.00  0.00    -0.200 F 
ENDBRANCH  67  90
ENDBRANCH  41  42
ENDBRANCH  34  36
ENDBRANCH  33  34
ENDBRANCH  32  33
ENDBRANCH   1  32
TORSDOF 16
ENDMDL
MODEL 2
REMARK VINA RESULT:     -12.9      4.728      8.913
REMARK SMILES CC(C)CCn1nc(C(=O)OCCOC(=O)c2ccc(-c3c4nc(c(-c5c(F)c(F)c(F)c(F)c5F)c5ccc([nH]5)c(-c5c(F)c(F)c(F)c(F)c5F)c5nc(c(-c6c(F)c(F)c(F)c(F)c6F)c6ccc3[nH]6)C=C5)C=C4)cc2)c2c1CCN(C(=O)[C@@H]1CCc3nn(C)c(=O)n3C1)C2
REMARK SMILES IDX 12 1 11 2 9 3 10 4 8 5 6 6 7 7 81 8 80 9 82 10 98 11 83 12
REMARK SMILES IDX 84 13 5 14 4 15 2 16 1 17 3 18 85 19 86 20 87 21 88 22 97 23
REMARK SMILES IDX 89 24 96 25 90 26 94 27 91 28 92 29 95 30 93 31 13 32 14 33
REMARK SMILES IDX 15 34 16 35 17 36 18 37 79 38 19 39 78 40 20 41 21 42 22 43
REMARK SMILES IDX 72 44 23 45 77 46 71 47 73 48 24 49 76 50 70 51 69 52 25 54
REMARK SMILES IDX 57 55 37 56 56 57 38 58 41 59 55 60 74 61 39 62 40 63 54 65
REMARK SMILES IDX 75 66 42 67 26 68 27 69 35 70 28 71 29 72 33 73 36 74 30 75
REMARK SMILES IDX 31 76 34 77 32 78 58 79 59 80 67 81 60 82 61 83 65 84 68 85
REMARK SMILES IDX 62 86 63 87 66 88 64 89 43 90 44 91 52 92 45 93 46 94 50 95
REMARK SMILES IDX 53 96 47 97 48 98 51 99 49 100
REMARK H PARENT 73 53 41 64
REMARK Flexibility Score: inf
ROOT
ATOM      1  C   UNL A   1      34.388  34.218  30.350  1.00  0.00     0.275 C 
ENDROOT
BRANCH   1   2
ATOM      2  O   UNL A   1      35.721  34.018  30.840  1.00  0.00    -0.457 OA
BRANCH   2   3
ATOM      3  C   UNL A   1      36.088  34.588  32.029  1.00  0.00     0.359 C 
ATOM      4  O   UNL A   1      35.325  35.243  32.738  1.00  0.00    -0.244 OA
BRANCH   3   5
ATOM      5  C   UNL A   1      37.487  34.257  32.354  1.00  0.00     0.175 A 
ATOM      6  N   UNL A   1      39.614  34.033  32.204  1.00  0.00    -0.268 N 
ATOM      7  N   UNL A   1      38.553  34.593  31.582  1.00  0.00    -0.165 NA
ATOM      8  C   UNL A   1      39.226  33.240  33.236  1.00  0.00     0.046 A 
ATOM      9  C   UNL A   1      37.913  33.538  33.506  1.00  0.00     0.028 A 
ATOM     10  C   UNL A   1      39.981  32.193  33.947  1.00  0.00     0.078 C 
ATOM     11  C   UNL A   1      37.154  33.017  34.693  1.00  0.00     0.159 C 
ATOM     12  C   UNL A   1      38.904  31.301  34.601  1.00  0.00     0.126 C 
ATOM     13  N   UNL A   1      37.997  32.071  35.455  1.00  0.00    -0.338 N 
BRANCH   6  14
ATOM     14  C   UNL A   1      40.993  34.263  31.810  1.00  0.00     0.145 C 
BRANCH  14  15
ATOM     15  C   UNL A   1      41.650  33.271  30.851  1.00  0.00     0.027 C 
BRANCH  15  16
ATOM     16  C   UNL A   1      42.169  33.860  29.525  1.00  0.00    -0.016 C 
ATOM     17  C   UNL A   1      41.370  35.082  29.065  1.00  0.00     0.007 C 
ATOM     18  C   UNL A   1      43.641  34.247  29.691  1.00  0.00     0.007 C 
ENDBRANCH  15  16
ENDBRANCH  14  15
ENDBRANCH   6  14
BRANCH  13  19
ATOM     19  C   UNL A   1      37.740  31.935  36.805  1.00  0.00     0.227 C 
ATOM     20  O   UNL A   1      37.580  30.799  37.279  1.00  0.00    -0.274 OA
BRANCH  19  21
ATOM     21  C   UNL A   1      37.609  33.107  37.808  1.00  0.00     0.099 C 
ATOM     22  C   UNL A   1      38.886  33.899  38.105  1.00  0.00     0.023 C 
ATOM     23  C   UNL A   1      36.770  32.871  39.058  1.00  0.00     0.142 C 
ATOM     24  C   UNL A   1      39.708  33.395  39.282  1.00  0.00     0.078 C 
ATOM     25  N   UNL A   1      37.567  32.559  40.222  1.00  0.00    -0.278 N 
ATOM     26  C   UNL A   1      38.903  32.702  40.342  1.00  0.00     0.133 A 
ATOM     27  C   UNL A   1      37.186  31.671  41.199  1.00  0.00     0.345 A 
ATOM     28  N   UNL A   1      39.439  32.021  41.314  1.00  0.00    -0.155 NA
ATOM     29  N   UNL A   1      38.370  31.348  41.872  1.00  0.00    -0.216 N 
ATOM     30  O   UNL A   1      36.092  31.145  41.328  1.00  0.00    -0.246 OA
ATOM     31  C   UNL A   1      38.544  30.158  42.664  1.00  0.00     0.179 C 
ENDBRANCH  19  21
ENDBRANCH  13  19
ENDBRANCH   3   5
ENDBRANCH   2   3
ENDBRANCH   1   2
BRANCH   1  32
ATOM     32  C   UNL A   1      34.223  33.532  29.004  1.00  0.00     0.275 C 
BRANCH  32  33
ATOM     33  O   UNL A   1      35.492  33.072  28.559  1.00  0.00    -0.458 OA
BRANCH  33  34
ATOM     34  C   UNL A   1      35.554  31.808  28.089  1.00  0.00     0.338 C 
ATOM     35  O   UNL A   1      34.817  31.287  27.272  1.00  0.00    -0.246 OA
BRANCH  34  36
ATOM     36  C   UNL A   1      36.568  31.090  28.862  1.00  0.00     0.060 A 
ATOM     37  C   UNL A   1      37.585  31.837  29.463  1.00  0.00     0.016 A 
ATOM     38  C   UNL A   1      36.649  29.698  28.716  1.00  0.00     0.016 A 
ATOM     39  C   UNL A   1      38.783  31.209  29.720  1.00  0.00     0.010 A 
ATOM     40  C   UNL A   1      37.846  29.082  28.941  1.00  0.00     0.010 A 
ATOM     41  C   UNL A   1      38.918  29.865  29.356  1.00  0.00    -0.014 A 
BRANCH  41  42
ATOM     42  C   UNL A   1      40.206  29.227  29.485  1.00  0.00     0.031 A 
ATOM     43  C   UNL A   1      40.597  29.018  30.895  1.00  0.00     0.074 A 
ATOM     44  C   UNL A   1      40.847  28.735  28.408  1.00  0.00     0.049 A 
ATOM     45  N   UNL A   1      41.598  29.530  31.527  1.00  0.00    -0.248 NA
ATOM     46  C   UNL A   1      39.657  28.277  31.757  1.00  0.00     0.031 C 
ATOM     47  C   UNL A   1      40.352  28.628  27.030  1.00  0.00     0.029 A 
ATOM     48  N   UNL A   1      42.053  28.118  28.343  1.00  0.00    -0.354 N 
ATOM     49  C   UNL A   1      41.524  29.011  32.815  1.00  0.00     0.074 A 
ATOM     50  C   UNL A   1      40.218  28.430  32.955  1.00  0.00     0.031 C 
ATOM     51  C   UNL A   1      41.151  27.790  26.331  1.00  0.00     0.029 A 
ATOM     52  C   UNL A   1      42.276  27.414  27.167  1.00  0.00     0.049 A 
ATOM     53  H   UNL A   1      42.716  28.165  29.070  1.00  0.00     0.167 HD
ATOM     54  C   UNL A   1      42.649  28.837  33.556  1.00  0.00     0.037 A 
ATOM     55  C   UNL A   1      43.277  26.521  26.960  1.00  0.00     0.037 A 
ATOM     56  C   UNL A   1      43.726  29.656  33.060  1.00  0.00     0.049 A 
ATOM     57  C   UNL A   1      44.306  26.763  28.004  1.00  0.00     0.074 A 
ATOM     58  C   UNL A   1      43.927  31.014  32.917  1.00  0.00     0.029 A 
ATOM     59  N   UNL A   1      44.660  29.053  32.256  1.00  0.00    -0.354 N 
ATOM     60  N   UNL A   1      45.029  27.846  28.078  1.00  0.00    -0.248 NA
ATOM     61  C   UNL A   1      44.202  25.998  29.238  1.00  0.00     0.031 C 
ATOM     62  C   UNL A   1      44.658  31.159  31.701  1.00  0.00     0.029 A 
ATOM     63  C   UNL A   1      44.914  29.883  31.196  1.00  0.00     0.049 A 
ATOM     64  H   UNL A   1      45.076  28.174  32.414  1.00  0.00     0.167 HD
ATOM     65  C   UNL A   1      45.113  28.126  29.436  1.00  0.00     0.074 A 
ATOM     66  C   UNL A   1      44.659  26.908  30.102  1.00  0.00     0.031 C 
ATOM     67  C   UNL A   1      45.265  29.410  29.876  1.00  0.00     0.037 A 
BRANCH  54  68
ATOM     68  C   UNL A   1      42.885  27.629  34.432  1.00  0.00     0.064 A 
ATOM     69  C   UNL A   1      43.221  26.407  33.820  1.00  0.00     0.173 A 
ATOM     70  C   UNL A   1      42.500  27.542  35.790  1.00  0.00     0.173 A 
ATOM     71  F   UNL A   1      43.581  26.366  32.529  1.00  0.00    -0.203 F 
ATOM     72  C   UNL A   1      43.097  25.188  34.492  1.00  0.00     0.198 A 
ATOM     73  C   UNL A   1      42.432  26.330  36.472  1.00  0.00     0.198 A 
ATOM     74  F   UNL A   1      42.060  28.596  36.485  1.00  0.00    -0.203 F 
ATOM     75  F   UNL A   1      43.298  24.041  33.828  1.00  0.00    -0.200 F 
ATOM     76  C   UNL A   1      42.697  25.149  35.815  1.00  0.00     0.200 A 
ATOM     77  F   UNL A   1      42.023  26.316  37.749  1.00  0.00    -0.200 F 
ATOM     78  F   UNL A   1      42.514  23.980  36.440  1.00  0.00    -0.200 F 
ENDBRANCH  54  68
BRANCH  55  79
ATOM     79  C   UNL A   1      43.209  25.253  26.194  1.00  0.00     0.064 A 
ATOM     80  C   UNL A   1      44.194  24.922  25.249  1.00  0.00     0.173 A 
ATOM     81  C   UNL A   1      42.335  24.215  26.574  1.00  0.00     0.173 A 
ATOM     82  F   UNL A   1      45.100  25.836  24.874  1.00  0.00    -0.203 F 
ATOM     83  C   UNL A   1      44.306  23.627  24.728  1.00  0.00     0.198 A 
ATOM     84  C   UNL A   1      42.443  22.926  26.050  1.00  0.00     0.198 A 
ATOM     85  F   UNL A   1      41.420  24.405  27.535  1.00  0.00    -0.203 F 
ATOM     86  F   UNL A   1      45.295  23.333  23.872  1.00  0.00    -0.200 F 
ATOM     87  C   UNL A   1      43.436  22.628  25.136  1.00  0.00     0.200 A 
ATOM     88  F   UNL A   1      41.621  21.960  26.485  1.00  0.00    -0.200 F 
ATOM     89  F   UNL A   1      43.580  21.375  24.683  1.00  0.00    -0.200 F 
ENDBRANCH  55  79
BRANCH  67  90
ATOM     90  C   UNL A   1      45.621  30.458  28.856  1.00  0.00     0.064 A 
ATOM     91  C   UNL A   1      46.930  30.720  28.415  1.00  0.00     0.173 A 
ATOM     92  C   UNL A   1      44.577  31.122  28.200  1.00  0.00     0.173 A 
ATOM     93  F   UNL A   1      47.976  30.056  28.923  1.00  0.00    -0.203 F 
ATOM     94  C   UNL A   1      47.180  31.636  27.393  1.00  0.00     0.198 A 
ATOM     95  C   UNL A   1      44.826  32.007  27.156  1.00  0.00     0.198 A 
ATOM     96  F   UNL A   1      43.303  30.871  28.542  1.00  0.00    -0.203 F 
ATOM     97  F   UNL A   1      48.439  31.879  26.998  1.00  0.00    -0.200 F 
ATOM     98  C   UNL A   1      46.126  32.273  26.760  1.00  0.00     0.200 A 
ATOM     99  F   UNL A   1      43.800  32.582  26.513  1.00  0.00    -0.200 F 
ATOM    100  F   UNL A   1      46.361  33.121  25.748  1.00  0.00    -0.200 F 
ENDBRANCH  67  90
ENDBRANCH  41  42
ENDBRANCH  34  36
ENDBRANCH  33  34
ENDBRANCH  32  33
ENDBRANCH   1  32
TORSDOF 16
ENDMDL
MODEL 3
REMARK VINA RESULT:     -12.7      4.704      8.640
REMARK SMILES CC(C)CCn1nc(C(=O)OCCOC(=O)c2ccc(-c3c4nc(c(-c5c(F)c(F)c(F)c(F)c5F)c5ccc([nH]5)c(-c5c(F)c(F)c(F)c(F)c5F)c5nc(c(-c6c(F)c(F)c(F)c(F)c6F)c6ccc3[nH]6)C=C5)C=C4)cc2)c2c1CCN(C(=O)[C@@H]1CCc3nn(C)c(=O)n3C1)C2
REMARK SMILES IDX 12 1 11 2 9 3 10 4 8 5 6 6 7 7 81 8 80 9 82 10 98 11 83 12
REMARK SMILES IDX 84 13 5 14 4 15 2 16 1 17 3 18 85 19 86 20 87 21 88 22 97 23
REMARK SMILES IDX 89 24 96 25 90 26 94 27 91 28 92 29 95 30 93 31 13 32 14 33
REMARK SMILES IDX 15 34 16 35 17 36 18 37 79 38 19 39 78 40 20 41 21 42 22 43
REMARK SMILES IDX 72 44 23 45 77 46 71 47 73 48 24 49 76 50 70 51 69 52 25 54
REMARK SMILES IDX 57 55 37 56 56 57 38 58 41 59 55 60 74 61 39 62 40 63 54 65
REMARK SMILES IDX 75 66 42 67 26 68 27 69 35 70 28 71 29 72 33 73 36 74 30 75
REMARK SMILES IDX 31 76 34 77 32 78 58 79 59 80 67 81 60 82 61 83 65 84 68 85
REMARK SMILES IDX 62 86 63 87 66 88 64 89 43 90 44 91 52 92 45 93 46 94 50 95
REMARK SMILES IDX 53 96 47 97 48 98 51 99 49 100
REMARK H PARENT 73 53 41 64
REMARK Flexibility Score: inf
ROOT
ATOM      1  C   UNL A   1      34.386  34.189  30.354  1.00  0.00     0.275 C 
ENDROOT
BRANCH   1   2
ATOM      2  O   UNL A   1      35.565  33.748  31.040  1.00  0.00    -0.457 OA
BRANCH   2   3
ATOM      3  C   UNL A   1      36.093  34.533  32.030  1.00  0.00     0.359 C 
ATOM      4  O   UNL A   1      35.437  35.338  32.688  1.00  0.00    -0.244 OA
BRANCH   3   5
ATOM      5  C   UNL A   1      37.523  34.231  32.225  1.00  0.00     0.175 A 
ATOM      6  N   UNL A   1      39.623  33.999  31.860  1.00  0.00    -0.268 N 
ATOM      7  N   UNL A   1      38.494  34.505  31.316  1.00  0.00    -0.165 NA
ATOM      8  C   UNL A   1      39.358  33.290  32.989  1.00  0.00     0.046 A 
ATOM      9  C   UNL A   1      38.080  33.607  33.376  1.00  0.00     0.028 A 
ATOM     10  C   UNL A   1      40.197  32.305  33.694  1.00  0.00     0.078 C 
ATOM     11  C   UNL A   1      37.461  33.183  34.677  1.00  0.00     0.159 C 
ATOM     12  C   UNL A   1      39.208  31.467  34.531  1.00  0.00     0.126 C 
ATOM     13  N   UNL A   1      38.392  32.302  35.415  1.00  0.00    -0.338 N 
BRANCH   6  14
ATOM     14  C   UNL A   1      40.948  34.198  31.300  1.00  0.00     0.145 C 
BRANCH  14  15
ATOM     15  C   UNL A   1      41.061  34.680  29.854  1.00  0.00     0.027 C 
BRANCH  15  16
ATOM     16  C   UNL A   1      42.407  34.402  29.156  1.00  0.00    -0.016 C 
ATOM     17  C   UNL A   1      42.662  35.331  27.966  1.00  0.00     0.007 C 
ATOM     18  C   UNL A   1      43.541  34.557  30.174  1.00  0.00     0.007 C 
ENDBRANCH  15  16
ENDBRANCH  14  15
ENDBRANCH   6  14
BRANCH  13  19
ATOM     19  C   UNL A   1      38.285  32.273  36.792  1.00  0.00     0.227 C 
ATOM     20  O   UNL A   1      37.405  31.575  37.316  1.00  0.00    -0.274 OA
BRANCH  19  21
ATOM     21  C   UNL A   1      39.179  33.076  37.769  1.00  0.00     0.099 C 
ATOM     22  C   UNL A   1      38.873  34.571  37.905  1.00  0.00     0.023 C 
ATOM     23  C   UNL A   1      40.675  32.790  37.748  1.00  0.00     0.142 C 
ATOM     24  C   UNL A   1      39.635  35.481  36.953  1.00  0.00     0.078 C 
ATOM     25  N   UNL A   1      41.423  33.760  36.981  1.00  0.00    -0.278 N 
ATOM     26  C   UNL A   1      40.973  34.949  36.532  1.00  0.00     0.133 A 
ATOM     27  C   UNL A   1      42.524  33.451  36.217  1.00  0.00     0.345 A 
ATOM     28  N   UNL A   1      41.677  35.470  35.568  1.00  0.00    -0.155 NA
ATOM     29  N   UNL A   1      42.667  34.534  35.341  1.00  0.00    -0.216 N 
ATOM     30  O   UNL A   1      43.124  32.389  36.188  1.00  0.00    -0.246 OA
ATOM     31  C   UNL A   1      43.388  34.470  34.097  1.00  0.00     0.179 C 
ENDBRANCH  19  21
ENDBRANCH  13  19
ENDBRANCH   3   5
ENDBRANCH   2   3
ENDBRANCH   1   2
BRANCH   1  32
ATOM     32  C   UNL A   1      34.189  33.372  29.088  1.00  0.00     0.275 C 
BRANCH  32  33
ATOM     33  O   UNL A   1      35.457  32.941  28.611  1.00  0.00    -0.458 OA
BRANCH  33  34
ATOM     34  C   UNL A   1      35.528  31.691  28.108  1.00  0.00     0.338 C 
ATOM     35  O   UNL A   1      34.787  31.180  27.288  1.00  0.00    -0.246 OA
BRANCH  34  36
ATOM     36  C   UNL A   1      36.563  30.966  28.849  1.00  0.00     0.060 A 
ATOM     37  C   UNL A   1      37.552  31.714  29.494  1.00  0.00     0.016 A 
ATOM     38  C   UNL A   1      36.690  29.587  28.629  1.00  0.00     0.016 A 
ATOM     39  C   UNL A   1      38.769  31.113  29.725  1.00  0.00     0.010 A 
ATOM     40  C   UNL A   1      37.907  29.000  28.829  1.00  0.00     0.010 A 
ATOM     41  C   UNL A   1      38.950  29.795  29.291  1.00  0.00    -0.014 A 
BRANCH  41  42
ATOM     42  C   UNL A   1      40.258  29.195  29.394  1.00  0.00     0.031 A 
ATOM     43  C   UNL A   1      40.689  29.011  30.796  1.00  0.00     0.074 A 
ATOM     44  C   UNL A   1      40.886  28.710  28.306  1.00  0.00     0.049 A 
ATOM     45  N   UNL A   1      41.691  29.557  31.398  1.00  0.00    -0.248 NA
ATOM     46  C   UNL A   1      39.792  28.253  31.688  1.00  0.00     0.031 C 
ATOM     47  C   UNL A   1      40.361  28.576  26.942  1.00  0.00     0.029 A 
ATOM     48  N   UNL A   1      42.107  28.125  28.217  1.00  0.00    -0.354 N 
ATOM     49  C   UNL A   1      41.663  29.049  32.692  1.00  0.00     0.074 A 
ATOM     50  C   UNL A   1      40.377  28.434  32.870  1.00  0.00     0.031 C 
ATOM     51  C   UNL A   1      41.165  27.752  26.231  1.00  0.00     0.029 A 
ATOM     52  C   UNL A   1      42.321  27.416  27.042  1.00  0.00     0.049 A 
ATOM     53  H   UNL A   1      42.786  28.198  28.927  1.00  0.00     0.167 HD
ATOM     54  C   UNL A   1      42.811  28.913  33.407  1.00  0.00     0.037 A 
ATOM     55  C   UNL A   1      43.340  26.549  26.819  1.00  0.00     0.037 A 
ATOM     56  C   UNL A   1      43.851  29.757  32.876  1.00  0.00     0.049 A 
ATOM     57  C   UNL A   1      44.388  26.830  27.835  1.00  0.00     0.074 A 
ATOM     58  C   UNL A   1      44.011  31.119  32.716  1.00  0.00     0.029 A 
ATOM     59  N   UNL A   1      44.782  29.172  32.055  1.00  0.00    -0.354 N 
ATOM     60  N   UNL A   1      45.082  27.934  27.881  1.00  0.00    -0.248 NA
ATOM     61  C   UNL A   1      44.335  26.075  29.078  1.00  0.00     0.031 C 
ATOM     62  C   UNL A   1      44.708  31.271  31.480  1.00  0.00     0.029 A 
ATOM     63  C   UNL A   1      44.986  29.998  30.982  1.00  0.00     0.049 A 
ATOM     64  H   UNL A   1      45.226  28.306  32.211  1.00  0.00     0.167 HD
ATOM     65  C   UNL A   1      45.191  28.229  29.233  1.00  0.00     0.074 A 
ATOM     66  C   UNL A   1      44.788  27.006  29.922  1.00  0.00     0.031 C 
ATOM     67  C   UNL A   1      45.318  29.522  29.658  1.00  0.00     0.037 A 
BRANCH  54  68
ATOM     68  C   UNL A   1      43.102  27.721  34.288  1.00  0.00     0.064 A 
ATOM     69  C   UNL A   1      43.392  26.486  33.678  1.00  0.00     0.173 A 
ATOM     70  C   UNL A   1      42.809  27.662  35.670  1.00  0.00     0.173 A 
ATOM     71  F   UNL A   1      43.664  26.420  32.366  1.00  0.00    -0.203 F 
ATOM     72  C   UNL A   1      43.310  25.281  34.380  1.00  0.00     0.198 A 
ATOM     73  C   UNL A   1      42.784  26.463  36.379  1.00  0.00     0.198 A 
ATOM     74  F   UNL A   1      42.420  28.731  36.372  1.00  0.00    -0.203 F 
ATOM     75  F   UNL A   1      43.462  24.121  33.726  1.00  0.00    -0.200 F 
ATOM     76  C   UNL A   1      43.000  25.270  35.728  1.00  0.00     0.200 A 
ATOM     77  F   UNL A   1      42.462  26.476  37.680  1.00  0.00    -0.200 F 
ATOM     78  F   UNL A   1      42.856  24.113  36.386  1.00  0.00    -0.200 F 
ENDBRANCH  54  68
BRANCH  55  79
ATOM     79  C   UNL A   1      43.289  25.272  26.067  1.00  0.00     0.064 A 
ATOM     80  C   UNL A   1      44.305  24.920  25.164  1.00  0.00     0.173 A 
ATOM     81  C   UNL A   1      42.391  24.247  26.427  1.00  0.00     0.173 A 
ATOM     82  F   UNL A   1      45.234  25.821  24.812  1.00  0.00    -0.203 F 
ATOM     83  C   UNL A   1      44.425  23.617  24.664  1.00  0.00     0.198 A 
ATOM     84  C   UNL A   1      42.507  22.951  25.923  1.00  0.00     0.198 A 
ATOM     85  F   UNL A   1      41.442  24.458  27.350  1.00  0.00    -0.203 F 
ATOM     86  F   UNL A   1      45.442  23.304  23.850  1.00  0.00    -0.200 F 
ATOM     87  C   UNL A   1      43.530  22.632  25.051  1.00  0.00     0.200 A 
ATOM     88  F   UNL A   1      41.659  21.998  26.339  1.00  0.00    -0.200 F 
ATOM     89  F   UNL A   1      43.679  21.372  24.619  1.00  0.00    -0.200 F 
ENDBRANCH  55  79
BRANCH  67  90
ATOM     90  C   UNL A   1      45.619  30.568  28.619  1.00  0.00     0.064 A 
ATOM     91  C   UNL A   1      44.638  31.274  27.900  1.00  0.00     0.173 A 
ATOM     92  C   UNL A   1      46.950  30.968  28.450  1.00  0.00     0.173 A 
ATOM     93  F   UNL A   1      43.336  31.019  28.077  1.00  0.00    -0.203 F 
ATOM     94  C   UNL A   1      44.982  32.302  27.023  1.00  0.00     0.198 A 
ATOM     95  C   UNL A   1      47.289  32.018  27.603  1.00  0.00     0.198 A 
ATOM     96  F   UNL A   1      47.925  30.366  29.151  1.00  0.00    -0.203 F 
ATOM     97  F   UNL A   1      44.029  32.952  26.338  1.00  0.00    -0.200 F 
ATOM     98  C   UNL A   1      46.308  32.678  26.882  1.00  0.00     0.200 A 
ATOM     99  F   UNL A   1      48.566  32.412  27.509  1.00  0.00    -0.200 F 
ATOM    100  F   UNL A   1      46.637  33.695  26.072  1.00  0.00    -0.200 F 
ENDBRANCH  67  90
ENDBRANCH  41  42
ENDBRANCH  34  36
ENDBRANCH  33  34
ENDBRANCH  32  33
ENDBRANCH   1  32
TORSDOF 16
ENDMDL
