MODEL 1
REMARK VINA RESULT:     -10.0      0.000      0.000
REMARK SMILES CC[C@H](C)N(CC(=O)OCCOC(=O)c1ccc(-c2c3nc(c(-c4c(F)c(F)c(F)c(F)c4F)c4ccc([nH]4)c(-c4c(F)c(F)c(F)c(F)c4F)c4nc(c(-c5c(F)c(F)c(F)c(F)c5F)c5ccc2[nH]5)C=C4)C=C3)cc1)C(=O)N(C)[C@@H](C)Cc1cccs1
REMARK SMILES IDX 7 1 8 2 6 3 5 4 3 5 4 6 2 7 1 8 78 9 79 10 80 11 81 12 82 13
REMARK SMILES IDX 83 14 84 15 85 16 86 17 89 18 87 19 88 20 9 21 10 22 11 23
REMARK SMILES IDX 12 24 13 25 14 26 15 27 16 28 77 29 17 30 76 31 18 32 19 33
REMARK SMILES IDX 20 34 70 35 21 36 75 37 69 38 71 39 22 40 74 41 68 42 67 43
REMARK SMILES IDX 23 45 55 46 35 47 54 48 36 49 39 50 53 51 72 52 37 53 38 54
REMARK SMILES IDX 52 56 73 57 40 58 24 59 25 60 33 61 26 62 27 63 31 64 34 65
REMARK SMILES IDX 28 66 29 67 32 68 30 69 56 70 57 71 65 72 58 73 59 74 63 75
REMARK SMILES IDX 66 76 60 77 61 78 64 79 62 80 41 81 42 82 50 83 43 84 44 85
REMARK SMILES IDX 48 86 51 87 45 88 46 89 49 90 47 91
REMARK H PARENT 71 44 39 55
REMARK Flexibility Score: inf
ROOT
ATOM      1  C   UNL A   1      35.259  22.816  23.447  1.00  0.00     0.325 C 
ATOM      2  O   UNL A   1      36.183  23.185  22.725  1.00  0.00    -0.250 OA
ENDROOT
BRANCH   1   3
ATOM      3  C   UNL A   1      33.805  23.071  23.056  1.00  0.00     0.244 C 
BRANCH   3   4
ATOM      4  N   UNL A   1      33.102  24.288  23.498  1.00  0.00    -0.311 N 
BRANCH   4   5
ATOM      5  C   UNL A   1      32.295  24.131  24.734  1.00  0.00     0.084 C 
ATOM      6  C   UNL A   1      31.479  22.831  24.695  1.00  0.00     0.031 C 
BRANCH   5   7
ATOM      7  C   UNL A   1      33.116  24.339  26.021  1.00  0.00     0.021 C 
ATOM      8  C   UNL A   1      32.952  23.205  27.022  1.00  0.00     0.006 C 
ENDBRANCH   5   7
ENDBRANCH   4   5
BRANCH   4   9
ATOM      9  C   UNL A   1      33.205  25.574  22.974  1.00  0.00     0.320 C 
ATOM     10  O   UNL A   1      33.990  25.798  22.048  1.00  0.00    -0.248 OA
BRANCH   9  11
ATOM     11  N   UNL A   1      32.419  26.611  23.448  1.00  0.00    -0.325 N 
ATOM     12  C   UNL A   1      31.114  26.930  22.910  1.00  0.00     0.149 C 
BRANCH  11  13
ATOM     13  C   UNL A   1      33.071  27.736  24.179  1.00  0.00     0.088 C 
ATOM     14  C   UNL A   1      33.077  29.058  23.395  1.00  0.00     0.031 C 
BRANCH  13  15
ATOM     15  C   UNL A   1      32.520  27.948  25.617  1.00  0.00     0.071 C 
BRANCH  15  16
ATOM     16  C   UNL A   1      33.303  28.977  26.397  1.00  0.00     0.007 A 
ATOM     17  C   UNL A   1      34.568  28.854  26.936  1.00  0.00     0.015 A 
ATOM     18  S   UNL A   1      32.629  30.514  26.740  1.00  0.00    -0.149 S 
ATOM     19  C   UNL A   1      34.945  29.986  27.714  1.00  0.00     0.012 A 
ATOM     20  C   UNL A   1      33.979  30.967  27.687  1.00  0.00     0.065 A 
ENDBRANCH  15  16
ENDBRANCH  13  15
ENDBRANCH  11  13
ENDBRANCH   9  11
ENDBRANCH   4   9
ENDBRANCH   3   4
ENDBRANCH   1   3
BRANCH   1  21
ATOM     21  O   UNL A   1      35.415  22.258  24.674  1.00  0.00    -0.461 OA
BRANCH  21  22
ATOM     22  C   UNL A   1      35.532  20.819  24.685  1.00  0.00     0.274 C 
BRANCH  22  23
ATOM     23  C   UNL A   1      36.817  20.372  25.380  1.00  0.00     0.275 C 
BRANCH  23  24
ATOM     24  O   UNL A   1      37.867  21.324  25.140  1.00  0.00    -0.458 OA
BRANCH  24  25
ATOM     25  C   UNL A   1      38.972  21.159  25.906  1.00  0.00     0.338 C 
ATOM     26  O   UNL A   1      39.575  20.114  26.087  1.00  0.00    -0.246 OA
BRANCH  25  27
ATOM     27  C   UNL A   1      39.425  22.452  26.486  1.00  0.00     0.060 A 
ATOM     28  C   UNL A   1      38.838  23.668  26.140  1.00  0.00     0.016 A 
ATOM     29  C   UNL A   1      40.554  22.456  27.312  1.00  0.00     0.016 A 
ATOM     30  C   UNL A   1      39.478  24.870  26.464  1.00  0.00     0.010 A 
ATOM     31  C   UNL A   1      41.111  23.665  27.749  1.00  0.00     0.010 A 
ATOM     32  C   UNL A   1      40.626  24.892  27.277  1.00  0.00    -0.014 A 
BRANCH  32  33
ATOM     33  C   UNL A   1      41.301  26.183  27.623  1.00  0.00     0.031 A 
ATOM     34  C   UNL A   1      42.750  26.446  27.268  1.00  0.00     0.074 A 
ATOM     35  C   UNL A   1      40.609  27.158  28.249  1.00  0.00     0.049 A 
ATOM     36  N   UNL A   1      43.480  27.516  27.493  1.00  0.00    -0.248 NA
ATOM     37  C   UNL A   1      43.476  25.384  26.556  1.00  0.00     0.031 C 
ATOM     38  C   UNL A   1      39.207  27.074  28.657  1.00  0.00     0.029 A 
ATOM     39  N   UNL A   1      40.993  28.417  28.653  1.00  0.00    -0.354 N 
ATOM     40  C   UNL A   1      44.727  27.260  26.937  1.00  0.00     0.074 A 
ATOM     41  C   UNL A   1      44.678  25.922  26.393  1.00  0.00     0.031 C 
ATOM     42  C   UNL A   1      38.837  28.234  29.213  1.00  0.00     0.029 A 
ATOM     43  C   UNL A   1      39.996  29.115  29.289  1.00  0.00     0.049 A 
ATOM     44  H   UNL A   1      41.895  28.780  28.501  1.00  0.00     0.167 HD
ATOM     45  C   UNL A   1      45.815  28.065  26.868  1.00  0.00     0.037 A 
ATOM     46  C   UNL A   1      40.010  30.309  29.911  1.00  0.00     0.037 A 
ATOM     47  C   UNL A   1      45.909  29.381  27.443  1.00  0.00     0.049 A 
ATOM     48  C   UNL A   1      41.278  31.105  29.974  1.00  0.00     0.074 A 
ATOM     49  C   UNL A   1      46.974  30.266  27.407  1.00  0.00     0.029 A 
ATOM     50  N   UNL A   1      44.911  29.990  28.185  1.00  0.00    -0.354 N 
ATOM     51  N   UNL A   1      42.437  30.857  29.420  1.00  0.00    -0.248 NA
ATOM     52  C   UNL A   1      41.245  32.338  30.773  1.00  0.00     0.031 C 
ATOM     53  C   UNL A   1      46.641  31.387  28.176  1.00  0.00     0.029 A 
ATOM     54  C   UNL A   1      45.353  31.218  28.654  1.00  0.00     0.049 A 
ATOM     55  H   UNL A   1      44.020  29.608  28.355  1.00  0.00     0.167 HD
ATOM     56  C   UNL A   1      43.271  31.900  29.796  1.00  0.00     0.074 A 
ATOM     57  C   UNL A   1      42.479  32.796  30.612  1.00  0.00     0.031 C 
ATOM     58  C   UNL A   1      44.576  32.093  29.491  1.00  0.00     0.037 A 
BRANCH  45  59
ATOM     59  C   UNL A   1      47.021  27.544  26.144  1.00  0.00     0.064 A 
ATOM     60  C   UNL A   1      47.156  27.701  24.757  1.00  0.00     0.173 A 
ATOM     61  C   UNL A   1      48.084  26.964  26.850  1.00  0.00     0.173 A 
ATOM     62  F   UNL A   1      46.162  28.245  24.040  1.00  0.00    -0.203 F 
ATOM     63  C   UNL A   1      48.314  27.288  24.101  1.00  0.00     0.198 A 
ATOM     64  C   UNL A   1      49.246  26.566  26.193  1.00  0.00     0.198 A 
ATOM     65  F   UNL A   1      48.001  26.798  28.179  1.00  0.00    -0.203 F 
ATOM     66  F   UNL A   1      48.420  27.436  22.773  1.00  0.00    -0.200 F 
ATOM     67  C   UNL A   1      49.360  26.729  24.821  1.00  0.00     0.200 A 
ATOM     68  F   UNL A   1      50.258  26.031  26.890  1.00  0.00    -0.200 F 
ATOM     69  F   UNL A   1      50.479  26.346  24.191  1.00  0.00    -0.200 F 
ENDBRANCH  45  59
BRANCH  46  70
ATOM     70  C   UNL A   1      38.775  30.790  30.581  1.00  0.00     0.064 A 
ATOM     71  C   UNL A   1      38.572  30.597  31.952  1.00  0.00     0.173 A 
ATOM     72  C   UNL A   1      37.788  31.482  29.861  1.00  0.00     0.173 A 
ATOM     73  F   UNL A   1      39.474  29.915  32.674  1.00  0.00    -0.203 F 
ATOM     74  C   UNL A   1      37.431  31.088  32.582  1.00  0.00     0.198 A 
ATOM     75  C   UNL A   1      36.663  31.998  30.497  1.00  0.00     0.198 A 
ATOM     76  F   UNL A   1      37.937  31.686  28.543  1.00  0.00    -0.203 F 
ATOM     77  F   UNL A   1      37.245  30.871  33.891  1.00  0.00    -0.200 F 
ATOM     78  C   UNL A   1      36.483  31.797  31.857  1.00  0.00     0.200 A 
ATOM     79  F   UNL A   1      35.760  32.695  29.795  1.00  0.00    -0.200 F 
ATOM     80  F   UNL A   1      35.396  32.286  32.468  1.00  0.00    -0.200 F 
ENDBRANCH  46  70
BRANCH  58  81
ATOM     81  C   UNL A   1      45.232  33.322  30.046  1.00  0.00     0.064 A 
ATOM     82  C   UNL A   1      45.908  33.293  31.274  1.00  0.00     0.173 A 
ATOM     83  C   UNL A   1      45.185  34.537  29.347  1.00  0.00     0.173 A 
ATOM     84  F   UNL A   1      45.964  32.159  31.988  1.00  0.00    -0.203 F 
ATOM     85  C   UNL A   1      46.492  34.445  31.795  1.00  0.00     0.198 A 
ATOM     86  C   UNL A   1      45.789  35.680  29.860  1.00  0.00     0.198 A 
ATOM     87  F   UNL A   1      44.551  34.614  28.168  1.00  0.00    -0.203 F 
ATOM     88  F   UNL A   1      47.089  34.407  32.995  1.00  0.00    -0.200 F 
ATOM     89  C   UNL A   1      46.435  35.635  31.087  1.00  0.00     0.200 A 
ATOM     90  F   UNL A   1      45.739  36.829  29.171  1.00  0.00    -0.200 F 
ATOM     91  F   UNL A   1      46.991  36.746  31.593  1.00  0.00    -0.200 F 
ENDBRANCH  58  81
ENDBRANCH  32  33
ENDBRANCH  25  27
ENDBRANCH  24  25
ENDBRANCH  23  24
ENDBRANCH  22  23
ENDBRANCH  21  22
ENDBRANCH   1  21
TORSDOF 19
ENDMDL
MODEL 2
REMARK VINA RESULT:     -10.0      4.266      7.111
REMARK SMILES CC[C@H](C)N(CC(=O)OCCOC(=O)c1ccc(-c2c3nc(c(-c4c(F)c(F)c(F)c(F)c4F)c4ccc([nH]4)c(-c4c(F)c(F)c(F)c(F)c4F)c4nc(c(-c5c(F)c(F)c(F)c(F)c5F)c5ccc2[nH]5)C=C4)C=C3)cc1)C(=O)N(C)[C@@H](C)Cc1cccs1
REMARK SMILES IDX 7 1 8 2 6 3 5 4 3 5 4 6 2 7 1 8 78 9 79 10 80 11 81 12 82 13
REMARK SMILES IDX 83 14 84 15 85 16 86 17 89 18 87 19 88 20 9 21 10 22 11 23
REMARK SMILES IDX 12 24 13 25 14 26 15 27 16 28 77 29 17 30 76 31 18 32 19 33
REMARK SMILES IDX 20 34 70 35 21 36 75 37 69 38 71 39 22 40 74 41 68 42 67 43
REMARK SMILES IDX 23 45 55 46 35 47 54 48 36 49 39 50 53 51 72 52 37 53 38 54
REMARK SMILES IDX 52 56 73 57 40 58 24 59 25 60 33 61 26 62 27 63 31 64 34 65
REMARK SMILES IDX 28 66 29 67 32 68 30 69 56 70 57 71 65 72 58 73 59 74 63 75
REMARK SMILES IDX 66 76 60 77 61 78 64 79 62 80 41 81 42 82 50 83 43 84 44 85
REMARK SMILES IDX 48 86 51 87 45 88 46 89 49 90 47 91
REMARK H PARENT 71 44 39 55
REMARK Flexibility Score: inf
ROOT
ATOM      1  C   UNL A   1      31.603  27.169  25.997  1.00  0.00     0.325 C 
ATOM      2  O   UNL A   1      31.472  26.963  27.203  1.00  0.00    -0.250 OA
ENDROOT
BRANCH   1   3
ATOM      3  C   UNL A   1      32.578  26.343  25.161  1.00  0.00     0.244 C 
BRANCH   3   4
ATOM      4  N   UNL A   1      32.091  25.353  24.184  1.00  0.00    -0.311 N 
BRANCH   4   5
ATOM      5  C   UNL A   1      32.283  25.731  22.761  1.00  0.00     0.084 C 
ATOM      6  C   UNL A   1      31.115  26.591  22.259  1.00  0.00     0.031 C 
BRANCH   5   7
ATOM      7  C   UNL A   1      33.681  26.310  22.474  1.00  0.00     0.021 C 
ATOM      8  C   UNL A   1      33.653  27.793  22.136  1.00  0.00     0.006 C 
ENDBRANCH   5   7
ENDBRANCH   4   5
BRANCH   4   9
ATOM      9  C   UNL A   1      31.597  24.075  24.434  1.00  0.00     0.320 C 
ATOM     10  O   UNL A   1      30.590  23.680  23.839  1.00  0.00    -0.248 OA
BRANCH   9  11
ATOM     11  N   UNL A   1      32.230  23.218  25.318  1.00  0.00    -0.325 N 
ATOM     12  C   UNL A   1      32.309  23.461  26.742  1.00  0.00     0.149 C 
BRANCH  11  13
ATOM     13  C   UNL A   1      33.270  22.284  24.798  1.00  0.00     0.088 C 
ATOM     14  C   UNL A   1      32.705  21.164  23.910  1.00  0.00     0.031 C 
BRANCH  13  15
ATOM     15  C   UNL A   1      34.457  23.002  24.095  1.00  0.00     0.071 C 
BRANCH  15  16
ATOM     16  C   UNL A   1      35.776  22.771  24.794  1.00  0.00     0.007 A 
ATOM     17  C   UNL A   1      36.641  23.714  25.312  1.00  0.00     0.015 A 
ATOM     18  S   UNL A   1      36.389  21.185  25.003  1.00  0.00    -0.149 S 
ATOM     19  C   UNL A   1      37.853  23.141  25.793  1.00  0.00     0.012 A 
ATOM     20  C   UNL A   1      37.844  21.768  25.688  1.00  0.00     0.065 A 
ENDBRANCH  15  16
ENDBRANCH  13  15
ENDBRANCH  11  13
ENDBRANCH   9  11
ENDBRANCH   4   9
ENDBRANCH   3   4
ENDBRANCH   1   3
BRANCH   1  21
ATOM     21  O   UNL A   1      31.004  28.179  25.318  1.00  0.00    -0.461 OA
BRANCH  21  22
ATOM     22  C   UNL A   1      31.884  29.245  24.901  1.00  0.00     0.274 C 
BRANCH  22  23
ATOM     23  C   UNL A   1      31.525  30.562  25.589  1.00  0.00     0.275 C 
BRANCH  23  24
ATOM     24  O   UNL A   1      32.037  30.575  26.933  1.00  0.00    -0.458 OA
BRANCH  24  25
ATOM     25  C   UNL A   1      32.810  31.645  27.238  1.00  0.00     0.338 C 
ATOM     26  O   UNL A   1      32.477  32.817  27.175  1.00  0.00    -0.246 OA
BRANCH  25  27
ATOM     27  C   UNL A   1      34.148  31.220  27.732  1.00  0.00     0.060 A 
ATOM     28  C   UNL A   1      34.488  29.879  27.898  1.00  0.00     0.016 A 
ATOM     29  C   UNL A   1      35.047  32.204  28.156  1.00  0.00     0.016 A 
ATOM     30  C   UNL A   1      35.622  29.533  28.641  1.00  0.00     0.010 A 
ATOM     31  C   UNL A   1      36.251  31.847  28.778  1.00  0.00     0.010 A 
ATOM     32  C   UNL A   1      36.528  30.510  29.092  1.00  0.00    -0.014 A 
BRANCH  32  33
ATOM     33  C   UNL A   1      37.743  30.130  29.882  1.00  0.00     0.031 A 
ATOM     34  C   UNL A   1      38.795  29.193  29.326  1.00  0.00     0.074 A 
ATOM     35  C   UNL A   1      37.931  30.642  31.116  1.00  0.00     0.049 A 
ATOM     36  N   UNL A   1      39.908  28.770  29.882  1.00  0.00    -0.248 NA
ATOM     37  C   UNL A   1      38.588  28.672  27.967  1.00  0.00     0.031 C 
ATOM     38  C   UNL A   1      37.021  31.562  31.799  1.00  0.00     0.029 A 
ATOM     39  N   UNL A   1      38.954  30.463  32.019  1.00  0.00    -0.354 N 
ATOM     40  C   UNL A   1      40.531  27.960  28.940  1.00  0.00     0.074 A 
ATOM     41  C   UNL A   1      39.662  27.915  27.786  1.00  0.00     0.031 C 
ATOM     42  C   UNL A   1      37.540  31.897  32.988  1.00  0.00     0.029 A 
ATOM     43  C   UNL A   1      38.772  31.146  33.196  1.00  0.00     0.049 A 
ATOM     44  H   UNL A   1      39.740  29.898  31.838  1.00  0.00     0.167 HD
ATOM     45  C   UNL A   1      41.723  27.321  29.015  1.00  0.00     0.037 A 
ATOM     46  C   UNL A   1      39.480  31.142  34.341  1.00  0.00     0.037 A 
ATOM     47  C   UNL A   1      42.585  27.308  30.168  1.00  0.00     0.049 A 
ATOM     48  C   UNL A   1      40.705  30.286  34.460  1.00  0.00     0.074 A 
ATOM     49  C   UNL A   1      43.816  26.692  30.320  1.00  0.00     0.029 A 
ATOM     50  N   UNL A   1      42.291  27.914  31.378  1.00  0.00    -0.354 N 
ATOM     51  N   UNL A   1      41.289  29.549  33.549  1.00  0.00    -0.248 NA
ATOM     52  C   UNL A   1      41.353  30.240  35.778  1.00  0.00     0.031 C 
ATOM     53  C   UNL A   1      44.241  26.878  31.641  1.00  0.00     0.029 A 
ATOM     54  C   UNL A   1      43.294  27.646  32.297  1.00  0.00     0.049 A 
ATOM     55  H   UNL A   1      41.489  28.455  31.559  1.00  0.00     0.167 HD
ATOM     56  C   UNL A   1      42.375  28.957  34.178  1.00  0.00     0.074 A 
ATOM     57  C   UNL A   1      42.380  29.435  35.544  1.00  0.00     0.031 C 
ATOM     58  C   UNL A   1      43.283  28.094  33.663  1.00  0.00     0.037 A 
BRANCH  45  59
ATOM     59  C   UNL A   1      42.181  26.559  27.807  1.00  0.00     0.064 A 
ATOM     60  C   UNL A   1      43.116  27.107  26.916  1.00  0.00     0.173 A 
ATOM     61  C   UNL A   1      41.749  25.244  27.584  1.00  0.00     0.173 A 
ATOM     62  F   UNL A   1      43.552  28.364  27.086  1.00  0.00    -0.203 F 
ATOM     63  C   UNL A   1      43.599  26.365  25.841  1.00  0.00     0.198 A 
ATOM     64  C   UNL A   1      42.245  24.499  26.517  1.00  0.00     0.198 A 
ATOM     65  F   UNL A   1      40.859  24.676  28.413  1.00  0.00    -0.203 F 
ATOM     66  F   UNL A   1      44.483  26.910  24.995  1.00  0.00    -0.200 F 
ATOM     67  C   UNL A   1      43.169  25.060  25.648  1.00  0.00     0.200 A 
ATOM     68  F   UNL A   1      41.834  23.237  26.334  1.00  0.00    -0.200 F 
ATOM     69  F   UNL A   1      43.645  24.341  24.621  1.00  0.00    -0.200 F 
ENDBRANCH  45  59
BRANCH  46  70
ATOM     70  C   UNL A   1      38.997  31.944  35.494  1.00  0.00     0.064 A 
ATOM     71  C   UNL A   1      38.214  31.368  36.500  1.00  0.00     0.173 A 
ATOM     72  C   UNL A   1      39.342  33.299  35.622  1.00  0.00     0.173 A 
ATOM     73  F   UNL A   1      37.836  30.085  36.403  1.00  0.00    -0.203 F 
ATOM     74  C   UNL A   1      37.799  32.116  37.599  1.00  0.00     0.198 A 
ATOM     75  C   UNL A   1      38.952  34.037  36.736  1.00  0.00     0.198 A 
ATOM     76  F   UNL A   1      40.087  33.895  34.679  1.00  0.00    -0.203 F 
ATOM     77  F   UNL A   1      37.029  31.552  38.540  1.00  0.00    -0.200 F 
ATOM     78  C   UNL A   1      38.178  33.446  37.722  1.00  0.00     0.200 A 
ATOM     79  F   UNL A   1      39.334  35.315  36.856  1.00  0.00    -0.200 F 
ATOM     80  F   UNL A   1      37.797  34.158  38.791  1.00  0.00    -0.200 F 
ENDBRANCH  46  70
BRANCH  58  81
ATOM     81  C   UNL A   1      44.360  27.607  34.586  1.00  0.00     0.064 A 
ATOM     82  C   UNL A   1      45.547  28.333  34.767  1.00  0.00     0.173 A 
ATOM     83  C   UNL A   1      44.206  26.408  35.296  1.00  0.00     0.173 A 
ATOM     84  F   UNL A   1      45.747  29.477  34.095  1.00  0.00    -0.203 F 
ATOM     85  C   UNL A   1      46.552  27.860  35.605  1.00  0.00     0.198 A 
ATOM     86  C   UNL A   1      45.204  25.951  36.151  1.00  0.00     0.198 A 
ATOM     87  F   UNL A   1      43.088  25.679  35.158  1.00  0.00    -0.203 F 
ATOM     88  F   UNL A   1      47.699  28.544  35.724  1.00  0.00    -0.200 F 
ATOM     89  C   UNL A   1      46.379  26.673  36.299  1.00  0.00     0.200 A 
ATOM     90  F   UNL A   1      45.032  24.806  36.827  1.00  0.00    -0.200 F 
ATOM     91  F   UNL A   1      47.351  26.215  37.101  1.00  0.00    -0.200 F 
ENDBRANCH  58  81
ENDBRANCH  32  33
ENDBRANCH  25  27
ENDBRANCH  24  25
ENDBRANCH  23  24
ENDBRANCH  22  23
ENDBRANCH  21  22
ENDBRANCH   1  21
TORSDOF 19
ENDMDL
MODEL 3
REMARK VINA RESULT:      -9.9      1.051      7.448
REMARK SMILES CC[C@H](C)N(CC(=O)OCCOC(=O)c1ccc(-c2c3nc(c(-c4c(F)c(F)c(F)c(F)c4F)c4ccc([nH]4)c(-c4c(F)c(F)c(F)c(F)c4F)c4nc(c(-c5c(F)c(F)c(F)c(F)c5F)c5ccc2[nH]5)C=C4)C=C3)cc1)C(=O)N(C)[C@@H](C)Cc1cccs1
REMARK SMILES IDX 7 1 8 2 6 3 5 4 3 5 4 6 2 7 1 8 78 9 79 10 80 11 81 12 82 13
REMARK SMILES IDX 83 14 84 15 85 16 86 17 89 18 87 19 88 20 9 21 10 22 11 23
REMARK SMILES IDX 12 24 13 25 14 26 15 27 16 28 77 29 17 30 76 31 18 32 19 33
REMARK SMILES IDX 20 34 70 35 21 36 75 37 69 38 71 39 22 40 74 41 68 42 67 43
REMARK SMILES IDX 23 45 55 46 35 47 54 48 36 49 39 50 53 51 72 52 37 53 38 54
REMARK SMILES IDX 52 56 73 57 40 58 24 59 25 60 33 61 26 62 27 63 31 64 34 65
REMARK SMILES IDX 28 66 29 67 32 68 30 69 56 70 57 71 65 72 58 73 59 74 63 75
REMARK SMILES IDX 66 76 60 77 61 78 64 79 62 80 41 81 42 82 50 83 43 84 44 85
REMARK SMILES IDX 48 86 51 87 45 88 46 89 49 90 47 91
REMARK H PARENT 71 44 39 55
REMARK Flexibility Score: inf
ROOT
ATOM      1  C   UNL A   1      35.286  23.183  23.565  1.00  0.00     0.325 C 
ATOM      2  O   UNL A   1      36.157  23.178  22.696  1.00  0.00    -0.250 OA
ENDROOT
BRANCH   1   3
ATOM      3  C   UNL A   1      34.668  24.491  24.052  1.00  0.00     0.244 C 
BRANCH   3   4
ATOM      4  N   UNL A   1      33.368  24.956  23.536  1.00  0.00    -0.311 N 
BRANCH   4   5
ATOM      5  C   UNL A   1      33.451  25.978  22.462  1.00  0.00     0.084 C 
ATOM      6  C   UNL A   1      32.852  25.448  21.152  1.00  0.00     0.031 C 
BRANCH   5   7
ATOM      7  C   UNL A   1      32.925  27.358  22.901  1.00  0.00     0.021 C 
ATOM      8  C   UNL A   1      33.977  28.453  22.808  1.00  0.00     0.006 C 
ENDBRANCH   5   7
ENDBRANCH   4   5
BRANCH   4   9
ATOM      9  C   UNL A   1      32.101  24.466  23.842  1.00  0.00     0.320 C 
ATOM     10  O   UNL A   1      31.564  23.645  23.093  1.00  0.00    -0.248 OA
BRANCH   9  11
ATOM     11  N   UNL A   1      31.436  24.856  24.992  1.00  0.00    -0.325 N 
ATOM     12  C   UNL A   1      30.845  23.922  25.924  1.00  0.00     0.149 C 
BRANCH  11  13
ATOM     13  C   UNL A   1      30.871  26.235  25.067  1.00  0.00     0.088 C 
ATOM     14  C   UNL A   1      29.408  26.327  24.607  1.00  0.00     0.031 C 
BRANCH  13  15
ATOM     15  C   UNL A   1      31.059  26.911  26.454  1.00  0.00     0.071 C 
BRANCH  15  16
ATOM     16  C   UNL A   1      32.123  27.982  26.443  1.00  0.00     0.007 A 
ATOM     17  C   UNL A   1      33.437  27.881  26.860  1.00  0.00     0.015 A 
ATOM     18  S   UNL A   1      31.767  29.564  25.892  1.00  0.00    -0.149 S 
ATOM     19  C   UNL A   1      34.122  29.129  26.818  1.00  0.00     0.012 A 
ATOM     20  C   UNL A   1      33.328  30.129  26.305  1.00  0.00     0.065 A 
ENDBRANCH  15  16
ENDBRANCH  13  15
ENDBRANCH  11  13
ENDBRANCH   9  11
ENDBRANCH   4   9
ENDBRANCH   3   4
ENDBRANCH   1   3
BRANCH   1  21
ATOM     21  O   UNL A   1      34.867  22.084  24.242  1.00  0.00    -0.461 OA
BRANCH  21  22
ATOM     22  C   UNL A   1      35.540  21.842  25.496  1.00  0.00     0.274 C 
BRANCH  22  23
ATOM     23  C   UNL A   1      36.636  20.788  25.343  1.00  0.00     0.275 C 
BRANCH  23  24
ATOM     24  O   UNL A   1      37.890  21.419  25.032  1.00  0.00    -0.458 OA
BRANCH  24  25
ATOM     25  C   UNL A   1      38.873  21.213  25.942  1.00  0.00     0.338 C 
ATOM     26  O   UNL A   1      39.336  20.133  26.272  1.00  0.00    -0.246 OA
BRANCH  25  27
ATOM     27  C   UNL A   1      39.389  22.501  26.480  1.00  0.00     0.060 A 
ATOM     28  C   UNL A   1      38.816  23.728  26.148  1.00  0.00     0.016 A 
ATOM     29  C   UNL A   1      40.558  22.484  27.248  1.00  0.00     0.016 A 
ATOM     30  C   UNL A   1      39.504  24.915  26.422  1.00  0.00     0.010 A 
ATOM     31  C   UNL A   1      41.169  23.683  27.638  1.00  0.00     0.010 A 
ATOM     32  C   UNL A   1      40.692  24.917  27.176  1.00  0.00    -0.014 A 
BRANCH  32  33
ATOM     33  C   UNL A   1      41.418  26.194  27.469  1.00  0.00     0.031 A 
ATOM     34  C   UNL A   1      40.769  27.320  28.247  1.00  0.00     0.074 A 
ATOM     35  C   UNL A   1      42.692  26.355  27.053  1.00  0.00     0.049 A 
ATOM     36  N   UNL A   1      41.266  28.488  28.588  1.00  0.00    -0.248 NA
ATOM     37  C   UNL A   1      39.392  27.112  28.718  1.00  0.00     0.031 C 
ATOM     38  C   UNL A   1      43.467  25.370  26.299  1.00  0.00     0.029 A 
ATOM     39  N   UNL A   1      43.563  27.409  27.209  1.00  0.00    -0.354 N 
ATOM     40  C   UNL A   1      40.278  29.132  29.323  1.00  0.00     0.074 A 
ATOM     41  C   UNL A   1      39.135  28.248  29.352  1.00  0.00     0.031 C 
ATOM     42  C   UNL A   1      44.703  25.844  26.093  1.00  0.00     0.029 A 
ATOM     43  C   UNL A   1      44.783  27.202  26.615  1.00  0.00     0.049 A 
ATOM     44  H   UNL A   1      43.332  28.232  27.698  1.00  0.00     0.167 HD
ATOM     45  C   UNL A   1      40.315  30.342  29.932  1.00  0.00     0.037 A 
ATOM     46  C   UNL A   1      45.841  28.021  26.456  1.00  0.00     0.037 A 
ATOM     47  C   UNL A   1      41.421  31.262  29.879  1.00  0.00     0.049 A 
ATOM     48  C   UNL A   1      45.789  29.421  26.990  1.00  0.00     0.074 A 
ATOM     49  C   UNL A   1      41.541  32.504  30.479  1.00  0.00     0.029 A 
ATOM     50  N   UNL A   1      42.585  31.055  29.157  1.00  0.00    -0.354 N 
ATOM     51  N   UNL A   1      44.857  29.999  27.702  1.00  0.00    -0.248 NA
ATOM     52  C   UNL A   1      46.930  30.290  26.671  1.00  0.00     0.031 C 
ATOM     53  C   UNL A   1      42.755  33.073  30.075  1.00  0.00     0.029 A 
ATOM     54  C   UNL A   1      43.407  32.166  29.258  1.00  0.00     0.049 A 
ATOM     55  H   UNL A   1      42.796  30.239  28.649  1.00  0.00     0.167 HD
ATOM     56  C   UNL A   1      45.297  31.296  27.924  1.00  0.00     0.074 A 
ATOM     57  C   UNL A   1      46.590  31.416  27.285  1.00  0.00     0.031 C 
ATOM     58  C   UNL A   1      44.678  32.296  28.597  1.00  0.00     0.037 A 
BRANCH  45  59
ATOM     59  C   UNL A   1      39.110  30.761  30.719  1.00  0.00     0.064 A 
ATOM     60  C   UNL A   1      38.014  31.375  30.095  1.00  0.00     0.173 A 
ATOM     61  C   UNL A   1      39.013  30.472  32.088  1.00  0.00     0.173 A 
ATOM     62  F   UNL A   1      38.065  31.677  28.789  1.00  0.00    -0.203 F 
ATOM     63  C   UNL A   1      36.864  31.689  30.816  1.00  0.00     0.198 A 
ATOM     64  C   UNL A   1      37.856  30.773  32.803  1.00  0.00     0.198 A 
ATOM     65  F   UNL A   1      40.034  29.881  32.727  1.00  0.00    -0.203 F 
ATOM     66  F   UNL A   1      35.833  32.285  30.203  1.00  0.00    -0.200 F 
ATOM     67  C   UNL A   1      36.784  31.380  32.166  1.00  0.00     0.200 A 
ATOM     68  F   UNL A   1      37.777  30.470  34.105  1.00  0.00    -0.200 F 
ATOM     69  F   UNL A   1      35.671  31.670  32.855  1.00  0.00    -0.200 F 
ENDBRANCH  45  59
BRANCH  46  70
ATOM     70  C   UNL A   1      47.023  27.538  25.697  1.00  0.00     0.064 A 
ATOM     71  C   UNL A   1      47.097  27.677  24.307  1.00  0.00     0.173 A 
ATOM     72  C   UNL A   1      48.115  26.956  26.360  1.00  0.00     0.173 A 
ATOM     73  F   UNL A   1      46.064  28.200  23.629  1.00  0.00    -0.203 F 
ATOM     74  C   UNL A   1      48.226  27.259  23.606  1.00  0.00     0.198 A 
ATOM     75  C   UNL A   1      49.254  26.567  25.662  1.00  0.00     0.198 A 
ATOM     76  F   UNL A   1      48.086  26.798  27.692  1.00  0.00    -0.203 F 
ATOM     77  F   UNL A   1      48.267  27.380  22.272  1.00  0.00    -0.200 F 
ATOM     78  C   UNL A   1      49.308  26.716  24.286  1.00  0.00     0.200 A 
ATOM     79  F   UNL A   1      50.301  26.058  26.326  1.00  0.00    -0.200 F 
ATOM     80  F   UNL A   1      50.402  26.335  23.613  1.00  0.00    -0.200 F 
ENDBRANCH  46  70
BRANCH  58  81
ATOM     81  C   UNL A   1      45.395  33.611  28.674  1.00  0.00     0.064 A 
ATOM     82  C   UNL A   1      46.326  33.874  29.689  1.00  0.00     0.173 A 
ATOM     83  C   UNL A   1      45.150  34.616  27.728  1.00  0.00     0.173 A 
ATOM     84  F   UNL A   1      46.580  32.950  30.628  1.00  0.00    -0.203 F 
ATOM     85  C   UNL A   1      46.967  35.107  29.768  1.00  0.00     0.198 A 
ATOM     86  C   UNL A   1      45.811  35.839  27.797  1.00  0.00     0.198 A 
ATOM     87  F   UNL A   1      44.270  34.412  26.737  1.00  0.00    -0.203 F 
ATOM     88  F   UNL A   1      47.816  35.354  30.777  1.00  0.00    -0.200 F 
ATOM     89  C   UNL A   1      46.712  36.086  28.822  1.00  0.00     0.200 A 
ATOM     90  F   UNL A   1      45.568  36.782  26.876  1.00  0.00    -0.200 F 
ATOM     91  F   UNL A   1      47.325  37.276  28.903  1.00  0.00    -0.200 F 
ENDBRANCH  58  81
ENDBRANCH  32  33
ENDBRANCH  25  27
ENDBRANCH  24  25
ENDBRANCH  23  24
ENDBRANCH  22  23
ENDBRANCH  21  22
ENDBRANCH   1  21
TORSDOF 19
ENDMDL
