MODEL 1
REMARK VINA RESULT:     -13.3      0.000      0.000
REMARK SMILES O=C(Cn1c2ccccc2c(=O)c2ccccc21)N[C@@H](Cc1ccccc1)C(=O)OCCOC(=O)c1ccc(-c2c3nc(c(-c4c(F)c(F)c(F)c(F)c4F)c4ccc([nH]4)c(-c4c(F)c(F)c(F)c(F)c4F)c4nc(c(-c5c(F)c(F)c(F)c(F)c5F)c5ccc2[nH]5)C=C4)C=C3)cc1
REMARK SMILES IDX 31 1 30 2 28 3 29 4 20 5 19 6 1 7 2 8 3 10 4 11 5 12 18 13
REMARK SMILES IDX 6 14 10 15 13 16 17 17 7 18 9 19 11 20 14 21 16 22 8 23
REMARK SMILES IDX 12 24 15 25 21 26 22 27 23 28 27 29 24 30 26 31 25 32 32 33
REMARK SMILES IDX 33 34 34 35 35 36 36 37 37 38 98 39 38 40 97 41 39 42 40 43
REMARK SMILES IDX 41 44 91 45 42 46 96 47 90 48 92 49 43 50 95 51 89 52 88 53
REMARK SMILES IDX 44 55 76 56 56 57 75 58 57 59 60 60 74 61 93 62 58 63 59 64
REMARK SMILES IDX 73 66 94 67 61 68 45 69 46 70 54 71 47 72 48 73 52 74 55 75
REMARK SMILES IDX 49 76 50 77 53 78 51 79 77 80 78 81 86 82 79 83 80 84 84 85
REMARK SMILES IDX 87 86 81 87 82 88 85 89 83 90 62 91 63 92 71 93 64 94 65 95
REMARK SMILES IDX 69 96 72 97 66 98 67 99 70 100 68 101
REMARK H PARENT 19 9 92 54 60 65
REMARK Flexibility Score: inf
ROOT
ATOM      1  C   UNL A   1      31.942  28.168  27.256  1.00  0.00     0.274 C 
ENDROOT
BRANCH   1   2
ATOM      2  O   UNL A   1      30.838  27.321  26.899  1.00  0.00    -0.461 OA
BRANCH   2   3
ATOM      3  C   UNL A   1      31.118  26.119  26.318  1.00  0.00     0.329 C 
ATOM      4  O   UNL A   1      31.211  25.051  26.913  1.00  0.00    -0.250 OA
BRANCH   3   5
ATOM      5  C   UNL A   1      31.412  26.294  24.818  1.00  0.00     0.196 C 
BRANCH   5   6
ATOM      6  N   UNL A   1      32.406  25.306  24.353  1.00  0.00    -0.341 N 
ATOM      7  O   UNL A   1      34.148  26.040  25.588  1.00  0.00    -0.273 OA
ATOM      8  C   UNL A   1      33.727  25.262  24.726  1.00  0.00     0.240 C 
ATOM      9  H   UNL A   1      32.094  24.619  23.721  1.00  0.00     0.164 HD
BRANCH   8  10
ATOM     10  C   UNL A   1      34.721  24.403  23.884  1.00  0.00     0.222 C 
BRANCH  10  11
ATOM     11  N   UNL A   1      35.226  23.089  24.394  1.00  0.00    -0.331 N 
ATOM     12  C   UNL A   1      36.433  23.024  25.126  1.00  0.00     0.053 A 
ATOM     13  C   UNL A   1      34.399  21.931  24.304  1.00  0.00     0.053 A 
ATOM     14  C   UNL A   1      37.032  24.122  25.745  1.00  0.00     0.027 A 
ATOM     15  C   UNL A   1      37.090  21.796  25.307  1.00  0.00     0.046 A 
ATOM     16  C   UNL A   1      34.929  20.667  24.653  1.00  0.00     0.046 A 
ATOM     17  C   UNL A   1      33.033  21.943  23.970  1.00  0.00     0.027 A 
ATOM     18  C   UNL A   1      38.330  24.058  26.270  1.00  0.00     0.002 A 
ATOM     19  C   UNL A   1      38.378  21.705  25.854  1.00  0.00     0.014 A 
ATOM     20  C   UNL A   1      36.358  20.555  25.007  1.00  0.00     0.197 A 
ATOM     21  C   UNL A   1      34.143  19.504  24.719  1.00  0.00     0.014 A 
ATOM     22  C   UNL A   1      32.244  20.779  24.019  1.00  0.00     0.002 A 
ATOM     23  C   UNL A   1      39.020  22.854  26.292  1.00  0.00     0.001 A 
ATOM     24  O   UNL A   1      36.897  19.459  25.132  1.00  0.00    -0.288 OA
ATOM     25  C   UNL A   1      32.792  19.564  24.410  1.00  0.00     0.001 A 
ENDBRANCH  10  11
ENDBRANCH   8  10
ENDBRANCH   5   6
BRANCH   5  26
ATOM     26  C   UNL A   1      30.081  26.237  24.037  1.00  0.00     0.072 C 
BRANCH  26  27
ATOM     27  C   UNL A   1      29.656  27.559  23.435  1.00  0.00    -0.045 A 
ATOM     28  C   UNL A   1      28.304  27.931  23.401  1.00  0.00     0.004 A 
ATOM     29  C   UNL A   1      30.603  28.401  22.842  1.00  0.00     0.004 A 
ATOM     30  C   UNL A   1      27.906  29.093  22.736  1.00  0.00     0.000 A 
ATOM     31  C   UNL A   1      30.204  29.556  22.171  1.00  0.00     0.000 A 
ATOM     32  C   UNL A   1      28.854  29.894  22.105  1.00  0.00     0.000 A 
ENDBRANCH  26  27
ENDBRANCH   5  26
ENDBRANCH   3   5
ENDBRANCH   2   3
ENDBRANCH   1   2
BRANCH   1  33
ATOM     33  C   UNL A   1      31.804  29.518  26.551  1.00  0.00     0.275 C 
BRANCH  33  34
ATOM     34  O   UNL A   1      33.096  30.100  26.308  1.00  0.00    -0.458 OA
BRANCH  34  35
ATOM     35  C   UNL A   1      33.373  31.211  27.036  1.00  0.00     0.338 C 
ATOM     36  O   UNL A   1      32.670  32.186  27.208  1.00  0.00    -0.246 OA
BRANCH  35  37
ATOM     37  C   UNL A   1      34.618  30.961  27.772  1.00  0.00     0.060 A 
ATOM     38  C   UNL A   1      35.573  31.964  27.911  1.00  0.00     0.016 A 
ATOM     39  C   UNL A   1      34.826  29.692  28.317  1.00  0.00     0.016 A 
ATOM     40  C   UNL A   1      36.766  31.670  28.569  1.00  0.00     0.010 A 
ATOM     41  C   UNL A   1      36.013  29.398  28.975  1.00  0.00     0.010 A 
ATOM     42  C   UNL A   1      36.996  30.383  29.092  1.00  0.00    -0.014 A 
BRANCH  42  43
ATOM     43  C   UNL A   1      38.249  30.085  29.811  1.00  0.00     0.031 A 
ATOM     44  C   UNL A   1      38.498  30.645  31.177  1.00  0.00     0.074 A 
ATOM     45  C   UNL A   1      39.160  29.307  29.202  1.00  0.00     0.049 A 
ATOM     46  N   UNL A   1      39.496  30.410  31.991  1.00  0.00    -0.248 NA
ATOM     47  C   UNL A   1      37.508  31.601  31.698  1.00  0.00     0.031 C 
ATOM     48  C   UNL A   1      39.030  28.772  27.846  1.00  0.00     0.029 A 
ATOM     49  N   UNL A   1      40.361  28.819  29.642  1.00  0.00    -0.354 N 
ATOM     50  C   UNL A   1      39.243  31.169  33.126  1.00  0.00     0.074 A 
ATOM     51  C   UNL A   1      38.034  31.922  32.874  1.00  0.00     0.031 C 
ATOM     52  C   UNL A   1      40.086  27.990  27.581  1.00  0.00     0.029 A 
ATOM     53  C   UNL A   1      40.979  27.993  28.737  1.00  0.00     0.049 A 
ATOM     54  H   UNL A   1      40.744  29.039  30.522  1.00  0.00     0.167 HD
ATOM     55  C   UNL A   1      39.947  31.201  34.281  1.00  0.00     0.037 A 
ATOM     56  C   UNL A   1      42.131  27.306  28.839  1.00  0.00     0.037 A 
ATOM     57  C   UNL A   1      41.154  30.447  34.506  1.00  0.00     0.049 A 
ATOM     58  C   UNL A   1      42.906  27.383  30.125  1.00  0.00     0.074 A 
ATOM     59  C   UNL A   1      41.925  30.376  35.652  1.00  0.00     0.029 A 
ATOM     60  N   UNL A   1      41.768  29.640  33.558  1.00  0.00    -0.354 N 
ATOM     61  N   UNL A   1      42.615  28.031  31.227  1.00  0.00    -0.248 NA
ATOM     62  C   UNL A   1      44.164  26.630  30.185  1.00  0.00     0.031 C 
ATOM     63  C   UNL A   1      43.035  29.572  35.381  1.00  0.00     0.029 A 
ATOM     64  C   UNL A   1      42.926  29.091  34.086  1.00  0.00     0.049 A 
ATOM     65  H   UNL A   1      41.432  29.482  32.647  1.00  0.00     0.167 HD
ATOM     66  C   UNL A   1      43.640  27.749  32.118  1.00  0.00     0.074 A 
ATOM     67  C   UNL A   1      44.549  26.852  31.435  1.00  0.00     0.031 C 
ATOM     68  C   UNL A   1      43.816  28.198  33.386  1.00  0.00     0.037 A 
BRANCH  55  69
ATOM     69  C   UNL A   1      39.428  32.059  35.400  1.00  0.00     0.064 A 
ATOM     70  C   UNL A   1      38.557  31.541  36.371  1.00  0.00     0.173 A 
ATOM     71  C   UNL A   1      39.870  33.382  35.556  1.00  0.00     0.173 A 
ATOM     72  F   UNL A   1      38.099  30.284  36.267  1.00  0.00    -0.203 F 
ATOM     73  C   UNL A   1      38.138  32.318  37.448  1.00  0.00     0.198 A 
ATOM     74  C   UNL A   1      39.472  34.146  36.650  1.00  0.00     0.198 A 
ATOM     75  F   UNL A   1      40.708  33.925  34.662  1.00  0.00    -0.203 F 
ATOM     76  F   UNL A   1      37.283  31.810  38.346  1.00  0.00    -0.200 F 
ATOM     77  C   UNL A   1      38.605  33.615  37.593  1.00  0.00     0.200 A 
ATOM     78  F   UNL A   1      39.938  35.395  36.799  1.00  0.00    -0.200 F 
ATOM     79  F   UNL A   1      38.219  34.354  38.642  1.00  0.00    -0.200 F 
ENDBRANCH  55  69
BRANCH  56  80
ATOM     80  C   UNL A   1      42.577  26.454  27.707  1.00  0.00     0.064 A 
ATOM     81  C   UNL A   1      43.476  26.943  26.750  1.00  0.00     0.173 A 
ATOM     82  C   UNL A   1      42.148  25.124  27.581  1.00  0.00     0.173 A 
ATOM     83  F   UNL A   1      43.905  28.212  26.820  1.00  0.00    -0.203 F 
ATOM     84  C   UNL A   1      43.920  26.138  25.704  1.00  0.00     0.198 A 
ATOM     85  C   UNL A   1      42.617  24.311  26.552  1.00  0.00     0.198 A 
ATOM     86  F   UNL A   1      41.294  24.606  28.475  1.00  0.00    -0.203 F 
ATOM     87  F   UNL A   1      44.753  26.641  24.781  1.00  0.00    -0.200 F 
ATOM     88  C   UNL A   1      43.498  24.820  25.610  1.00  0.00     0.200 A 
ATOM     89  F   UNL A   1      42.222  23.034  26.477  1.00  0.00    -0.200 F 
ATOM     90  F   UNL A   1      43.939  24.042  24.612  1.00  0.00    -0.200 F 
ENDBRANCH  56  80
BRANCH  68  91
ATOM     91  C   UNL A   1      45.033  27.722  34.124  1.00  0.00     0.064 A 
ATOM     92  C   UNL A   1      46.224  28.464  34.127  1.00  0.00     0.173 A 
ATOM     93  C   UNL A   1      44.985  26.554  34.900  1.00  0.00     0.173 A 
ATOM     94  F   UNL A   1      46.326  29.581  33.391  1.00  0.00    -0.203 F 
ATOM     95  C   UNL A   1      47.326  28.044  34.866  1.00  0.00     0.198 A 
ATOM     96  C   UNL A   1      46.077  26.156  35.665  1.00  0.00     0.198 A 
ATOM     97  F   UNL A   1      43.867  25.813  34.939  1.00  0.00    -0.203 F 
ATOM     98  F   UNL A   1      48.465  28.747  34.824  1.00  0.00    -0.200 F 
ATOM     99  C   UNL A   1      47.248  26.899  35.644  1.00  0.00     0.200 A 
ATOM    100  F   UNL A   1      45.993  25.060  36.431  1.00  0.00    -0.200 F 
ATOM    101  F   UNL A   1      48.303  26.508  36.372  1.00  0.00    -0.200 F 
ENDBRANCH  68  91
ENDBRANCH  42  43
ENDBRANCH  35  37
ENDBRANCH  34  35
ENDBRANCH  33  34
ENDBRANCH   1  33
TORSDOF 16
ENDMDL
MODEL 2
REMARK VINA RESULT:     -13.0      1.724      2.670
REMARK SMILES O=C(Cn1c2ccccc2c(=O)c2ccccc21)N[C@@H](Cc1ccccc1)C(=O)OCCOC(=O)c1ccc(-c2c3nc(c(-c4c(F)c(F)c(F)c(F)c4F)c4ccc([nH]4)c(-c4c(F)c(F)c(F)c(F)c4F)c4nc(c(-c5c(F)c(F)c(F)c(F)c5F)c5ccc2[nH]5)C=C4)C=C3)cc1
REMARK SMILES IDX 31 1 30 2 28 3 29 4 20 5 19 6 1 7 2 8 3 10 4 11 5 12 18 13
REMARK SMILES IDX 6 14 10 15 13 16 17 17 7 18 9 19 11 20 14 21 16 22 8 23
REMARK SMILES IDX 12 24 15 25 21 26 22 27 23 28 27 29 24 30 26 31 25 32 32 33
REMARK SMILES IDX 33 34 34 35 35 36 36 37 37 38 98 39 38 40 97 41 39 42 40 43
REMARK SMILES IDX 41 44 91 45 42 46 96 47 90 48 92 49 43 50 95 51 89 52 88 53
REMARK SMILES IDX 44 55 76 56 56 57 75 58 57 59 60 60 74 61 93 62 58 63 59 64
REMARK SMILES IDX 73 66 94 67 61 68 45 69 46 70 54 71 47 72 48 73 52 74 55 75
REMARK SMILES IDX 49 76 50 77 53 78 51 79 77 80 78 81 86 82 79 83 80 84 84 85
REMARK SMILES IDX 87 86 81 87 82 88 85 89 83 90 62 91 63 92 71 93 64 94 65 95
REMARK SMILES IDX 69 96 72 97 66 98 67 99 70 100 68 101
REMARK H PARENT 19 9 92 54 60 65
REMARK Flexibility Score: inf
ROOT
ATOM      1  C   UNL A   1      31.768  28.221  26.224  1.00  0.00     0.274 C 
ENDROOT
BRANCH   1   2
ATOM      2  O   UNL A   1      31.309  27.062  26.939  1.00  0.00    -0.461 OA
BRANCH   2   3
ATOM      3  C   UNL A   1      30.942  25.968  26.211  1.00  0.00     0.329 C 
ATOM      4  O   UNL A   1      30.492  24.928  26.678  1.00  0.00    -0.250 OA
BRANCH   3   5
ATOM      5  C   UNL A   1      31.272  26.170  24.722  1.00  0.00     0.196 C 
BRANCH   5   6
ATOM      6  N   UNL A   1      32.279  25.192  24.265  1.00  0.00    -0.341 N 
ATOM      7  O   UNL A   1      34.020  25.979  25.468  1.00  0.00    -0.273 OA
ATOM      8  C   UNL A   1      33.604  25.178  24.624  1.00  0.00     0.240 C 
ATOM      9  H   UNL A   1      31.974  24.488  23.648  1.00  0.00     0.164 HD
BRANCH   8  10
ATOM     10  C   UNL A   1      34.606  24.323  23.788  1.00  0.00     0.222 C 
BRANCH  10  11
ATOM     11  N   UNL A   1      35.124  23.017  24.307  1.00  0.00    -0.331 N 
ATOM     12  C   UNL A   1      36.338  22.968  25.028  1.00  0.00     0.053 A 
ATOM     13  C   UNL A   1      34.303  21.853  24.237  1.00  0.00     0.053 A 
ATOM     14  C   UNL A   1      36.936  24.076  25.629  1.00  0.00     0.027 A 
ATOM     15  C   UNL A   1      37.004  21.746  25.215  1.00  0.00     0.046 A 
ATOM     16  C   UNL A   1      34.845  20.597  24.594  1.00  0.00     0.046 A 
ATOM     17  C   UNL A   1      32.934  21.853  23.917  1.00  0.00     0.027 A 
ATOM     18  C   UNL A   1      38.239  24.025  26.142  1.00  0.00     0.002 A 
ATOM     19  C   UNL A   1      38.299  21.669  25.751  1.00  0.00     0.014 A 
ATOM     20  C   UNL A   1      36.278  20.497  24.936  1.00  0.00     0.197 A 
ATOM     21  C   UNL A   1      34.066  19.430  24.681  1.00  0.00     0.014 A 
ATOM     22  C   UNL A   1      32.153  20.685  23.986  1.00  0.00     0.002 A 
ATOM     23  C   UNL A   1      38.937  22.826  26.171  1.00  0.00     0.001 A 
ATOM     24  O   UNL A   1      36.825  19.406  25.067  1.00  0.00    -0.288 OA
ATOM     25  C   UNL A   1      32.713  19.478  24.384  1.00  0.00     0.001 A 
ENDBRANCH  10  11
ENDBRANCH   8  10
ENDBRANCH   5   6
BRANCH   5  26
ATOM     26  C   UNL A   1      29.960  26.123  23.908  1.00  0.00     0.072 C 
BRANCH  26  27
ATOM     27  C   UNL A   1      29.494  27.471  23.403  1.00  0.00    -0.045 A 
ATOM     28  C   UNL A   1      28.146  27.847  23.501  1.00  0.00     0.004 A 
ATOM     29  C   UNL A   1      30.392  28.336  22.769  1.00  0.00     0.004 A 
ATOM     30  C   UNL A   1      27.700  29.039  22.924  1.00  0.00     0.000 A 
ATOM     31  C   UNL A   1      29.944  29.521  22.186  1.00  0.00     0.000 A 
ATOM     32  C   UNL A   1      28.596  29.865  22.250  1.00  0.00     0.000 A 
ENDBRANCH  26  27
ENDBRANCH   5  26
ENDBRANCH   3   5
ENDBRANCH   2   3
ENDBRANCH   1   2
BRANCH   1  33
ATOM     33  C   UNL A   1      32.314  29.253  27.212  1.00  0.00     0.275 C 
BRANCH  33  34
ATOM     34  O   UNL A   1      33.742  29.133  27.337  1.00  0.00    -0.458 OA
BRANCH  34  35
ATOM     35  C   UNL A   1      34.398  30.296  27.580  1.00  0.00     0.338 C 
ATOM     36  O   UNL A   1      33.949  31.423  27.564  1.00  0.00    -0.246 OA
BRANCH  35  37
ATOM     37  C   UNL A   1      35.737  29.955  28.074  1.00  0.00     0.060 A 
ATOM     38  C   UNL A   1      36.852  30.089  27.251  1.00  0.00     0.016 A 
ATOM     39  C   UNL A   1      35.864  29.484  29.382  1.00  0.00     0.016 A 
ATOM     40  C   UNL A   1      38.098  29.703  27.739  1.00  0.00     0.010 A 
ATOM     41  C   UNL A   1      37.106  29.102  29.872  1.00  0.00     0.010 A 
ATOM     42  C   UNL A   1      38.228  29.196  29.047  1.00  0.00    -0.014 A 
BRANCH  42  43
ATOM     43  C   UNL A   1      39.555  28.814  29.568  1.00  0.00     0.031 A 
ATOM     44  C   UNL A   1      40.187  29.584  30.686  1.00  0.00     0.074 A 
ATOM     45  C   UNL A   1      40.179  27.765  29.006  1.00  0.00     0.049 A 
ATOM     46  N   UNL A   1      41.298  29.332  31.330  1.00  0.00    -0.248 NA
ATOM     47  C   UNL A   1      39.493  30.801  31.136  1.00  0.00     0.031 C 
ATOM     48  C   UNL A   1      39.667  26.998  27.869  1.00  0.00     0.029 A 
ATOM     49  N   UNL A   1      41.364  27.154  29.318  1.00  0.00    -0.354 N 
ATOM     50  C   UNL A   1      41.424  30.342  32.274  1.00  0.00     0.074 A 
ATOM     51  C   UNL A   1      40.313  31.248  32.079  1.00  0.00     0.031 C 
ATOM     52  C   UNL A   1      40.509  25.988  27.609  1.00  0.00     0.029 A 
ATOM     53  C   UNL A   1      41.631  26.055  28.541  1.00  0.00     0.049 A 
ATOM     54  H   UNL A   1      41.965  27.471  30.031  1.00  0.00     0.167 HD
ATOM     55  C   UNL A   1      42.369  30.474  33.233  1.00  0.00     0.037 A 
ATOM     56  C   UNL A   1      42.664  25.193  28.587  1.00  0.00     0.037 A 
ATOM     57  C   UNL A   1      43.471  29.563  33.404  1.00  0.00     0.049 A 
ATOM     58  C   UNL A   1      43.713  25.381  29.647  1.00  0.00     0.074 A 
ATOM     59  C   UNL A   1      44.463  29.580  34.368  1.00  0.00     0.029 A 
ATOM     60  N   UNL A   1      43.729  28.473  32.582  1.00  0.00    -0.354 N 
ATOM     61  N   UNL A   1      43.778  26.285  30.594  1.00  0.00    -0.248 NA
ATOM     62  C   UNL A   1      44.827  24.426  29.651  1.00  0.00     0.031 C 
ATOM     63  C   UNL A   1      45.352  28.537  34.096  1.00  0.00     0.029 A 
ATOM     64  C   UNL A   1      44.882  27.830  33.000  1.00  0.00     0.049 A 
ATOM     65  H   UNL A   1      43.175  28.200  31.816  1.00  0.00     0.167 HD
ATOM     66  C   UNL A   1      44.926  25.999  31.318  1.00  0.00     0.074 A 
ATOM     67  C   UNL A   1      45.515  24.821  30.715  1.00  0.00     0.031 C 
ATOM     68  C   UNL A   1      45.450  26.656  32.383  1.00  0.00     0.037 A 
BRANCH  55  69
ATOM     69  C   UNL A   1      42.249  31.628  34.188  1.00  0.00     0.064 A 
ATOM     70  C   UNL A   1      42.874  32.857  33.927  1.00  0.00     0.173 A 
ATOM     71  C   UNL A   1      41.433  31.537  35.326  1.00  0.00     0.173 A 
ATOM     72  F   UNL A   1      43.669  32.997  32.856  1.00  0.00    -0.203 F 
ATOM     73  C   UNL A   1      42.699  33.947  34.777  1.00  0.00     0.198 A 
ATOM     74  C   UNL A   1      41.236  32.638  36.157  1.00  0.00     0.198 A 
ATOM     75  F   UNL A   1      40.805  30.389  35.620  1.00  0.00    -0.203 F 
ATOM     76  F   UNL A   1      43.330  35.101  34.522  1.00  0.00    -0.200 F 
ATOM     77  C   UNL A   1      41.871  33.840  35.883  1.00  0.00     0.200 A 
ATOM     78  F   UNL A   1      40.421  32.539  37.218  1.00  0.00    -0.200 F 
ATOM     79  F   UNL A   1      41.685  34.896  36.687  1.00  0.00    -0.200 F 
ENDBRANCH  55  69
BRANCH  56  80
ATOM     80  C   UNL A   1      42.711  24.056  27.633  1.00  0.00     0.064 A 
ATOM     81  C   UNL A   1      43.265  24.212  26.356  1.00  0.00     0.173 A 
ATOM     82  C   UNL A   1      42.242  22.783  27.991  1.00  0.00     0.173 A 
ATOM     83  F   UNL A   1      43.714  25.414  25.963  1.00  0.00    -0.203 F 
ATOM     84  C   UNL A   1      43.339  23.142  25.468  1.00  0.00     0.198 A 
ATOM     85  C   UNL A   1      42.345  21.706  27.113  1.00  0.00     0.198 A 
ATOM     86  F   UNL A   1      41.710  22.579  29.204  1.00  0.00    -0.203 F 
ATOM     87  F   UNL A   1      43.842  23.326  24.239  1.00  0.00    -0.200 F 
ATOM     88  C   UNL A   1      42.887  21.887  25.850  1.00  0.00     0.200 A 
ATOM     89  F   UNL A   1      41.925  20.492  27.494  1.00  0.00    -0.200 F 
ATOM     90  F   UNL A   1      42.973  20.854  25.001  1.00  0.00    -0.200 F 
ENDBRANCH  56  80
BRANCH  68  91
ATOM     91  C   UNL A   1      46.720  26.115  32.973  1.00  0.00     0.064 A 
ATOM     92  C   UNL A   1      46.702  25.093  33.934  1.00  0.00     0.173 A 
ATOM     93  C   UNL A   1      47.967  26.567  32.517  1.00  0.00     0.173 A 
ATOM     94  F   UNL A   1      45.535  24.635  34.412  1.00  0.00    -0.203 F 
ATOM     95  C   UNL A   1      47.887  24.556  34.427  1.00  0.00     0.198 A 
ATOM     96  C   UNL A   1      49.149  26.003  32.987  1.00  0.00     0.198 A 
ATOM     97  F   UNL A   1      48.039  27.536  31.592  1.00  0.00    -0.203 F 
ATOM     98  F   UNL A   1      47.847  23.608  35.373  1.00  0.00    -0.200 F 
ATOM     99  C   UNL A   1      49.108  25.002  33.945  1.00  0.00     0.200 A 
ATOM    100  F   UNL A   1      50.328  26.422  32.506  1.00  0.00    -0.200 F 
ATOM    101  F   UNL A   1      50.248  24.468  34.406  1.00  0.00    -0.200 F 
ENDBRANCH  68  91
ENDBRANCH  42  43
ENDBRANCH  35  37
ENDBRANCH  34  35
ENDBRANCH  33  34
ENDBRANCH   1  33
TORSDOF 16
ENDMDL
MODEL 3
REMARK VINA RESULT:     -13.0      2.149      7.283
REMARK SMILES O=C(Cn1c2ccccc2c(=O)c2ccccc21)N[C@@H](Cc1ccccc1)C(=O)OCCOC(=O)c1ccc(-c2c3nc(c(-c4c(F)c(F)c(F)c(F)c4F)c4ccc([nH]4)c(-c4c(F)c(F)c(F)c(F)c4F)c4nc(c(-c5c(F)c(F)c(F)c(F)c5F)c5ccc2[nH]5)C=C4)C=C3)cc1
REMARK SMILES IDX 31 1 30 2 28 3 29 4 20 5 19 6 1 7 2 8 3 10 4 11 5 12 18 13
REMARK SMILES IDX 6 14 10 15 13 16 17 17 7 18 9 19 11 20 14 21 16 22 8 23
REMARK SMILES IDX 12 24 15 25 21 26 22 27 23 28 27 29 24 30 26 31 25 32 32 33
REMARK SMILES IDX 33 34 34 35 35 36 36 37 37 38 98 39 38 40 97 41 39 42 40 43
REMARK SMILES IDX 41 44 91 45 42 46 96 47 90 48 92 49 43 50 95 51 89 52 88 53
REMARK SMILES IDX 44 55 76 56 56 57 75 58 57 59 60 60 74 61 93 62 58 63 59 64
REMARK SMILES IDX 73 66 94 67 61 68 45 69 46 70 54 71 47 72 48 73 52 74 55 75
REMARK SMILES IDX 49 76 50 77 53 78 51 79 77 80 78 81 86 82 79 83 80 84 84 85
REMARK SMILES IDX 87 86 81 87 82 88 85 89 83 90 62 91 63 92 71 93 64 94 65 95
REMARK SMILES IDX 69 96 72 97 66 98 67 99 70 100 68 101
REMARK H PARENT 19 9 92 54 60 65
REMARK Flexibility Score: inf
ROOT
ATOM      1  C   UNL A   1      31.816  28.201  26.272  1.00  0.00     0.274 C 
ENDROOT
BRANCH   1   2
ATOM      2  O   UNL A   1      31.580  26.941  26.921  1.00  0.00    -0.461 OA
BRANCH   2   3
ATOM      3  C   UNL A   1      31.057  25.927  26.173  1.00  0.00     0.329 C 
ATOM      4  O   UNL A   1      30.470  24.949  26.620  1.00  0.00    -0.250 OA
BRANCH   3   5
ATOM      5  C   UNL A   1      31.397  26.118  24.684  1.00  0.00     0.196 C 
BRANCH   5   6
ATOM      6  N   UNL A   1      32.390  25.121  24.235  1.00  0.00    -0.341 N 
ATOM      7  O   UNL A   1      34.147  25.903  25.419  1.00  0.00    -0.273 OA
ATOM      8  C   UNL A   1      33.716  25.095  24.588  1.00  0.00     0.240 C 
ATOM      9  H   UNL A   1      32.071  24.412  23.630  1.00  0.00     0.164 HD
BRANCH   8  10
ATOM     10  C   UNL A   1      34.702  24.215  23.759  1.00  0.00     0.222 C 
BRANCH  10  11
ATOM     11  N   UNL A   1      35.212  22.914  24.296  1.00  0.00    -0.331 N 
ATOM     12  C   UNL A   1      36.416  22.869  25.034  1.00  0.00     0.053 A 
ATOM     13  C   UNL A   1      34.390  21.750  24.226  1.00  0.00     0.053 A 
ATOM     14  C   UNL A   1      37.008  23.982  25.633  1.00  0.00     0.027 A 
ATOM     15  C   UNL A   1      37.078  21.648  25.241  1.00  0.00     0.046 A 
ATOM     16  C   UNL A   1      34.925  20.496  24.602  1.00  0.00     0.046 A 
ATOM     17  C   UNL A   1      33.025  21.749  23.888  1.00  0.00     0.027 A 
ATOM     18  C   UNL A   1      38.304  23.933  26.163  1.00  0.00     0.002 A 
ATOM     19  C   UNL A   1      38.365  21.574  25.794  1.00  0.00     0.014 A 
ATOM     20  C   UNL A   1      36.353  20.397  24.963  1.00  0.00     0.197 A 
ATOM     21  C   UNL A   1      34.144  19.331  24.688  1.00  0.00     0.014 A 
ATOM     22  C   UNL A   1      32.241  20.583  23.957  1.00  0.00     0.002 A 
ATOM     23  C   UNL A   1      39.000  22.734  26.212  1.00  0.00     0.001 A 
ATOM     24  O   UNL A   1      36.897  19.307  25.111  1.00  0.00    -0.288 OA
ATOM     25  C   UNL A   1      32.794  19.378  24.373  1.00  0.00     0.001 A 
ENDBRANCH  10  11
ENDBRANCH   8  10
ENDBRANCH   5   6
BRANCH   5  26
ATOM     26  C   UNL A   1      30.089  26.091  23.864  1.00  0.00     0.072 C 
BRANCH  26  27
ATOM     27  C   UNL A   1      29.663  27.442  23.330  1.00  0.00    -0.045 A 
ATOM     28  C   UNL A   1      28.318  27.840  23.374  1.00  0.00     0.004 A 
ATOM     29  C   UNL A   1      30.597  28.286  22.722  1.00  0.00     0.004 A 
ATOM     30  C   UNL A   1      27.913  29.032  22.771  1.00  0.00     0.000 A 
ATOM     31  C   UNL A   1      30.190  29.473  22.111  1.00  0.00     0.000 A 
ATOM     32  C   UNL A   1      28.846  29.838  22.123  1.00  0.00     0.000 A 
ENDBRANCH  26  27
ENDBRANCH   5  26
ENDBRANCH   3   5
ENDBRANCH   2   3
ENDBRANCH   1   2
BRANCH   1  33
ATOM     33  C   UNL A   1      32.330  29.217  27.294  1.00  0.00     0.275 C 
BRANCH  33  34
ATOM     34  O   UNL A   1      33.763  29.149  27.404  1.00  0.00    -0.458 OA
BRANCH  34  35
ATOM     35  C   UNL A   1      34.372  30.320  27.715  1.00  0.00     0.338 C 
ATOM     36  O   UNL A   1      33.875  31.426  27.783  1.00  0.00    -0.246 OA
BRANCH  35  37
ATOM     37  C   UNL A   1      35.733  30.007  28.166  1.00  0.00     0.060 A 
ATOM     38  C   UNL A   1      36.812  30.116  27.294  1.00  0.00     0.016 A 
ATOM     39  C   UNL A   1      35.918  29.586  29.485  1.00  0.00     0.016 A 
ATOM     40  C   UNL A   1      38.081  29.756  27.744  1.00  0.00     0.010 A 
ATOM     41  C   UNL A   1      37.181  29.230  29.937  1.00  0.00     0.010 A 
ATOM     42  C   UNL A   1      38.268  29.299  29.063  1.00  0.00    -0.014 A 
BRANCH  42  43
ATOM     43  C   UNL A   1      39.617  28.945  29.543  1.00  0.00     0.031 A 
ATOM     44  C   UNL A   1      40.293  27.694  29.071  1.00  0.00     0.074 A 
ATOM     45  C   UNL A   1      40.216  29.770  30.419  1.00  0.00     0.049 A 
ATOM     46  N   UNL A   1      41.510  27.278  29.313  1.00  0.00    -0.248 NA
ATOM     47  C   UNL A   1      39.501  26.785  28.228  1.00  0.00     0.031 C 
ATOM     48  C   UNL A   1      39.606  30.976  30.983  1.00  0.00     0.029 A 
ATOM     49  N   UNL A   1      41.466  29.733  30.976  1.00  0.00    -0.354 N 
ATOM     50  C   UNL A   1      41.637  26.074  28.635  1.00  0.00     0.074 A 
ATOM     51  C   UNL A   1      40.356  25.790  28.025  1.00  0.00     0.031 C 
ATOM     52  C   UNL A   1      40.501  31.591  31.769  1.00  0.00     0.029 A 
ATOM     53  C   UNL A   1      41.733  30.808  31.786  1.00  0.00     0.049 A 
ATOM     54  H   UNL A   1      42.110  29.007  30.811  1.00  0.00     0.167 HD
ATOM     55  C   UNL A   1      42.739  25.298  28.513  1.00  0.00     0.037 A 
ATOM     56  C   UNL A   1      42.855  31.129  32.456  1.00  0.00     0.037 A 
ATOM     57  C   UNL A   1      44.003  25.596  29.137  1.00  0.00     0.049 A 
ATOM     58  C   UNL A   1      44.055  30.233  32.324  1.00  0.00     0.074 A 
ATOM     59  C   UNL A   1      45.195  24.899  29.048  1.00  0.00     0.029 A 
ATOM     60  N   UNL A   1      44.233  26.680  29.974  1.00  0.00    -0.354 N 
ATOM     61  N   UNL A   1      44.197  29.144  31.608  1.00  0.00    -0.248 NA
ATOM     62  C   UNL A   1      45.252  30.614  33.083  1.00  0.00     0.031 C 
ATOM     63  C   UNL A   1      46.129  25.528  29.874  1.00  0.00     0.029 A 
ATOM     64  C   UNL A   1      45.541  26.652  30.432  1.00  0.00     0.049 A 
ATOM     65  H   UNL A   1      43.567  27.364  30.209  1.00  0.00     0.167 HD
ATOM     66  C   UNL A   1      45.502  28.718  31.815  1.00  0.00     0.074 A 
ATOM     67  C   UNL A   1      46.117  29.682  32.705  1.00  0.00     0.031 C 
ATOM     68  C   UNL A   1      46.132  27.625  31.318  1.00  0.00     0.037 A 
BRANCH  55  69
ATOM     69  C   UNL A   1      42.643  24.064  27.662  1.00  0.00     0.064 A 
ATOM     70  C   UNL A   1      42.916  24.105  26.286  1.00  0.00     0.173 A 
ATOM     71  C   UNL A   1      42.363  22.814  28.236  1.00  0.00     0.173 A 
ATOM     72  F   UNL A   1      43.183  25.274  25.684  1.00  0.00    -0.203 F 
ATOM     73  C   UNL A   1      42.898  22.945  25.515  1.00  0.00     0.198 A 
ATOM     74  C   UNL A   1      42.376  21.652  27.468  1.00  0.00     0.198 A 
ATOM     75  F   UNL A   1      42.102  22.715  29.548  1.00  0.00    -0.203 F 
ATOM     76  F   UNL A   1      43.133  23.015  24.197  1.00  0.00    -0.200 F 
ATOM     77  C   UNL A   1      42.640  21.719  26.108  1.00  0.00     0.200 A 
ATOM     78  F   UNL A   1      42.143  20.465  28.046  1.00  0.00    -0.200 F 
ATOM     79  F   UNL A   1      42.647  20.601  25.369  1.00  0.00    -0.200 F 
ENDBRANCH  55  69
BRANCH  56  80
ATOM     80  C   UNL A   1      42.896  32.377  33.260  1.00  0.00     0.064 A 
ATOM     81  C   UNL A   1      42.598  32.361  34.629  1.00  0.00     0.173 A 
ATOM     82  C   UNL A   1      43.273  33.601  32.687  1.00  0.00     0.173 A 
ATOM     83  F   UNL A   1      42.219  31.217  35.219  1.00  0.00    -0.203 F 
ATOM     84  C   UNL A   1      42.664  33.524  35.392  1.00  0.00     0.198 A 
ATOM     85  C   UNL A   1      43.369  34.757  33.459  1.00  0.00     0.198 A 
ATOM     86  F   UNL A   1      43.576  33.669  31.383  1.00  0.00    -0.203 F 
ATOM     87  F   UNL A   1      42.340  33.488  36.693  1.00  0.00    -0.200 F 
ATOM     88  C   UNL A   1      43.058  34.719  34.810  1.00  0.00     0.200 A 
ATOM     89  F   UNL A   1      43.769  35.905  32.897  1.00  0.00    -0.200 F 
ATOM     90  F   UNL A   1      43.137  35.834  35.549  1.00  0.00    -0.200 F 
ENDBRANCH  56  80
BRANCH  68  91
ATOM     91  C   UNL A   1      47.563  27.412  31.716  1.00  0.00     0.064 A 
ATOM     92  C   UNL A   1      47.905  26.614  32.819  1.00  0.00     0.173 A 
ATOM     93  C   UNL A   1      48.606  27.945  30.943  1.00  0.00     0.173 A 
ATOM     94  F   UNL A   1      46.946  26.092  33.597  1.00  0.00    -0.203 F 
ATOM     95  C   UNL A   1      49.237  26.373  33.140  1.00  0.00     0.198 A 
ATOM     96  C   UNL A   1      49.935  27.673  31.247  1.00  0.00     0.198 A 
ATOM     97  F   UNL A   1      48.332  28.707  29.873  1.00  0.00    -0.203 F 
ATOM     98  F   UNL A   1      49.541  25.640  34.220  1.00  0.00    -0.200 F 
ATOM     99  C   UNL A   1      50.251  26.892  32.348  1.00  0.00     0.200 A 
ATOM    100  F   UNL A   1      50.913  28.159  30.469  1.00  0.00    -0.200 F 
ATOM    101  F   UNL A   1      51.532  26.640  32.647  1.00  0.00    -0.200 F 
ENDBRANCH  68  91
ENDBRANCH  42  43
ENDBRANCH  35  37
ENDBRANCH  34  35
ENDBRANCH  33  34
ENDBRANCH   1  33
TORSDOF 16
ENDMDL
