MODEL 1
REMARK VINA RESULT:     -12.2      0.000      0.000
REMARK SMILES CC[C@@H](C)[C@H](NC(=O)CCc1ccc(F)c(F)c1)C(=O)OCCOC(=O)c1ccc(-c2c3nc(c(-c4c(F)c(F)c(F)c(F)c4F)c4ccc([nH]4)c(-c4c(F)c(F)c(F)c(F)c4F)c4nc(c(-c5c(F)c(F)c(F)c(F)c5F)c5ccc2[nH]5)C=C4)C=C3)cc1
REMARK SMILES IDX 22 1 21 2 19 3 20 4 5 5 3 6 4 7 2 8 1 9 6 10 7 11 8 13 9 14
REMARK SMILES IDX 10 15 11 16 12 17 18 18 13 19 16 20 14 21 17 22 15 23 23 24
REMARK SMILES IDX 24 25 25 26 26 27 27 28 28 29 89 30 29 31 88 32 30 33 31 34
REMARK SMILES IDX 32 35 82 36 33 37 87 38 81 39 83 40 34 41 86 42 80 43 79 44
REMARK SMILES IDX 35 46 67 47 47 48 66 49 48 50 51 51 65 52 84 53 49 54 50 55
REMARK SMILES IDX 64 57 85 58 52 59 36 60 37 61 45 62 38 63 39 64 43 65 46 66
REMARK SMILES IDX 40 67 41 68 44 69 42 70 68 71 69 72 77 73 70 74 71 75 75 76
REMARK SMILES IDX 78 77 72 78 73 79 76 80 74 81 53 82 54 83 62 84 55 85 56 86
REMARK SMILES IDX 60 87 63 88 57 89 58 90 61 91 59 92
REMARK H PARENT 6 12 83 45 51 56
REMARK Flexibility Score: inf
ROOT
ATOM      1  C   UNL A   1      32.356  28.270  24.805  1.00  0.00     0.274 C 
ENDROOT
BRANCH   1   2
ATOM      2  O   UNL A   1      31.554  27.156  25.253  1.00  0.00    -0.461 OA
BRANCH   2   3
ATOM      3  C   UNL A   1      31.291  26.197  24.310  1.00  0.00     0.329 C 
ATOM      4  O   UNL A   1      30.674  26.429  23.281  1.00  0.00    -0.250 OA
BRANCH   3   5
ATOM      5  C   UNL A   1      32.154  24.933  24.586  1.00  0.00     0.195 C 
BRANCH   5   6
ATOM      6  C   UNL A   1      32.740  24.738  26.019  1.00  0.00     0.019 C 
ATOM      7  C   UNL A   1      34.259  24.529  26.029  1.00  0.00     0.010 C 
BRANCH   6   8
ATOM      8  C   UNL A   1      31.980  23.692  26.859  1.00  0.00     0.002 C 
ATOM      9  C   UNL A   1      32.874  22.670  27.551  1.00  0.00     0.004 C 
ENDBRANCH   6   8
ENDBRANCH   5   6
BRANCH   5  10
ATOM     10  N   UNL A   1      33.103  24.522  23.541  1.00  0.00    -0.343 N 
ATOM     11  C   UNL A   1      33.324  23.312  22.957  1.00  0.00     0.221 C 
ATOM     12  H   UNL A   1      33.677  25.247  23.204  1.00  0.00     0.164 HD
ATOM     13  O   UNL A   1      34.394  23.143  22.369  1.00  0.00    -0.275 OA
BRANCH  11  14
ATOM     14  C   UNL A   1      32.275  22.222  22.972  1.00  0.00     0.105 C 
BRANCH  14  15
ATOM     15  C   UNL A   1      32.354  21.294  24.183  1.00  0.00     0.045 C 
BRANCH  15  16
ATOM     16  C   UNL A   1      32.849  19.890  23.912  1.00  0.00    -0.044 A 
ATOM     17  C   UNL A   1      32.211  19.053  22.987  1.00  0.00     0.007 A 
ATOM     18  C   UNL A   1      34.004  19.410  24.539  1.00  0.00     0.046 A 
ATOM     19  C   UNL A   1      32.663  17.761  22.719  1.00  0.00     0.043 A 
ATOM     20  C   UNL A   1      34.466  18.122  24.266  1.00  0.00     0.159 A 
ATOM     21  C   UNL A   1      33.797  17.302  23.366  1.00  0.00     0.158 A 
ATOM     22  F   UNL A   1      35.567  17.677  24.884  1.00  0.00    -0.204 F 
ATOM     23  F   UNL A   1      34.236  16.062  23.111  1.00  0.00    -0.204 F 
ENDBRANCH  15  16
ENDBRANCH  14  15
ENDBRANCH  11  14
ENDBRANCH   5  10
ENDBRANCH   3   5
ENDBRANCH   2   3
ENDBRANCH   1   2
BRANCH   1  24
ATOM     24  C   UNL A   1      31.712  29.580  25.277  1.00  0.00     0.275 C 
BRANCH  24  25
ATOM     25  O   UNL A   1      32.051  29.823  26.665  1.00  0.00    -0.458 OA
BRANCH  25  26
ATOM     26  C   UNL A   1      32.667  31.002  26.934  1.00  0.00     0.338 C 
ATOM     27  O   UNL A   1      32.152  32.116  26.856  1.00  0.00    -0.246 OA
BRANCH  26  28
ATOM     28  C   UNL A   1      34.058  30.807  27.423  1.00  0.00     0.060 A 
ATOM     29  C   UNL A   1      34.575  29.535  27.624  1.00  0.00     0.016 A 
ATOM     30  C   UNL A   1      34.826  31.904  27.827  1.00  0.00     0.016 A 
ATOM     31  C   UNL A   1      35.722  29.359  28.406  1.00  0.00     0.010 A 
ATOM     32  C   UNL A   1      36.073  31.717  28.454  1.00  0.00     0.010 A 
ATOM     33  C   UNL A   1      36.528  30.435  28.806  1.00  0.00    -0.014 A 
BRANCH  33  34
ATOM     34  C   UNL A   1      37.810  30.220  29.572  1.00  0.00     0.031 A 
ATOM     35  C   UNL A   1      38.962  29.432  28.979  1.00  0.00     0.074 A 
ATOM     36  C   UNL A   1      38.002  30.742  30.806  1.00  0.00     0.049 A 
ATOM     37  N   UNL A   1      39.991  28.885  29.582  1.00  0.00    -0.248 NA
ATOM     38  C   UNL A   1      38.958  29.229  27.521  1.00  0.00     0.031 C 
ATOM     39  C   UNL A   1      37.067  31.606  31.527  1.00  0.00     0.029 A 
ATOM     40  N   UNL A   1      39.069  30.635  31.673  1.00  0.00    -0.354 N 
ATOM     41  C   UNL A   1      40.708  28.213  28.598  1.00  0.00     0.074 A 
ATOM     42  C   UNL A   1      40.011  28.439  27.349  1.00  0.00     0.031 C 
ATOM     43  C   UNL A   1      37.634  32.030  32.663  1.00  0.00     0.029 A 
ATOM     44  C   UNL A   1      38.891  31.322  32.853  1.00  0.00     0.049 A 
ATOM     45  H   UNL A   1      39.881  30.117  31.468  1.00  0.00     0.167 HD
ATOM     46  C   UNL A   1      41.835  27.468  28.728  1.00  0.00     0.037 A 
ATOM     47  C   UNL A   1      39.591  31.327  34.005  1.00  0.00     0.037 A 
ATOM     48  C   UNL A   1      42.581  27.304  29.951  1.00  0.00     0.049 A 
ATOM     49  C   UNL A   1      40.773  30.420  34.165  1.00  0.00     0.074 A 
ATOM     50  C   UNL A   1      43.718  26.541  30.174  1.00  0.00     0.029 A 
ATOM     51  N   UNL A   1      42.292  27.937  31.148  1.00  0.00    -0.354 N 
ATOM     52  N   UNL A   1      41.339  29.642  33.279  1.00  0.00    -0.248 NA
ATOM     53  C   UNL A   1      41.380  30.350  35.503  1.00  0.00     0.031 C 
ATOM     54  C   UNL A   1      44.095  26.686  31.513  1.00  0.00     0.029 A 
ATOM     55  C   UNL A   1      43.218  27.572  32.114  1.00  0.00     0.049 A 
ATOM     56  H   UNL A   1      41.538  28.555  31.293  1.00  0.00     0.167 HD
ATOM     57  C   UNL A   1      42.361  28.986  33.949  1.00  0.00     0.074 A 
ATOM     58  C   UNL A   1      42.357  29.475  35.310  1.00  0.00     0.031 C 
ATOM     59  C   UNL A   1      43.216  28.051  33.471  1.00  0.00     0.037 A 
BRANCH  46  60
ATOM     60  C   UNL A   1      42.331  26.716  27.526  1.00  0.00     0.064 A 
ATOM     61  C   UNL A   1      41.860  25.414  27.277  1.00  0.00     0.173 A 
ATOM     62  C   UNL A   1      43.337  27.219  26.693  1.00  0.00     0.173 A 
ATOM     63  F   UNL A   1      40.907  24.880  28.054  1.00  0.00    -0.203 F 
ATOM     64  C   UNL A   1      42.395  24.640  26.251  1.00  0.00     0.198 A 
ATOM     65  C   UNL A   1      43.853  26.449  25.651  1.00  0.00     0.198 A 
ATOM     66  F   UNL A   1      43.815  28.457  26.885  1.00  0.00    -0.203 F 
ATOM     67  F   UNL A   1      41.958  23.387  26.061  1.00  0.00    -0.200 F 
ATOM     68  C   UNL A   1      43.391  25.159  25.438  1.00  0.00     0.200 A 
ATOM     69  F   UNL A   1      44.804  26.956  24.853  1.00  0.00    -0.200 F 
ATOM     70  F   UNL A   1      43.905  24.414  24.450  1.00  0.00    -0.200 F 
ENDBRANCH  46  60
BRANCH  47  71
ATOM     71  C   UNL A   1      39.109  32.155  35.145  1.00  0.00     0.064 A 
ATOM     72  C   UNL A   1      39.413  33.523  35.231  1.00  0.00     0.173 A 
ATOM     73  C   UNL A   1      38.375  31.582  36.191  1.00  0.00     0.173 A 
ATOM     74  F   UNL A   1      40.106  34.120  34.249  1.00  0.00    -0.203 F 
ATOM     75  C   UNL A   1      39.054  34.272  36.346  1.00  0.00     0.198 A 
ATOM     76  C   UNL A   1      37.983  32.343  37.290  1.00  0.00     0.198 A 
ATOM     77  F   UNL A   1      38.026  30.288  36.135  1.00  0.00    -0.203 F 
ATOM     78  F   UNL A   1      39.421  35.557  36.432  1.00  0.00    -0.200 F 
ATOM     79  C   UNL A   1      38.338  33.682  37.375  1.00  0.00     0.200 A 
ATOM     80  F   UNL A   1      37.261  31.780  38.270  1.00  0.00    -0.200 F 
ATOM     81  F   UNL A   1      37.988  34.404  38.449  1.00  0.00    -0.200 F 
ENDBRANCH  47  71
BRANCH  59  82
ATOM     82  C   UNL A   1      44.236  27.498  34.419  1.00  0.00     0.064 A 
ATOM     83  C   UNL A   1      45.478  28.129  34.580  1.00  0.00     0.173 A 
ATOM     84  C   UNL A   1      44.000  26.316  35.136  1.00  0.00     0.173 A 
ATOM     85  F   UNL A   1      45.752  29.262  33.914  1.00  0.00    -0.203 F 
ATOM     86  C   UNL A   1      46.452  27.592  35.417  1.00  0.00     0.198 A 
ATOM     87  C   UNL A   1      44.969  25.793  35.990  1.00  0.00     0.198 A 
ATOM     88  F   UNL A   1      42.821  25.686  35.029  1.00  0.00    -0.203 F 
ATOM     89  F   UNL A   1      47.639  28.201  35.540  1.00  0.00    -0.200 F 
ATOM     90  C   UNL A   1      46.195  26.427  36.124  1.00  0.00     0.200 A 
ATOM     91  F   UNL A   1      44.710  24.680  36.691  1.00  0.00    -0.200 F 
ATOM     92  F   UNL A   1      47.127  25.917  36.941  1.00  0.00    -0.200 F 
ENDBRANCH  59  82
ENDBRANCH  33  34
ENDBRANCH  26  28
ENDBRANCH  25  26
ENDBRANCH  24  25
ENDBRANCH   1  24
TORSDOF 17
ENDMDL
MODEL 2
REMARK VINA RESULT:     -12.0      1.502      2.688
REMARK SMILES CC[C@@H](C)[C@H](NC(=O)CCc1ccc(F)c(F)c1)C(=O)OCCOC(=O)c1ccc(-c2c3nc(c(-c4c(F)c(F)c(F)c(F)c4F)c4ccc([nH]4)c(-c4c(F)c(F)c(F)c(F)c4F)c4nc(c(-c5c(F)c(F)c(F)c(F)c5F)c5ccc2[nH]5)C=C4)C=C3)cc1
REMARK SMILES IDX 22 1 21 2 19 3 20 4 5 5 3 6 4 7 2 8 1 9 6 10 7 11 8 13 9 14
REMARK SMILES IDX 10 15 11 16 12 17 18 18 13 19 16 20 14 21 17 22 15 23 23 24
REMARK SMILES IDX 24 25 25 26 26 27 27 28 28 29 89 30 29 31 88 32 30 33 31 34
REMARK SMILES IDX 32 35 82 36 33 37 87 38 81 39 83 40 34 41 86 42 80 43 79 44
REMARK SMILES IDX 35 46 67 47 47 48 66 49 48 50 51 51 65 52 84 53 49 54 50 55
REMARK SMILES IDX 64 57 85 58 52 59 36 60 37 61 45 62 38 63 39 64 43 65 46 66
REMARK SMILES IDX 40 67 41 68 44 69 42 70 68 71 69 72 77 73 70 74 71 75 75 76
REMARK SMILES IDX 78 77 72 78 73 79 76 80 74 81 53 82 54 83 62 84 55 85 56 86
REMARK SMILES IDX 60 87 63 88 57 89 58 90 61 91 59 92
REMARK H PARENT 6 12 83 45 51 56
REMARK Flexibility Score: inf
ROOT
ATOM      1  C   UNL A   1      32.904  29.287  24.896  1.00  0.00     0.274 C 
ENDROOT
BRANCH   1   2
ATOM      2  O   UNL A   1      32.359  27.994  24.556  1.00  0.00    -0.461 OA
BRANCH   2   3
ATOM      3  C   UNL A   1      32.667  26.974  25.419  1.00  0.00     0.329 C 
ATOM      4  O   UNL A   1      33.363  27.132  26.411  1.00  0.00    -0.250 OA
BRANCH   3   5
ATOM      5  C   UNL A   1      31.757  25.746  25.133  1.00  0.00     0.195 C 
BRANCH   5   6
ATOM      6  C   UNL A   1      31.055  25.655  23.742  1.00  0.00     0.019 C 
ATOM      7  C   UNL A   1      29.567  26.024  23.790  1.00  0.00     0.010 C 
BRANCH   6   8
ATOM      8  C   UNL A   1      31.328  24.333  22.999  1.00  0.00     0.002 C 
ATOM      9  C   UNL A   1      32.768  24.160  22.530  1.00  0.00     0.004 C 
ENDBRANCH   6   8
ENDBRANCH   5   6
BRANCH   5  10
ATOM     10  N   UNL A   1      30.885  25.285  26.223  1.00  0.00    -0.343 N 
ATOM     11  C   UNL A   1      30.607  24.032  26.679  1.00  0.00     0.221 C 
ATOM     12  H   UNL A   1      30.422  26.005  26.707  1.00  0.00     0.164 HD
ATOM     13  O   UNL A   1      29.591  23.879  27.360  1.00  0.00    -0.275 OA
BRANCH  11  14
ATOM     14  C   UNL A   1      31.537  22.869  26.413  1.00  0.00     0.105 C 
BRANCH  14  15
ATOM     15  C   UNL A   1      32.927  23.025  27.027  1.00  0.00     0.045 C 
BRANCH  15  16
ATOM     16  C   UNL A   1      34.094  22.710  26.117  1.00  0.00    -0.044 A 
ATOM     17  C   UNL A   1      34.880  23.726  25.556  1.00  0.00     0.007 A 
ATOM     18  C   UNL A   1      34.458  21.385  25.860  1.00  0.00     0.046 A 
ATOM     19  C   UNL A   1      35.965  23.450  24.724  1.00  0.00     0.043 A 
ATOM     20  C   UNL A   1      35.551  21.105  25.038  1.00  0.00     0.159 A 
ATOM     21  C   UNL A   1      36.295  22.131  24.470  1.00  0.00     0.158 A 
ATOM     22  F   UNL A   1      35.877  19.829  24.796  1.00  0.00    -0.204 F 
ATOM     23  F   UNL A   1      37.337  21.861  23.673  1.00  0.00    -0.204 F 
ENDBRANCH  15  16
ENDBRANCH  14  15
ENDBRANCH  11  14
ENDBRANCH   5  10
ENDBRANCH   3   5
ENDBRANCH   2   3
ENDBRANCH   1   2
BRANCH   1  24
ATOM     24  C   UNL A   1      31.842  30.104  25.641  1.00  0.00     0.275 C 
BRANCH  24  25
ATOM     25  O   UNL A   1      32.265  30.333  27.009  1.00  0.00    -0.458 OA
BRANCH  25  26
ATOM     26  C   UNL A   1      32.994  31.455  27.230  1.00  0.00     0.338 C 
ATOM     27  O   UNL A   1      32.582  32.610  27.135  1.00  0.00    -0.246 OA
BRANCH  26  28
ATOM     28  C   UNL A   1      34.374  31.144  27.690  1.00  0.00     0.060 A 
ATOM     29  C   UNL A   1      34.759  29.840  27.969  1.00  0.00     0.016 A 
ATOM     30  C   UNL A   1      35.269  32.176  27.990  1.00  0.00     0.016 A 
ATOM     31  C   UNL A   1      35.909  29.595  28.728  1.00  0.00     0.010 A 
ATOM     32  C   UNL A   1      36.512  31.897  28.591  1.00  0.00     0.010 A 
ATOM     33  C   UNL A   1      36.840  30.601  29.023  1.00  0.00    -0.014 A 
BRANCH  33  34
ATOM     34  C   UNL A   1      38.120  30.301  29.764  1.00  0.00     0.031 A 
ATOM     35  C   UNL A   1      39.219  29.468  29.135  1.00  0.00     0.074 A 
ATOM     36  C   UNL A   1      38.356  30.783  31.006  1.00  0.00     0.049 A 
ATOM     37  N   UNL A   1      40.226  28.853  29.710  1.00  0.00    -0.248 NA
ATOM     38  C   UNL A   1      39.185  29.301  27.673  1.00  0.00     0.031 C 
ATOM     39  C   UNL A   1      37.478  31.676  31.762  1.00  0.00     0.029 A 
ATOM     40  N   UNL A   1      39.428  30.599  31.855  1.00  0.00    -0.354 N 
ATOM     41  C   UNL A   1      40.894  28.169  28.700  1.00  0.00     0.074 A 
ATOM     42  C   UNL A   1      40.192  28.460  27.467  1.00  0.00     0.031 C 
ATOM     43  C   UNL A   1      38.082  32.043  32.899  1.00  0.00     0.029 A 
ATOM     44  C   UNL A   1      39.303  31.266  33.052  1.00  0.00     0.049 A 
ATOM     45  H   UNL A   1      40.208  30.045  31.625  1.00  0.00     0.167 HD
ATOM     46  C   UNL A   1      41.981  27.363  28.794  1.00  0.00     0.037 A 
ATOM     47  C   UNL A   1      40.018  31.207  34.194  1.00  0.00     0.037 A 
ATOM     48  C   UNL A   1      42.735  27.130  30.002  1.00  0.00     0.049 A 
ATOM     49  C   UNL A   1      41.153  30.236  34.314  1.00  0.00     0.074 A 
ATOM     50  C   UNL A   1      43.833  26.304  30.190  1.00  0.00     0.029 A 
ATOM     51  N   UNL A   1      42.496  27.749  31.218  1.00  0.00    -0.354 N 
ATOM     52  N   UNL A   1      41.665  29.450  33.402  1.00  0.00    -0.248 NA
ATOM     53  C   UNL A   1      41.774  30.102  35.641  1.00  0.00     0.031 C 
ATOM     54  C   UNL A   1      44.236  26.397  31.526  1.00  0.00     0.029 A 
ATOM     55  C   UNL A   1      43.416  27.313  32.161  1.00  0.00     0.049 A 
ATOM     56  H   UNL A   1      41.778  28.402  31.389  1.00  0.00     0.167 HD
ATOM     57  C   UNL A   1      42.660  28.726  34.041  1.00  0.00     0.074 A 
ATOM     58  C   UNL A   1      42.701  29.181  35.413  1.00  0.00     0.031 C 
ATOM     59  C   UNL A   1      43.458  27.759  33.528  1.00  0.00     0.037 A 
BRANCH  46  60
ATOM     60  C   UNL A   1      42.420  26.614  27.568  1.00  0.00     0.064 A 
ATOM     61  C   UNL A   1      41.873  25.349  27.293  1.00  0.00     0.173 A 
ATOM     62  C   UNL A   1      43.444  27.080  26.736  1.00  0.00     0.173 A 
ATOM     63  F   UNL A   1      40.899  24.851  28.068  1.00  0.00    -0.203 F 
ATOM     64  C   UNL A   1      42.350  24.572  26.241  1.00  0.00     0.198 A 
ATOM     65  C   UNL A   1      43.904  26.310  25.668  1.00  0.00     0.198 A 
ATOM     66  F   UNL A   1      43.995  28.284  26.952  1.00  0.00    -0.203 F 
ATOM     67  F   UNL A   1      41.841  23.351  26.025  1.00  0.00    -0.200 F 
ATOM     68  C   UNL A   1      43.365  25.053  25.429  1.00  0.00     0.200 A 
ATOM     69  F   UNL A   1      44.873  26.781  24.872  1.00  0.00    -0.200 F 
ATOM     70  F   UNL A   1      43.825  24.306  24.417  1.00  0.00    -0.200 F 
ENDBRANCH  46  60
BRANCH  47  71
ATOM     71  C   UNL A   1      39.597  32.031  35.359  1.00  0.00     0.064 A 
ATOM     72  C   UNL A   1      38.670  31.547  36.297  1.00  0.00     0.173 A 
ATOM     73  C   UNL A   1      40.077  33.335  35.530  1.00  0.00     0.173 A 
ATOM     74  F   UNL A   1      38.188  30.300  36.182  1.00  0.00    -0.203 F 
ATOM     75  C   UNL A   1      38.197  32.355  37.325  1.00  0.00     0.198 A 
ATOM     76  C   UNL A   1      39.631  34.131  36.583  1.00  0.00     0.198 A 
ATOM     77  F   UNL A   1      40.993  33.828  34.683  1.00  0.00    -0.203 F 
ATOM     78  F   UNL A   1      37.260  31.889  38.162  1.00  0.00    -0.200 F 
ATOM     79  C   UNL A   1      38.678  33.646  37.469  1.00  0.00     0.200 A 
ATOM     80  F   UNL A   1      40.121  35.368  36.741  1.00  0.00    -0.200 F 
ATOM     81  F   UNL A   1      38.225  34.424  38.462  1.00  0.00    -0.200 F 
ENDBRANCH  47  71
BRANCH  59  82
ATOM     82  C   UNL A   1      44.461  27.130  34.447  1.00  0.00     0.064 A 
ATOM     83  C   UNL A   1      44.144  25.964  35.159  1.00  0.00     0.173 A 
ATOM     84  C   UNL A   1      45.721  27.708  34.657  1.00  0.00     0.173 A 
ATOM     85  F   UNL A   1      42.950  25.374  34.994  1.00  0.00    -0.203 F 
ATOM     86  C   UNL A   1      45.050  25.404  36.055  1.00  0.00     0.198 A 
ATOM     87  C   UNL A   1      46.634  27.132  35.538  1.00  0.00     0.198 A 
ATOM     88  F   UNL A   1      46.076  28.813  33.985  1.00  0.00    -0.203 F 
ATOM     89  F   UNL A   1      44.719  24.301  36.740  1.00  0.00    -0.200 F 
ATOM     90  C   UNL A   1      46.295  25.986  36.241  1.00  0.00     0.200 A 
ATOM     91  F   UNL A   1      47.845  27.682  35.698  1.00  0.00    -0.200 F 
ATOM     92  F   UNL A   1      47.172  25.439  37.094  1.00  0.00    -0.200 F 
ENDBRANCH  59  82
ENDBRANCH  33  34
ENDBRANCH  26  28
ENDBRANCH  25  26
ENDBRANCH  24  25
ENDBRANCH   1  24
TORSDOF 17
ENDMDL
MODEL 3
REMARK VINA RESULT:     -12.0      1.366      2.153
REMARK SMILES CC[C@@H](C)[C@H](NC(=O)CCc1ccc(F)c(F)c1)C(=O)OCCOC(=O)c1ccc(-c2c3nc(c(-c4c(F)c(F)c(F)c(F)c4F)c4ccc([nH]4)c(-c4c(F)c(F)c(F)c(F)c4F)c4nc(c(-c5c(F)c(F)c(F)c(F)c5F)c5ccc2[nH]5)C=C4)C=C3)cc1
REMARK SMILES IDX 22 1 21 2 19 3 20 4 5 5 3 6 4 7 2 8 1 9 6 10 7 11 8 13 9 14
REMARK SMILES IDX 10 15 11 16 12 17 18 18 13 19 16 20 14 21 17 22 15 23 23 24
REMARK SMILES IDX 24 25 25 26 26 27 27 28 28 29 89 30 29 31 88 32 30 33 31 34
REMARK SMILES IDX 32 35 82 36 33 37 87 38 81 39 83 40 34 41 86 42 80 43 79 44
REMARK SMILES IDX 35 46 67 47 47 48 66 49 48 50 51 51 65 52 84 53 49 54 50 55
REMARK SMILES IDX 64 57 85 58 52 59 36 60 37 61 45 62 38 63 39 64 43 65 46 66
REMARK SMILES IDX 40 67 41 68 44 69 42 70 68 71 69 72 77 73 70 74 71 75 75 76
REMARK SMILES IDX 78 77 72 78 73 79 76 80 74 81 53 82 54 83 62 84 55 85 56 86
REMARK SMILES IDX 60 87 63 88 57 89 58 90 61 91 59 92
REMARK H PARENT 6 12 83 45 51 56
REMARK Flexibility Score: inf
ROOT
ATOM      1  C   UNL A   1      31.345  28.278  25.150  1.00  0.00     0.274 C 
ENDROOT
BRANCH   1   2
ATOM      2  O   UNL A   1      32.196  27.340  25.845  1.00  0.00    -0.461 OA
BRANCH   2   3
ATOM      3  C   UNL A   1      32.891  26.468  25.049  1.00  0.00     0.329 C 
ATOM      4  O   UNL A   1      34.079  26.606  24.791  1.00  0.00    -0.250 OA
BRANCH   3   5
ATOM      5  C   UNL A   1      32.059  25.173  24.829  1.00  0.00     0.195 C 
BRANCH   5   6
ATOM      6  C   UNL A   1      31.459  24.914  23.411  1.00  0.00     0.019 C 
ATOM      7  C   UNL A   1      30.603  23.643  23.339  1.00  0.00     0.010 C 
BRANCH   6   8
ATOM      8  C   UNL A   1      32.498  25.009  22.276  1.00  0.00     0.002 C 
ATOM      9  C   UNL A   1      33.514  23.874  22.255  1.00  0.00     0.004 C 
ENDBRANCH   6   8
ENDBRANCH   5   6
BRANCH   5  10
ATOM     10  N   UNL A   1      31.135  24.775  25.900  1.00  0.00    -0.343 N 
ATOM     11  C   UNL A   1      31.190  23.751  26.796  1.00  0.00     0.221 C 
ATOM     12  H   UNL A   1      30.339  25.348  25.986  1.00  0.00     0.164 HD
ATOM     13  O   UNL A   1      30.143  23.418  27.355  1.00  0.00    -0.275 OA
BRANCH  11  14
ATOM     14  C   UNL A   1      32.496  23.074  27.145  1.00  0.00     0.105 C 
BRANCH  14  15
ATOM     15  C   UNL A   1      32.957  22.037  26.123  1.00  0.00     0.045 C 
BRANCH  15  16
ATOM     16  C   UNL A   1      34.441  22.009  25.828  1.00  0.00    -0.044 A 
ATOM     17  C   UNL A   1      35.250  23.135  26.031  1.00  0.00     0.007 A 
ATOM     18  C   UNL A   1      35.059  20.829  25.401  1.00  0.00     0.046 A 
ATOM     19  C   UNL A   1      36.621  23.120  25.775  1.00  0.00     0.043 A 
ATOM     20  C   UNL A   1      36.433  20.807  25.154  1.00  0.00     0.159 A 
ATOM     21  C   UNL A   1      37.207  21.947  25.335  1.00  0.00     0.158 A 
ATOM     22  F   UNL A   1      37.003  19.671  24.735  1.00  0.00    -0.204 F 
ATOM     23  F   UNL A   1      38.523  21.927  25.088  1.00  0.00    -0.204 F 
ENDBRANCH  15  16
ENDBRANCH  14  15
ENDBRANCH  11  14
ENDBRANCH   5  10
ENDBRANCH   3   5
ENDBRANCH   2   3
ENDBRANCH   1   2
BRANCH   1  24
ATOM     24  C   UNL A   1      31.923  29.691  25.297  1.00  0.00     0.275 C 
BRANCH  24  25
ATOM     25  O   UNL A   1      32.057  30.025  26.702  1.00  0.00    -0.458 OA
BRANCH  25  26
ATOM     26  C   UNL A   1      32.689  31.192  26.982  1.00  0.00     0.338 C 
ATOM     27  O   UNL A   1      32.191  32.314  26.913  1.00  0.00    -0.246 OA
BRANCH  26  28
ATOM     28  C   UNL A   1      34.077  30.972  27.471  1.00  0.00     0.060 A 
ATOM     29  C   UNL A   1      34.571  29.691  27.670  1.00  0.00     0.016 A 
ATOM     30  C   UNL A   1      34.863  32.054  27.878  1.00  0.00     0.016 A 
ATOM     31  C   UNL A   1      35.715  29.493  28.453  1.00  0.00     0.010 A 
ATOM     32  C   UNL A   1      36.107  31.845  28.505  1.00  0.00     0.010 A 
ATOM     33  C   UNL A   1      36.539  30.554  28.854  1.00  0.00    -0.014 A 
BRANCH  33  34
ATOM     34  C   UNL A   1      37.817  30.315  29.621  1.00  0.00     0.031 A 
ATOM     35  C   UNL A   1      38.960  29.519  29.021  1.00  0.00     0.074 A 
ATOM     36  C   UNL A   1      38.013  30.823  30.860  1.00  0.00     0.049 A 
ATOM     37  N   UNL A   1      39.981  28.953  29.621  1.00  0.00    -0.248 NA
ATOM     38  C   UNL A   1      38.957  29.332  27.562  1.00  0.00     0.031 C 
ATOM     39  C   UNL A   1      37.087  31.690  31.589  1.00  0.00     0.029 A 
ATOM     40  N   UNL A   1      39.077  30.694  31.729  1.00  0.00    -0.354 N 
ATOM     41  C   UNL A   1      40.692  28.283  28.632  1.00  0.00     0.074 A 
ATOM     42  C   UNL A   1      40.000  28.530  27.384  1.00  0.00     0.031 C 
ATOM     43  C   UNL A   1      37.657  32.095  32.730  1.00  0.00     0.029 A 
ATOM     44  C   UNL A   1      38.905  31.370  32.915  1.00  0.00     0.049 A 
ATOM     45  H   UNL A   1      39.883  30.168  31.520  1.00  0.00     0.167 HD
ATOM     46  C   UNL A   1      41.809  27.522  28.756  1.00  0.00     0.037 A 
ATOM     47  C   UNL A   1      39.602  31.355  34.069  1.00  0.00     0.037 A 
ATOM     48  C   UNL A   1      42.551  27.336  29.979  1.00  0.00     0.049 A 
ATOM     49  C   UNL A   1      40.773  30.432  34.221  1.00  0.00     0.074 A 
ATOM     50  C   UNL A   1      43.677  26.557  30.196  1.00  0.00     0.029 A 
ATOM     51  N   UNL A   1      42.267  27.961  31.182  1.00  0.00    -0.354 N 
ATOM     52  N   UNL A   1      41.331  29.655  33.328  1.00  0.00    -0.248 NA
ATOM     53  C   UNL A   1      41.376  30.340  35.559  1.00  0.00     0.031 C 
ATOM     54  C   UNL A   1      44.054  26.684  31.537  1.00  0.00     0.029 A 
ATOM     55  C   UNL A   1      43.187  27.574  32.146  1.00  0.00     0.049 A 
ATOM     56  H   UNL A   1      41.520  28.587  31.332  1.00  0.00     0.167 HD
ATOM     57  C   UNL A   1      42.343  28.980  33.993  1.00  0.00     0.074 A 
ATOM     58  C   UNL A   1      42.343  29.455  35.360  1.00  0.00     0.031 C 
ATOM     59  C   UNL A   1      43.188  28.040  33.507  1.00  0.00     0.037 A 
BRANCH  46  60
ATOM     60  C   UNL A   1      42.298  26.776  27.547  1.00  0.00     0.064 A 
ATOM     61  C   UNL A   1      41.824  25.478  27.292  1.00  0.00     0.173 A 
ATOM     62  C   UNL A   1      43.302  27.282  26.713  1.00  0.00     0.173 A 
ATOM     63  F   UNL A   1      40.872  24.941  28.070  1.00  0.00    -0.203 F 
ATOM     64  C   UNL A   1      42.352  24.709  26.259  1.00  0.00     0.198 A 
ATOM     65  C   UNL A   1      43.812  26.518  25.664  1.00  0.00     0.198 A 
ATOM     66  F   UNL A   1      43.784  28.518  26.910  1.00  0.00    -0.203 F 
ATOM     67  F   UNL A   1      41.912  23.458  26.063  1.00  0.00    -0.200 F 
ATOM     68  C   UNL A   1      43.345  25.230  25.445  1.00  0.00     0.200 A 
ATOM     69  F   UNL A   1      44.760  27.027  24.865  1.00  0.00    -0.200 F 
ATOM     70  F   UNL A   1      43.853  24.490  24.451  1.00  0.00    -0.200 F 
ENDBRANCH  46  60
BRANCH  47  71
ATOM     71  C   UNL A   1      39.129  32.176  35.216  1.00  0.00     0.064 A 
ATOM     72  C   UNL A   1      39.481  33.530  35.336  1.00  0.00     0.173 A 
ATOM     73  C   UNL A   1      38.354  31.610  36.235  1.00  0.00     0.173 A 
ATOM     74  F   UNL A   1      40.215  34.121  34.380  1.00  0.00    -0.203 F 
ATOM     75  C   UNL A   1      39.128  34.269  36.460  1.00  0.00     0.198 A 
ATOM     76  C   UNL A   1      37.967  32.363  37.343  1.00  0.00     0.198 A 
ATOM     77  F   UNL A   1      37.958  30.332  36.145  1.00  0.00    -0.203 F 
ATOM     78  F   UNL A   1      39.540  35.538  36.580  1.00  0.00    -0.200 F 
ATOM     79  C   UNL A   1      38.370  33.686  37.462  1.00  0.00     0.200 A 
ATOM     80  F   UNL A   1      37.206  31.807  38.296  1.00  0.00    -0.200 F 
ATOM     81  F   UNL A   1      38.026  34.399  38.544  1.00  0.00    -0.200 F 
ENDBRANCH  47  71
BRANCH  59  82
ATOM     82  C   UNL A   1      44.199  27.464  34.451  1.00  0.00     0.064 A 
ATOM     83  C   UNL A   1      45.445  28.083  34.628  1.00  0.00     0.173 A 
ATOM     84  C   UNL A   1      43.951  26.272  35.148  1.00  0.00     0.173 A 
ATOM     85  F   UNL A   1      45.730  29.224  33.982  1.00  0.00    -0.203 F 
ATOM     86  C   UNL A   1      46.410  27.526  35.462  1.00  0.00     0.198 A 
ATOM     87  C   UNL A   1      44.911  25.729  35.999  1.00  0.00     0.198 A 
ATOM     88  F   UNL A   1      42.768  25.653  35.026  1.00  0.00    -0.203 F 
ATOM     89  F   UNL A   1      47.601  28.124  35.601  1.00  0.00    -0.200 F 
ATOM     90  C   UNL A   1      46.141  26.352  36.150  1.00  0.00     0.200 A 
ATOM     91  F   UNL A   1      44.641  24.607  36.681  1.00  0.00    -0.200 F 
ATOM     92  F   UNL A   1      47.066  25.822  36.963  1.00  0.00    -0.200 F 
ENDBRANCH  59  82
ENDBRANCH  33  34
ENDBRANCH  26  28
ENDBRANCH  25  26
ENDBRANCH  24  25
ENDBRANCH   1  24
TORSDOF 17
ENDMDL
