MODEL 1
REMARK VINA RESULT:     -10.2      0.000      0.000
REMARK SMILES C[C@@H](C(=O)OCCOC(=O)c1ccc(-c2c3nc(c(-c4c(F)c(F)c(F)c(F)c4F)c4ccc([nH]4)c(-c4c(F)c(F)c(F)c(F)c4F)c4nc(c(-c5c(F)c(F)c(F)c(F)c5F)c5ccc2[nH]5)C=C4)C=C3)cc1)c1ccc(Cc2ccco2)cc1F
REMARK SMILES IDX 6 1 5 2 3 3 4 4 2 5 1 6 74 7 75 8 85 9 76 10 84 11 86 12
REMARK SMILES IDX 77 13 78 14 79 15 80 16 83 17 81 18 82 19 7 20 8 21 9 22
REMARK SMILES IDX 10 23 11 24 12 25 73 26 13 27 72 28 14 29 15 30 16 31 66 32
REMARK SMILES IDX 17 33 71 34 65 35 67 36 18 37 70 38 64 39 63 40 19 42 51 43
REMARK SMILES IDX 31 44 50 45 32 46 35 47 49 48 68 49 33 50 34 51 48 53 69 54
REMARK SMILES IDX 36 55 20 56 21 57 29 58 22 59 23 60 27 61 30 62 24 63 25 64
REMARK SMILES IDX 28 65 26 66 52 67 53 68 61 69 54 70 55 71 59 72 62 73 56 74
REMARK SMILES IDX 57 75 60 76 58 77 37 78 38 79 46 80 39 81 40 82 44 83 47 84
REMARK SMILES IDX 41 85 42 86 45 87 43 88
REMARK H PARENT 67 41 35 52
REMARK Flexibility Score: inf
ROOT
ATOM      1  C   UNL A   1      33.800  35.044  29.251  1.00  0.00     0.274 C 
ENDROOT
BRANCH   1   2
ATOM      2  O   UNL A   1      33.101  35.422  30.454  1.00  0.00    -0.462 OA
BRANCH   2   3
ATOM      3  C   UNL A   1      33.831  35.465  31.605  1.00  0.00     0.313 C 
ATOM      4  O   UNL A   1      34.009  36.482  32.265  1.00  0.00    -0.252 OA
BRANCH   3   5
ATOM      5  C   UNL A   1      34.462  34.107  31.925  1.00  0.00     0.129 C 
ATOM      6  C   UNL A   1      33.891  33.450  33.185  1.00  0.00     0.025 C 
BRANCH   5   7
ATOM      7  C   UNL A   1      35.979  34.199  32.015  1.00  0.00     0.002 A 
ATOM      8  C   UNL A   1      36.799  33.977  30.899  1.00  0.00     0.008 A 
ATOM      9  C   UNL A   1      36.598  34.499  33.233  1.00  0.00     0.127 A 
ATOM     10  C   UNL A   1      38.192  34.047  31.008  1.00  0.00     0.005 A 
ATOM     11  C   UNL A   1      37.985  34.579  33.348  1.00  0.00     0.043 A 
ATOM     12  F   UNL A   1      35.850  34.739  34.321  1.00  0.00    -0.207 F 
ATOM     13  C   UNL A   1      38.800  34.360  32.232  1.00  0.00    -0.038 A 
BRANCH  13  14
ATOM     14  C   UNL A   1      40.304  34.471  32.342  1.00  0.00     0.111 C 
BRANCH  14  15
ATOM     15  C   UNL A   1      41.045  33.569  31.421  1.00  0.00     0.108 A 
ATOM     16  C   UNL A   1      41.753  33.773  30.257  1.00  0.00     0.046 A 
ATOM     17  O   UNL A   1      41.124  32.255  31.787  1.00  0.00    -0.469 OA
ATOM     18  C   UNL A   1      42.276  32.516  29.884  1.00  0.00     0.042 A 
ATOM     19  C   UNL A   1      41.882  31.627  30.853  1.00  0.00     0.195 A 
ENDBRANCH  14  15
ENDBRANCH  13  14
ENDBRANCH   5   7
ENDBRANCH   3   5
ENDBRANCH   2   3
ENDBRANCH   1   2
BRANCH   1  20
ATOM     20  C   UNL A   1      32.963  34.066  28.432  1.00  0.00     0.275 C 
BRANCH  20  21
ATOM     21  O   UNL A   1      33.806  33.401  27.473  1.00  0.00    -0.458 OA
BRANCH  21  22
ATOM     22  C   UNL A   1      33.660  32.062  27.376  1.00  0.00     0.338 C 
ATOM     23  O   UNL A   1      32.698  31.444  26.956  1.00  0.00    -0.246 OA
BRANCH  22  24
ATOM     24  C   UNL A   1      34.881  31.397  27.866  1.00  0.00     0.060 A 
ATOM     25  C   UNL A   1      34.819  30.080  28.315  1.00  0.00     0.016 A 
ATOM     26  C   UNL A   1      36.060  32.134  28.008  1.00  0.00     0.016 A 
ATOM     27  C   UNL A   1      35.904  29.536  28.999  1.00  0.00     0.010 A 
ATOM     28  C   UNL A   1      37.174  31.554  28.626  1.00  0.00     0.010 A 
ATOM     29  C   UNL A   1      37.091  30.267  29.181  1.00  0.00    -0.014 A 
BRANCH  29  30
ATOM     30  C   UNL A   1      38.184  29.703  30.025  1.00  0.00     0.031 A 
ATOM     31  C   UNL A   1      39.336  28.966  29.384  1.00  0.00     0.074 A 
ATOM     32  C   UNL A   1      38.216  29.950  31.351  1.00  0.00     0.049 A 
ATOM     33  N   UNL A   1      40.390  28.429  29.947  1.00  0.00    -0.248 NA
ATOM     34  C   UNL A   1      39.303  28.812  27.921  1.00  0.00     0.031 C 
ATOM     35  C   UNL A   1      37.207  30.716  32.081  1.00  0.00     0.029 A 
ATOM     36  N   UNL A   1      39.170  29.669  32.301  1.00  0.00    -0.354 N 
ATOM     37  C   UNL A   1      41.089  27.796  28.926  1.00  0.00     0.074 A 
ATOM     38  C   UNL A   1      40.372  28.059  27.699  1.00  0.00     0.031 C 
ATOM     39  C   UNL A   1      37.668  30.982  33.313  1.00  0.00     0.029 A 
ATOM     40  C   UNL A   1      38.967  30.339  33.488  1.00  0.00     0.049 A 
ATOM     41  H   UNL A   1      39.922  29.053  32.148  1.00  0.00     0.167 HD
ATOM     42  C   UNL A   1      42.208  27.036  29.013  1.00  0.00     0.037 A 
ATOM     43  C   UNL A   1      39.769  30.461  34.566  1.00  0.00     0.037 A 
ATOM     44  C   UNL A   1      42.958  26.828  30.224  1.00  0.00     0.049 A 
ATOM     45  C   UNL A   1      41.055  29.681  34.613  1.00  0.00     0.074 A 
ATOM     46  C   UNL A   1      44.047  26.000  30.438  1.00  0.00     0.029 A 
ATOM     47  N   UNL A   1      42.716  27.488  31.418  1.00  0.00    -0.354 N 
ATOM     48  N   UNL A   1      41.649  28.997  33.668  1.00  0.00    -0.248 NA
ATOM     49  C   UNL A   1      41.762  29.666  35.903  1.00  0.00     0.031 C 
ATOM     50  C   UNL A   1      44.447  26.139  31.772  1.00  0.00     0.029 A 
ATOM     51  C   UNL A   1      43.630  27.080  32.376  1.00  0.00     0.049 A 
ATOM     52  H   UNL A   1      42.001  28.147  31.564  1.00  0.00     0.167 HD
ATOM     53  C   UNL A   1      42.787  28.456  34.251  1.00  0.00     0.074 A 
ATOM     54  C   UNL A   1      42.840  28.953  35.609  1.00  0.00     0.031 C 
ATOM     55  C   UNL A   1      43.680  27.584  33.723  1.00  0.00     0.037 A 
BRANCH  42  56
ATOM     56  C   UNL A   1      42.638  26.290  27.785  1.00  0.00     0.064 A 
ATOM     57  C   UNL A   1      43.615  26.780  26.910  1.00  0.00     0.173 A 
ATOM     58  C   UNL A   1      42.074  25.034  27.509  1.00  0.00     0.173 A 
ATOM     59  F   UNL A   1      44.168  27.983  27.120  1.00  0.00    -0.203 F 
ATOM     60  C   UNL A   1      44.006  26.042  25.793  1.00  0.00     0.198 A 
ATOM     61  C   UNL A   1      42.483  24.290  26.405  1.00  0.00     0.198 A 
ATOM     62  F   UNL A   1      41.135  24.522  28.318  1.00  0.00    -0.203 F 
ATOM     63  F   UNL A   1      44.919  26.540  24.949  1.00  0.00    -0.200 F 
ATOM     64  C   UNL A   1      43.445  24.796  25.546  1.00  0.00     0.200 A 
ATOM     65  F   UNL A   1      41.945  23.084  26.176  1.00  0.00    -0.200 F 
ATOM     66  F   UNL A   1      43.828  24.086  24.476  1.00  0.00    -0.200 F 
ENDBRANCH  42  56
BRANCH  43  67
ATOM     67  C   UNL A   1      39.456  31.443  35.643  1.00  0.00     0.064 A 
ATOM     68  C   UNL A   1      40.163  32.657  35.699  1.00  0.00     0.173 A 
ATOM     69  C   UNL A   1      38.474  31.226  36.617  1.00  0.00     0.173 A 
ATOM     70  F   UNL A   1      41.137  32.905  34.811  1.00  0.00    -0.203 F 
ATOM     71  C   UNL A   1      39.897  33.612  36.677  1.00  0.00     0.198 A 
ATOM     72  C   UNL A   1      38.189  32.195  37.581  1.00  0.00     0.198 A 
ATOM     73  F   UNL A   1      37.778  30.080  36.627  1.00  0.00    -0.203 F 
ATOM     74  F   UNL A   1      40.612  34.744  36.716  1.00  0.00    -0.200 F 
ATOM     75  C   UNL A   1      38.902  33.384  37.612  1.00  0.00     0.200 A 
ATOM     76  F   UNL A   1      37.218  31.975  38.478  1.00  0.00    -0.200 F 
ATOM     77  F   UNL A   1      38.636  34.304  38.548  1.00  0.00    -0.200 F 
ENDBRANCH  43  67
BRANCH  55  78
ATOM     78  C   UNL A   1      44.763  27.074  34.626  1.00  0.00     0.064 A 
ATOM     79  C   UNL A   1      45.996  27.739  34.716  1.00  0.00     0.173 A 
ATOM     80  C   UNL A   1      44.557  25.956  35.446  1.00  0.00     0.173 A 
ATOM     81  F   UNL A   1      46.242  28.810  33.946  1.00  0.00    -0.203 F 
ATOM     82  C   UNL A   1      46.994  27.286  35.573  1.00  0.00     0.198 A 
ATOM     83  C   UNL A   1      45.550  25.521  36.323  1.00  0.00     0.198 A 
ATOM     84  F   UNL A   1      43.394  25.291  35.407  1.00  0.00    -0.203 F 
ATOM     85  F   UNL A   1      48.178  27.913  35.609  1.00  0.00    -0.200 F 
ATOM     86  C   UNL A   1      46.768  26.182  36.380  1.00  0.00     0.200 A 
ATOM     87  F   UNL A   1      45.327  24.462  37.113  1.00  0.00    -0.200 F 
ATOM     88  F   UNL A   1      47.728  25.753  37.212  1.00  0.00    -0.200 F 
ENDBRANCH  55  78
ENDBRANCH  29  30
ENDBRANCH  22  24
ENDBRANCH  21  22
ENDBRANCH  20  21
ENDBRANCH   1  20
TORSDOF 14
ENDMDL
MODEL 2
REMARK VINA RESULT:     -10.1      3.698      9.707
REMARK SMILES C[C@@H](C(=O)OCCOC(=O)c1ccc(-c2c3nc(c(-c4c(F)c(F)c(F)c(F)c4F)c4ccc([nH]4)c(-c4c(F)c(F)c(F)c(F)c4F)c4nc(c(-c5c(F)c(F)c(F)c(F)c5F)c5ccc2[nH]5)C=C4)C=C3)cc1)c1ccc(Cc2ccco2)cc1F
REMARK SMILES IDX 6 1 5 2 3 3 4 4 2 5 1 6 74 7 75 8 85 9 76 10 84 11 86 12
REMARK SMILES IDX 77 13 78 14 79 15 80 16 83 17 81 18 82 19 7 20 8 21 9 22
REMARK SMILES IDX 10 23 11 24 12 25 73 26 13 27 72 28 14 29 15 30 16 31 66 32
REMARK SMILES IDX 17 33 71 34 65 35 67 36 18 37 70 38 64 39 63 40 19 42 51 43
REMARK SMILES IDX 31 44 50 45 32 46 35 47 49 48 68 49 33 50 34 51 48 53 69 54
REMARK SMILES IDX 36 55 20 56 21 57 29 58 22 59 23 60 27 61 30 62 24 63 25 64
REMARK SMILES IDX 28 65 26 66 52 67 53 68 61 69 54 70 55 71 59 72 62 73 56 74
REMARK SMILES IDX 57 75 60 76 58 77 37 78 38 79 46 80 39 81 40 82 44 83 47 84
REMARK SMILES IDX 41 85 42 86 45 87 43 88
REMARK H PARENT 67 41 35 52
REMARK Flexibility Score: inf
ROOT
ATOM      1  C   UNL A   1      32.307  29.475  25.218  1.00  0.00     0.274 C 
ENDROOT
BRANCH   1   2
ATOM      2  O   UNL A   1      31.288  28.573  24.740  1.00  0.00    -0.462 OA
BRANCH   2   3
ATOM      3  C   UNL A   1      31.646  27.705  23.752  1.00  0.00     0.313 C 
ATOM      4  O   UNL A   1      30.851  27.015  23.125  1.00  0.00    -0.252 OA
BRANCH   3   5
ATOM      5  C   UNL A   1      33.167  27.642  23.578  1.00  0.00     0.129 C 
ATOM      6  C   UNL A   1      33.643  28.126  22.205  1.00  0.00     0.025 C 
BRANCH   5   7
ATOM      7  C   UNL A   1      33.709  26.250  23.869  1.00  0.00     0.002 A 
ATOM      8  C   UNL A   1      33.889  25.301  22.851  1.00  0.00     0.008 A 
ATOM      9  C   UNL A   1      34.032  25.877  25.178  1.00  0.00     0.127 A 
ATOM     10  C   UNL A   1      34.370  24.020  23.144  1.00  0.00     0.005 A 
ATOM     11  C   UNL A   1      34.519  24.605  25.476  1.00  0.00     0.043 A 
ATOM     12  F   UNL A   1      33.894  26.760  26.177  1.00  0.00    -0.207 F 
ATOM     13  C   UNL A   1      34.702  23.662  24.457  1.00  0.00    -0.038 A 
BRANCH  13  14
ATOM     14  C   UNL A   1      35.255  22.289  24.769  1.00  0.00     0.111 C 
BRANCH  14  15
ATOM     15  C   UNL A   1      34.252  21.197  24.669  1.00  0.00     0.108 A 
ATOM     16  C   UNL A   1      32.900  21.170  24.400  1.00  0.00     0.046 A 
ATOM     17  O   UNL A   1      34.722  19.922  24.806  1.00  0.00    -0.469 OA
ATOM     18  C   UNL A   1      32.524  19.810  24.391  1.00  0.00     0.042 A 
ATOM     19  C   UNL A   1      33.667  19.087  24.626  1.00  0.00     0.195 A 
ENDBRANCH  14  15
ENDBRANCH  13  14
ENDBRANCH   5   7
ENDBRANCH   3   5
ENDBRANCH   2   3
ENDBRANCH   1   2
BRANCH   1  20
ATOM     20  C   UNL A   1      31.683  30.605  26.031  1.00  0.00     0.275 C 
BRANCH  20  21
ATOM     21  O   UNL A   1      32.392  30.749  27.274  1.00  0.00    -0.458 OA
BRANCH  21  22
ATOM     22  C   UNL A   1      33.161  31.852  27.399  1.00  0.00     0.338 C 
ATOM     23  O   UNL A   1      32.829  33.015  27.250  1.00  0.00    -0.246 OA
BRANCH  22  24
ATOM     24  C   UNL A   1      34.534  31.457  27.761  1.00  0.00     0.060 A 
ATOM     25  C   UNL A   1      34.834  30.113  27.973  1.00  0.00     0.016 A 
ATOM     26  C   UNL A   1      35.490  32.441  28.025  1.00  0.00     0.016 A 
ATOM     27  C   UNL A   1      36.054  29.764  28.548  1.00  0.00     0.010 A 
ATOM     28  C   UNL A   1      36.744  32.077  28.529  1.00  0.00     0.010 A 
ATOM     29  C   UNL A   1      37.021  30.739  28.850  1.00  0.00    -0.014 A 
BRANCH  29  30
ATOM     30  C   UNL A   1      38.263  30.346  29.579  1.00  0.00     0.031 A 
ATOM     31  C   UNL A   1      38.412  30.655  31.049  1.00  0.00     0.074 A 
ATOM     32  C   UNL A   1      39.207  29.606  28.962  1.00  0.00     0.049 A 
ATOM     33  N   UNL A   1      39.403  30.372  31.858  1.00  0.00    -0.248 NA
ATOM     34  C   UNL A   1      37.306  31.377  31.699  1.00  0.00     0.031 C 
ATOM     35  C   UNL A   1      39.149  29.172  27.567  1.00  0.00     0.029 A 
ATOM     36  N   UNL A   1      40.349  29.010  29.445  1.00  0.00    -0.354 N 
ATOM     37  C   UNL A   1      39.083  30.959  33.076  1.00  0.00     0.074 A 
ATOM     38  C   UNL A   1      37.782  31.570  32.921  1.00  0.00     0.031 C 
ATOM     39  C   UNL A   1      40.107  28.257  27.354  1.00  0.00     0.029 A 
ATOM     40  C   UNL A   1      40.898  28.100  28.570  1.00  0.00     0.049 A 
ATOM     41  H   UNL A   1      40.734  29.214  30.328  1.00  0.00     0.167 HD
ATOM     42  C   UNL A   1      39.824  31.011  34.209  1.00  0.00     0.037 A 
ATOM     43  C   UNL A   1      41.890  27.203  28.755  1.00  0.00     0.037 A 
ATOM     44  C   UNL A   1      41.090  30.348  34.385  1.00  0.00     0.049 A 
ATOM     45  C   UNL A   1      42.649  27.211  30.054  1.00  0.00     0.074 A 
ATOM     46  C   UNL A   1      41.965  30.417  35.456  1.00  0.00     0.029 A 
ATOM     47  N   UNL A   1      41.642  29.460  33.475  1.00  0.00    -0.354 N 
ATOM     48  N   UNL A   1      42.393  27.857  31.164  1.00  0.00    -0.248 NA
ATOM     49  C   UNL A   1      43.863  26.382  30.106  1.00  0.00     0.031 C 
ATOM     50  C   UNL A   1      43.061  29.591  35.181  1.00  0.00     0.029 A 
ATOM     51  C   UNL A   1      42.849  28.980  33.957  1.00  0.00     0.049 A 
ATOM     52  H   UNL A   1      41.236  29.208  32.616  1.00  0.00     0.167 HD
ATOM     53  C   UNL A   1      43.422  27.529  32.037  1.00  0.00     0.074 A 
ATOM     54  C   UNL A   1      44.263  26.568  31.355  1.00  0.00     0.031 C 
ATOM     55  C   UNL A   1      43.676  28.020  33.275  1.00  0.00     0.037 A 
BRANCH  42  56
ATOM     56  C   UNL A   1      39.337  31.895  35.318  1.00  0.00     0.064 A 
ATOM     57  C   UNL A   1      39.669  33.253  35.401  1.00  0.00     0.173 A 
ATOM     58  C   UNL A   1      38.483  31.364  36.299  1.00  0.00     0.173 A 
ATOM     59  F   UNL A   1      40.497  33.801  34.501  1.00  0.00    -0.203 F 
ATOM     60  C   UNL A   1      39.172  34.046  36.435  1.00  0.00     0.198 A 
ATOM     61  C   UNL A   1      37.971  32.164  37.317  1.00  0.00     0.198 A 
ATOM     62  F   UNL A   1      38.135  30.069  36.261  1.00  0.00    -0.203 F 
ATOM     63  F   UNL A   1      39.528  35.336  36.518  1.00  0.00    -0.200 F 
ATOM     64  C   UNL A   1      38.320  33.503  37.387  1.00  0.00     0.200 A 
ATOM     65  F   UNL A   1      37.141  31.637  38.227  1.00  0.00    -0.200 F 
ATOM     66  F   UNL A   1      37.838  34.270  38.375  1.00  0.00    -0.200 F 
ENDBRANCH  42  56
BRANCH  43  67
ATOM     67  C   UNL A   1      42.155  26.138  27.746  1.00  0.00     0.064 A 
ATOM     68  C   UNL A   1      41.407  24.948  27.782  1.00  0.00     0.173 A 
ATOM     69  C   UNL A   1      43.120  26.260  26.739  1.00  0.00     0.173 A 
ATOM     70  F   UNL A   1      40.491  24.764  28.744  1.00  0.00    -0.203 F 
ATOM     71  C   UNL A   1      41.609  23.932  26.853  1.00  0.00     0.198 A 
ATOM     72  C   UNL A   1      43.304  25.252  25.791  1.00  0.00     0.198 A 
ATOM     73  F   UNL A   1      43.878  27.364  26.663  1.00  0.00    -0.203 F 
ATOM     74  F   UNL A   1      40.896  22.800  26.938  1.00  0.00    -0.200 F 
ATOM     75  C   UNL A   1      42.551  24.089  25.850  1.00  0.00     0.200 A 
ATOM     76  F   UNL A   1      44.209  25.412  24.817  1.00  0.00    -0.200 F 
ATOM     77  F   UNL A   1      42.740  23.117  24.948  1.00  0.00    -0.200 F 
ENDBRANCH  43  67
BRANCH  55  78
ATOM     78  C   UNL A   1      44.933  27.565  33.953  1.00  0.00     0.064 A 
ATOM     79  C   UNL A   1      46.138  28.263  33.777  1.00  0.00     0.173 A 
ATOM     80  C   UNL A   1      44.931  26.467  34.825  1.00  0.00     0.173 A 
ATOM     81  F   UNL A   1      46.192  29.317  32.948  1.00  0.00    -0.203 F 
ATOM     82  C   UNL A   1      47.301  27.861  34.426  1.00  0.00     0.198 A 
ATOM     83  C   UNL A   1      46.092  26.084  35.494  1.00  0.00     0.198 A 
ATOM     84  F   UNL A   1      43.804  25.772  35.037  1.00  0.00    -0.203 F 
ATOM     85  F   UNL A   1      48.449  28.518  34.208  1.00  0.00    -0.200 F 
ATOM     86  C   UNL A   1      47.276  26.777  35.288  1.00  0.00     0.200 A 
ATOM     87  F   UNL A   1      46.064  25.043  36.338  1.00  0.00    -0.200 F 
ATOM     88  F   UNL A   1      48.395  26.397  35.920  1.00  0.00    -0.200 F 
ENDBRANCH  55  78
ENDBRANCH  29  30
ENDBRANCH  22  24
ENDBRANCH  21  22
ENDBRANCH  20  21
ENDBRANCH   1  20
TORSDOF 14
ENDMDL
MODEL 3
REMARK VINA RESULT:     -10.0      3.344      9.597
REMARK SMILES C[C@@H](C(=O)OCCOC(=O)c1ccc(-c2c3nc(c(-c4c(F)c(F)c(F)c(F)c4F)c4ccc([nH]4)c(-c4c(F)c(F)c(F)c(F)c4F)c4nc(c(-c5c(F)c(F)c(F)c(F)c5F)c5ccc2[nH]5)C=C4)C=C3)cc1)c1ccc(Cc2ccco2)cc1F
REMARK SMILES IDX 6 1 5 2 3 3 4 4 2 5 1 6 74 7 75 8 85 9 76 10 84 11 86 12
REMARK SMILES IDX 77 13 78 14 79 15 80 16 83 17 81 18 82 19 7 20 8 21 9 22
REMARK SMILES IDX 10 23 11 24 12 25 73 26 13 27 72 28 14 29 15 30 16 31 66 32
REMARK SMILES IDX 17 33 71 34 65 35 67 36 18 37 70 38 64 39 63 40 19 42 51 43
REMARK SMILES IDX 31 44 50 45 32 46 35 47 49 48 68 49 33 50 34 51 48 53 69 54
REMARK SMILES IDX 36 55 20 56 21 57 29 58 22 59 23 60 27 61 30 62 24 63 25 64
REMARK SMILES IDX 28 65 26 66 52 67 53 68 61 69 54 70 55 71 59 72 62 73 56 74
REMARK SMILES IDX 57 75 60 76 58 77 37 78 38 79 46 80 39 81 40 82 44 83 47 84
REMARK SMILES IDX 41 85 42 86 45 87 43 88
REMARK H PARENT 67 41 35 52
REMARK Flexibility Score: inf
ROOT
ATOM      1  C   UNL A   1      32.223  29.686  25.151  1.00  0.00     0.274 C 
ENDROOT
BRANCH   1   2
ATOM      2  O   UNL A   1      31.266  29.189  24.195  1.00  0.00    -0.462 OA
BRANCH   2   3
ATOM      3  C   UNL A   1      31.738  28.356  23.224  1.00  0.00     0.313 C 
ATOM      4  O   UNL A   1      31.049  27.895  22.321  1.00  0.00    -0.252 OA
BRANCH   3   5
ATOM      5  C   UNL A   1      33.213  28.007  23.447  1.00  0.00     0.129 C 
ATOM      6  C   UNL A   1      34.133  28.503  22.328  1.00  0.00     0.025 C 
BRANCH   5   7
ATOM      7  C   UNL A   1      33.409  26.515  23.675  1.00  0.00     0.002 A 
ATOM      8  C   UNL A   1      33.338  25.592  22.620  1.00  0.00     0.008 A 
ATOM      9  C   UNL A   1      33.656  26.022  24.960  1.00  0.00     0.127 A 
ATOM     10  C   UNL A   1      33.502  24.223  22.854  1.00  0.00     0.005 A 
ATOM     11  C   UNL A   1      33.828  24.659  25.200  1.00  0.00     0.043 A 
ATOM     12  F   UNL A   1      33.752  26.871  25.994  1.00  0.00    -0.207 F 
ATOM     13  C   UNL A   1      33.760  23.742  24.145  1.00  0.00    -0.038 A 
BRANCH  13  14
ATOM     14  C   UNL A   1      33.972  22.265  24.392  1.00  0.00     0.111 C 
BRANCH  14  15
ATOM     15  C   UNL A   1      35.400  21.875  24.528  1.00  0.00     0.108 A 
ATOM     16  C   UNL A   1      36.590  22.542  24.331  1.00  0.00     0.046 A 
ATOM     17  O   UNL A   1      35.646  20.618  25.000  1.00  0.00    -0.469 OA
ATOM     18  C   UNL A   1      37.615  21.639  24.685  1.00  0.00     0.042 A 
ATOM     19  C   UNL A   1      36.993  20.488  25.102  1.00  0.00     0.195 A 
ENDBRANCH  14  15
ENDBRANCH  13  14
ENDBRANCH   5   7
ENDBRANCH   3   5
ENDBRANCH   2   3
ENDBRANCH   1   2
BRANCH   1  20
ATOM     20  C   UNL A   1      31.600  30.781  26.012  1.00  0.00     0.275 C 
BRANCH  20  21
ATOM     21  O   UNL A   1      32.310  30.872  27.259  1.00  0.00    -0.458 OA
BRANCH  21  22
ATOM     22  C   UNL A   1      33.071  31.974  27.435  1.00  0.00     0.338 C 
ATOM     23  O   UNL A   1      32.733  33.140  27.330  1.00  0.00    -0.246 OA
BRANCH  22  24
ATOM     24  C   UNL A   1      34.444  31.573  27.792  1.00  0.00     0.060 A 
ATOM     25  C   UNL A   1      34.737  30.230  28.014  1.00  0.00     0.016 A 
ATOM     26  C   UNL A   1      35.407  32.554  28.043  1.00  0.00     0.016 A 
ATOM     27  C   UNL A   1      35.959  29.878  28.584  1.00  0.00     0.010 A 
ATOM     28  C   UNL A   1      36.662  32.187  28.542  1.00  0.00     0.010 A 
ATOM     29  C   UNL A   1      36.933  30.850  28.873  1.00  0.00    -0.014 A 
BRANCH  29  30
ATOM     30  C   UNL A   1      38.177  30.455  29.597  1.00  0.00     0.031 A 
ATOM     31  C   UNL A   1      38.318  30.738  31.074  1.00  0.00     0.074 A 
ATOM     32  C   UNL A   1      39.130  29.738  28.969  1.00  0.00     0.049 A 
ATOM     33  N   UNL A   1      39.310  30.449  31.880  1.00  0.00    -0.248 NA
ATOM     34  C   UNL A   1      37.202  31.435  31.734  1.00  0.00     0.031 C 
ATOM     35  C   UNL A   1      39.080  29.331  27.566  1.00  0.00     0.029 A 
ATOM     36  N   UNL A   1      40.277  29.144  29.445  1.00  0.00    -0.354 N 
ATOM     37  C   UNL A   1      38.980  31.008  33.109  1.00  0.00     0.074 A 
ATOM     38  C   UNL A   1      37.673  31.609  32.961  1.00  0.00     0.031 C 
ATOM     39  C   UNL A   1      40.048  28.430  27.338  1.00  0.00     0.029 A 
ATOM     40  C   UNL A   1      40.838  28.257  28.554  1.00  0.00     0.049 A 
ATOM     41  H   UNL A   1      40.657  29.335  30.333  1.00  0.00     0.167 HD
ATOM     42  C   UNL A   1      39.718  31.047  34.245  1.00  0.00     0.037 A 
ATOM     43  C   UNL A   1      41.838  27.367  28.724  1.00  0.00     0.037 A 
ATOM     44  C   UNL A   1      40.989  30.393  34.411  1.00  0.00     0.049 A 
ATOM     45  C   UNL A   1      42.593  27.357  30.025  1.00  0.00     0.074 A 
ATOM     46  C   UNL A   1      41.860  30.450  35.486  1.00  0.00     0.029 A 
ATOM     47  N   UNL A   1      41.553  29.528  33.487  1.00  0.00    -0.354 N 
ATOM     48  N   UNL A   1      42.328  27.978  31.147  1.00  0.00    -0.248 NA
ATOM     49  C   UNL A   1      43.816  26.540  30.064  1.00  0.00     0.031 C 
ATOM     50  C   UNL A   1      42.965  29.641  35.199  1.00  0.00     0.029 A 
ATOM     51  C   UNL A   1      42.763  29.052  33.962  1.00  0.00     0.049 A 
ATOM     52  H   UNL A   1      41.152  29.289  32.621  1.00  0.00     0.167 HD
ATOM     53  C   UNL A   1      43.357  27.644  32.016  1.00  0.00     0.074 A 
ATOM     54  C   UNL A   1      44.210  26.706  31.318  1.00  0.00     0.031 C 
ATOM     55  C   UNL A   1      43.602  28.114  33.264  1.00  0.00     0.037 A 
BRANCH  42  56
ATOM     56  C   UNL A   1      39.218  31.903  35.369  1.00  0.00     0.064 A 
ATOM     57  C   UNL A   1      38.448  31.391  36.421  1.00  0.00     0.173 A 
ATOM     58  C   UNL A   1      39.557  33.266  35.403  1.00  0.00     0.173 A 
ATOM     59  F   UNL A   1      38.081  30.102  36.424  1.00  0.00    -0.203 F 
ATOM     60  C   UNL A   1      38.025  32.217  37.463  1.00  0.00     0.198 A 
ATOM     61  C   UNL A   1      39.152  34.082  36.455  1.00  0.00     0.198 A 
ATOM     62  F   UNL A   1      40.294  33.802  34.419  1.00  0.00    -0.203 F 
ATOM     63  F   UNL A   1      37.261  31.717  38.444  1.00  0.00    -0.200 F 
ATOM     64  C   UNL A   1      38.383  33.558  37.481  1.00  0.00     0.200 A 
ATOM     65  F   UNL A   1      39.508  35.374  36.473  1.00  0.00    -0.200 F 
ATOM     66  F   UNL A   1      37.981  34.348  38.488  1.00  0.00    -0.200 F 
ENDBRANCH  42  56
BRANCH  43  67
ATOM     67  C   UNL A   1      42.117  26.325  27.695  1.00  0.00     0.064 A 
ATOM     68  C   UNL A   1      41.368  25.135  27.694  1.00  0.00     0.173 A 
ATOM     69  C   UNL A   1      43.097  26.468  26.705  1.00  0.00     0.173 A 
ATOM     70  F   UNL A   1      40.438  24.930  28.638  1.00  0.00    -0.203 F 
ATOM     71  C   UNL A   1      41.582  24.139  26.745  1.00  0.00     0.198 A 
ATOM     72  C   UNL A   1      43.293  25.482  25.737  1.00  0.00     0.198 A 
ATOM     73  F   UNL A   1      43.856  27.573  26.665  1.00  0.00    -0.203 F 
ATOM     74  F   UNL A   1      40.868  23.007  26.794  1.00  0.00    -0.200 F 
ATOM     75  C   UNL A   1      42.539  24.318  25.760  1.00  0.00     0.200 A 
ATOM     76  F   UNL A   1      44.213  25.662  24.780  1.00  0.00    -0.200 F 
ATOM     77  F   UNL A   1      42.740  23.366  24.839  1.00  0.00    -0.200 F 
ENDBRANCH  43  67
BRANCH  55  78
ATOM     78  C   UNL A   1      44.862  27.659  33.937  1.00  0.00     0.064 A 
ATOM     79  C   UNL A   1      46.060  28.374  33.781  1.00  0.00     0.173 A 
ATOM     80  C   UNL A   1      44.869  26.542  34.785  1.00  0.00     0.173 A 
ATOM     81  F   UNL A   1      46.105  29.446  32.976  1.00  0.00    -0.203 F 
ATOM     82  C   UNL A   1      47.225  27.972  34.426  1.00  0.00     0.198 A 
ATOM     83  C   UNL A   1      46.032  26.157  35.450  1.00  0.00     0.198 A 
ATOM     84  F   UNL A   1      43.750  25.830  34.977  1.00  0.00    -0.203 F 
ATOM     85  F   UNL A   1      48.366  28.647  34.227  1.00  0.00    -0.200 F 
ATOM     86  C   UNL A   1      47.209  26.868  35.265  1.00  0.00     0.200 A 
ATOM     87  F   UNL A   1      46.014  25.098  36.271  1.00  0.00    -0.200 F 
ATOM     88  F   UNL A   1      48.330  26.487  35.892  1.00  0.00    -0.200 F 
ENDBRANCH  55  78
ENDBRANCH  29  30
ENDBRANCH  22  24
ENDBRANCH  21  22
ENDBRANCH  20  21
ENDBRANCH   1  20
TORSDOF 14
ENDMDL
