MODEL 1
REMARK VINA RESULT:     -10.5      0.000      0.000
REMARK SMILES CCC(CC)N(CC(C)C)C(=O)N[C@H](C)C(=O)OCCOC(=O)c1ccc(-c2c3nc(c(-c4c(F)c(F)c(F)c(F)c4F)c4ccc([nH]4)c(-c4c(F)c(F)c(F)c(F)c4F)c4nc(c(-c5c(F)c(F)c(F)c(F)c5F)c5ccc2[nH]5)C=C4)C=C3)cc1
REMARK SMILES IDX 19 1 18 2 16 3 17 4 14 5 15 6 13 7 11 8 12 9 6 11 3 12 2 13
REMARK SMILES IDX 1 14 4 15 5 16 7 17 8 18 9 19 10 20 20 21 21 22 22 23 23 24
REMARK SMILES IDX 24 25 25 26 86 27 26 28 85 29 27 30 28 31 29 32 79 33 30 34
REMARK SMILES IDX 84 35 78 36 80 37 31 38 83 39 77 40 76 41 32 43 64 44 44 45
REMARK SMILES IDX 63 46 45 47 48 48 62 49 81 50 46 51 47 52 61 54 82 55 49 56
REMARK SMILES IDX 33 57 34 58 42 59 35 60 36 61 40 62 43 63 37 64 38 65 41 66
REMARK SMILES IDX 39 67 65 68 66 69 74 70 67 71 68 72 72 73 75 74 69 75 70 76
REMARK SMILES IDX 73 77 71 78 50 79 51 80 59 81 52 82 53 83 57 84 60 85 54 86
REMARK SMILES IDX 55 87 58 88 56 89
REMARK H PARENT 13 10 80 42 48 53
REMARK Flexibility Score: inf
ROOT
ATOM      1  C   UNL A   1      31.110  29.493  24.663  1.00  0.00     0.274 C 
ENDROOT
BRANCH   1   2
ATOM      2  O   UNL A   1      32.052  28.407  24.756  1.00  0.00    -0.461 OA
BRANCH   2   3
ATOM      3  C   UNL A   1      31.549  27.165  24.979  1.00  0.00     0.328 C 
ATOM      4  O   UNL A   1      30.366  26.864  24.854  1.00  0.00    -0.250 OA
BRANCH   3   5
ATOM      5  C   UNL A   1      32.646  26.131  25.309  1.00  0.00     0.190 C 
ATOM      6  C   UNL A   1      33.911  26.759  25.885  1.00  0.00     0.043 C 
BRANCH   5   7
ATOM      7  N   UNL A   1      32.090  25.158  26.262  1.00  0.00    -0.325 N 
ATOM      8  C   UNL A   1      32.203  23.853  26.554  1.00  0.00     0.318 C 
ATOM      9  O   UNL A   1      31.730  23.559  27.656  1.00  0.00    -0.249 OA
ATOM     10  H   UNL A   1      31.443  25.594  26.864  1.00  0.00     0.166 HD
BRANCH   8  11
ATOM     11  N   UNL A   1      32.774  22.920  25.725  1.00  0.00    -0.322 N 
BRANCH  11  12
ATOM     12  C   UNL A   1      31.961  22.342  24.610  1.00  0.00     0.086 C 
BRANCH  12  13
ATOM     13  C   UNL A   1      31.896  23.263  23.371  1.00  0.00     0.022 C 
ATOM     14  C   UNL A   1      30.525  23.898  23.169  1.00  0.00     0.006 C 
ENDBRANCH  12  13
BRANCH  12  15
ATOM     15  C   UNL A   1      32.245  20.851  24.304  1.00  0.00     0.022 C 
ATOM     16  C   UNL A   1      32.252  20.422  22.846  1.00  0.00     0.006 C 
ENDBRANCH  12  15
ENDBRANCH  11  12
BRANCH  11  17
ATOM     17  C   UNL A   1      34.175  22.495  25.741  1.00  0.00     0.124 C 
BRANCH  17  18
ATOM     18  C   UNL A   1      35.141  23.428  24.981  1.00  0.00     0.002 C 
ATOM     19  C   UNL A   1      36.284  23.981  25.835  1.00  0.00     0.009 C 
ATOM     20  C   UNL A   1      35.699  22.698  23.757  1.00  0.00     0.009 C 
ENDBRANCH  17  18
ENDBRANCH  11  17
ENDBRANCH   8  11
ENDBRANCH   5   7
ENDBRANCH   3   5
ENDBRANCH   2   3
ENDBRANCH   1   2
BRANCH   1  21
ATOM     21  C   UNL A   1      31.402  30.538  25.741  1.00  0.00     0.275 C 
BRANCH  21  22
ATOM     22  O   UNL A   1      32.766  30.461  26.200  1.00  0.00    -0.458 OA
BRANCH  22  23
ATOM     23  C   UNL A   1      33.166  31.475  26.996  1.00  0.00     0.338 C 
ATOM     24  O   UNL A   1      32.537  32.471  27.319  1.00  0.00    -0.246 OA
BRANCH  23  25
ATOM     25  C   UNL A   1      34.493  31.174  27.542  1.00  0.00     0.060 A 
ATOM     26  C   UNL A   1      34.781  29.849  27.860  1.00  0.00     0.016 A 
ATOM     27  C   UNL A   1      35.388  32.194  27.866  1.00  0.00     0.016 A 
ATOM     28  C   UNL A   1      35.943  29.543  28.566  1.00  0.00     0.010 A 
ATOM     29  C   UNL A   1      36.578  31.876  28.533  1.00  0.00     0.010 A 
ATOM     30  C   UNL A   1      36.853  30.552  28.920  1.00  0.00    -0.014 A 
BRANCH  30  31
ATOM     31  C   UNL A   1      38.059  30.222  29.729  1.00  0.00     0.031 A 
ATOM     32  C   UNL A   1      39.142  29.343  29.160  1.00  0.00     0.074 A 
ATOM     33  C   UNL A   1      38.205  30.719  30.971  1.00  0.00     0.049 A 
ATOM     34  N   UNL A   1      40.188  28.826  29.756  1.00  0.00    -0.248 NA
ATOM     35  C   UNL A   1      39.029  28.992  27.737  1.00  0.00     0.031 C 
ATOM     36  C   UNL A   1      37.260  31.609  31.643  1.00  0.00     0.029 A 
ATOM     37  N   UNL A   1      39.214  30.550  31.889  1.00  0.00    -0.354 N 
ATOM     38  C   UNL A   1      40.818  28.038  28.803  1.00  0.00     0.074 A 
ATOM     39  C   UNL A   1      40.049  28.158  27.582  1.00  0.00     0.031 C 
ATOM     40  C   UNL A   1      37.744  31.931  32.852  1.00  0.00     0.029 A 
ATOM     41  C   UNL A   1      39.002  31.222  33.067  1.00  0.00     0.049 A 
ATOM     42  H   UNL A   1      40.012  29.999  31.718  1.00  0.00     0.167 HD
ATOM     43  C   UNL A   1      41.931  27.277  28.935  1.00  0.00     0.037 A 
ATOM     44  C   UNL A   1      39.720  31.243  34.205  1.00  0.00     0.037 A 
ATOM     45  C   UNL A   1      42.744  27.207  30.121  1.00  0.00     0.049 A 
ATOM     46  C   UNL A   1      40.969  30.419  34.319  1.00  0.00     0.074 A 
ATOM     47  C   UNL A   1      43.910  26.489  30.329  1.00  0.00     0.029 A 
ATOM     48  N   UNL A   1      42.487  27.898  31.295  1.00  0.00    -0.354 N 
ATOM     49  N   UNL A   1      41.520  29.630  33.431  1.00  0.00    -0.248 NA
ATOM     50  C   UNL A   1      41.683  30.471  35.603  1.00  0.00     0.031 C 
ATOM     51  C   UNL A   1      44.348  26.730  31.637  1.00  0.00     0.029 A 
ATOM     52  C   UNL A   1      43.468  27.618  32.233  1.00  0.00     0.049 A 
ATOM     53  H   UNL A   1      41.721  28.500  31.440  1.00  0.00     0.167 HD
ATOM     54  C   UNL A   1      42.634  29.080  34.049  1.00  0.00     0.074 A 
ATOM     55  C   UNL A   1      42.700  29.649  35.379  1.00  0.00     0.031 C 
ATOM     56  C   UNL A   1      43.513  28.174  33.559  1.00  0.00     0.037 A 
BRANCH  43  57
ATOM     57  C   UNL A   1      42.321  26.418  27.771  1.00  0.00     0.064 A 
ATOM     58  C   UNL A   1      43.254  26.842  26.816  1.00  0.00     0.173 A 
ATOM     59  C   UNL A   1      41.777  25.132  27.637  1.00  0.00     0.173 A 
ATOM     60  F   UNL A   1      43.790  28.069  26.894  1.00  0.00    -0.203 F 
ATOM     61  C   UNL A   1      43.615  26.015  25.755  1.00  0.00     0.198 A 
ATOM     62  C   UNL A   1      42.155  24.300  26.588  1.00  0.00     0.198 A 
ATOM     63  F   UNL A   1      40.883  24.680  28.530  1.00  0.00    -0.203 F 
ATOM     64  F   UNL A   1      44.483  26.451  24.832  1.00  0.00    -0.200 F 
ATOM     65  C   UNL A   1      43.070  24.743  25.646  1.00  0.00     0.200 A 
ATOM     66  F   UNL A   1      41.632  23.069  26.486  1.00  0.00    -0.200 F 
ATOM     67  F   UNL A   1      43.421  23.947  24.626  1.00  0.00    -0.200 F 
ENDBRANCH  43  57
BRANCH  44  68
ATOM     68  C   UNL A   1      39.242  32.060  35.347  1.00  0.00     0.064 A 
ATOM     69  C   UNL A   1      38.457  31.493  36.359  1.00  0.00     0.173 A 
ATOM     70  C   UNL A   1      39.589  33.414  35.464  1.00  0.00     0.173 A 
ATOM     71  F   UNL A   1      38.081  30.208  36.272  1.00  0.00    -0.203 F 
ATOM     72  C   UNL A   1      38.040  32.249  37.450  1.00  0.00     0.198 A 
ATOM     73  C   UNL A   1      39.188  34.164  36.565  1.00  0.00     0.198 A 
ATOM     74  F   UNL A   1      40.338  33.997  34.517  1.00  0.00    -0.203 F 
ATOM     75  F   UNL A   1      37.272  31.692  38.396  1.00  0.00    -0.200 F 
ATOM     76  C   UNL A   1      38.412  33.581  37.558  1.00  0.00     0.200 A 
ATOM     77  F   UNL A   1      39.559  35.447  36.671  1.00  0.00    -0.200 F 
ATOM     78  F   UNL A   1      38.022  34.306  38.615  1.00  0.00    -0.200 F 
ENDBRANCH  44  68
BRANCH  56  79
ATOM     79  C   UNL A   1      44.612  27.727  34.473  1.00  0.00     0.064 A 
ATOM     80  C   UNL A   1      45.824  28.430  34.542  1.00  0.00     0.173 A 
ATOM     81  C   UNL A   1      44.444  26.613  35.307  1.00  0.00     0.173 A 
ATOM     82  F   UNL A   1      46.034  29.492  33.751  1.00  0.00    -0.203 F 
ATOM     83  C   UNL A   1      46.837  28.022  35.407  1.00  0.00     0.198 A 
ATOM     84  C   UNL A   1      45.453  26.218  36.182  1.00  0.00     0.198 A 
ATOM     85  F   UNL A   1      43.302  25.912  35.276  1.00  0.00    -0.203 F 
ATOM     86  F   UNL A   1      47.998  28.689  35.436  1.00  0.00    -0.200 F 
ATOM     87  C   UNL A   1      46.649  26.920  36.228  1.00  0.00     0.200 A 
ATOM     88  F   UNL A   1      45.271  25.156  36.977  1.00  0.00    -0.200 F 
ATOM     89  F   UNL A   1      47.625  26.530  37.061  1.00  0.00    -0.200 F 
ENDBRANCH  56  79
ENDBRANCH  30  31
ENDBRANCH  23  25
ENDBRANCH  22  23
ENDBRANCH  21  22
ENDBRANCH   1  21
TORSDOF 18
ENDMDL
MODEL 2
REMARK VINA RESULT:     -10.1      0.326      2.021
REMARK SMILES CCC(CC)N(CC(C)C)C(=O)N[C@H](C)C(=O)OCCOC(=O)c1ccc(-c2c3nc(c(-c4c(F)c(F)c(F)c(F)c4F)c4ccc([nH]4)c(-c4c(F)c(F)c(F)c(F)c4F)c4nc(c(-c5c(F)c(F)c(F)c(F)c5F)c5ccc2[nH]5)C=C4)C=C3)cc1
REMARK SMILES IDX 19 1 18 2 16 3 17 4 14 5 15 6 13 7 11 8 12 9 6 11 3 12 2 13
REMARK SMILES IDX 1 14 4 15 5 16 7 17 8 18 9 19 10 20 20 21 21 22 22 23 23 24
REMARK SMILES IDX 24 25 25 26 86 27 26 28 85 29 27 30 28 31 29 32 79 33 30 34
REMARK SMILES IDX 84 35 78 36 80 37 31 38 83 39 77 40 76 41 32 43 64 44 44 45
REMARK SMILES IDX 63 46 45 47 48 48 62 49 81 50 46 51 47 52 61 54 82 55 49 56
REMARK SMILES IDX 33 57 34 58 42 59 35 60 36 61 40 62 43 63 37 64 38 65 41 66
REMARK SMILES IDX 39 67 65 68 66 69 74 70 67 71 68 72 72 73 75 74 69 75 70 76
REMARK SMILES IDX 73 77 71 78 50 79 51 80 59 81 52 82 53 83 57 84 60 85 54 86
REMARK SMILES IDX 55 87 58 88 56 89
REMARK H PARENT 13 10 80 42 48 53
REMARK Flexibility Score: inf
ROOT
ATOM      1  C   UNL A   1      31.294  29.176  24.385  1.00  0.00     0.274 C 
ENDROOT
BRANCH   1   2
ATOM      2  O   UNL A   1      32.230  28.103  24.602  1.00  0.00    -0.461 OA
BRANCH   2   3
ATOM      3  C   UNL A   1      31.723  26.905  24.994  1.00  0.00     0.328 C 
ATOM      4  O   UNL A   1      30.532  26.613  24.961  1.00  0.00    -0.250 OA
BRANCH   3   5
ATOM      5  C   UNL A   1      32.822  25.898  25.394  1.00  0.00     0.190 C 
ATOM      6  C   UNL A   1      34.013  26.551  26.089  1.00  0.00     0.043 C 
BRANCH   5   7
ATOM      7  N   UNL A   1      32.219  24.887  26.276  1.00  0.00    -0.325 N 
ATOM      8  C   UNL A   1      32.329  23.573  26.527  1.00  0.00     0.318 C 
ATOM      9  O   UNL A   1      31.793  23.234  27.586  1.00  0.00    -0.249 OA
ATOM     10  H   UNL A   1      31.533  25.294  26.853  1.00  0.00     0.166 HD
BRANCH   8  11
ATOM     11  N   UNL A   1      32.959  22.675  25.702  1.00  0.00    -0.322 N 
BRANCH  11  12
ATOM     12  C   UNL A   1      32.191  22.055  24.578  1.00  0.00     0.086 C 
BRANCH  12  13
ATOM     13  C   UNL A   1      31.568  23.100  23.624  1.00  0.00     0.022 C 
ATOM     14  C   UNL A   1      32.524  23.550  22.526  1.00  0.00     0.006 C 
ENDBRANCH  12  13
BRANCH  12  15
ATOM     15  C   UNL A   1      32.902  20.872  23.878  1.00  0.00     0.022 C 
ATOM     16  C   UNL A   1      32.523  19.466  24.313  1.00  0.00     0.006 C 
ENDBRANCH  12  15
ENDBRANCH  11  12
BRANCH  11  17
ATOM     17  C   UNL A   1      34.382  22.331  25.729  1.00  0.00     0.124 C 
BRANCH  17  18
ATOM     18  C   UNL A   1      35.317  23.401  25.129  1.00  0.00     0.002 C 
ATOM     19  C   UNL A   1      36.482  23.800  26.037  1.00  0.00     0.009 C 
ATOM     20  C   UNL A   1      35.842  22.919  23.775  1.00  0.00     0.009 C 
ENDBRANCH  17  18
ENDBRANCH  11  17
ENDBRANCH   8  11
ENDBRANCH   5   7
ENDBRANCH   3   5
ENDBRANCH   2   3
ENDBRANCH   1   2
BRANCH   1  21
ATOM     21  C   UNL A   1      31.470  30.254  25.457  1.00  0.00     0.275 C 
BRANCH  21  22
ATOM     22  O   UNL A   1      32.717  30.101  26.165  1.00  0.00    -0.458 OA
BRANCH  22  23
ATOM     23  C   UNL A   1      33.102  31.169  26.894  1.00  0.00     0.338 C 
ATOM     24  O   UNL A   1      32.457  32.172  27.159  1.00  0.00    -0.246 OA
BRANCH  23  25
ATOM     25  C   UNL A   1      34.436  30.925  27.451  1.00  0.00     0.060 A 
ATOM     26  C   UNL A   1      34.834  29.603  27.634  1.00  0.00     0.016 A 
ATOM     27  C   UNL A   1      35.228  31.977  27.914  1.00  0.00     0.016 A 
ATOM     28  C   UNL A   1      36.001  29.323  28.343  1.00  0.00     0.010 A 
ATOM     29  C   UNL A   1      36.424  31.691  28.584  1.00  0.00     0.010 A 
ATOM     30  C   UNL A   1      36.806  30.362  28.836  1.00  0.00    -0.014 A 
BRANCH  30  31
ATOM     31  C   UNL A   1      38.016  30.049  29.646  1.00  0.00     0.031 A 
ATOM     32  C   UNL A   1      39.106  29.174  29.085  1.00  0.00     0.074 A 
ATOM     33  C   UNL A   1      38.161  30.561  30.883  1.00  0.00     0.049 A 
ATOM     34  N   UNL A   1      40.157  28.671  29.684  1.00  0.00    -0.248 NA
ATOM     35  C   UNL A   1      38.994  28.806  27.666  1.00  0.00     0.031 C 
ATOM     36  C   UNL A   1      37.209  31.449  31.547  1.00  0.00     0.029 A 
ATOM     37  N   UNL A   1      39.172  30.409  31.801  1.00  0.00    -0.354 N 
ATOM     38  C   UNL A   1      40.792  27.878  28.738  1.00  0.00     0.074 A 
ATOM     39  C   UNL A   1      40.020  27.980  27.517  1.00  0.00     0.031 C 
ATOM     40  C   UNL A   1      37.692  31.788  32.752  1.00  0.00     0.029 A 
ATOM     41  C   UNL A   1      38.957  31.091  32.972  1.00  0.00     0.049 A 
ATOM     42  H   UNL A   1      39.974  29.863  31.634  1.00  0.00     0.167 HD
ATOM     43  C   UNL A   1      41.911  27.127  28.877  1.00  0.00     0.037 A 
ATOM     44  C   UNL A   1      39.676  31.130  34.109  1.00  0.00     0.037 A 
ATOM     45  C   UNL A   1      42.727  27.077  30.062  1.00  0.00     0.049 A 
ATOM     46  C   UNL A   1      40.931  30.317  34.230  1.00  0.00     0.074 A 
ATOM     47  C   UNL A   1      43.898  26.370  30.275  1.00  0.00     0.029 A 
ATOM     48  N   UNL A   1      42.465  27.778  31.229  1.00  0.00    -0.354 N 
ATOM     49  N   UNL A   1      41.487  29.524  33.348  1.00  0.00    -0.248 NA
ATOM     50  C   UNL A   1      41.648  30.388  35.512  1.00  0.00     0.031 C 
ATOM     51  C   UNL A   1      44.337  26.628  31.580  1.00  0.00     0.029 A 
ATOM     52  C   UNL A   1      43.451  27.515  32.169  1.00  0.00     0.049 A 
ATOM     53  H   UNL A   1      41.695  28.375  31.369  1.00  0.00     0.167 HD
ATOM     54  C   UNL A   1      42.607  28.990  33.971  1.00  0.00     0.074 A 
ATOM     55  C   UNL A   1      42.671  29.573  35.295  1.00  0.00     0.031 C 
ATOM     56  C   UNL A   1      43.493  28.085  33.489  1.00  0.00     0.037 A 
BRANCH  43  57
ATOM     57  C   UNL A   1      42.307  26.260  27.721  1.00  0.00     0.064 A 
ATOM     58  C   UNL A   1      41.723  25.005  27.501  1.00  0.00     0.173 A 
ATOM     59  C   UNL A   1      43.259  26.716  26.797  1.00  0.00     0.173 A 
ATOM     60  F   UNL A   1      40.820  24.520  28.365  1.00  0.00    -0.203 F 
ATOM     61  C   UNL A   1      42.094  24.228  26.406  1.00  0.00     0.198 A 
ATOM     62  C   UNL A   1      43.612  25.947  25.693  1.00  0.00     0.198 A 
ATOM     63  F   UNL A   1      43.842  27.914  26.964  1.00  0.00    -0.203 F 
ATOM     64  F   UNL A   1      41.551  23.016  26.231  1.00  0.00    -0.200 F 
ATOM     65  C   UNL A   1      43.033  24.702  25.501  1.00  0.00     0.200 A 
ATOM     66  F   UNL A   1      44.516  26.408  24.816  1.00  0.00    -0.200 F 
ATOM     67  F   UNL A   1      43.387  23.955  24.446  1.00  0.00    -0.200 F 
ENDBRANCH  43  57
BRANCH  44  68
ATOM     68  C   UNL A   1      39.193  31.955  35.243  1.00  0.00     0.064 A 
ATOM     69  C   UNL A   1      39.469  33.327  35.304  1.00  0.00     0.173 A 
ATOM     70  C   UNL A   1      38.418  31.393  36.268  1.00  0.00     0.173 A 
ATOM     71  F   UNL A   1      40.228  33.899  34.358  1.00  0.00    -0.203 F 
ATOM     72  C   UNL A   1      38.983  34.109  36.348  1.00  0.00     0.198 A 
ATOM     73  C   UNL A   1      37.916  32.179  37.300  1.00  0.00     0.198 A 
ATOM     74  F   UNL A   1      38.131  30.083  36.249  1.00  0.00    -0.203 F 
ATOM     75  F   UNL A   1      39.277  35.415  36.399  1.00  0.00    -0.200 F 
ATOM     76  C   UNL A   1      38.200  33.537  37.341  1.00  0.00     0.200 A 
ATOM     77  F   UNL A   1      37.152  31.625  38.251  1.00  0.00    -0.200 F 
ATOM     78  F   UNL A   1      37.721  34.292  38.339  1.00  0.00    -0.200 F 
ENDBRANCH  44  68
BRANCH  56  79
ATOM     79  C   UNL A   1      44.597  27.657  34.405  1.00  0.00     0.064 A 
ATOM     80  C   UNL A   1      44.494  26.480  35.160  1.00  0.00     0.173 A 
ATOM     81  C   UNL A   1      45.777  28.407  34.506  1.00  0.00     0.173 A 
ATOM     82  F   UNL A   1      43.377  25.739  35.106  1.00  0.00    -0.203 F 
ATOM     83  C   UNL A   1      45.531  26.075  35.996  1.00  0.00     0.198 A 
ATOM     84  C   UNL A   1      46.818  27.991  35.332  1.00  0.00     0.198 A 
ATOM     85  F   UNL A   1      45.921  29.540  33.803  1.00  0.00    -0.203 F 
ATOM     86  F   UNL A   1      45.402  24.963  36.731  1.00  0.00    -0.200 F 
ATOM     87  C   UNL A   1      46.694  26.829  36.079  1.00  0.00     0.200 A 
ATOM     88  F   UNL A   1      47.942  28.717  35.409  1.00  0.00    -0.200 F 
ATOM     89  F   UNL A   1      47.691  26.436  36.883  1.00  0.00    -0.200 F 
ENDBRANCH  56  79
ENDBRANCH  30  31
ENDBRANCH  23  25
ENDBRANCH  22  23
ENDBRANCH  21  22
ENDBRANCH   1  21
TORSDOF 18
ENDMDL
MODEL 3
REMARK VINA RESULT:     -10.1      4.319      9.633
REMARK SMILES CCC(CC)N(CC(C)C)C(=O)N[C@H](C)C(=O)OCCOC(=O)c1ccc(-c2c3nc(c(-c4c(F)c(F)c(F)c(F)c4F)c4ccc([nH]4)c(-c4c(F)c(F)c(F)c(F)c4F)c4nc(c(-c5c(F)c(F)c(F)c(F)c5F)c5ccc2[nH]5)C=C4)C=C3)cc1
REMARK SMILES IDX 19 1 18 2 16 3 17 4 14 5 15 6 13 7 11 8 12 9 6 11 3 12 2 13
REMARK SMILES IDX 1 14 4 15 5 16 7 17 8 18 9 19 10 20 20 21 21 22 22 23 23 24
REMARK SMILES IDX 24 25 25 26 86 27 26 28 85 29 27 30 28 31 29 32 79 33 30 34
REMARK SMILES IDX 84 35 78 36 80 37 31 38 83 39 77 40 76 41 32 43 64 44 44 45
REMARK SMILES IDX 63 46 45 47 48 48 62 49 81 50 46 51 47 52 61 54 82 55 49 56
REMARK SMILES IDX 33 57 34 58 42 59 35 60 36 61 40 62 43 63 37 64 38 65 41 66
REMARK SMILES IDX 39 67 65 68 66 69 74 70 67 71 68 72 72 73 75 74 69 75 70 76
REMARK SMILES IDX 73 77 71 78 50 79 51 80 59 81 52 82 53 83 57 84 60 85 54 86
REMARK SMILES IDX 55 87 58 88 56 89
REMARK H PARENT 13 10 80 42 48 53
REMARK Flexibility Score: inf
ROOT
ATOM      1  C   UNL A   1      36.480  22.561  23.556  1.00  0.00     0.274 C 
ENDROOT
BRANCH   1   2
ATOM      2  O   UNL A   1      35.228  22.969  24.139  1.00  0.00    -0.461 OA
BRANCH   2   3
ATOM      3  C   UNL A   1      34.370  23.662  23.346  1.00  0.00     0.328 C 
ATOM      4  O   UNL A   1      34.094  23.357  22.190  1.00  0.00    -0.250 OA
BRANCH   3   5
ATOM      5  C   UNL A   1      33.687  24.829  24.090  1.00  0.00     0.190 C 
ATOM      6  C   UNL A   1      34.419  25.244  25.362  1.00  0.00     0.043 C 
BRANCH   5   7
ATOM      7  N   UNL A   1      33.596  25.972  23.168  1.00  0.00    -0.325 N 
ATOM      8  C   UNL A   1      33.193  27.252  23.183  1.00  0.00     0.318 C 
ATOM      9  O   UNL A   1      33.594  27.900  22.212  1.00  0.00    -0.249 OA
ATOM     10  H   UNL A   1      33.932  25.724  22.275  1.00  0.00     0.166 HD
BRANCH   8  11
ATOM     11  N   UNL A   1      32.406  27.805  24.162  1.00  0.00    -0.322 N 
BRANCH  11  12
ATOM     12  C   UNL A   1      30.922  27.628  24.090  1.00  0.00     0.086 C 
BRANCH  12  13
ATOM     13  C   UNL A   1      30.317  28.144  22.764  1.00  0.00     0.022 C 
ATOM     14  C   UNL A   1      29.414  29.357  22.952  1.00  0.00     0.006 C 
ENDBRANCH  12  13
BRANCH  12  15
ATOM     15  C   UNL A   1      30.409  26.241  24.548  1.00  0.00     0.022 C 
ATOM     16  C   UNL A   1      30.145  25.199  23.475  1.00  0.00     0.006 C 
ENDBRANCH  12  15
ENDBRANCH  11  12
BRANCH  11  17
ATOM     17  C   UNL A   1      32.881  28.476  25.374  1.00  0.00     0.124 C 
BRANCH  17  18
ATOM     18  C   UNL A   1      31.764  28.985  26.309  1.00  0.00     0.002 C 
ATOM     19  C   UNL A   1      31.657  28.226  27.633  1.00  0.00     0.009 C 
ATOM     20  C   UNL A   1      31.960  30.480  26.571  1.00  0.00     0.009 C 
ENDBRANCH  17  18
ENDBRANCH  11  17
ENDBRANCH   8  11
ENDBRANCH   5   7
ENDBRANCH   3   5
ENDBRANCH   2   3
ENDBRANCH   1   2
BRANCH   1  21
ATOM     21  C   UNL A   1      37.012  21.315  24.267  1.00  0.00     0.275 C 
BRANCH  21  22
ATOM     22  O   UNL A   1      37.374  21.596  25.633  1.00  0.00    -0.458 OA
BRANCH  22  23
ATOM     23  C   UNL A   1      38.658  21.333  25.957  1.00  0.00     0.338 C 
ATOM     24  O   UNL A   1      39.296  20.314  25.736  1.00  0.00    -0.246 OA
BRANCH  23  25
ATOM     25  C   UNL A   1      39.266  22.524  26.557  1.00  0.00     0.060 A 
ATOM     26  C   UNL A   1      38.779  23.769  26.167  1.00  0.00     0.016 A 
ATOM     27  C   UNL A   1      40.386  22.425  27.382  1.00  0.00     0.016 A 
ATOM     28  C   UNL A   1      39.454  24.927  26.549  1.00  0.00     0.010 A 
ATOM     29  C   UNL A   1      41.033  23.593  27.804  1.00  0.00     0.010 A 
ATOM     30  C   UNL A   1      40.595  24.855  27.365  1.00  0.00    -0.014 A 
BRANCH  30  31
ATOM     31  C   UNL A   1      41.343  26.094  27.715  1.00  0.00     0.031 A 
ATOM     32  C   UNL A   1      40.692  27.173  28.540  1.00  0.00     0.074 A 
ATOM     33  C   UNL A   1      42.618  26.258  27.314  1.00  0.00     0.049 A 
ATOM     34  N   UNL A   1      41.125  28.377  28.821  1.00  0.00    -0.248 NA
ATOM     35  C   UNL A   1      39.376  26.860  29.116  1.00  0.00     0.031 C 
ATOM     36  C   UNL A   1      43.392  25.289  26.541  1.00  0.00     0.029 A 
ATOM     37  N   UNL A   1      43.491  27.302  27.511  1.00  0.00    -0.354 N 
ATOM     38  C   UNL A   1      40.110  28.986  29.546  1.00  0.00     0.074 A 
ATOM     39  C   UNL A   1      39.046  28.014  29.681  1.00  0.00     0.031 C 
ATOM     40  C   UNL A   1      44.632  25.767  26.352  1.00  0.00     0.029 A 
ATOM     41  C   UNL A   1      44.721  27.103  26.937  1.00  0.00     0.049 A 
ATOM     42  H   UNL A   1      43.255  28.113  28.016  1.00  0.00     0.167 HD
ATOM     43  C   UNL A   1      40.067  30.244  30.047  1.00  0.00     0.037 A 
ATOM     44  C   UNL A   1      45.793  27.913  26.859  1.00  0.00     0.037 A 
ATOM     45  C   UNL A   1      41.147  31.194  29.983  1.00  0.00     0.049 A 
ATOM     46  C   UNL A   1      45.735  29.291  27.451  1.00  0.00     0.074 A 
ATOM     47  C   UNL A   1      41.200  32.478  30.499  1.00  0.00     0.029 A 
ATOM     48  N   UNL A   1      42.373  30.954  29.384  1.00  0.00    -0.354 N 
ATOM     49  N   UNL A   1      44.748  29.877  28.081  1.00  0.00    -0.248 NA
ATOM     50  C   UNL A   1      46.934  30.129  27.301  1.00  0.00     0.031 C 
ATOM     51  C   UNL A   1      42.453  33.024  30.193  1.00  0.00     0.029 A 
ATOM     52  C   UNL A   1      43.187  32.069  29.510  1.00  0.00     0.049 A 
ATOM     53  H   UNL A   1      42.628  30.115  28.936  1.00  0.00     0.167 HD
ATOM     54  C   UNL A   1      45.197  31.153  28.389  1.00  0.00     0.074 A 
ATOM     55  C   UNL A   1      46.559  31.248  27.905  1.00  0.00     0.031 C 
ATOM     56  C   UNL A   1      44.532  32.158  29.007  1.00  0.00     0.037 A 
BRANCH  43  57
ATOM     57  C   UNL A   1      38.785  30.688  30.684  1.00  0.00     0.064 A 
ATOM     58  C   UNL A   1      38.593  30.651  32.072  1.00  0.00     0.173 A 
ATOM     59  C   UNL A   1      37.748  31.197  29.887  1.00  0.00     0.173 A 
ATOM     60  F   UNL A   1      39.550  30.160  32.871  1.00  0.00    -0.203 F 
ATOM     61  C   UNL A   1      37.399  31.091  32.638  1.00  0.00     0.198 A 
ATOM     62  C   UNL A   1      36.564  31.654  30.459  1.00  0.00     0.198 A 
ATOM     63  F   UNL A   1      37.886  31.256  28.554  1.00  0.00    -0.203 F 
ATOM     64  F   UNL A   1      37.221  31.016  33.964  1.00  0.00    -0.200 F 
ATOM     65  C   UNL A   1      36.389  31.596  31.833  1.00  0.00     0.200 A 
ATOM     66  F   UNL A   1      35.591  32.147  29.679  1.00  0.00    -0.200 F 
ATOM     67  F   UNL A   1      35.242  32.022  32.380  1.00  0.00    -0.200 F 
ENDBRANCH  43  57
BRANCH  44  68
ATOM     68  C   UNL A   1      47.008  27.440  26.154  1.00  0.00     0.064 A 
ATOM     69  C   UNL A   1      47.166  27.641  24.777  1.00  0.00     0.173 A 
ATOM     70  C   UNL A   1      48.049  26.807  26.850  1.00  0.00     0.173 A 
ATOM     71  F   UNL A   1      46.184  28.219  24.069  1.00  0.00    -0.203 F 
ATOM     72  C   UNL A   1      48.323  27.232  24.121  1.00  0.00     0.198 A 
ATOM     73  C   UNL A   1      49.214  26.416  26.197  1.00  0.00     0.198 A 
ATOM     74  F   UNL A   1      47.939  26.593  28.168  1.00  0.00    -0.203 F 
ATOM     75  F   UNL A   1      48.444  27.415  22.799  1.00  0.00    -0.200 F 
ATOM     76  C   UNL A   1      49.350  26.627  24.832  1.00  0.00     0.200 A 
ATOM     77  F   UNL A   1      50.207  25.842  26.889  1.00  0.00    -0.200 F 
ATOM     78  F   UNL A   1      50.470  26.244  24.203  1.00  0.00    -0.200 F 
ENDBRANCH  44  68
BRANCH  56  79
ATOM     79  C   UNL A   1      45.262  33.455  29.177  1.00  0.00     0.064 A 
ATOM     80  C   UNL A   1      46.064  33.690  30.303  1.00  0.00     0.173 A 
ATOM     81  C   UNL A   1      45.186  34.455  28.198  1.00  0.00     0.173 A 
ATOM     82  F   UNL A   1      46.153  32.767  31.272  1.00  0.00    -0.203 F 
ATOM     83  C   UNL A   1      46.756  34.889  30.448  1.00  0.00     0.198 A 
ATOM     84  C   UNL A   1      45.892  35.647  28.340  1.00  0.00     0.198 A 
ATOM     85  F   UNL A   1      44.431  34.275  27.104  1.00  0.00    -0.203 F 
ATOM     86  F   UNL A   1      47.494  35.106  31.545  1.00  0.00    -0.200 F 
ATOM     87  C   UNL A   1      46.673  35.865  29.465  1.00  0.00     0.200 A 
ATOM     88  F   UNL A   1      45.814  36.588  27.389  1.00  0.00    -0.200 F 
ATOM     89  F   UNL A   1      47.341  37.018  29.607  1.00  0.00    -0.200 F 
ENDBRANCH  56  79
ENDBRANCH  30  31
ENDBRANCH  23  25
ENDBRANCH  22  23
ENDBRANCH  21  22
ENDBRANCH   1  21
TORSDOF 18
ENDMDL
