MODEL 1
REMARK VINA RESULT:     -11.9      0.000      0.000
REMARK SMILES Cc1ccc2nc(C(=O)OCCOC(=O)c3ccc(-c4c5nc(c(-c6c(F)c(F)c(F)c(F)c6F)c6ccc([nH]6)c(-c6c(F)c(F)c(F)c(F)c6F)c6nc(c(-c7c(F)c(F)c(F)c(F)c7F)c7ccc4[nH]7)C=C6)C=C5)cc3)cc(N3CCOCC3)c2c1
REMARK SMILES IDX 12 1 11 2 10 3 8 4 9 5 7 6 1 7 2 8 3 9 88 10 4 11 87 12 5 13
REMARK SMILES IDX 80 14 6 15 79 16 81 17 82 18 86 19 83 20 85 21 84 22 13 23
REMARK SMILES IDX 14 24 15 25 16 26 17 27 78 28 18 29 77 30 19 31 20 32 21 33
REMARK SMILES IDX 71 34 22 35 76 36 70 37 72 38 23 39 75 40 69 41 68 42 24 44
REMARK SMILES IDX 56 45 36 46 55 47 37 48 40 49 54 50 73 51 38 52 39 53 53 55
REMARK SMILES IDX 74 56 41 57 25 58 26 59 34 60 27 61 28 62 32 63 35 64 29 65
REMARK SMILES IDX 30 66 33 67 31 68 57 69 58 70 66 71 59 72 60 73 64 74 67 75
REMARK SMILES IDX 61 76 62 77 65 78 63 79 42 80 43 81 51 82 44 83 45 84 49 85
REMARK SMILES IDX 52 86 46 87 47 88 50 89 48 90
REMARK H PARENT 72 43 40 54
REMARK Flexibility Score: inf
ROOT
ATOM      1  C   UNL A   1      36.375  23.580  25.820  1.00  0.00     0.275 C 
ENDROOT
BRANCH   1   2
ATOM      2  C   UNL A   1      35.343  23.660  24.690  1.00  0.00     0.275 C 
BRANCH   2   3
ATOM      3  O   UNL A   1      34.405  24.738  24.893  1.00  0.00    -0.457 OA
BRANCH   3   4
ATOM      4  C   UNL A   1      34.005  25.374  23.760  1.00  0.00     0.357 C 
ATOM      5  O   UNL A   1      34.142  24.947  22.622  1.00  0.00    -0.244 OA
BRANCH   4   6
ATOM      6  C   UNL A   1      33.275  26.642  24.074  1.00  0.00     0.151 A 
ATOM      7  C   UNL A   1      31.454  32.115  26.995  1.00  0.00     0.044 C 
ATOM      8  C   UNL A   1      32.091  30.869  26.461  1.00  0.00    -0.050 A 
ATOM      9  C   UNL A   1      33.261  30.367  27.017  1.00  0.00     0.005 A 
ATOM     10  C   UNL A   1      31.494  30.164  25.406  1.00  0.00     0.016 A 
ATOM     11  C   UNL A   1      33.797  29.172  26.537  1.00  0.00     0.029 A 
ATOM     12  C   UNL A   1      32.063  28.981  24.865  1.00  0.00     0.024 A 
ATOM     13  C   UNL A   1      33.212  28.472  25.492  1.00  0.00     0.073 A 
ATOM     14  C   UNL A   1      31.529  28.252  23.756  1.00  0.00     0.049 A 
ATOM     15  N   UNL A   1      33.780  27.321  25.132  1.00  0.00    -0.241 NA
ATOM     16  C   UNL A   1      32.170  27.069  23.361  1.00  0.00     0.062 A 
BRANCH  14  17
ATOM     17  N   UNL A   1      30.388  28.692  23.094  1.00  0.00    -0.366 N 
ATOM     18  C   UNL A   1      30.525  29.560  21.910  1.00  0.00     0.145 C 
ATOM     19  C   UNL A   1      29.150  27.900  23.100  1.00  0.00     0.145 C 
ATOM     20  C   UNL A   1      29.274  30.449  21.805  1.00  0.00     0.181 C 
ATOM     21  C   UNL A   1      27.951  28.849  22.938  1.00  0.00     0.181 C 
ATOM     22  O   UNL A   1      28.072  29.660  21.755  1.00  0.00    -0.378 OA
ENDBRANCH  14  17
ENDBRANCH   4   6
ENDBRANCH   3   4
ENDBRANCH   2   3
ENDBRANCH   1   2
BRANCH   1  23
ATOM     23  O   UNL A   1      37.713  23.811  25.335  1.00  0.00    -0.458 OA
BRANCH  23  24
ATOM     24  C   UNL A   1      38.704  23.354  26.134  1.00  0.00     0.338 C 
ATOM     25  O   UNL A   1      39.084  22.204  26.264  1.00  0.00    -0.246 OA
BRANCH  24  26
ATOM     26  C   UNL A   1      39.364  24.485  26.806  1.00  0.00     0.060 A 
ATOM     27  C   UNL A   1      39.129  24.653  28.166  1.00  0.00     0.016 A 
ATOM     28  C   UNL A   1      40.081  25.446  26.096  1.00  0.00     0.016 A 
ATOM     29  C   UNL A   1      39.559  25.797  28.824  1.00  0.00     0.010 A 
ATOM     30  C   UNL A   1      40.559  26.581  26.769  1.00  0.00     0.010 A 
ATOM     31  C   UNL A   1      40.279  26.777  28.136  1.00  0.00    -0.014 A 
BRANCH  31  32
ATOM     32  C   UNL A   1      40.674  28.020  28.849  1.00  0.00     0.031 A 
ATOM     33  C   UNL A   1      42.106  28.238  29.251  1.00  0.00     0.074 A 
ATOM     34  C   UNL A   1      39.765  28.990  29.071  1.00  0.00     0.049 A 
ATOM     35  N   UNL A   1      42.634  29.212  29.950  1.00  0.00    -0.248 NA
ATOM     36  C   UNL A   1      43.075  27.225  28.807  1.00  0.00     0.031 C 
ATOM     37  C   UNL A   1      38.360  28.938  28.668  1.00  0.00     0.029 A 
ATOM     38  N   UNL A   1      39.893  30.216  29.676  1.00  0.00    -0.354 N 
ATOM     39  C   UNL A   1      43.983  28.907  30.066  1.00  0.00     0.074 A 
ATOM     40  C   UNL A   1      44.197  27.658  29.366  1.00  0.00     0.031 C 
ATOM     41  C   UNL A   1      37.764  30.091  29.008  1.00  0.00     0.029 A 
ATOM     42  C   UNL A   1      38.723  30.934  29.713  1.00  0.00     0.049 A 
ATOM     43  H   UNL A   1      40.742  30.548  30.047  1.00  0.00     0.167 HD
ATOM     44  C   UNL A   1      44.955  29.608  30.699  1.00  0.00     0.037 A 
ATOM     45  C   UNL A   1      38.446  32.125  30.279  1.00  0.00     0.037 A 
ATOM     46  C   UNL A   1      44.751  30.872  31.355  1.00  0.00     0.049 A 
ATOM     47  C   UNL A   1      39.532  32.861  31.013  1.00  0.00     0.074 A 
ATOM     48  C   UNL A   1      45.675  31.659  32.020  1.00  0.00     0.029 A 
ATOM     49  N   UNL A   1      43.538  31.542  31.417  1.00  0.00    -0.354 N 
ATOM     50  N   UNL A   1      40.793  32.539  31.163  1.00  0.00    -0.248 NA
ATOM     51  C   UNL A   1      39.150  34.118  31.671  1.00  0.00     0.031 C 
ATOM     52  C   UNL A   1      45.014  32.790  32.514  1.00  0.00     0.029 A 
ATOM     53  C   UNL A   1      43.687  32.726  32.123  1.00  0.00     0.049 A 
ATOM     54  H   UNL A   1      42.696  31.224  31.019  1.00  0.00     0.167 HD
ATOM     55  C   UNL A   1      41.356  33.552  31.926  1.00  0.00     0.074 A 
ATOM     56  C   UNL A   1      40.305  34.514  32.188  1.00  0.00     0.031 C 
ATOM     57  C   UNL A   1      42.629  33.671  32.375  1.00  0.00     0.037 A 
BRANCH  44  58
ATOM     58  C   UNL A   1      46.325  28.999  30.747  1.00  0.00     0.064 A 
ATOM     59  C   UNL A   1      47.291  29.265  29.766  1.00  0.00     0.173 A 
ATOM     60  C   UNL A   1      46.682  28.155  31.811  1.00  0.00     0.173 A 
ATOM     61  F   UNL A   1      46.993  30.053  28.723  1.00  0.00    -0.203 F 
ATOM     62  C   UNL A   1      48.557  28.690  29.836  1.00  0.00     0.198 A 
ATOM     63  C   UNL A   1      47.957  27.603  31.890  1.00  0.00     0.198 A 
ATOM     64  F   UNL A   1      45.795  27.873  32.778  1.00  0.00    -0.203 F 
ATOM     65  F   UNL A   1      49.452  28.925  28.867  1.00  0.00    -0.200 F 
ATOM     66  C   UNL A   1      48.891  27.865  30.901  1.00  0.00     0.200 A 
ATOM     67  F   UNL A   1      48.280  26.813  32.925  1.00  0.00    -0.200 F 
ATOM     68  F   UNL A   1      50.112  27.316  30.968  1.00  0.00    -0.200 F 
ENDBRANCH  44  58
BRANCH  45  69
ATOM     69  C   UNL A   1      37.069  32.676  30.200  1.00  0.00     0.064 A 
ATOM     70  C   UNL A   1      36.150  32.473  31.236  1.00  0.00     0.173 A 
ATOM     71  C   UNL A   1      36.648  33.421  29.088  1.00  0.00     0.173 A 
ATOM     72  F   UNL A   1      36.496  31.741  32.305  1.00  0.00    -0.203 F 
ATOM     73  C   UNL A   1      34.857  32.990  31.161  1.00  0.00     0.198 A 
ATOM     74  C   UNL A   1      35.365  33.961  29.027  1.00  0.00     0.198 A 
ATOM     75  F   UNL A   1      37.489  33.638  28.067  1.00  0.00    -0.203 F 
ATOM     76  F   UNL A   1      33.983  32.749  32.149  1.00  0.00    -0.200 F 
ATOM     77  C   UNL A   1      34.469  33.740  30.062  1.00  0.00     0.200 A 
ATOM     78  F   UNL A   1      34.999  34.693  27.966  1.00  0.00    -0.200 F 
ATOM     79  F   UNL A   1      33.229  34.243  29.994  1.00  0.00    -0.200 F 
ENDBRANCH  45  69
BRANCH  57  80
ATOM     80  C   UNL A   1      42.958  34.891  33.183  1.00  0.00     0.064 A 
ATOM     81  C   UNL A   1      42.900  34.876  34.583  1.00  0.00     0.173 A 
ATOM     82  C   UNL A   1      43.365  36.074  32.551  1.00  0.00     0.173 A 
ATOM     83  F   UNL A   1      42.500  33.772  35.231  1.00  0.00    -0.203 F 
ATOM     84  C   UNL A   1      43.219  36.012  35.323  1.00  0.00     0.198 A 
ATOM     85  C   UNL A   1      43.706  37.201  33.295  1.00  0.00     0.198 A 
ATOM     86  F   UNL A   1      43.439  36.137  31.213  1.00  0.00    -0.203 F 
ATOM     87  F   UNL A   1      43.119  35.989  36.659  1.00  0.00    -0.200 F 
ATOM     88  C   UNL A   1      43.628  37.171  34.678  1.00  0.00     0.200 A 
ATOM     89  F   UNL A   1      44.108  38.317  32.671  1.00  0.00    -0.200 F 
ATOM     90  F   UNL A   1      43.937  38.262  35.392  1.00  0.00    -0.200 F 
ENDBRANCH  57  80
ENDBRANCH  31  32
ENDBRANCH  24  26
ENDBRANCH  23  24
ENDBRANCH   1  23
TORSDOF 12
ENDMDL
MODEL 2
REMARK VINA RESULT:     -11.9      3.730      7.296
REMARK SMILES Cc1ccc2nc(C(=O)OCCOC(=O)c3ccc(-c4c5nc(c(-c6c(F)c(F)c(F)c(F)c6F)c6ccc([nH]6)c(-c6c(F)c(F)c(F)c(F)c6F)c6nc(c(-c7c(F)c(F)c(F)c(F)c7F)c7ccc4[nH]7)C=C6)C=C5)cc3)cc(N3CCOCC3)c2c1
REMARK SMILES IDX 12 1 11 2 10 3 8 4 9 5 7 6 1 7 2 8 3 9 88 10 4 11 87 12 5 13
REMARK SMILES IDX 80 14 6 15 79 16 81 17 82 18 86 19 83 20 85 21 84 22 13 23
REMARK SMILES IDX 14 24 15 25 16 26 17 27 78 28 18 29 77 30 19 31 20 32 21 33
REMARK SMILES IDX 71 34 22 35 76 36 70 37 72 38 23 39 75 40 69 41 68 42 24 44
REMARK SMILES IDX 56 45 36 46 55 47 37 48 40 49 54 50 73 51 38 52 39 53 53 55
REMARK SMILES IDX 74 56 41 57 25 58 26 59 34 60 27 61 28 62 32 63 35 64 29 65
REMARK SMILES IDX 30 66 33 67 31 68 57 69 58 70 66 71 59 72 60 73 64 74 67 75
REMARK SMILES IDX 61 76 62 77 65 78 63 79 42 80 43 81 51 82 44 83 45 84 49 85
REMARK SMILES IDX 52 86 46 87 47 88 50 89 48 90
REMARK H PARENT 72 43 40 54
REMARK Flexibility Score: inf
ROOT
ATOM      1  C   UNL A   1      31.785  29.073  25.947  1.00  0.00     0.275 C 
ENDROOT
BRANCH   1   2
ATOM      2  C   UNL A   1      31.890  27.836  25.049  1.00  0.00     0.275 C 
BRANCH   2   3
ATOM      3  O   UNL A   1      32.799  26.854  25.592  1.00  0.00    -0.457 OA
BRANCH   3   4
ATOM      4  C   UNL A   1      32.210  25.721  26.058  1.00  0.00     0.357 C 
ATOM      5  O   UNL A   1      31.085  25.651  26.535  1.00  0.00    -0.244 OA
BRANCH   4   6
ATOM      6  C   UNL A   1      33.075  24.522  25.831  1.00  0.00     0.151 A 
ATOM      7  C   UNL A   1      38.281  20.765  25.063  1.00  0.00     0.044 C 
ATOM      8  C   UNL A   1      37.241  21.808  25.340  1.00  0.00    -0.050 A 
ATOM      9  C   UNL A   1      37.600  23.085  25.755  1.00  0.00     0.005 A 
ATOM     10  C   UNL A   1      35.882  21.520  25.153  1.00  0.00     0.016 A 
ATOM     11  C   UNL A   1      36.611  24.050  25.947  1.00  0.00     0.029 A 
ATOM     12  C   UNL A   1      34.861  22.474  25.407  1.00  0.00     0.024 A 
ATOM     13  C   UNL A   1      35.265  23.771  25.765  1.00  0.00     0.073 A 
ATOM     14  C   UNL A   1      33.459  22.221  25.285  1.00  0.00     0.049 A 
ATOM     15  N   UNL A   1      34.402  24.772  25.937  1.00  0.00    -0.241 NA
ATOM     16  C   UNL A   1      32.565  23.276  25.518  1.00  0.00     0.062 A 
BRANCH  14  17
ATOM     17  N   UNL A   1      32.989  20.963  24.923  1.00  0.00    -0.366 N 
ATOM     18  C   UNL A   1      32.805  19.931  25.960  1.00  0.00     0.145 C 
ATOM     19  C   UNL A   1      32.115  20.782  23.755  1.00  0.00     0.145 C 
ATOM     20  C   UNL A   1      32.987  18.546  25.315  1.00  0.00     0.181 C 
ATOM     21  C   UNL A   1      32.314  19.362  23.200  1.00  0.00     0.181 C 
ATOM     22  O   UNL A   1      32.087  18.361  24.208  1.00  0.00    -0.378 OA
ENDBRANCH  14  17
ENDBRANCH   4   6
ENDBRANCH   3   4
ENDBRANCH   2   3
ENDBRANCH   1   2
BRANCH   1  23
ATOM     23  O   UNL A   1      32.897  29.969  25.750  1.00  0.00    -0.458 OA
BRANCH  23  24
ATOM     24  C   UNL A   1      33.100  30.864  26.744  1.00  0.00     0.338 C 
ATOM     25  O   UNL A   1      32.312  31.685  27.178  1.00  0.00    -0.246 OA
BRANCH  24  26
ATOM     26  C   UNL A   1      34.434  30.662  27.330  1.00  0.00     0.060 A 
ATOM     27  C   UNL A   1      34.816  29.360  27.631  1.00  0.00     0.016 A 
ATOM     28  C   UNL A   1      35.241  31.733  27.713  1.00  0.00     0.016 A 
ATOM     29  C   UNL A   1      35.973  29.109  28.356  1.00  0.00     0.010 A 
ATOM     30  C   UNL A   1      36.435  31.480  28.404  1.00  0.00     0.010 A 
ATOM     31  C   UNL A   1      36.798  30.164  28.753  1.00  0.00    -0.014 A 
BRANCH  31  32
ATOM     32  C   UNL A   1      37.998  29.873  29.582  1.00  0.00     0.031 A 
ATOM     33  C   UNL A   1      39.106  29.020  29.031  1.00  0.00     0.074 A 
ATOM     34  C   UNL A   1      38.131  30.435  30.799  1.00  0.00     0.049 A 
ATOM     35  N   UNL A   1      40.191  28.584  29.623  1.00  0.00    -0.248 NA
ATOM     36  C   UNL A   1      38.979  28.601  27.628  1.00  0.00     0.031 C 
ATOM     37  C   UNL A   1      37.166  31.340  31.422  1.00  0.00     0.029 A 
ATOM     38  N   UNL A   1      39.142  30.339  31.724  1.00  0.00    -0.354 N 
ATOM     39  C   UNL A   1      40.850  27.807  28.681  1.00  0.00     0.074 A 
ATOM     40  C   UNL A   1      40.046  27.828  27.477  1.00  0.00     0.031 C 
ATOM     41  C   UNL A   1      37.643  31.741  32.610  1.00  0.00     0.029 A 
ATOM     42  C   UNL A   1      38.913  31.069  32.864  1.00  0.00     0.049 A 
ATOM     43  H   UNL A   1      39.953  29.799  31.583  1.00  0.00     0.167 HD
ATOM     44  C   UNL A   1      42.020  27.136  28.810  1.00  0.00     0.037 A 
ATOM     45  C   UNL A   1      39.631  31.163  34.001  1.00  0.00     0.037 A 
ATOM     46  C   UNL A   1      42.842  27.152  29.991  1.00  0.00     0.049 A 
ATOM     47  C   UNL A   1      40.903  30.374  34.135  1.00  0.00     0.074 A 
ATOM     48  C   UNL A   1      44.046  26.507  30.215  1.00  0.00     0.029 A 
ATOM     49  N   UNL A   1      42.548  27.862  31.146  1.00  0.00    -0.354 N 
ATOM     50  N   UNL A   1      41.491  29.599  33.258  1.00  0.00    -0.248 NA
ATOM     51  C   UNL A   1      41.602  30.461  35.425  1.00  0.00     0.031 C 
ATOM     52  C   UNL A   1      44.466  26.800  31.518  1.00  0.00     0.029 A 
ATOM     53  C   UNL A   1      43.542  27.658  32.092  1.00  0.00     0.049 A 
ATOM     54  H   UNL A   1      41.753  28.426  31.275  1.00  0.00     0.167 HD
ATOM     55  C   UNL A   1      42.629  29.110  33.884  1.00  0.00     0.074 A 
ATOM     56  C   UNL A   1      42.663  29.695  35.209  1.00  0.00     0.031 C 
ATOM     57  C   UNL A   1      43.559  28.247  33.406  1.00  0.00     0.037 A 
BRANCH  44  58
ATOM     58  C   UNL A   1      42.463  26.292  27.652  1.00  0.00     0.064 A 
ATOM     59  C   UNL A   1      43.437  26.730  26.743  1.00  0.00     0.173 A 
ATOM     60  C   UNL A   1      41.921  25.010  27.468  1.00  0.00     0.173 A 
ATOM     61  F   UNL A   1      43.974  27.953  26.868  1.00  0.00    -0.203 F 
ATOM     62  C   UNL A   1      43.834  25.926  25.678  1.00  0.00     0.198 A 
ATOM     63  C   UNL A   1      42.339  24.199  26.416  1.00  0.00     0.198 A 
ATOM     64  F   UNL A   1      40.989  24.542  28.313  1.00  0.00    -0.203 F 
ATOM     65  F   UNL A   1      44.736  26.381  24.797  1.00  0.00    -0.200 F 
ATOM     66  C   UNL A   1      43.290  24.660  25.519  1.00  0.00     0.200 A 
ATOM     67  F   UNL A   1      41.818  22.973  26.271  1.00  0.00    -0.200 F 
ATOM     68  F   UNL A   1      43.676  23.886  24.496  1.00  0.00    -0.200 F 
ENDBRANCH  44  58
BRANCH  45  69
ATOM     69  C   UNL A   1      39.139  32.014  35.115  1.00  0.00     0.064 A 
ATOM     70  C   UNL A   1      38.423  31.461  36.184  1.00  0.00     0.173 A 
ATOM     71  C   UNL A   1      39.381  33.396  35.135  1.00  0.00     0.173 A 
ATOM     72  F   UNL A   1      38.141  30.150  36.194  1.00  0.00    -0.203 F 
ATOM     73  C   UNL A   1      37.961  32.260  37.229  1.00  0.00     0.198 A 
ATOM     74  C   UNL A   1      38.944  34.189  36.193  1.00  0.00     0.198 A 
ATOM     75  F   UNL A   1      40.057  33.974  34.130  1.00  0.00    -0.203 F 
ATOM     76  F   UNL A   1      37.245  31.714  38.221  1.00  0.00    -0.200 F 
ATOM     77  C   UNL A   1      38.230  33.621  37.237  1.00  0.00     0.200 A 
ATOM     78  F   UNL A   1      39.213  35.501  36.200  1.00  0.00    -0.200 F 
ATOM     79  F   UNL A   1      37.792  34.386  38.245  1.00  0.00    -0.200 F 
ENDBRANCH  45  69
BRANCH  57  80
ATOM     80  C   UNL A   1      44.697  27.898  34.316  1.00  0.00     0.064 A 
ATOM     81  C   UNL A   1      45.864  28.674  34.357  1.00  0.00     0.173 A 
ATOM     82  C   UNL A   1      44.607  26.796  35.179  1.00  0.00     0.173 A 
ATOM     83  F   UNL A   1      46.003  29.727  33.538  1.00  0.00    -0.203 F 
ATOM     84  C   UNL A   1      46.910  28.346  35.215  1.00  0.00     0.198 A 
ATOM     85  C   UNL A   1      45.646  26.485  36.052  1.00  0.00     0.198 A 
ATOM     86  F   UNL A   1      43.510  26.025  35.180  1.00  0.00    -0.203 F 
ATOM     87  F   UNL A   1      48.034  29.077  35.209  1.00  0.00    -0.200 F 
ATOM     88  C   UNL A   1      46.798  27.256  36.066  1.00  0.00     0.200 A 
ATOM     89  F   UNL A   1      45.532  25.436  36.879  1.00  0.00    -0.200 F 
ATOM     90  F   UNL A   1      47.805  26.944  36.893  1.00  0.00    -0.200 F 
ENDBRANCH  57  80
ENDBRANCH  31  32
ENDBRANCH  24  26
ENDBRANCH  23  24
ENDBRANCH   1  23
TORSDOF 12
ENDMDL
MODEL 3
REMARK VINA RESULT:     -11.8      0.526      1.726
REMARK SMILES Cc1ccc2nc(C(=O)OCCOC(=O)c3ccc(-c4c5nc(c(-c6c(F)c(F)c(F)c(F)c6F)c6ccc([nH]6)c(-c6c(F)c(F)c(F)c(F)c6F)c6nc(c(-c7c(F)c(F)c(F)c(F)c7F)c7ccc4[nH]7)C=C6)C=C5)cc3)cc(N3CCOCC3)c2c1
REMARK SMILES IDX 12 1 11 2 10 3 8 4 9 5 7 6 1 7 2 8 3 9 88 10 4 11 87 12 5 13
REMARK SMILES IDX 80 14 6 15 79 16 81 17 82 18 86 19 83 20 85 21 84 22 13 23
REMARK SMILES IDX 14 24 15 25 16 26 17 27 78 28 18 29 77 30 19 31 20 32 21 33
REMARK SMILES IDX 71 34 22 35 76 36 70 37 72 38 23 39 75 40 69 41 68 42 24 44
REMARK SMILES IDX 56 45 36 46 55 47 37 48 40 49 54 50 73 51 38 52 39 53 53 55
REMARK SMILES IDX 74 56 41 57 25 58 26 59 34 60 27 61 28 62 32 63 35 64 29 65
REMARK SMILES IDX 30 66 33 67 31 68 57 69 58 70 66 71 59 72 60 73 64 74 67 75
REMARK SMILES IDX 61 76 62 77 65 78 63 79 42 80 43 81 51 82 44 83 45 84 49 85
REMARK SMILES IDX 52 86 46 87 47 88 50 89 48 90
REMARK H PARENT 72 43 40 54
REMARK Flexibility Score: inf
ROOT
ATOM      1  C   UNL A   1      36.935  23.372  24.407  1.00  0.00     0.275 C 
ENDROOT
BRANCH   1   2
ATOM      2  C   UNL A   1      35.417  23.385  24.202  1.00  0.00     0.275 C 
BRANCH   2   3
ATOM      3  O   UNL A   1      34.868  24.714  24.335  1.00  0.00    -0.457 OA
BRANCH   3   4
ATOM      4  C   UNL A   1      34.000  24.878  25.368  1.00  0.00     0.357 C 
ATOM      5  O   UNL A   1      33.806  24.070  26.266  1.00  0.00    -0.244 OA
BRANCH   4   6
ATOM      6  C   UNL A   1      33.363  26.231  25.337  1.00  0.00     0.151 A 
ATOM      7  C   UNL A   1      31.755  32.298  26.890  1.00  0.00     0.044 C 
ATOM      8  C   UNL A   1      32.327  30.927  26.692  1.00  0.00    -0.050 A 
ATOM      9  C   UNL A   1      33.378  30.469  27.477  1.00  0.00     0.005 A 
ATOM     10  C   UNL A   1      31.785  30.067  25.727  1.00  0.00     0.016 A 
ATOM     11  C   UNL A   1      33.848  29.166  27.308  1.00  0.00     0.029 A 
ATOM     12  C   UNL A   1      32.296  28.761  25.501  1.00  0.00     0.024 A 
ATOM     13  C   UNL A   1      33.318  28.311  26.353  1.00  0.00     0.073 A 
ATOM     14  C   UNL A   1      31.820  27.861  24.496  1.00  0.00     0.049 A 
ATOM     15  N   UNL A   1      33.811  27.074  26.298  1.00  0.00    -0.241 NA
ATOM     16  C   UNL A   1      32.386  26.580  24.422  1.00  0.00     0.062 A 
BRANCH  14  17
ATOM     17  N   UNL A   1      30.803  28.236  23.625  1.00  0.00    -0.366 N 
ATOM     18  C   UNL A   1      31.135  29.005  22.411  1.00  0.00     0.145 C 
ATOM     19  C   UNL A   1      29.576  27.437  23.495  1.00  0.00     0.145 C 
ATOM     20  C   UNL A   1      29.922  29.873  22.032  1.00  0.00     0.181 C 
ATOM     21  C   UNL A   1      28.425  28.360  23.063  1.00  0.00     0.181 C 
ATOM     22  O   UNL A   1      28.740  29.072  21.852  1.00  0.00    -0.378 OA
ENDBRANCH  14  17
ENDBRANCH   4   6
ENDBRANCH   3   4
ENDBRANCH   2   3
ENDBRANCH   1   2
BRANCH   1  23
ATOM     23  O   UNL A   1      37.287  23.570  25.790  1.00  0.00    -0.458 OA
BRANCH  23  24
ATOM     24  C   UNL A   1      38.551  23.219  26.121  1.00  0.00     0.338 C 
ATOM     25  O   UNL A   1      39.118  22.168  25.879  1.00  0.00    -0.246 OA
BRANCH  24  26
ATOM     26  C   UNL A   1      39.228  24.351  26.771  1.00  0.00     0.060 A 
ATOM     27  C   UNL A   1      38.992  24.551  28.127  1.00  0.00     0.016 A 
ATOM     28  C   UNL A   1      39.966  25.284  26.045  1.00  0.00     0.016 A 
ATOM     29  C   UNL A   1      39.441  25.701  28.763  1.00  0.00     0.010 A 
ATOM     30  C   UNL A   1      40.463  26.424  26.696  1.00  0.00     0.010 A 
ATOM     31  C   UNL A   1      40.182  26.653  28.057  1.00  0.00    -0.014 A 
BRANCH  31  32
ATOM     32  C   UNL A   1      40.597  27.903  28.746  1.00  0.00     0.031 A 
ATOM     33  C   UNL A   1      42.035  28.113  29.129  1.00  0.00     0.074 A 
ATOM     34  C   UNL A   1      39.700  28.886  28.962  1.00  0.00     0.049 A 
ATOM     35  N   UNL A   1      42.580  29.092  29.806  1.00  0.00    -0.248 NA
ATOM     36  C   UNL A   1      42.989  27.083  28.691  1.00  0.00     0.031 C 
ATOM     37  C   UNL A   1      38.290  28.842  28.575  1.00  0.00     0.029 A 
ATOM     38  N   UNL A   1      39.847  30.120  29.546  1.00  0.00    -0.354 N 
ATOM     39  C   UNL A   1      43.928  28.776  29.913  1.00  0.00     0.074 A 
ATOM     40  C   UNL A   1      44.121  27.513  29.231  1.00  0.00     0.031 C 
ATOM     41  C   UNL A   1      37.709  30.006  28.902  1.00  0.00     0.029 A 
ATOM     42  C   UNL A   1      38.685  30.851  29.583  1.00  0.00     0.049 A 
ATOM     43  H   UNL A   1      40.704  30.450  29.902  1.00  0.00     0.167 HD
ATOM     44  C   UNL A   1      44.913  29.476  30.524  1.00  0.00     0.037 A 
ATOM     45  C   UNL A   1      38.426  32.053  30.133  1.00  0.00     0.037 A 
ATOM     46  C   UNL A   1      44.729  30.753  31.162  1.00  0.00     0.049 A 
ATOM     47  C   UNL A   1      39.527  32.790  30.844  1.00  0.00     0.074 A 
ATOM     48  C   UNL A   1      45.669  31.541  31.804  1.00  0.00     0.029 A 
ATOM     49  N   UNL A   1      43.524  31.436  31.226  1.00  0.00    -0.354 N 
ATOM     50  N   UNL A   1      40.786  32.457  30.986  1.00  0.00    -0.248 NA
ATOM     51  C   UNL A   1      39.165  34.061  31.486  1.00  0.00     0.031 C 
ATOM     52  C   UNL A   1      45.025  32.687  32.286  1.00  0.00     0.029 A 
ATOM     53  C   UNL A   1      43.693  32.630  31.911  1.00  0.00     0.049 A 
ATOM     54  H   UNL A   1      42.675  31.120  30.842  1.00  0.00     0.167 HD
ATOM     55  C   UNL A   1      41.368  33.476  31.726  1.00  0.00     0.074 A 
ATOM     56  C   UNL A   1      40.330  34.453  31.984  1.00  0.00     0.031 C 
ATOM     57  C   UNL A   1      42.647  33.589  32.160  1.00  0.00     0.037 A 
BRANCH  44  58
ATOM     58  C   UNL A   1      46.277  28.854  30.568  1.00  0.00     0.064 A 
ATOM     59  C   UNL A   1      46.669  27.995  31.605  1.00  0.00     0.173 A 
ATOM     60  C   UNL A   1      47.197  29.103  29.537  1.00  0.00     0.173 A 
ATOM     61  F   UNL A   1      45.831  27.738  32.621  1.00  0.00    -0.203 F 
ATOM     62  C   UNL A   1      47.940  27.428  31.621  1.00  0.00     0.198 A 
ATOM     63  C   UNL A   1      48.458  28.513  29.544  1.00  0.00     0.198 A 
ATOM     64  F   UNL A   1      46.869  29.914  28.519  1.00  0.00    -0.203 F 
ATOM     65  F   UNL A   1      48.308  26.642  32.643  1.00  0.00    -0.200 F 
ATOM     66  C   UNL A   1      48.831  27.682  30.588  1.00  0.00     0.200 A 
ATOM     67  F   UNL A   1      49.313  28.754  28.540  1.00  0.00    -0.200 F 
ATOM     68  F   UNL A   1      50.052  27.131  30.604  1.00  0.00    -0.200 F 
ENDBRANCH  44  58
BRANCH  45  69
ATOM     69  C   UNL A   1      37.054  32.618  30.060  1.00  0.00     0.064 A 
ATOM     70  C   UNL A   1      36.151  32.458  31.118  1.00  0.00     0.173 A 
ATOM     71  C   UNL A   1      36.621  33.331  28.932  1.00  0.00     0.173 A 
ATOM     72  F   UNL A   1      36.508  31.758  32.204  1.00  0.00    -0.203 F 
ATOM     73  C   UNL A   1      34.863  32.987  31.049  1.00  0.00     0.198 A 
ATOM     74  C   UNL A   1      35.344  33.883  28.875  1.00  0.00     0.198 A 
ATOM     75  F   UNL A   1      37.447  33.505  27.889  1.00  0.00    -0.203 F 
ATOM     76  F   UNL A   1      34.004  32.788  32.058  1.00  0.00    -0.200 F 
ATOM     77  C   UNL A   1      34.464  33.706  29.932  1.00  0.00     0.200 A 
ATOM     78  F   UNL A   1      34.967  34.584  27.798  1.00  0.00    -0.200 F 
ATOM     79  F   UNL A   1      33.228  34.220  29.869  1.00  0.00    -0.200 F 
ENDBRANCH  45  69
BRANCH  57  80
ATOM     80  C   UNL A   1      42.997  34.819  32.943  1.00  0.00     0.064 A 
ATOM     81  C   UNL A   1      43.400  36.000  32.306  1.00  0.00     0.173 A 
ATOM     82  C   UNL A   1      42.895  34.824  34.342  1.00  0.00     0.173 A 
ATOM     83  F   UNL A   1      43.527  36.038  30.972  1.00  0.00    -0.203 F 
ATOM     84  C   UNL A   1      43.710  37.139  33.045  1.00  0.00     0.198 A 
ATOM     85  C   UNL A   1      43.184  35.972  35.075  1.00  0.00     0.198 A 
ATOM     86  F   UNL A   1      42.510  33.719  34.997  1.00  0.00    -0.203 F 
ATOM     87  F   UNL A   1      44.133  38.247  32.419  1.00  0.00    -0.200 F 
ATOM     88  C   UNL A   1      43.596  37.126  34.428  1.00  0.00     0.200 A 
ATOM     89  F   UNL A   1      43.065  35.959  36.410  1.00  0.00    -0.200 F 
ATOM     90  F   UNL A   1      43.893  38.224  35.136  1.00  0.00    -0.200 F 
ENDBRANCH  57  80
ENDBRANCH  31  32
ENDBRANCH  24  26
ENDBRANCH  23  24
ENDBRANCH   1  23
TORSDOF 12
ENDMDL
