MODEL 1
REMARK VINA RESULT:     -12.0      0.000      0.000
REMARK SMILES CC(=O)N[C@@H](CCc1nc2ccccc2[nH]1)C(=O)OCCOC(=O)c1ccc(-c2c3nc(c(-c4c(F)c(F)c(F)c(F)c4F)c4ccc([nH]4)c(-c4c(F)c(F)c(F)c(F)c4F)c4nc(c(-c5c(F)c(F)c(F)c(F)c5F)c5ccc2[nH]5)C=C4)C=C3)cc1
REMARK SMILES IDX 20 1 19 2 17 3 18 4 5 5 4 6 1 7 2 8 3 9 6 11 7 12 8 13 9 14
REMARK SMILES IDX 16 15 10 16 15 17 11 19 14 20 12 21 13 22 21 23 22 24 23 25
REMARK SMILES IDX 24 26 25 27 26 28 87 29 27 30 86 31 28 32 29 33 30 34 80 35
REMARK SMILES IDX 31 36 85 37 79 38 81 39 32 40 84 41 78 42 77 43 33 45 65 46
REMARK SMILES IDX 45 47 64 48 46 49 49 50 63 51 82 52 47 53 48 54 62 56 83 57
REMARK SMILES IDX 50 58 34 59 35 60 43 61 36 62 37 63 41 64 44 65 38 66 39 67
REMARK SMILES IDX 42 68 40 69 66 70 67 71 75 72 68 73 69 74 73 75 76 76 70 77
REMARK SMILES IDX 71 78 74 79 72 80 51 81 52 82 60 83 53 84 54 85 58 86 61 87
REMARK SMILES IDX 55 88 56 89 59 90 57 91
REMARK H PARENT 4 10 16 18 81 44 49 55
REMARK Flexibility Score: inf
ROOT
ATOM      1  C   UNL A   1      31.586  30.451  25.783  1.00  0.00     0.274 C 
ENDROOT
BRANCH   1   2
ATOM      2  O   UNL A   1      32.839  29.815  25.457  1.00  0.00    -0.461 OA
BRANCH   2   3
ATOM      3  C   UNL A   1      33.041  28.566  25.947  1.00  0.00     0.328 C 
ATOM      4  O   UNL A   1      32.834  28.211  27.106  1.00  0.00    -0.250 OA
BRANCH   3   5
ATOM      5  C   UNL A   1      33.648  27.607  24.909  1.00  0.00     0.192 C 
BRANCH   5   6
ATOM      6  N   UNL A   1      32.916  26.359  24.713  1.00  0.00    -0.343 N 
ATOM      7  C   UNL A   1      34.765  24.831  25.345  1.00  0.00     0.114 C 
ATOM      8  C   UNL A   1      33.336  25.079  24.938  1.00  0.00     0.217 C 
ATOM      9  O   UNL A   1      32.542  24.150  24.796  1.00  0.00    -0.275 OA
ATOM     10  H   UNL A   1      31.997  26.452  24.375  1.00  0.00     0.164 HD
ENDBRANCH   5   6
BRANCH   5  11
ATOM     11  C   UNL A   1      33.929  28.321  23.572  1.00  0.00     0.045 C 
BRANCH  11  12
ATOM     12  C   UNL A   1      33.103  27.874  22.358  1.00  0.00     0.078 C 
BRANCH  12  13
ATOM     13  C   UNL A   1      31.690  28.358  22.340  1.00  0.00     0.107 A 
ATOM     14  N   UNL A   1      30.635  27.658  22.701  1.00  0.00    -0.233 NA
ATOM     15  N   UNL A   1      31.319  29.631  21.967  1.00  0.00    -0.342 N 
ATOM     16  C   UNL A   1      29.576  28.533  22.675  1.00  0.00     0.089 A 
ATOM     17  C   UNL A   1      29.991  29.794  22.266  1.00  0.00     0.065 A 
ATOM     18  H   UNL A   1      31.907  30.306  21.556  1.00  0.00     0.168 HD
ATOM     19  C   UNL A   1      28.240  28.341  23.051  1.00  0.00     0.030 A 
ATOM     20  C   UNL A   1      29.155  30.912  22.253  1.00  0.00     0.028 A 
ATOM     21  C   UNL A   1      27.377  29.446  23.051  1.00  0.00     0.002 A 
ATOM     22  C   UNL A   1      27.834  30.711  22.670  1.00  0.00     0.002 A 
ENDBRANCH  12  13
ENDBRANCH  11  12
ENDBRANCH   5  11
ENDBRANCH   3   5
ENDBRANCH   2   3
ENDBRANCH   1   2
BRANCH   1  23
ATOM     23  C   UNL A   1      31.783  31.769  26.529  1.00  0.00     0.275 C 
BRANCH  23  24
ATOM     24  O   UNL A   1      32.722  31.617  27.608  1.00  0.00    -0.458 OA
BRANCH  24  25
ATOM     25  C   UNL A   1      33.567  32.661  27.741  1.00  0.00     0.338 C 
ATOM     26  O   UNL A   1      33.281  33.843  27.840  1.00  0.00    -0.246 OA
BRANCH  25  27
ATOM     27  C   UNL A   1      34.944  32.195  27.926  1.00  0.00     0.060 A 
ATOM     28  C   UNL A   1      35.123  30.812  27.999  1.00  0.00     0.016 A 
ATOM     29  C   UNL A   1      35.990  33.068  28.217  1.00  0.00     0.016 A 
ATOM     30  C   UNL A   1      36.313  30.287  28.469  1.00  0.00     0.010 A 
ATOM     31  C   UNL A   1      37.203  32.539  28.669  1.00  0.00     0.010 A 
ATOM     32  C   UNL A   1      37.344  31.151  28.852  1.00  0.00    -0.014 A 
BRANCH  32  33
ATOM     33  C   UNL A   1      38.483  30.581  29.606  1.00  0.00     0.031 A 
ATOM     34  C   UNL A   1      38.645  30.938  31.057  1.00  0.00     0.074 A 
ATOM     35  C   UNL A   1      39.281  29.667  29.031  1.00  0.00     0.049 A 
ATOM     36  N   UNL A   1      39.581  30.581  31.899  1.00  0.00    -0.248 NA
ATOM     37  C   UNL A   1      37.613  31.811  31.640  1.00  0.00     0.031 C 
ATOM     38  C   UNL A   1      39.159  29.187  27.654  1.00  0.00     0.029 A 
ATOM     39  N   UNL A   1      40.339  28.962  29.542  1.00  0.00    -0.354 N 
ATOM     40  C   UNL A   1      39.273  31.217  33.094  1.00  0.00     0.074 A 
ATOM     41  C   UNL A   1      38.066  31.982  32.873  1.00  0.00     0.031 C 
ATOM     42  C   UNL A   1      40.095  28.250  27.436  1.00  0.00     0.029 A 
ATOM     43  C   UNL A   1      40.907  28.099  28.640  1.00  0.00     0.049 A 
ATOM     44  H   UNL A   1      40.659  29.064  30.468  1.00  0.00     0.167 HD
ATOM     45  C   UNL A   1      39.942  31.166  34.269  1.00  0.00     0.037 A 
ATOM     46  C   UNL A   1      41.976  27.293  28.771  1.00  0.00     0.037 A 
ATOM     47  C   UNL A   1      41.121  30.371  34.491  1.00  0.00     0.049 A 
ATOM     48  C   UNL A   1      42.706  27.259  30.085  1.00  0.00     0.074 A 
ATOM     49  C   UNL A   1      41.894  30.266  35.634  1.00  0.00     0.029 A 
ATOM     50  N   UNL A   1      41.684  29.527  33.545  1.00  0.00    -0.354 N 
ATOM     51  N   UNL A   1      42.449  27.914  31.191  1.00  0.00    -0.248 NA
ATOM     52  C   UNL A   1      43.878  26.377  30.167  1.00  0.00     0.031 C 
ATOM     53  C   UNL A   1      42.939  29.371  35.372  1.00  0.00     0.029 A 
ATOM     54  C   UNL A   1      42.796  28.896  34.078  1.00  0.00     0.049 A 
ATOM     55  H   UNL A   1      41.343  29.395  32.632  1.00  0.00     0.167 HD
ATOM     56  C   UNL A   1      43.418  27.523  32.102  1.00  0.00     0.074 A 
ATOM     57  C   UNL A   1      44.256  26.551  31.427  1.00  0.00     0.031 C 
ATOM     58  C   UNL A   1      43.608  27.933  33.381  1.00  0.00     0.037 A 
BRANCH  45  59
ATOM     59  C   UNL A   1      39.437  32.029  35.386  1.00  0.00     0.064 A 
ATOM     60  C   UNL A   1      39.839  33.364  35.531  1.00  0.00     0.173 A 
ATOM     61  C   UNL A   1      38.532  31.509  36.324  1.00  0.00     0.173 A 
ATOM     62  F   UNL A   1      40.719  33.901  34.673  1.00  0.00    -0.203 F 
ATOM     63  C   UNL A   1      39.368  34.142  36.588  1.00  0.00     0.198 A 
ATOM     64  C   UNL A   1      38.048  32.294  37.366  1.00  0.00     0.198 A 
ATOM     65  F   UNL A   1      38.121  30.236  36.230  1.00  0.00    -0.203 F 
ATOM     66  F   UNL A   1      39.799  35.403  36.733  1.00  0.00    -0.200 F 
ATOM     67  C   UNL A   1      38.471  33.608  37.501  1.00  0.00     0.200 A 
ATOM     68  F   UNL A   1      37.176  31.778  38.243  1.00  0.00    -0.200 F 
ATOM     69  F   UNL A   1      38.020  34.356  38.517  1.00  0.00    -0.200 F 
ENDBRANCH  45  59
BRANCH  46  70
ATOM     70  C   UNL A   1      42.421  26.468  27.621  1.00  0.00     0.064 A 
ATOM     71  C   UNL A   1      43.417  26.921  26.747  1.00  0.00     0.173 A 
ATOM     72  C   UNL A   1      41.868  25.200  27.383  1.00  0.00     0.173 A 
ATOM     73  F   UNL A   1      43.960  28.135  26.923  1.00  0.00    -0.203 F 
ATOM     74  C   UNL A   1      43.838  26.141  25.672  1.00  0.00     0.198 A 
ATOM     75  C   UNL A   1      42.308  24.411  26.324  1.00  0.00     0.198 A 
ATOM     76  F   UNL A   1      40.913  24.722  28.194  1.00  0.00    -0.203 F 
ATOM     77  F   UNL A   1      44.770  26.609  24.831  1.00  0.00    -0.200 F 
ATOM     78  C   UNL A   1      43.289  24.883  25.466  1.00  0.00     0.200 A 
ATOM     79  F   UNL A   1      41.784  23.192  26.137  1.00  0.00    -0.200 F 
ATOM     80  F   UNL A   1      43.702  24.130  24.438  1.00  0.00    -0.200 F 
ENDBRANCH  46  70
BRANCH  58  81
ATOM     81  C   UNL A   1      44.753  27.317  34.126  1.00  0.00     0.064 A 
ATOM     82  C   UNL A   1      44.602  26.114  34.830  1.00  0.00     0.173 A 
ATOM     83  C   UNL A   1      46.015  27.927  34.116  1.00  0.00     0.173 A 
ATOM     84  F   UNL A   1      43.407  25.505  34.878  1.00  0.00    -0.203 F 
ATOM     85  C   UNL A   1      45.671  25.556  35.523  1.00  0.00     0.198 A 
ATOM     86  C   UNL A   1      47.087  27.354  34.792  1.00  0.00     0.198 A 
ATOM     87  F   UNL A   1      46.206  29.077  33.453  1.00  0.00    -0.203 F 
ATOM     88  F   UNL A   1      45.496  24.429  36.227  1.00  0.00    -0.200 F 
ATOM     89  C   UNL A   1      46.913  26.173  35.500  1.00  0.00     0.200 A 
ATOM     90  F   UNL A   1      48.289  27.948  34.766  1.00  0.00    -0.200 F 
ATOM     91  F   UNL A   1      47.942  25.636  36.170  1.00  0.00    -0.200 F 
ENDBRANCH  58  81
ENDBRANCH  32  33
ENDBRANCH  25  27
ENDBRANCH  24  25
ENDBRANCH  23  24
ENDBRANCH   1  23
TORSDOF 15
ENDMDL
MODEL 2
REMARK VINA RESULT:     -11.8      1.763      8.032
REMARK SMILES CC(=O)N[C@@H](CCc1nc2ccccc2[nH]1)C(=O)OCCOC(=O)c1ccc(-c2c3nc(c(-c4c(F)c(F)c(F)c(F)c4F)c4ccc([nH]4)c(-c4c(F)c(F)c(F)c(F)c4F)c4nc(c(-c5c(F)c(F)c(F)c(F)c5F)c5ccc2[nH]5)C=C4)C=C3)cc1
REMARK SMILES IDX 20 1 19 2 17 3 18 4 5 5 4 6 1 7 2 8 3 9 6 11 7 12 8 13 9 14
REMARK SMILES IDX 16 15 10 16 15 17 11 19 14 20 12 21 13 22 21 23 22 24 23 25
REMARK SMILES IDX 24 26 25 27 26 28 87 29 27 30 86 31 28 32 29 33 30 34 80 35
REMARK SMILES IDX 31 36 85 37 79 38 81 39 32 40 84 41 78 42 77 43 33 45 65 46
REMARK SMILES IDX 45 47 64 48 46 49 49 50 63 51 82 52 47 53 48 54 62 56 83 57
REMARK SMILES IDX 50 58 34 59 35 60 43 61 36 62 37 63 41 64 44 65 38 66 39 67
REMARK SMILES IDX 42 68 40 69 66 70 67 71 75 72 68 73 69 74 73 75 76 76 70 77
REMARK SMILES IDX 71 78 74 79 72 80 51 81 52 82 60 83 53 84 54 85 58 86 61 87
REMARK SMILES IDX 55 88 56 89 59 90 57 91
REMARK H PARENT 4 10 16 18 81 44 49 55
REMARK Flexibility Score: inf
ROOT
ATOM      1  C   UNL A   1      32.430  28.769  25.266  1.00  0.00     0.274 C 
ENDROOT
BRANCH   1   2
ATOM      2  O   UNL A   1      31.246  27.961  25.104  1.00  0.00    -0.461 OA
BRANCH   2   3
ATOM      3  C   UNL A   1      31.049  26.970  26.011  1.00  0.00     0.328 C 
ATOM      4  O   UNL A   1      31.114  27.097  27.232  1.00  0.00    -0.250 OA
BRANCH   3   5
ATOM      5  C   UNL A   1      30.803  25.601  25.356  1.00  0.00     0.192 C 
BRANCH   5   6
ATOM      6  N   UNL A   1      29.969  24.684  26.128  1.00  0.00    -0.343 N 
ATOM      7  C   UNL A   1      31.807  23.245  26.964  1.00  0.00     0.114 C 
ATOM      8  C   UNL A   1      30.353  23.636  26.914  1.00  0.00     0.217 C 
ATOM      9  O   UNL A   1      29.505  23.025  27.563  1.00  0.00    -0.275 OA
ATOM     10  H   UNL A   1      28.999  24.844  26.075  1.00  0.00     0.164 HD
ENDBRANCH   5   6
BRANCH   5  11
ATOM     11  C   UNL A   1      30.302  25.746  23.905  1.00  0.00     0.045 C 
BRANCH  11  12
ATOM     12  C   UNL A   1      31.250  25.275  22.793  1.00  0.00     0.078 C 
BRANCH  12  13
ATOM     13  C   UNL A   1      32.036  24.045  23.108  1.00  0.00     0.107 A 
ATOM     14  N   UNL A   1      33.297  24.016  23.485  1.00  0.00    -0.233 NA
ATOM     15  N   UNL A   1      31.514  22.771  23.072  1.00  0.00    -0.342 N 
ATOM     16  C   UNL A   1      33.561  22.709  23.815  1.00  0.00     0.089 A 
ATOM     17  C   UNL A   1      32.439  21.915  23.613  1.00  0.00     0.065 A 
ATOM     18  H   UNL A   1      30.630  22.519  22.719  1.00  0.00     0.168 HD
ATOM     19  C   UNL A   1      34.718  22.133  24.357  1.00  0.00     0.030 A 
ATOM     20  C   UNL A   1      32.376  20.567  23.969  1.00  0.00     0.028 A 
ATOM     21  C   UNL A   1      34.684  20.781  24.728  1.00  0.00     0.002 A 
ATOM     22  C   UNL A   1      33.527  20.018  24.546  1.00  0.00     0.002 A 
ENDBRANCH  12  13
ENDBRANCH  11  12
ENDBRANCH   5  11
ENDBRANCH   3   5
ENDBRANCH   2   3
ENDBRANCH   1   2
BRANCH   1  23
ATOM     23  C   UNL A   1      32.116  30.145  25.849  1.00  0.00     0.275 C 
BRANCH  23  24
ATOM     24  O   UNL A   1      32.649  30.276  27.180  1.00  0.00    -0.458 OA
BRANCH  24  25
ATOM     25  C   UNL A   1      33.354  31.410  27.370  1.00  0.00     0.338 C 
ATOM     26  O   UNL A   1      32.929  32.552  27.422  1.00  0.00    -0.246 OA
BRANCH  25  27
ATOM     27  C   UNL A   1      34.752  31.105  27.686  1.00  0.00     0.060 A 
ATOM     28  C   UNL A   1      35.061  29.757  27.883  1.00  0.00     0.016 A 
ATOM     29  C   UNL A   1      35.682  32.102  27.976  1.00  0.00     0.016 A 
ATOM     30  C   UNL A   1      36.258  29.396  28.475  1.00  0.00     0.010 A 
ATOM     31  C   UNL A   1      36.903  31.736  28.552  1.00  0.00     0.010 A 
ATOM     32  C   UNL A   1      37.166  30.388  28.856  1.00  0.00    -0.014 A 
BRANCH  32  33
ATOM     33  C   UNL A   1      38.295  29.997  29.729  1.00  0.00     0.031 A 
ATOM     34  C   UNL A   1      39.380  29.123  29.166  1.00  0.00     0.074 A 
ATOM     35  C   UNL A   1      38.405  30.518  30.962  1.00  0.00     0.049 A 
ATOM     36  N   UNL A   1      40.442  28.636  29.756  1.00  0.00    -0.248 NA
ATOM     37  C   UNL A   1      39.256  28.749  27.748  1.00  0.00     0.031 C 
ATOM     38  C   UNL A   1      37.451  31.443  31.575  1.00  0.00     0.029 A 
ATOM     39  N   UNL A   1      39.380  30.361  31.911  1.00  0.00    -0.354 N 
ATOM     40  C   UNL A   1      41.086  27.869  28.794  1.00  0.00     0.074 A 
ATOM     41  C   UNL A   1      40.301  27.952  27.583  1.00  0.00     0.031 C 
ATOM     42  C   UNL A   1      37.899  31.787  32.792  1.00  0.00     0.029 A 
ATOM     43  C   UNL A   1      39.145  31.072  33.060  1.00  0.00     0.049 A 
ATOM     44  H   UNL A   1      40.174  29.793  31.781  1.00  0.00     0.167 HD
ATOM     45  C   UNL A   1      42.231  27.157  28.916  1.00  0.00     0.037 A 
ATOM     46  C   UNL A   1      39.849  31.123  34.205  1.00  0.00     0.037 A 
ATOM     47  C   UNL A   1      43.027  27.112  30.114  1.00  0.00     0.049 A 
ATOM     48  C   UNL A   1      41.114  30.319  34.317  1.00  0.00     0.074 A 
ATOM     49  C   UNL A   1      44.191  26.403  30.356  1.00  0.00     0.029 A 
ATOM     50  N   UNL A   1      42.745  27.827  31.269  1.00  0.00    -0.354 N 
ATOM     51  N   UNL A   1      41.683  29.542  33.427  1.00  0.00    -0.248 NA
ATOM     52  C   UNL A   1      41.834  30.395  35.596  1.00  0.00     0.031 C 
ATOM     53  C   UNL A   1      44.601  26.674  31.667  1.00  0.00     0.029 A 
ATOM     54  C   UNL A   1      43.711  27.576  32.228  1.00  0.00     0.049 A 
ATOM     55  H   UNL A   1      41.972  28.424  31.388  1.00  0.00     0.167 HD
ATOM     56  C   UNL A   1      42.826  29.041  34.030  1.00  0.00     0.074 A 
ATOM     57  C   UNL A   1      42.886  29.622  35.357  1.00  0.00     0.031 C 
ATOM     58  C   UNL A   1      43.743  28.172  33.538  1.00  0.00     0.037 A 
BRANCH  45  59
ATOM     59  C   UNL A   1      42.660  26.339  27.737  1.00  0.00     0.064 A 
ATOM     60  C   UNL A   1      43.608  26.805  26.815  1.00  0.00     0.173 A 
ATOM     61  C   UNL A   1      42.114  25.063  27.529  1.00  0.00     0.173 A 
ATOM     62  F   UNL A   1      44.143  28.027  26.959  1.00  0.00    -0.203 F 
ATOM     63  C   UNL A   1      43.979  26.032  25.716  1.00  0.00     0.198 A 
ATOM     64  C   UNL A   1      42.502  24.284  26.442  1.00  0.00     0.198 A 
ATOM     65  F   UNL A   1      41.201  24.572  28.380  1.00  0.00    -0.203 F 
ATOM     66  F   UNL A   1      44.854  26.516  24.824  1.00  0.00    -0.200 F 
ATOM     67  C   UNL A   1      43.429  24.773  25.533  1.00  0.00     0.200 A 
ATOM     68  F   UNL A   1      41.974  23.064  26.270  1.00  0.00    -0.200 F 
ATOM     69  F   UNL A   1      43.786  24.030  24.476  1.00  0.00    -0.200 F 
ENDBRANCH  45  59
BRANCH  46  70
ATOM     70  C   UNL A   1      39.362  31.954  35.333  1.00  0.00     0.064 A 
ATOM     71  C   UNL A   1      39.729  33.300  35.453  1.00  0.00     0.173 A 
ATOM     72  C   UNL A   1      38.505  31.420  36.308  1.00  0.00     0.173 A 
ATOM     73  F   UNL A   1      40.562  33.849  34.556  1.00  0.00    -0.203 F 
ATOM     74  C   UNL A   1      39.263  34.080  36.509  1.00  0.00     0.198 A 
ATOM     75  C   UNL A   1      38.020  32.207  37.349  1.00  0.00     0.198 A 
ATOM     76  F   UNL A   1      38.124  30.136  36.235  1.00  0.00    -0.203 F 
ATOM     77  F   UNL A   1      39.653  35.357  36.620  1.00  0.00    -0.200 F 
ATOM     78  C   UNL A   1      38.404  33.535  37.452  1.00  0.00     0.200 A 
ATOM     79  F   UNL A   1      37.180  31.679  38.249  1.00  0.00    -0.200 F 
ATOM     80  F   UNL A   1      37.949  34.289  38.462  1.00  0.00    -0.200 F 
ENDBRANCH  46  70
BRANCH  58  81
ATOM     81  C   UNL A   1      44.889  27.818  34.436  1.00  0.00     0.064 A 
ATOM     82  C   UNL A   1      46.066  28.579  34.452  1.00  0.00     0.173 A 
ATOM     83  C   UNL A   1      44.798  26.720  35.304  1.00  0.00     0.173 A 
ATOM     84  F   UNL A   1      46.202  29.629  33.627  1.00  0.00    -0.203 F 
ATOM     85  C   UNL A   1      47.126  28.236  35.286  1.00  0.00     0.198 A 
ATOM     86  C   UNL A   1      45.851  26.393  36.152  1.00  0.00     0.198 A 
ATOM     87  F   UNL A   1      43.689  25.965  35.325  1.00  0.00    -0.203 F 
ATOM     88  F   UNL A   1      48.259  28.949  35.254  1.00  0.00    -0.200 F 
ATOM     89  C   UNL A   1      47.016  27.147  36.138  1.00  0.00     0.200 A 
ATOM     90  F   UNL A   1      45.742  25.343  36.978  1.00  0.00    -0.200 F 
ATOM     91  F   UNL A   1      48.037  26.816  36.939  1.00  0.00    -0.200 F 
ENDBRANCH  58  81
ENDBRANCH  32  33
ENDBRANCH  25  27
ENDBRANCH  24  25
ENDBRANCH  23  24
ENDBRANCH   1  23
TORSDOF 15
ENDMDL
MODEL 3
REMARK VINA RESULT:     -11.8      0.432      7.501
REMARK SMILES CC(=O)N[C@@H](CCc1nc2ccccc2[nH]1)C(=O)OCCOC(=O)c1ccc(-c2c3nc(c(-c4c(F)c(F)c(F)c(F)c4F)c4ccc([nH]4)c(-c4c(F)c(F)c(F)c(F)c4F)c4nc(c(-c5c(F)c(F)c(F)c(F)c5F)c5ccc2[nH]5)C=C4)C=C3)cc1
REMARK SMILES IDX 20 1 19 2 17 3 18 4 5 5 4 6 1 7 2 8 3 9 6 11 7 12 8 13 9 14
REMARK SMILES IDX 16 15 10 16 15 17 11 19 14 20 12 21 13 22 21 23 22 24 23 25
REMARK SMILES IDX 24 26 25 27 26 28 87 29 27 30 86 31 28 32 29 33 30 34 80 35
REMARK SMILES IDX 31 36 85 37 79 38 81 39 32 40 84 41 78 42 77 43 33 45 65 46
REMARK SMILES IDX 45 47 64 48 46 49 49 50 63 51 82 52 47 53 48 54 62 56 83 57
REMARK SMILES IDX 50 58 34 59 35 60 43 61 36 62 37 63 41 64 44 65 38 66 39 67
REMARK SMILES IDX 42 68 40 69 66 70 67 71 75 72 68 73 69 74 73 75 76 76 70 77
REMARK SMILES IDX 71 78 74 79 72 80 51 81 52 82 60 83 53 84 54 85 58 86 61 87
REMARK SMILES IDX 55 88 56 89 59 90 57 91
REMARK H PARENT 4 10 16 18 81 44 49 55
REMARK Flexibility Score: inf
ROOT
ATOM      1  C   UNL A   1      31.380  30.472  25.808  1.00  0.00     0.274 C 
ENDROOT
BRANCH   1   2
ATOM      2  O   UNL A   1      32.557  29.782  25.339  1.00  0.00    -0.461 OA
BRANCH   2   3
ATOM      3  C   UNL A   1      32.833  28.581  25.910  1.00  0.00     0.328 C 
ATOM      4  O   UNL A   1      32.612  28.280  27.081  1.00  0.00    -0.250 OA
BRANCH   3   5
ATOM      5  C   UNL A   1      33.546  27.613  24.951  1.00  0.00     0.192 C 
BRANCH   5   6
ATOM      6  N   UNL A   1      32.856  26.347  24.720  1.00  0.00    -0.343 N 
ATOM      7  C   UNL A   1      34.743  24.865  25.345  1.00  0.00     0.114 C 
ATOM      8  C   UNL A   1      33.312  25.077  24.923  1.00  0.00     0.217 C 
ATOM      9  O   UNL A   1      32.550  24.127  24.752  1.00  0.00    -0.275 OA
ATOM     10  H   UNL A   1      31.938  26.419  24.371  1.00  0.00     0.164 HD
ENDBRANCH   5   6
BRANCH   5  11
ATOM     11  C   UNL A   1      33.932  28.304  23.628  1.00  0.00     0.045 C 
BRANCH  11  12
ATOM     12  C   UNL A   1      33.135  27.907  22.378  1.00  0.00     0.078 C 
BRANCH  12  13
ATOM     13  C   UNL A   1      31.716  28.371  22.356  1.00  0.00     0.107 A 
ATOM     14  N   UNL A   1      30.667  27.648  22.689  1.00  0.00    -0.233 NA
ATOM     15  N   UNL A   1      31.331  29.648  22.010  1.00  0.00    -0.342 N 
ATOM     16  C   UNL A   1      29.596  28.509  22.673  1.00  0.00     0.089 A 
ATOM     17  C   UNL A   1      29.998  29.785  22.299  1.00  0.00     0.065 A 
ATOM     18  H   UNL A   1      31.913  30.340  21.622  1.00  0.00     0.168 HD
ATOM     19  C   UNL A   1      28.259  28.289  23.029  1.00  0.00     0.030 A 
ATOM     20  C   UNL A   1      29.146  30.891  22.303  1.00  0.00     0.028 A 
ATOM     21  C   UNL A   1      27.381  29.382  23.047  1.00  0.00     0.002 A 
ATOM     22  C   UNL A   1      27.824  30.662  22.701  1.00  0.00     0.002 A 
ENDBRANCH  12  13
ENDBRANCH  11  12
ENDBRANCH   5  11
ENDBRANCH   3   5
ENDBRANCH   2   3
ENDBRANCH   1   2
BRANCH   1  23
ATOM     23  C   UNL A   1      31.721  31.788  26.504  1.00  0.00     0.275 C 
BRANCH  23  24
ATOM     24  O   UNL A   1      32.699  31.585  27.541  1.00  0.00    -0.458 OA
BRANCH  24  25
ATOM     25  C   UNL A   1      33.584  32.598  27.654  1.00  0.00     0.338 C 
ATOM     26  O   UNL A   1      33.352  33.795  27.650  1.00  0.00    -0.246 OA
BRANCH  25  27
ATOM     27  C   UNL A   1      34.922  32.084  27.960  1.00  0.00     0.060 A 
ATOM     28  C   UNL A   1      35.014  30.716  28.224  1.00  0.00     0.016 A 
ATOM     29  C   UNL A   1      36.008  32.930  28.179  1.00  0.00     0.016 A 
ATOM     30  C   UNL A   1      36.152  30.194  28.812  1.00  0.00     0.010 A 
ATOM     31  C   UNL A   1      37.169  32.399  28.751  1.00  0.00     0.010 A 
ATOM     32  C   UNL A   1      37.219  31.043  29.122  1.00  0.00    -0.014 A 
BRANCH  32  33
ATOM     33  C   UNL A   1      38.293  30.518  29.995  1.00  0.00     0.031 A 
ATOM     34  C   UNL A   1      39.325  29.600  29.403  1.00  0.00     0.074 A 
ATOM     35  C   UNL A   1      38.408  30.955  31.259  1.00  0.00     0.049 A 
ATOM     36  N   UNL A   1      40.333  29.001  29.984  1.00  0.00    -0.248 NA
ATOM     37  C   UNL A   1      39.212  29.322  27.962  1.00  0.00     0.031 C 
ATOM     38  C   UNL A   1      37.509  31.911  31.906  1.00  0.00     0.029 A 
ATOM     39  N   UNL A   1      39.344  30.669  32.218  1.00  0.00    -0.354 N 
ATOM     40  C   UNL A   1      40.944  28.246  28.992  1.00  0.00     0.074 A 
ATOM     41  C   UNL A   1      40.199  28.460  27.772  1.00  0.00     0.031 C 
ATOM     42  C   UNL A   1      37.949  32.147  33.152  1.00  0.00     0.029 A 
ATOM     43  C   UNL A   1      39.131  31.327  33.403  1.00  0.00     0.049 A 
ATOM     44  H   UNL A   1      40.097  30.052  32.070  1.00  0.00     0.167 HD
ATOM     45  C   UNL A   1      42.030  27.445  29.095  1.00  0.00     0.037 A 
ATOM     46  C   UNL A   1      39.807  31.257  34.563  1.00  0.00     0.037 A 
ATOM     47  C   UNL A   1      42.789  27.269  30.305  1.00  0.00     0.049 A 
ATOM     48  C   UNL A   1      41.007  30.355  34.654  1.00  0.00     0.074 A 
ATOM     49  C   UNL A   1      43.890  26.462  30.528  1.00  0.00     0.029 A 
ATOM     50  N   UNL A   1      42.530  27.933  31.495  1.00  0.00    -0.354 N 
ATOM     51  N   UNL A   1      41.540  29.592  33.730  1.00  0.00    -0.248 NA
ATOM     52  C   UNL A   1      41.696  30.301  35.950  1.00  0.00     0.031 C 
ATOM     53  C   UNL A   1      44.285  26.623  31.862  1.00  0.00     0.029 A 
ATOM     54  C   UNL A   1      43.449  27.555  32.458  1.00  0.00     0.049 A 
ATOM     55  H   UNL A   1      41.800  28.579  31.633  1.00  0.00     0.167 HD
ATOM     56  C   UNL A   1      42.627  28.972  34.326  1.00  0.00     0.074 A 
ATOM     57  C   UNL A   1      42.695  29.467  35.687  1.00  0.00     0.031 C 
ATOM     58  C   UNL A   1      43.491  28.068  33.803  1.00  0.00     0.037 A 
BRANCH  45  59
ATOM     59  C   UNL A   1      42.429  26.668  27.878  1.00  0.00     0.064 A 
ATOM     60  C   UNL A   1      41.896  25.402  27.598  1.00  0.00     0.173 A 
ATOM     61  C   UNL A   1      43.359  27.203  26.974  1.00  0.00     0.173 A 
ATOM     62  F   UNL A   1      41.020  24.837  28.443  1.00  0.00    -0.203 F 
ATOM     63  C   UNL A   1      42.296  24.691  26.468  1.00  0.00     0.198 A 
ATOM     64  C   UNL A   1      43.740  26.500  25.834  1.00  0.00     0.198 A 
ATOM     65  F   UNL A   1      43.901  28.410  27.198  1.00  0.00    -0.203 F 
ATOM     66  F   UNL A   1      41.806  23.463  26.243  1.00  0.00    -0.200 F 
ATOM     67  C   UNL A   1      43.213  25.242  25.586  1.00  0.00     0.200 A 
ATOM     68  F   UNL A   1      44.622  27.037  24.980  1.00  0.00    -0.200 F 
ATOM     69  F   UNL A   1      43.597  24.557  24.500  1.00  0.00    -0.200 F 
ENDBRANCH  45  59
BRANCH  46  70
ATOM     70  C   UNL A   1      39.353  32.053  35.729  1.00  0.00     0.064 A 
ATOM     71  C   UNL A   1      38.429  31.535  36.645  1.00  0.00     0.173 A 
ATOM     72  C   UNL A   1      39.846  33.347  35.958  1.00  0.00     0.173 A 
ATOM     73  F   UNL A   1      37.915  30.310  36.457  1.00  0.00    -0.203 F 
ATOM     74  C   UNL A   1      38.010  32.282  37.744  1.00  0.00     0.198 A 
ATOM     75  C   UNL A   1      39.445  34.084  37.069  1.00  0.00     0.198 A 
ATOM     76  F   UNL A   1      40.733  33.887  35.110  1.00  0.00    -0.203 F 
ATOM     77  F   UNL A   1      37.102  31.776  38.590  1.00  0.00    -0.200 F 
ATOM     78  C   UNL A   1      38.524  33.553  37.959  1.00  0.00     0.200 A 
ATOM     79  F   UNL A   1      39.955  35.305  37.280  1.00  0.00    -0.200 F 
ATOM     80  F   UNL A   1      38.128  34.267  39.021  1.00  0.00    -0.200 F 
ENDBRANCH  46  70
BRANCH  58  81
ATOM     81  C   UNL A   1      44.583  27.576  34.702  1.00  0.00     0.064 A 
ATOM     82  C   UNL A   1      44.418  26.427  35.488  1.00  0.00     0.173 A 
ATOM     83  C   UNL A   1      45.812  28.249  34.761  1.00  0.00     0.173 A 
ATOM     84  F   UNL A   1      43.254  25.760  35.475  1.00  0.00    -0.203 F 
ATOM     85  C   UNL A   1      45.438  25.984  36.325  1.00  0.00     0.198 A 
ATOM     86  C   UNL A   1      46.837  27.790  35.581  1.00  0.00     0.198 A 
ATOM     87  F   UNL A   1      46.015  29.351  34.023  1.00  0.00    -0.203 F 
ATOM     88  F   UNL A   1      45.246  24.909  37.102  1.00  0.00    -0.200 F 
ATOM     89  C   UNL A   1      46.647  26.662  36.367  1.00  0.00     0.200 A 
ATOM     90  F   UNL A   1      48.006  28.444  35.618  1.00  0.00    -0.200 F 
ATOM     91  F   UNL A   1      47.628  26.236  37.175  1.00  0.00    -0.200 F 
ENDBRANCH  58  81
ENDBRANCH  32  33
ENDBRANCH  25  27
ENDBRANCH  24  25
ENDBRANCH  23  24
ENDBRANCH   1  23
TORSDOF 15
ENDMDL
