MODEL 1
REMARK VINA RESULT:     -13.7      0.000      0.000
REMARK SMILES Cc1ccccc1OCCN1C(=O)CC[C@H](C(=O)OCCOC(=O)c2ccc(-c3c4nc(c(-c5c(F)c(F)c(F)c(F)c5F)c5ccc([nH]5)c(-c5c(F)c(F)c(F)c(F)c5F)c5nc(c(-c6c(F)c(F)c(F)c(F)c6F)c6ccc3[nH]6)C=C5)C=C4)cc2)[C@@H]1c1ccco1
REMARK SMILES IDX 20 1 19 2 17 3 18 4 16 5 11 6 12 7 88 8 13 9 14 10 15 11
REMARK SMILES IDX 10 12 9 13 8 14 7 15 1 16 2 17 3 18 4 19 6 20 5 21 89 22
REMARK SMILES IDX 90 23 93 24 91 25 92 26 21 27 22 28 23 29 24 30 25 31 26 32
REMARK SMILES IDX 87 33 27 34 86 35 28 36 29 37 30 38 80 39 31 40 85 41 79 42
REMARK SMILES IDX 81 43 32 44 84 45 78 46 77 47 33 49 65 50 45 51 64 52 46 53
REMARK SMILES IDX 49 54 63 55 82 56 47 57 48 58 62 60 83 61 50 62 34 63 35 64
REMARK SMILES IDX 43 65 36 66 37 67 41 68 44 69 38 70 39 71 42 72 40 73 66 74
REMARK SMILES IDX 67 75 75 76 68 77 69 78 73 79 76 80 70 81 71 82 74 83 72 84
REMARK SMILES IDX 51 85 52 86 60 87 53 88 54 89 58 90 61 91 55 92 56 93 59 94
REMARK SMILES IDX 57 95
REMARK H PARENT 81 48 49 59
REMARK Flexibility Score: inf
ROOT
ATOM      1  C   UNL A   1      32.657  28.410  27.285  1.00  0.00     0.274 C 
ENDROOT
BRANCH   1   2
ATOM      2  O   UNL A   1      32.867  27.068  26.815  1.00  0.00    -0.462 OA
BRANCH   2   3
ATOM      3  C   UNL A   1      31.801  26.527  26.176  1.00  0.00     0.311 C 
ATOM      4  O   UNL A   1      30.683  26.475  26.671  1.00  0.00    -0.252 OA
BRANCH   3   5
ATOM      5  C   UNL A   1      32.064  26.037  24.777  1.00  0.00     0.130 C 
ATOM      6  N   UNL A   1      32.147  23.958  23.398  1.00  0.00    -0.328 N 
ATOM      7  C   UNL A   1      33.186  24.433  22.610  1.00  0.00     0.223 C 
ATOM      8  C   UNL A   1      31.937  24.500  24.747  1.00  0.00     0.166 C 
ATOM      9  O   UNL A   1      33.671  23.786  21.681  1.00  0.00    -0.275 OA
ATOM     10  C   UNL A   1      33.623  25.871  22.839  1.00  0.00     0.101 C 
ATOM     11  C   UNL A   1      33.415  26.446  24.228  1.00  0.00     0.028 C 
BRANCH   6  12
ATOM     12  C   UNL A   1      31.540  22.662  23.051  1.00  0.00     0.162 C 
BRANCH  12  13
ATOM     13  C   UNL A   1      32.475  21.433  23.017  1.00  0.00     0.251 C 
BRANCH  13  14
ATOM     14  O   UNL A   1      32.401  20.521  24.109  1.00  0.00    -0.491 OA
BRANCH  14  15
ATOM     15  C   UNL A   1      33.139  19.371  24.103  1.00  0.00     0.122 A 
ATOM     16  C   UNL A   1      35.363  20.284  25.008  1.00  0.00     0.048 C 
ATOM     17  C   UNL A   1      34.457  19.183  24.547  1.00  0.00    -0.009 A 
ATOM     18  C   UNL A   1      34.994  17.879  24.527  1.00  0.00     0.007 A 
ATOM     19  C   UNL A   1      34.276  16.804  24.002  1.00  0.00     0.001 A 
ATOM     20  C   UNL A   1      32.450  18.292  23.526  1.00  0.00     0.047 A 
ATOM     21  C   UNL A   1      33.009  17.015  23.477  1.00  0.00     0.004 A 
ENDBRANCH  14  15
ENDBRANCH  13  14
ENDBRANCH  12  13
ENDBRANCH   6  12
BRANCH   8  22
ATOM     22  C   UNL A   1      32.852  23.782  25.750  1.00  0.00     0.127 A 
ATOM     23  C   UNL A   1      34.226  23.738  25.955  1.00  0.00     0.048 A 
ATOM     24  O   UNL A   1      32.256  23.031  26.729  1.00  0.00    -0.467 OA
ATOM     25  C   UNL A   1      34.468  22.950  27.099  1.00  0.00     0.042 A 
ATOM     26  C   UNL A   1      33.234  22.544  27.534  1.00  0.00     0.195 A 
ENDBRANCH   8  22
ENDBRANCH   3   5
ENDBRANCH   2   3
ENDBRANCH   1   2
BRANCH   1  27
ATOM     27  C   UNL A   1      33.435  29.462  26.484  1.00  0.00     0.275 C 
BRANCH  27  28
ATOM     28  O   UNL A   1      34.841  29.734  26.751  1.00  0.00    -0.458 OA
BRANCH  28  29
ATOM     29  C   UNL A   1      35.282  30.423  27.828  1.00  0.00     0.338 C 
ATOM     30  O   UNL A   1      34.664  31.352  28.340  1.00  0.00    -0.246 OA
BRANCH  29  31
ATOM     31  C   UNL A   1      36.618  30.001  28.300  1.00  0.00     0.060 A 
ATOM     32  C   UNL A   1      36.755  29.300  29.517  1.00  0.00     0.016 A 
ATOM     33  C   UNL A   1      37.690  30.109  27.425  1.00  0.00     0.016 A 
ATOM     34  C   UNL A   1      37.926  28.576  29.784  1.00  0.00     0.010 A 
ATOM     35  C   UNL A   1      38.767  29.283  27.618  1.00  0.00     0.010 A 
ATOM     36  C   UNL A   1      38.912  28.525  28.796  1.00  0.00    -0.014 A 
BRANCH  36  37
ATOM     37  C   UNL A   1      40.203  27.839  28.873  1.00  0.00     0.031 A 
ATOM     38  C   UNL A   1      40.423  26.405  28.594  1.00  0.00     0.074 A 
ATOM     39  C   UNL A   1      41.226  28.709  29.023  1.00  0.00     0.049 A 
ATOM     40  N   UNL A   1      41.582  25.850  28.575  1.00  0.00    -0.248 NA
ATOM     41  C   UNL A   1      39.379  25.446  28.294  1.00  0.00     0.031 C 
ATOM     42  C   UNL A   1      42.661  28.549  28.904  1.00  0.00     0.029 A 
ATOM     43  N   UNL A   1      41.082  30.005  29.551  1.00  0.00    -0.354 N 
ATOM     44  C   UNL A   1      41.470  24.550  28.120  1.00  0.00     0.074 A 
ATOM     45  C   UNL A   1      40.061  24.347  27.938  1.00  0.00     0.031 C 
ATOM     46  C   UNL A   1      43.246  29.482  29.682  1.00  0.00     0.029 A 
ATOM     47  C   UNL A   1      42.174  30.160  30.405  1.00  0.00     0.049 A 
ATOM     48  H   UNL A   1      40.368  30.657  29.360  1.00  0.00     0.167 HD
ATOM     49  C   UNL A   1      42.631  23.862  27.922  1.00  0.00     0.037 A 
ATOM     50  C   UNL A   1      41.925  30.074  31.744  1.00  0.00     0.037 A 
ATOM     51  C   UNL A   1      43.682  24.537  28.675  1.00  0.00     0.049 A 
ATOM     52  C   UNL A   1      42.667  28.897  32.330  1.00  0.00     0.074 A 
ATOM     53  C   UNL A   1      44.634  25.483  28.344  1.00  0.00     0.029 A 
ATOM     54  N   UNL A   1      43.546  24.568  30.059  1.00  0.00    -0.354 N 
ATOM     55  N   UNL A   1      42.833  27.739  31.743  1.00  0.00    -0.248 NA
ATOM     56  C   UNL A   1      43.418  29.033  33.566  1.00  0.00     0.031 C 
ATOM     57  C   UNL A   1      44.994  26.159  29.545  1.00  0.00     0.029 A 
ATOM     58  C   UNL A   1      44.286  25.598  30.599  1.00  0.00     0.049 A 
ATOM     59  H   UNL A   1      42.997  23.941  30.581  1.00  0.00     0.167 HD
ATOM     60  C   UNL A   1      43.776  27.024  32.448  1.00  0.00     0.074 A 
ATOM     61  C   UNL A   1      44.095  27.876  33.580  1.00  0.00     0.031 C 
ATOM     62  C   UNL A   1      44.298  25.824  32.036  1.00  0.00     0.037 A 
BRANCH  49  63
ATOM     63  C   UNL A   1      42.903  22.691  26.999  1.00  0.00     0.064 A 
ATOM     64  C   UNL A   1      42.218  21.466  27.212  1.00  0.00     0.173 A 
ATOM     65  C   UNL A   1      43.869  22.646  25.979  1.00  0.00     0.173 A 
ATOM     66  F   UNL A   1      41.259  21.352  28.141  1.00  0.00    -0.203 F 
ATOM     67  C   UNL A   1      42.510  20.296  26.503  1.00  0.00     0.198 A 
ATOM     68  C   UNL A   1      44.161  21.471  25.267  1.00  0.00     0.198 A 
ATOM     69  F   UNL A   1      44.567  23.729  25.625  1.00  0.00    -0.203 F 
ATOM     70  F   UNL A   1      41.848  19.164  26.784  1.00  0.00    -0.200 F 
ATOM     71  C   UNL A   1      43.491  20.295  25.536  1.00  0.00     0.200 A 
ATOM     72  F   UNL A   1      45.115  21.486  24.325  1.00  0.00    -0.200 F 
ATOM     73  F   UNL A   1      43.789  19.169  24.872  1.00  0.00    -0.200 F 
ENDBRANCH  49  63
BRANCH  50  74
ATOM     74  C   UNL A   1      40.555  30.569  32.132  1.00  0.00     0.064 A 
ATOM     75  C   UNL A   1      39.574  29.608  32.488  1.00  0.00     0.173 A 
ATOM     76  C   UNL A   1      40.276  31.897  32.477  1.00  0.00     0.173 A 
ATOM     77  F   UNL A   1      39.764  28.313  32.183  1.00  0.00    -0.203 F 
ATOM     78  C   UNL A   1      38.461  29.933  33.266  1.00  0.00     0.198 A 
ATOM     79  C   UNL A   1      39.131  32.228  33.222  1.00  0.00     0.198 A 
ATOM     80  F   UNL A   1      41.141  32.876  32.177  1.00  0.00    -0.203 F 
ATOM     81  F   UNL A   1      37.642  28.964  33.702  1.00  0.00    -0.200 F 
ATOM     82  C   UNL A   1      38.249  31.243  33.647  1.00  0.00     0.200 A 
ATOM     83  F   UNL A   1      38.928  33.497  33.608  1.00  0.00    -0.200 F 
ATOM     84  F   UNL A   1      37.223  31.552  34.454  1.00  0.00    -0.200 F 
ENDBRANCH  50  74
BRANCH  62  85
ATOM     85  C   UNL A   1      44.992  24.797  32.922  1.00  0.00     0.064 A 
ATOM     86  C   UNL A   1      44.414  23.585  33.334  1.00  0.00     0.173 A 
ATOM     87  C   UNL A   1      46.363  24.940  33.271  1.00  0.00     0.173 A 
ATOM     88  F   UNL A   1      43.192  23.211  32.940  1.00  0.00    -0.203 F 
ATOM     89  C   UNL A   1      45.102  22.655  34.120  1.00  0.00     0.198 A 
ATOM     90  C   UNL A   1      47.072  23.969  33.978  1.00  0.00     0.198 A 
ATOM     91  F   UNL A   1      47.092  26.002  32.903  1.00  0.00    -0.203 F 
ATOM     92  F   UNL A   1      44.465  21.554  34.541  1.00  0.00    -0.200 F 
ATOM     93  C   UNL A   1      46.432  22.839  34.431  1.00  0.00     0.200 A 
ATOM     94  F   UNL A   1      48.385  24.131  34.192  1.00  0.00    -0.200 F 
ATOM     95  F   UNL A   1      47.101  21.917  35.134  1.00  0.00    -0.200 F 
ENDBRANCH  62  85
ENDBRANCH  36  37
ENDBRANCH  29  31
ENDBRANCH  28  29
ENDBRANCH  27  28
ENDBRANCH   1  27
TORSDOF 16
ENDMDL
MODEL 2
REMARK VINA RESULT:     -13.4      1.310      2.333
REMARK SMILES Cc1ccccc1OCCN1C(=O)CC[C@H](C(=O)OCCOC(=O)c2ccc(-c3c4nc(c(-c5c(F)c(F)c(F)c(F)c5F)c5ccc([nH]5)c(-c5c(F)c(F)c(F)c(F)c5F)c5nc(c(-c6c(F)c(F)c(F)c(F)c6F)c6ccc3[nH]6)C=C5)C=C4)cc2)[C@@H]1c1ccco1
REMARK SMILES IDX 20 1 19 2 17 3 18 4 16 5 11 6 12 7 88 8 13 9 14 10 15 11
REMARK SMILES IDX 10 12 9 13 8 14 7 15 1 16 2 17 3 18 4 19 6 20 5 21 89 22
REMARK SMILES IDX 90 23 93 24 91 25 92 26 21 27 22 28 23 29 24 30 25 31 26 32
REMARK SMILES IDX 87 33 27 34 86 35 28 36 29 37 30 38 80 39 31 40 85 41 79 42
REMARK SMILES IDX 81 43 32 44 84 45 78 46 77 47 33 49 65 50 45 51 64 52 46 53
REMARK SMILES IDX 49 54 63 55 82 56 47 57 48 58 62 60 83 61 50 62 34 63 35 64
REMARK SMILES IDX 43 65 36 66 37 67 41 68 44 69 38 70 39 71 42 72 40 73 66 74
REMARK SMILES IDX 67 75 75 76 68 77 69 78 73 79 76 80 70 81 71 82 74 83 72 84
REMARK SMILES IDX 51 85 52 86 60 87 53 88 54 89 58 90 61 91 55 92 56 93 59 94
REMARK SMILES IDX 57 95
REMARK H PARENT 81 48 49 59
REMARK Flexibility Score: inf
ROOT
ATOM      1  C   UNL A   1      32.801  30.043  25.784  1.00  0.00     0.274 C 
ENDROOT
BRANCH   1   2
ATOM      2  O   UNL A   1      33.603  29.425  24.764  1.00  0.00    -0.462 OA
BRANCH   2   3
ATOM      3  C   UNL A   1      32.902  29.000  23.684  1.00  0.00     0.311 C 
ATOM      4  O   UNL A   1      33.389  28.913  22.565  1.00  0.00    -0.252 OA
BRANCH   3   5
ATOM      5  C   UNL A   1      31.482  28.582  23.957  1.00  0.00     0.130 C 
ATOM      6  N   UNL A   1      30.111  26.650  24.746  1.00  0.00    -0.328 N 
ATOM      7  C   UNL A   1      29.053  26.961  23.904  1.00  0.00     0.223 C 
ATOM      8  C   UNL A   1      31.468  27.113  24.428  1.00  0.00     0.166 C 
ATOM      9  O   UNL A   1      28.012  26.304  23.868  1.00  0.00    -0.275 OA
ATOM     10  C   UNL A   1      29.161  28.252  23.108  1.00  0.00     0.101 C 
ATOM     11  C   UNL A   1      30.556  28.742  22.768  1.00  0.00     0.028 C 
BRANCH   6  12
ATOM     12  C   UNL A   1      29.945  25.543  25.703  1.00  0.00     0.162 C 
BRANCH  12  13
ATOM     13  C   UNL A   1      31.196  25.100  26.493  1.00  0.00     0.251 C 
BRANCH  13  14
ATOM     14  O   UNL A   1      31.307  23.720  26.827  1.00  0.00    -0.491 OA
BRANCH  14  15
ATOM     15  C   UNL A   1      32.072  22.882  26.065  1.00  0.00     0.122 A 
ATOM     16  C   UNL A   1      34.066  22.559  27.652  1.00  0.00     0.048 C 
ATOM     17  C   UNL A   1      33.294  22.278  26.398  1.00  0.00    -0.009 A 
ATOM     18  C   UNL A   1      33.868  21.371  25.482  1.00  0.00     0.007 A 
ATOM     19  C   UNL A   1      33.292  21.134  24.235  1.00  0.00     0.001 A 
ATOM     20  C   UNL A   1      31.534  22.677  24.784  1.00  0.00     0.047 A 
ATOM     21  C   UNL A   1      32.134  21.808  23.873  1.00  0.00     0.004 A 
ENDBRANCH  14  15
ENDBRANCH  13  14
ENDBRANCH  12  13
ENDBRANCH   6  12
BRANCH   8  22
ATOM     22  C   UNL A   1      32.137  26.140  23.445  1.00  0.00     0.127 A 
ATOM     23  C   UNL A   1      31.816  25.659  22.181  1.00  0.00     0.048 A 
ATOM     24  O   UNL A   1      33.355  25.618  23.797  1.00  0.00    -0.467 OA
ATOM     25  C   UNL A   1      32.876  24.835  21.749  1.00  0.00     0.042 A 
ATOM     26  C   UNL A   1      33.789  24.845  22.771  1.00  0.00     0.195 A 
ENDBRANCH   8  22
ENDBRANCH   3   5
ENDBRANCH   2   3
ENDBRANCH   1   2
BRANCH   1  27
ATOM     27  C   UNL A   1      33.246  29.681  27.207  1.00  0.00     0.275 C 
BRANCH  27  28
ATOM     28  O   UNL A   1      34.650  29.476  27.536  1.00  0.00    -0.458 OA
BRANCH  28  29
ATOM     29  C   UNL A   1      35.512  30.482  27.811  1.00  0.00     0.338 C 
ATOM     30  O   UNL A   1      35.254  31.667  27.627  1.00  0.00    -0.246 OA
BRANCH  29  31
ATOM     31  C   UNL A   1      36.831  30.021  28.295  1.00  0.00     0.060 A 
ATOM     32  C   UNL A   1      36.940  29.336  29.524  1.00  0.00     0.016 A 
ATOM     33  C   UNL A   1      37.909  30.076  27.422  1.00  0.00     0.016 A 
ATOM     34  C   UNL A   1      38.084  28.576  29.808  1.00  0.00     0.010 A 
ATOM     35  C   UNL A   1      38.955  29.216  27.633  1.00  0.00     0.010 A 
ATOM     36  C   UNL A   1      39.070  28.473  28.824  1.00  0.00    -0.014 A 
BRANCH  36  37
ATOM     37  C   UNL A   1      40.336  27.744  28.916  1.00  0.00     0.031 A 
ATOM     38  C   UNL A   1      40.511  26.304  28.638  1.00  0.00     0.074 A 
ATOM     39  C   UNL A   1      41.385  28.579  29.083  1.00  0.00     0.049 A 
ATOM     40  N   UNL A   1      41.650  25.710  28.633  1.00  0.00    -0.248 NA
ATOM     41  C   UNL A   1      39.439  25.382  28.320  1.00  0.00     0.031 C 
ATOM     42  C   UNL A   1      42.816  28.370  28.984  1.00  0.00     0.029 A 
ATOM     43  N   UNL A   1      41.278  29.878  29.612  1.00  0.00    -0.354 N 
ATOM     44  C   UNL A   1      41.501  24.415  28.173  1.00  0.00     0.074 A 
ATOM     45  C   UNL A   1      40.088  24.260  27.971  1.00  0.00     0.031 C 
ATOM     46  C   UNL A   1      43.422  29.281  29.773  1.00  0.00     0.029 A 
ATOM     47  C   UNL A   1      42.363  29.994  30.482  1.00  0.00     0.049 A 
ATOM     48  H   UNL A   1      40.590  30.553  29.413  1.00  0.00     0.167 HD
ATOM     49  C   UNL A   1      42.641  23.689  27.989  1.00  0.00     0.037 A 
ATOM     50  C   UNL A   1      42.093  29.913  31.818  1.00  0.00     0.037 A 
ATOM     51  C   UNL A   1      43.704  24.326  28.759  1.00  0.00     0.049 A 
ATOM     52  C   UNL A   1      42.786  28.710  32.410  1.00  0.00     0.074 A 
ATOM     53  C   UNL A   1      44.691  25.241  28.443  1.00  0.00     0.029 A 
ATOM     54  N   UNL A   1      43.550  24.359  30.140  1.00  0.00    -0.354 N 
ATOM     55  N   UNL A   1      42.921  27.549  31.823  1.00  0.00    -0.248 NA
ATOM     56  C   UNL A   1      43.524  28.819  33.657  1.00  0.00     0.031 C 
ATOM     57  C   UNL A   1      45.057  25.901  29.651  1.00  0.00     0.029 A 
ATOM     58  C   UNL A   1      44.316  25.362  30.693  1.00  0.00     0.049 A 
ATOM     59  H   UNL A   1      42.972  23.750  30.653  1.00  0.00     0.167 HD
ATOM     60  C   UNL A   1      43.829  26.800  32.539  1.00  0.00     0.074 A 
ATOM     61  C   UNL A   1      44.161  27.639  33.677  1.00  0.00     0.031 C 
ATOM     62  C   UNL A   1      44.316  25.585  32.131  1.00  0.00     0.037 A 
BRANCH  49  63
ATOM     63  C   UNL A   1      42.885  22.512  27.068  1.00  0.00     0.064 A 
ATOM     64  C   UNL A   1      42.153  21.312  27.264  1.00  0.00     0.173 A 
ATOM     65  C   UNL A   1      43.867  22.434  26.064  1.00  0.00     0.173 A 
ATOM     66  F   UNL A   1      41.174  21.230  28.176  1.00  0.00    -0.203 F 
ATOM     67  C   UNL A   1      42.414  20.134  26.556  1.00  0.00     0.198 A 
ATOM     68  C   UNL A   1      44.128  21.251  25.353  1.00  0.00     0.198 A 
ATOM     69  F   UNL A   1      44.610  23.491  25.725  1.00  0.00    -0.203 F 
ATOM     70  F   UNL A   1      41.706  19.026  26.822  1.00  0.00    -0.200 F 
ATOM     71  C   UNL A   1      43.411  20.099  25.606  1.00  0.00     0.200 A 
ATOM     72  F   UNL A   1      45.099  21.233  24.428  1.00  0.00    -0.200 F 
ATOM     73  F   UNL A   1      43.679  18.966  24.944  1.00  0.00    -0.200 F 
ENDBRANCH  49  63
BRANCH  50  74
ATOM     74  C   UNL A   1      40.735  30.454  32.188  1.00  0.00     0.064 A 
ATOM     75  C   UNL A   1      39.711  29.525  32.508  1.00  0.00     0.173 A 
ATOM     76  C   UNL A   1      40.499  31.785  32.550  1.00  0.00     0.173 A 
ATOM     77  F   UNL A   1      39.858  28.229  32.186  1.00  0.00    -0.203 F 
ATOM     78  C   UNL A   1      38.596  29.879  33.270  1.00  0.00     0.198 A 
ATOM     79  C   UNL A   1      39.353  32.147  33.278  1.00  0.00     0.198 A 
ATOM     80  F   UNL A   1      41.406  32.735  32.283  1.00  0.00    -0.203 F 
ATOM     81  F   UNL A   1      37.733  28.936  33.675  1.00  0.00    -0.200 F 
ATOM     82  C   UNL A   1      38.426  31.190  33.670  1.00  0.00     0.200 A 
ATOM     83  F   UNL A   1      39.191  33.417  33.682  1.00  0.00    -0.200 F 
ATOM     84  F   UNL A   1      37.397  31.525  34.462  1.00  0.00    -0.200 F 
ENDBRANCH  50  74
BRANCH  62  85
ATOM     85  C   UNL A   1      44.962  24.532  33.024  1.00  0.00     0.064 A 
ATOM     86  C   UNL A   1      44.348  23.327  33.402  1.00  0.00     0.173 A 
ATOM     87  C   UNL A   1      46.324  24.644  33.417  1.00  0.00     0.173 A 
ATOM     88  F   UNL A   1      43.132  22.983  32.965  1.00  0.00    -0.203 F 
ATOM     89  C   UNL A   1      44.993  22.374  34.196  1.00  0.00     0.198 A 
ATOM     90  C   UNL A   1      46.992  23.650  34.132  1.00  0.00     0.198 A 
ATOM     91  F   UNL A   1      47.084  25.697  33.086  1.00  0.00    -0.203 F 
ATOM     92  F   UNL A   1      44.323  21.280  34.582  1.00  0.00    -0.200 F 
ATOM     93  C   UNL A   1      46.316  22.528  34.549  1.00  0.00     0.200 A 
ATOM     94  F   UNL A   1      48.301  23.783  34.389  1.00  0.00    -0.200 F 
ATOM     95  F   UNL A   1      46.945  21.584  35.260  1.00  0.00    -0.200 F 
ENDBRANCH  62  85
ENDBRANCH  36  37
ENDBRANCH  29  31
ENDBRANCH  28  29
ENDBRANCH  27  28
ENDBRANCH   1  27
TORSDOF 16
ENDMDL
MODEL 3
REMARK VINA RESULT:     -13.3      3.606      9.798
REMARK SMILES Cc1ccccc1OCCN1C(=O)CC[C@H](C(=O)OCCOC(=O)c2ccc(-c3c4nc(c(-c5c(F)c(F)c(F)c(F)c5F)c5ccc([nH]5)c(-c5c(F)c(F)c(F)c(F)c5F)c5nc(c(-c6c(F)c(F)c(F)c(F)c6F)c6ccc3[nH]6)C=C5)C=C4)cc2)[C@@H]1c1ccco1
REMARK SMILES IDX 20 1 19 2 17 3 18 4 16 5 11 6 12 7 88 8 13 9 14 10 15 11
REMARK SMILES IDX 10 12 9 13 8 14 7 15 1 16 2 17 3 18 4 19 6 20 5 21 89 22
REMARK SMILES IDX 90 23 93 24 91 25 92 26 21 27 22 28 23 29 24 30 25 31 26 32
REMARK SMILES IDX 87 33 27 34 86 35 28 36 29 37 30 38 80 39 31 40 85 41 79 42
REMARK SMILES IDX 81 43 32 44 84 45 78 46 77 47 33 49 65 50 45 51 64 52 46 53
REMARK SMILES IDX 49 54 63 55 82 56 47 57 48 58 62 60 83 61 50 62 34 63 35 64
REMARK SMILES IDX 43 65 36 66 37 67 41 68 44 69 38 70 39 71 42 72 40 73 66 74
REMARK SMILES IDX 67 75 75 76 68 77 69 78 73 79 76 80 70 81 71 82 74 83 72 84
REMARK SMILES IDX 51 85 52 86 60 87 53 88 54 89 58 90 61 91 55 92 56 93 59 94
REMARK SMILES IDX 57 95
REMARK H PARENT 81 48 49 59
REMARK Flexibility Score: inf
ROOT
ATOM      1  C   UNL A   1      36.627  21.626  25.652  1.00  0.00     0.274 C 
ENDROOT
BRANCH   1   2
ATOM      2  O   UNL A   1      35.616  22.053  26.582  1.00  0.00    -0.462 OA
BRANCH   2   3
ATOM      3  C   UNL A   1      34.439  21.389  26.468  1.00  0.00     0.311 C 
ATOM      4  O   UNL A   1      33.766  21.057  27.435  1.00  0.00    -0.252 OA
BRANCH   3   5
ATOM      5  C   UNL A   1      33.973  21.130  25.060  1.00  0.00     0.130 C 
ATOM      6  N   UNL A   1      32.857  22.231  23.118  1.00  0.00    -0.328 N 
ATOM      7  C   UNL A   1      32.208  21.065  22.735  1.00  0.00     0.223 C 
ATOM      8  C   UNL A   1      33.304  22.405  24.506  1.00  0.00     0.166 C 
ATOM      9  O   UNL A   1      31.468  21.004  21.753  1.00  0.00    -0.275 OA
ATOM     10  C   UNL A   1      32.557  19.799  23.499  1.00  0.00     0.101 C 
ATOM     11  C   UNL A   1      33.019  19.960  24.936  1.00  0.00     0.028 C 
BRANCH   6  12
ATOM     12  C   UNL A   1      32.727  23.420  22.260  1.00  0.00     0.162 C 
BRANCH  12  13
ATOM     13  C   UNL A   1      33.603  24.643  22.612  1.00  0.00     0.251 C 
BRANCH  13  14
ATOM     14  O   UNL A   1      32.983  25.926  22.580  1.00  0.00    -0.491 OA
BRANCH  14  15
ATOM     15  C   UNL A   1      32.687  26.582  23.741  1.00  0.00     0.122 A 
ATOM     16  C   UNL A   1      30.218  27.136  23.304  1.00  0.00     0.048 C 
ATOM     17  C   UNL A   1      31.451  27.100  24.155  1.00  0.00    -0.009 A 
ATOM     18  C   UNL A   1      31.356  27.666  25.444  1.00  0.00     0.007 A 
ATOM     19  C   UNL A   1      32.474  27.792  26.268  1.00  0.00     0.001 A 
ATOM     20  C   UNL A   1      33.815  26.767  24.558  1.00  0.00     0.047 A 
ATOM     21  C   UNL A   1      33.714  27.364  25.814  1.00  0.00     0.004 A 
ENDBRANCH  14  15
ENDBRANCH  13  14
ENDBRANCH  12  13
ENDBRANCH   6  12
BRANCH   8  22
ATOM     22  C   UNL A   1      32.145  22.923  25.370  1.00  0.00     0.127 A 
ATOM     23  C   UNL A   1      30.872  22.455  25.673  1.00  0.00     0.048 A 
ATOM     24  O   UNL A   1      32.346  24.082  26.074  1.00  0.00    -0.467 OA
ATOM     25  C   UNL A   1      30.291  23.346  26.598  1.00  0.00     0.042 A 
ATOM     26  C   UNL A   1      31.232  24.320  26.811  1.00  0.00     0.195 A 
ENDBRANCH   8  22
ENDBRANCH   3   5
ENDBRANCH   2   3
ENDBRANCH   1   2
BRANCH   1  27
ATOM     27  C   UNL A   1      37.544  22.764  25.189  1.00  0.00     0.275 C 
BRANCH  27  28
ATOM     28  O   UNL A   1      38.061  23.754  26.126  1.00  0.00    -0.458 OA
BRANCH  28  29
ATOM     29  C   UNL A   1      39.231  23.619  26.791  1.00  0.00     0.338 C 
ATOM     30  O   UNL A   1      39.812  22.548  26.933  1.00  0.00    -0.246 OA
BRANCH  29  31
ATOM     31  C   UNL A   1      39.720  24.876  27.398  1.00  0.00     0.060 A 
ATOM     32  C   UNL A   1      40.326  25.866  26.595  1.00  0.00     0.016 A 
ATOM     33  C   UNL A   1      39.372  25.152  28.713  1.00  0.00     0.016 A 
ATOM     34  C   UNL A   1      40.442  27.181  27.067  1.00  0.00     0.010 A 
ATOM     35  C   UNL A   1      39.348  26.462  29.113  1.00  0.00     0.010 A 
ATOM     36  C   UNL A   1      39.894  27.487  28.315  1.00  0.00    -0.014 A 
BRANCH  36  37
ATOM     37  C   UNL A   1      39.913  28.784  28.993  1.00  0.00     0.031 A 
ATOM     38  C   UNL A   1      38.911  29.853  28.813  1.00  0.00     0.074 A 
ATOM     39  C   UNL A   1      40.841  28.823  29.975  1.00  0.00     0.049 A 
ATOM     40  N   UNL A   1      38.898  30.944  29.492  1.00  0.00    -0.248 NA
ATOM     41  C   UNL A   1      37.811  29.812  27.869  1.00  0.00     0.031 C 
ATOM     42  C   UNL A   1      41.069  29.761  31.056  1.00  0.00     0.029 A 
ATOM     43  N   UNL A   1      41.969  27.985  30.022  1.00  0.00    -0.354 N 
ATOM     44  C   UNL A   1      37.747  31.656  29.212  1.00  0.00     0.074 A 
ATOM     45  C   UNL A   1      37.084  30.892  28.194  1.00  0.00     0.031 C 
ATOM     46  C   UNL A   1      42.378  29.709  31.378  1.00  0.00     0.029 A 
ATOM     47  C   UNL A   1      43.015  28.825  30.407  1.00  0.00     0.049 A 
ATOM     48  H   UNL A   1      42.010  27.021  29.828  1.00  0.00     0.167 HD
ATOM     49  C   UNL A   1      37.522  32.782  29.948  1.00  0.00     0.037 A 
ATOM     50  C   UNL A   1      43.893  29.199  29.431  1.00  0.00     0.037 A 
ATOM     51  C   UNL A   1      38.792  33.188  30.541  1.00  0.00     0.049 A 
ATOM     52  C   UNL A   1      43.840  30.695  29.239  1.00  0.00     0.074 A 
ATOM     53  C   UNL A   1      39.385  32.964  31.769  1.00  0.00     0.029 A 
ATOM     54  N   UNL A   1      39.806  33.561  29.666  1.00  0.00    -0.354 N 
ATOM     55  N   UNL A   1      42.757  31.427  29.289  1.00  0.00    -0.248 NA
ATOM     56  C   UNL A   1      45.063  31.475  29.145  1.00  0.00     0.031 C 
ATOM     57  C   UNL A   1      40.790  33.108  31.593  1.00  0.00     0.029 A 
ATOM     58  C   UNL A   1      41.039  33.450  30.271  1.00  0.00     0.049 A 
ATOM     59  H   UNL A   1      39.663  33.862  28.740  1.00  0.00     0.167 HD
ATOM     60  C   UNL A   1      43.128  32.753  29.341  1.00  0.00     0.074 A 
ATOM     61  C   UNL A   1      44.576  32.721  29.236  1.00  0.00     0.031 C 
ATOM     62  C   UNL A   1      42.253  33.790  29.544  1.00  0.00     0.037 A 
BRANCH  49  63
ATOM     63  C   UNL A   1      36.210  33.471  30.264  1.00  0.00     0.064 A 
ATOM     64  C   UNL A   1      35.450  34.036  29.207  1.00  0.00     0.173 A 
ATOM     65  C   UNL A   1      35.689  33.714  31.546  1.00  0.00     0.173 A 
ATOM     66  F   UNL A   1      35.811  33.882  27.925  1.00  0.00    -0.203 F 
ATOM     67  C   UNL A   1      34.305  34.811  29.419  1.00  0.00     0.198 A 
ATOM     68  C   UNL A   1      34.538  34.492  31.759  1.00  0.00     0.198 A 
ATOM     69  F   UNL A   1      36.261  33.211  32.644  1.00  0.00    -0.203 F 
ATOM     70  F   UNL A   1      33.659  35.346  28.372  1.00  0.00    -0.200 F 
ATOM     71  C   UNL A   1      33.854  35.049  30.698  1.00  0.00     0.200 A 
ATOM     72  F   UNL A   1      34.108  34.712  33.010  1.00  0.00    -0.200 F 
ATOM     73  F   UNL A   1      32.772  35.812  30.906  1.00  0.00    -0.200 F 
ENDBRANCH  49  63
BRANCH  50  74
ATOM     74  C   UNL A   1      44.085  28.152  28.363  1.00  0.00     0.064 A 
ATOM     75  C   UNL A   1      43.495  28.378  27.093  1.00  0.00     0.173 A 
ATOM     76  C   UNL A   1      45.055  27.145  28.425  1.00  0.00     0.173 A 
ATOM     77  F   UNL A   1      42.548  29.321  26.952  1.00  0.00    -0.203 F 
ATOM     78  C   UNL A   1      43.951  27.742  25.936  1.00  0.00     0.198 A 
ATOM     79  C   UNL A   1      45.481  26.475  27.266  1.00  0.00     0.198 A 
ATOM     80  F   UNL A   1      45.664  26.856  29.584  1.00  0.00    -0.203 F 
ATOM     81  F   UNL A   1      43.463  28.099  24.739  1.00  0.00    -0.200 F 
ATOM     82  C   UNL A   1      44.958  26.801  26.022  1.00  0.00     0.200 A 
ATOM     83  F   UNL A   1      46.470  25.570  27.341  1.00  0.00    -0.200 F 
ATOM     84  F   UNL A   1      45.451  26.240  24.908  1.00  0.00    -0.200 F 
ENDBRANCH  50  74
BRANCH  62  85
ATOM     85  C   UNL A   1      42.500  35.253  29.198  1.00  0.00     0.064 A 
ATOM     86  C   UNL A   1      41.893  35.929  28.128  1.00  0.00     0.173 A 
ATOM     87  C   UNL A   1      43.270  36.086  30.056  1.00  0.00     0.173 A 
ATOM     88  F   UNL A   1      40.998  35.337  27.331  1.00  0.00    -0.203 F 
ATOM     89  C   UNL A   1      42.124  37.283  27.868  1.00  0.00     0.198 A 
ATOM     90  C   UNL A   1      43.425  37.456  29.844  1.00  0.00     0.198 A 
ATOM     91  F   UNL A   1      43.866  35.623  31.163  1.00  0.00    -0.203 F 
ATOM     92  F   UNL A   1      41.571  37.847  26.786  1.00  0.00    -0.200 F 
ATOM     93  C   UNL A   1      42.877  38.049  28.732  1.00  0.00     0.200 A 
ATOM     94  F   UNL A   1      44.088  38.195  30.744  1.00  0.00    -0.200 F 
ATOM     95  F   UNL A   1      43.046  39.359  28.509  1.00  0.00    -0.200 F 
ENDBRANCH  62  85
ENDBRANCH  36  37
ENDBRANCH  29  31
ENDBRANCH  28  29
ENDBRANCH  27  28
ENDBRANCH   1  27
TORSDOF 16
ENDMDL
