MODEL 1
REMARK VINA RESULT:     -12.3      0.000      0.000
REMARK SMILES C[C@H](C(=O)OCCOC(=O)c1ccc(-c2c3nc(c(-c4c(F)c(F)c(F)c(F)c4F)c4ccc([nH]4)c(-c4c(F)c(F)c(F)c(F)c4F)c4nc(c(-c5c(F)c(F)c(F)c(F)c5F)c5ccc2[nH]5)C=C4)C=C3)cc1)c1ccc(C[C@H]2CCC[C@@H]2O)cc1
REMARK SMILES IDX 6 1 5 2 3 3 4 4 2 5 1 6 74 7 75 8 86 9 76 10 85 11 77 12
REMARK SMILES IDX 78 13 79 14 80 15 83 16 81 17 82 18 84 19 7 21 8 22 9 23
REMARK SMILES IDX 10 24 11 25 12 26 73 27 13 28 72 29 14 30 15 31 16 32 66 33
REMARK SMILES IDX 17 34 71 35 65 36 67 37 18 38 70 39 64 40 63 41 19 43 51 44
REMARK SMILES IDX 31 45 50 46 32 47 35 48 49 49 68 50 33 51 34 52 48 54 69 55
REMARK SMILES IDX 36 56 20 57 21 58 29 59 22 60 23 61 27 62 30 63 24 64 25 65
REMARK SMILES IDX 28 66 26 67 52 68 53 69 61 70 54 71 55 72 59 73 62 74 56 75
REMARK SMILES IDX 57 76 60 77 58 78 37 79 38 80 46 81 39 82 40 83 44 84 47 85
REMARK SMILES IDX 41 86 42 87 45 88 43 89
REMARK H PARENT 84 20 67 42 35 53
REMARK Flexibility Score: inf
ROOT
ATOM      1  C   UNL A   1      31.478  28.443  25.511  1.00  0.00     0.274 C 
ENDROOT
BRANCH   1   2
ATOM      2  O   UNL A   1      31.775  28.067  24.148  1.00  0.00    -0.462 OA
BRANCH   2   3
ATOM      3  C   UNL A   1      30.821  27.366  23.469  1.00  0.00     0.313 C 
ATOM      4  O   UNL A   1      30.618  27.453  22.263  1.00  0.00    -0.252 OA
BRANCH   3   5
ATOM      5  C   UNL A   1      30.059  26.396  24.373  1.00  0.00     0.126 C 
ATOM      6  C   UNL A   1      28.598  26.373  23.893  1.00  0.00     0.025 C 
BRANCH   5   7
ATOM      7  C   UNL A   1      30.673  25.006  24.499  1.00  0.00    -0.034 A 
ATOM      8  C   UNL A   1      30.695  24.304  25.712  1.00  0.00     0.005 A 
ATOM      9  C   UNL A   1      31.200  24.367  23.366  1.00  0.00     0.005 A 
ATOM     10  C   UNL A   1      31.380  23.095  25.822  1.00  0.00     0.004 A 
ATOM     11  C   UNL A   1      31.901  23.169  23.477  1.00  0.00     0.004 A 
ATOM     12  C   UNL A   1      32.057  22.562  24.723  1.00  0.00    -0.048 A 
BRANCH  12  13
ATOM     13  C   UNL A   1      33.009  21.405  24.890  1.00  0.00     0.041 C 
BRANCH  13  14
ATOM     14  C   UNL A   1      32.397  20.023  24.592  1.00  0.00     0.022 C 
ATOM     15  C   UNL A   1      32.337  19.600  23.114  1.00  0.00     0.007 C 
ATOM     16  C   UNL A   1      33.078  18.835  25.274  1.00  0.00     0.117 C 
ATOM     17  C   UNL A   1      32.419  18.068  23.112  1.00  0.00     0.003 C 
ATOM     18  C   UNL A   1      32.437  17.645  24.574  1.00  0.00     0.032 C 
BRANCH  16  19
ATOM     19  O   UNL A   1      32.826  18.828  26.665  1.00  0.00    -0.393 OA
ATOM     20  H   UNL A   1      33.065  19.690  27.041  1.00  0.00     0.210 HD
ENDBRANCH  16  19
ENDBRANCH  13  14
ENDBRANCH  12  13
ENDBRANCH   5   7
ENDBRANCH   3   5
ENDBRANCH   2   3
ENDBRANCH   1   2
BRANCH   1  21
ATOM     21  C   UNL A   1      31.630  29.952  25.673  1.00  0.00     0.275 C 
BRANCH  21  22
ATOM     22  O   UNL A   1      33.011  30.228  25.949  1.00  0.00    -0.458 OA
BRANCH  22  23
ATOM     23  C   UNL A   1      33.253  31.170  26.888  1.00  0.00     0.338 C 
ATOM     24  O   UNL A   1      32.526  32.086  27.225  1.00  0.00    -0.246 OA
BRANCH  23  25
ATOM     25  C   UNL A   1      34.568  30.900  27.505  1.00  0.00     0.060 A 
ATOM     26  C   UNL A   1      34.922  29.600  27.870  1.00  0.00     0.016 A 
ATOM     27  C   UNL A   1      35.414  31.962  27.816  1.00  0.00     0.016 A 
ATOM     28  C   UNL A   1      36.062  29.370  28.636  1.00  0.00     0.010 A 
ATOM     29  C   UNL A   1      36.619  31.713  28.482  1.00  0.00     0.010 A 
ATOM     30  C   UNL A   1      36.941  30.419  28.931  1.00  0.00    -0.014 A 
BRANCH  30  31
ATOM     31  C   UNL A   1      38.177  30.182  29.728  1.00  0.00     0.031 A 
ATOM     32  C   UNL A   1      39.286  29.336  29.161  1.00  0.00     0.074 A 
ATOM     33  C   UNL A   1      38.311  30.708  30.962  1.00  0.00     0.049 A 
ATOM     34  N   UNL A   1      40.316  28.802  29.768  1.00  0.00    -0.248 NA
ATOM     35  C   UNL A   1      39.217  29.035  27.722  1.00  0.00     0.031 C 
ATOM     36  C   UNL A   1      37.348  31.591  31.621  1.00  0.00     0.029 A 
ATOM     37  N   UNL A   1      39.317  30.571  31.887  1.00  0.00    -0.354 N 
ATOM     38  C   UNL A   1      40.970  28.043  28.806  1.00  0.00     0.074 A 
ATOM     39  C   UNL A   1      40.232  28.197  27.570  1.00  0.00     0.031 C 
ATOM     40  C   UNL A   1      37.824  31.947  32.822  1.00  0.00     0.029 A 
ATOM     41  C   UNL A   1      39.077  31.240  33.062  1.00  0.00     0.049 A 
ATOM     42  H   UNL A   1      40.133  30.045  31.723  1.00  0.00     0.167 HD
ATOM     43  C   UNL A   1      42.080  27.280  28.948  1.00  0.00     0.037 A 
ATOM     44  C   UNL A   1      39.756  31.244  34.224  1.00  0.00     0.037 A 
ATOM     45  C   UNL A   1      42.852  27.190  30.160  1.00  0.00     0.049 A 
ATOM     46  C   UNL A   1      40.978  30.383  34.361  1.00  0.00     0.074 A 
ATOM     47  C   UNL A   1      44.006  26.463  30.398  1.00  0.00     0.029 A 
ATOM     48  N   UNL A   1      42.559  27.871  31.332  1.00  0.00    -0.354 N 
ATOM     49  N   UNL A   1      41.543  29.604  33.474  1.00  0.00    -0.248 NA
ATOM     50  C   UNL A   1      41.639  30.380  35.674  1.00  0.00     0.031 C 
ATOM     51  C   UNL A   1      44.398  26.685  31.723  1.00  0.00     0.029 A 
ATOM     52  C   UNL A   1      43.507  27.576  32.299  1.00  0.00     0.049 A 
ATOM     53  H   UNL A   1      41.792  28.474  31.458  1.00  0.00     0.167 HD
ATOM     54  C   UNL A   1      42.628  29.021  34.114  1.00  0.00     0.074 A 
ATOM     55  C   UNL A   1      42.654  29.553  35.461  1.00  0.00     0.031 C 
ATOM     56  C   UNL A   1      43.516  28.119  33.632  1.00  0.00     0.037 A 
BRANCH  43  57
ATOM     57  C   UNL A   1      42.509  26.448  27.776  1.00  0.00     0.064 A 
ATOM     58  C   UNL A   1      41.991  25.167  27.542  1.00  0.00     0.173 A 
ATOM     59  C   UNL A   1      43.427  26.966  26.848  1.00  0.00     0.173 A 
ATOM     60  F   UNL A   1      41.123  24.622  28.407  1.00  0.00    -0.203 F 
ATOM     61  C   UNL A   1      42.393  24.425  26.433  1.00  0.00     0.198 A 
ATOM     62  C   UNL A   1      43.807  26.232  25.728  1.00  0.00     0.198 A 
ATOM     63  F   UNL A   1      43.948  28.190  27.024  1.00  0.00    -0.203 F 
ATOM     64  F   UNL A   1      41.915  23.187  26.249  1.00  0.00    -0.200 F 
ATOM     65  C   UNL A   1      43.294  24.961  25.523  1.00  0.00     0.200 A 
ATOM     66  F   UNL A   1      44.670  26.756  24.846  1.00  0.00    -0.200 F 
ATOM     67  F   UNL A   1      43.673  24.249  24.453  1.00  0.00    -0.200 F 
ENDBRANCH  43  57
BRANCH  44  68
ATOM     68  C   UNL A   1      39.262  32.060  35.363  1.00  0.00     0.064 A 
ATOM     69  C   UNL A   1      38.457  31.489  36.358  1.00  0.00     0.173 A 
ATOM     70  C   UNL A   1      39.598  33.416  35.491  1.00  0.00     0.173 A 
ATOM     71  F   UNL A   1      38.087  30.204  36.263  1.00  0.00    -0.203 F 
ATOM     72  C   UNL A   1      38.003  32.245  37.436  1.00  0.00     0.198 A 
ATOM     73  C   UNL A   1      39.168  34.163  36.585  1.00  0.00     0.198 A 
ATOM     74  F   UNL A   1      40.365  34.008  34.564  1.00  0.00    -0.203 F 
ATOM     75  F   UNL A   1      37.208  31.685  38.357  1.00  0.00    -0.200 F 
ATOM     76  C   UNL A   1      38.368  33.579  37.554  1.00  0.00     0.200 A 
ATOM     77  F   UNL A   1      39.534  35.447  36.702  1.00  0.00    -0.200 F 
ATOM     78  F   UNL A   1      37.942  34.302  38.599  1.00  0.00    -0.200 F 
ENDBRANCH  44  68
BRANCH  56  79
ATOM     79  C   UNL A   1      44.602  27.673  34.562  1.00  0.00     0.064 A 
ATOM     80  C   UNL A   1      45.808  28.382  34.669  1.00  0.00     0.173 A 
ATOM     81  C   UNL A   1      44.425  26.542  35.372  1.00  0.00     0.173 A 
ATOM     82  F   UNL A   1      46.027  29.459  33.900  1.00  0.00    -0.203 F 
ATOM     83  C   UNL A   1      46.807  27.961  35.541  1.00  0.00     0.198 A 
ATOM     84  C   UNL A   1      45.418  26.137  36.259  1.00  0.00     0.198 A 
ATOM     85  F   UNL A   1      43.287  25.835  35.306  1.00  0.00    -0.203 F 
ATOM     86  F   UNL A   1      47.968  28.628  35.600  1.00  0.00    -0.200 F 
ATOM     87  C   UNL A   1      46.609  26.843  36.339  1.00  0.00     0.200 A 
ATOM     88  F   UNL A   1      45.224  25.062  37.034  1.00  0.00    -0.200 F 
ATOM     89  F   UNL A   1      47.573  26.440  37.179  1.00  0.00    -0.200 F 
ENDBRANCH  56  79
ENDBRANCH  30  31
ENDBRANCH  23  25
ENDBRANCH  22  23
ENDBRANCH  21  22
ENDBRANCH   1  21
TORSDOF 15
ENDMDL
MODEL 2
REMARK VINA RESULT:     -12.3      4.650     10.287
REMARK SMILES C[C@H](C(=O)OCCOC(=O)c1ccc(-c2c3nc(c(-c4c(F)c(F)c(F)c(F)c4F)c4ccc([nH]4)c(-c4c(F)c(F)c(F)c(F)c4F)c4nc(c(-c5c(F)c(F)c(F)c(F)c5F)c5ccc2[nH]5)C=C4)C=C3)cc1)c1ccc(C[C@H]2CCC[C@@H]2O)cc1
REMARK SMILES IDX 6 1 5 2 3 3 4 4 2 5 1 6 74 7 75 8 86 9 76 10 85 11 77 12
REMARK SMILES IDX 78 13 79 14 80 15 83 16 81 17 82 18 84 19 7 21 8 22 9 23
REMARK SMILES IDX 10 24 11 25 12 26 73 27 13 28 72 29 14 30 15 31 16 32 66 33
REMARK SMILES IDX 17 34 71 35 65 36 67 37 18 38 70 39 64 40 63 41 19 43 51 44
REMARK SMILES IDX 31 45 50 46 32 47 35 48 49 49 68 50 33 51 34 52 48 54 69 55
REMARK SMILES IDX 36 56 20 57 21 58 29 59 22 60 23 61 27 62 30 63 24 64 25 65
REMARK SMILES IDX 28 66 26 67 52 68 53 69 61 70 54 71 55 72 59 73 62 74 56 75
REMARK SMILES IDX 57 76 60 77 58 78 37 79 38 80 46 81 39 82 40 83 44 84 47 85
REMARK SMILES IDX 41 86 42 87 45 88 43 89
REMARK H PARENT 84 20 67 42 35 53
REMARK Flexibility Score: inf
ROOT
ATOM      1  C   UNL A   1      34.015  35.358  29.858  1.00  0.00     0.274 C 
ENDROOT
BRANCH   1   2
ATOM      2  O   UNL A   1      33.500  34.509  30.908  1.00  0.00    -0.462 OA
BRANCH   2   3
ATOM      3  C   UNL A   1      34.408  33.915  31.735  1.00  0.00     0.313 C 
ATOM      4  O   UNL A   1      34.602  32.706  31.806  1.00  0.00    -0.252 OA
BRANCH   3   5
ATOM      5  C   UNL A   1      35.218  34.935  32.538  1.00  0.00     0.126 C 
ATOM      6  C   UNL A   1      34.696  34.903  33.983  1.00  0.00     0.025 C 
BRANCH   5   7
ATOM      7  C   UNL A   1      36.732  34.783  32.441  1.00  0.00    -0.034 A 
ATOM      8  C   UNL A   1      37.389  34.587  31.218  1.00  0.00     0.005 A 
ATOM      9  C   UNL A   1      37.522  34.884  33.596  1.00  0.00     0.005 A 
ATOM     10  C   UNL A   1      38.756  34.320  31.180  1.00  0.00     0.004 A 
ATOM     11  C   UNL A   1      38.884  34.600  33.563  1.00  0.00     0.004 A 
ATOM     12  C   UNL A   1      39.497  34.244  32.361  1.00  0.00    -0.048 A 
BRANCH  12  13
ATOM     13  C   UNL A   1      40.904  33.705  32.357  1.00  0.00     0.041 C 
BRANCH  13  14
ATOM     14  C   UNL A   1      41.400  33.215  30.982  1.00  0.00     0.022 C 
ATOM     15  C   UNL A   1      42.034  34.272  30.063  1.00  0.00     0.007 C 
ATOM     16  C   UNL A   1      42.445  32.099  31.013  1.00  0.00     0.117 C 
ATOM     17  C   UNL A   1      43.046  33.518  29.191  1.00  0.00     0.003 C 
ATOM     18  C   UNL A   1      42.912  32.049  29.566  1.00  0.00     0.032 C 
BRANCH  16  19
ATOM     19  O   UNL A   1      41.875  30.872  31.427  1.00  0.00    -0.393 OA
ATOM     20  H   UNL A   1      40.955  30.824  31.121  1.00  0.00     0.210 HD
ENDBRANCH  16  19
ENDBRANCH  13  14
ENDBRANCH  12  13
ENDBRANCH   5   7
ENDBRANCH   3   5
ENDBRANCH   2   3
ENDBRANCH   1   2
BRANCH   1  21
ATOM     21  C   UNL A   1      33.274  35.071  28.556  1.00  0.00     0.275 C 
BRANCH  21  22
ATOM     22  O   UNL A   1      34.131  34.271  27.729  1.00  0.00    -0.458 OA
BRANCH  22  23
ATOM     23  C   UNL A   1      33.852  32.950  27.686  1.00  0.00     0.338 C 
ATOM     24  O   UNL A   1      32.855  32.416  27.235  1.00  0.00    -0.246 OA
BRANCH  23  25
ATOM     25  C   UNL A   1      34.993  32.202  28.254  1.00  0.00     0.060 A 
ATOM     26  C   UNL A   1      34.811  30.915  28.762  1.00  0.00     0.016 A 
ATOM     27  C   UNL A   1      36.233  32.826  28.376  1.00  0.00     0.016 A 
ATOM     28  C   UNL A   1      35.826  30.292  29.482  1.00  0.00     0.010 A 
ATOM     29  C   UNL A   1      37.288  32.149  28.996  1.00  0.00     0.010 A 
ATOM     30  C   UNL A   1      37.088  30.889  29.588  1.00  0.00    -0.014 A 
BRANCH  30  31
ATOM     31  C   UNL A   1      38.191  30.221  30.334  1.00  0.00     0.031 A 
ATOM     32  C   UNL A   1      38.381  30.497  31.801  1.00  0.00     0.074 A 
ATOM     33  C   UNL A   1      39.034  29.377  29.706  1.00  0.00     0.049 A 
ATOM     34  N   UNL A   1      39.406  30.230  32.571  1.00  0.00    -0.248 NA
ATOM     35  C   UNL A   1      37.278  31.184  32.492  1.00  0.00     0.031 C 
ATOM     36  C   UNL A   1      38.943  28.969  28.303  1.00  0.00     0.029 A 
ATOM     37  N   UNL A   1      40.141  28.709  30.170  1.00  0.00    -0.354 N 
ATOM     38  C   UNL A   1      39.103  30.781  33.810  1.00  0.00     0.074 A 
ATOM     39  C   UNL A   1      37.793  31.385  33.696  1.00  0.00     0.031 C 
ATOM     40  C   UNL A   1      39.923  28.096  28.031  1.00  0.00     0.029 A 
ATOM     41  C   UNL A   1      40.772  27.958  29.208  1.00  0.00     0.049 A 
ATOM     42  H   UNL A   1      40.452  28.763  31.102  1.00  0.00     0.167 HD
ATOM     43  C   UNL A   1      39.858  30.789  34.934  1.00  0.00     0.037 A 
ATOM     44  C   UNL A   1      41.932  27.277  29.249  1.00  0.00     0.037 A 
ATOM     45  C   UNL A   1      41.129  30.123  35.062  1.00  0.00     0.049 A 
ATOM     46  C   UNL A   1      42.757  27.308  30.503  1.00  0.00     0.074 A 
ATOM     47  C   UNL A   1      41.960  30.052  36.167  1.00  0.00     0.029 A 
ATOM     48  N   UNL A   1      41.738  29.390  34.056  1.00  0.00    -0.354 N 
ATOM     49  N   UNL A   1      42.504  27.901  31.643  1.00  0.00    -0.248 NA
ATOM     50  C   UNL A   1      44.044  26.601  30.464  1.00  0.00     0.031 C 
ATOM     51  C   UNL A   1      43.086  29.296  35.820  1.00  0.00     0.029 A 
ATOM     52  C   UNL A   1      42.939  28.868  34.511  1.00  0.00     0.049 A 
ATOM     53  H   UNL A   1      41.372  29.259  33.151  1.00  0.00     0.167 HD
ATOM     54  C   UNL A   1      43.594  27.635  32.460  1.00  0.00     0.074 A 
ATOM     55  C   UNL A   1      44.503  26.810  31.691  1.00  0.00     0.031 C 
ATOM     56  C   UNL A   1      43.826  28.047  33.730  1.00  0.00     0.037 A 
BRANCH  43  57
ATOM     57  C   UNL A   1      39.353  31.575  36.107  1.00  0.00     0.064 A 
ATOM     58  C   UNL A   1      38.325  31.101  36.934  1.00  0.00     0.173 A 
ATOM     59  C   UNL A   1      39.941  32.808  36.430  1.00  0.00     0.173 A 
ATOM     60  F   UNL A   1      37.721  29.936  36.659  1.00  0.00    -0.203 F 
ATOM     61  C   UNL A   1      37.890  31.844  38.030  1.00  0.00     0.198 A 
ATOM     62  C   UNL A   1      39.520  33.536  37.540  1.00  0.00     0.198 A 
ATOM     63  F   UNL A   1      40.932  33.303  35.672  1.00  0.00    -0.203 F 
ATOM     64  F   UNL A   1      36.879  31.391  38.784  1.00  0.00    -0.200 F 
ATOM     65  C   UNL A   1      38.492  33.056  38.336  1.00  0.00     0.200 A 
ATOM     66  F   UNL A   1      40.111  34.702  37.839  1.00  0.00    -0.200 F 
ATOM     67  F   UNL A   1      38.077  33.765  39.394  1.00  0.00    -0.200 F 
ENDBRANCH  43  57
BRANCH  44  68
ATOM     68  C   UNL A   1      42.401  26.547  28.042  1.00  0.00     0.064 A 
ATOM     69  C   UNL A   1      42.017  25.219  27.814  1.00  0.00     0.173 A 
ATOM     70  C   UNL A   1      43.223  27.164  27.089  1.00  0.00     0.173 A 
ATOM     71  F   UNL A   1      41.253  24.579  28.712  1.00  0.00    -0.203 F 
ATOM     72  C   UNL A   1      42.440  24.535  26.677  1.00  0.00     0.198 A 
ATOM     73  C   UNL A   1      43.623  26.488  25.939  1.00  0.00     0.198 A 
ATOM     74  F   UNL A   1      43.620  28.434  27.264  1.00  0.00    -0.203 F 
ATOM     75  F   UNL A   1      42.086  23.255  26.497  1.00  0.00    -0.200 F 
ATOM     76  C   UNL A   1      43.235  25.173  25.735  1.00  0.00     0.200 A 
ATOM     77  F   UNL A   1      44.379  27.113  25.026  1.00  0.00    -0.200 F 
ATOM     78  F   UNL A   1      43.632  24.518  24.636  1.00  0.00    -0.200 F 
ENDBRANCH  44  68
BRANCH  56  79
ATOM     79  C   UNL A   1      45.099  27.587  34.371  1.00  0.00     0.064 A 
ATOM     80  C   UNL A   1      46.270  28.357  34.303  1.00  0.00     0.173 A 
ATOM     81  C   UNL A   1      45.141  26.379  35.081  1.00  0.00     0.173 A 
ATOM     82  F   UNL A   1      46.279  29.511  33.618  1.00  0.00    -0.203 F 
ATOM     83  C   UNL A   1      47.445  27.922  34.908  1.00  0.00     0.198 A 
ATOM     84  C   UNL A   1      46.312  25.958  35.703  1.00  0.00     0.198 A 
ATOM     85  F   UNL A   1      44.046  25.612  35.176  1.00  0.00    -0.203 F 
ATOM     86  F   UNL A   1      48.563  28.651  34.798  1.00  0.00    -0.200 F 
ATOM     87  C   UNL A   1      47.464  26.726  35.612  1.00  0.00     0.200 A 
ATOM     88  F   UNL A   1      46.329  24.807  36.389  1.00  0.00    -0.200 F 
ATOM     89  F   UNL A   1      48.596  26.309  36.194  1.00  0.00    -0.200 F 
ENDBRANCH  56  79
ENDBRANCH  30  31
ENDBRANCH  23  25
ENDBRANCH  22  23
ENDBRANCH  21  22
ENDBRANCH   1  21
TORSDOF 15
ENDMDL
MODEL 3
REMARK VINA RESULT:     -12.1      1.182      2.172
REMARK SMILES C[C@H](C(=O)OCCOC(=O)c1ccc(-c2c3nc(c(-c4c(F)c(F)c(F)c(F)c4F)c4ccc([nH]4)c(-c4c(F)c(F)c(F)c(F)c4F)c4nc(c(-c5c(F)c(F)c(F)c(F)c5F)c5ccc2[nH]5)C=C4)C=C3)cc1)c1ccc(C[C@H]2CCC[C@@H]2O)cc1
REMARK SMILES IDX 6 1 5 2 3 3 4 4 2 5 1 6 74 7 75 8 86 9 76 10 85 11 77 12
REMARK SMILES IDX 78 13 79 14 80 15 83 16 81 17 82 18 84 19 7 21 8 22 9 23
REMARK SMILES IDX 10 24 11 25 12 26 73 27 13 28 72 29 14 30 15 31 16 32 66 33
REMARK SMILES IDX 17 34 71 35 65 36 67 37 18 38 70 39 64 40 63 41 19 43 51 44
REMARK SMILES IDX 31 45 50 46 32 47 35 48 49 49 68 50 33 51 34 52 48 54 69 55
REMARK SMILES IDX 36 56 20 57 21 58 29 59 22 60 23 61 27 62 30 63 24 64 25 65
REMARK SMILES IDX 28 66 26 67 52 68 53 69 61 70 54 71 55 72 59 73 62 74 56 75
REMARK SMILES IDX 57 76 60 77 58 78 37 79 38 80 46 81 39 82 40 83 44 84 47 85
REMARK SMILES IDX 41 86 42 87 45 88 43 89
REMARK H PARENT 84 20 67 42 35 53
REMARK Flexibility Score: inf
ROOT
ATOM      1  C   UNL A   1      31.865  28.395  27.287  1.00  0.00     0.274 C 
ENDROOT
BRANCH   1   2
ATOM      2  O   UNL A   1      32.701  27.408  26.642  1.00  0.00    -0.462 OA
BRANCH   2   3
ATOM      3  C   UNL A   1      32.079  26.336  26.072  1.00  0.00     0.313 C 
ATOM      4  O   UNL A   1      31.055  25.814  26.500  1.00  0.00    -0.252 OA
BRANCH   3   5
ATOM      5  C   UNL A   1      32.768  25.881  24.785  1.00  0.00     0.126 C 
ATOM      6  C   UNL A   1      33.638  27.049  24.291  1.00  0.00     0.025 C 
BRANCH   5   7
ATOM      7  C   UNL A   1      33.528  24.564  24.885  1.00  0.00    -0.034 A 
ATOM      8  C   UNL A   1      33.797  23.766  23.765  1.00  0.00     0.005 A 
ATOM      9  C   UNL A   1      34.028  24.136  26.125  1.00  0.00     0.005 A 
ATOM     10  C   UNL A   1      34.378  22.507  23.910  1.00  0.00     0.004 A 
ATOM     11  C   UNL A   1      34.590  22.871  26.276  1.00  0.00     0.004 A 
ATOM     12  C   UNL A   1      34.702  22.018  25.178  1.00  0.00    -0.048 A 
BRANCH  12  13
ATOM     13  C   UNL A   1      35.083  20.574  25.374  1.00  0.00     0.041 C 
BRANCH  13  14
ATOM     14  C   UNL A   1      34.188  19.567  24.627  1.00  0.00     0.022 C 
ATOM     15  C   UNL A   1      34.830  18.221  24.251  1.00  0.00     0.007 C 
ATOM     16  C   UNL A   1      32.903  19.157  25.349  1.00  0.00     0.117 C 
ATOM     17  C   UNL A   1      33.685  17.200  24.230  1.00  0.00     0.003 C 
ATOM     18  C   UNL A   1      32.413  17.989  24.507  1.00  0.00     0.032 C 
BRANCH  16  19
ATOM     19  O   UNL A   1      31.968  20.218  25.376  1.00  0.00    -0.393 OA
ATOM     20  H   UNL A   1      31.679  20.417  24.472  1.00  0.00     0.210 HD
ENDBRANCH  16  19
ENDBRANCH  13  14
ENDBRANCH  12  13
ENDBRANCH   5   7
ENDBRANCH   3   5
ENDBRANCH   2   3
ENDBRANCH   1   2
BRANCH   1  21
ATOM     21  C   UNL A   1      31.778  29.643  26.415  1.00  0.00     0.275 C 
BRANCH  21  22
ATOM     22  O   UNL A   1      33.109  30.148  26.236  1.00  0.00    -0.458 OA
BRANCH  22  23
ATOM     23  C   UNL A   1      33.462  31.187  27.024  1.00  0.00     0.338 C 
ATOM     24  O   UNL A   1      32.823  32.198  27.251  1.00  0.00    -0.246 OA
BRANCH  23  25
ATOM     25  C   UNL A   1      34.779  30.899  27.631  1.00  0.00     0.060 A 
ATOM     26  C   UNL A   1      35.146  29.586  27.928  1.00  0.00     0.016 A 
ATOM     27  C   UNL A   1      35.613  31.952  28.001  1.00  0.00     0.016 A 
ATOM     28  C   UNL A   1      36.286  29.328  28.684  1.00  0.00     0.010 A 
ATOM     29  C   UNL A   1      36.818  31.681  28.657  1.00  0.00     0.010 A 
ATOM     30  C   UNL A   1      37.153  30.369  29.038  1.00  0.00    -0.014 A 
BRANCH  30  31
ATOM     31  C   UNL A   1      38.389  30.104  29.825  1.00  0.00     0.031 A 
ATOM     32  C   UNL A   1      39.481  29.247  29.243  1.00  0.00     0.074 A 
ATOM     33  C   UNL A   1      38.538  30.612  31.064  1.00  0.00     0.049 A 
ATOM     34  N   UNL A   1      40.506  28.689  29.838  1.00  0.00    -0.248 NA
ATOM     35  C   UNL A   1      39.400  28.964  27.801  1.00  0.00     0.031 C 
ATOM     36  C   UNL A   1      37.592  31.503  31.738  1.00  0.00     0.029 A 
ATOM     37  N   UNL A   1      39.546  30.449  31.982  1.00  0.00    -0.354 N 
ATOM     38  C   UNL A   1      41.143  27.931  28.864  1.00  0.00     0.074 A 
ATOM     39  C   UNL A   1      40.401  28.111  27.634  1.00  0.00     0.031 C 
ATOM     40  C   UNL A   1      38.080  31.838  32.941  1.00  0.00     0.029 A 
ATOM     41  C   UNL A   1      39.322  31.108  33.167  1.00  0.00     0.049 A 
ATOM     42  H   UNL A   1      40.352  29.913  31.808  1.00  0.00     0.167 HD
ATOM     43  C   UNL A   1      42.242  27.149  28.991  1.00  0.00     0.037 A 
ATOM     44  C   UNL A   1      40.007  31.088  34.325  1.00  0.00     0.037 A 
ATOM     45  C   UNL A   1      43.018  27.033  30.198  1.00  0.00     0.049 A 
ATOM     46  C   UNL A   1      41.216  30.206  34.446  1.00  0.00     0.074 A 
ATOM     47  C   UNL A   1      44.161  26.285  30.422  1.00  0.00     0.029 A 
ATOM     48  N   UNL A   1      42.742  27.705  31.379  1.00  0.00    -0.354 N 
ATOM     49  N   UNL A   1      41.765  29.429  33.546  1.00  0.00    -0.248 NA
ATOM     50  C   UNL A   1      41.884  30.177  35.755  1.00  0.00     0.031 C 
ATOM     51  C   UNL A   1      44.563  26.486  31.747  1.00  0.00     0.029 A 
ATOM     52  C   UNL A   1      43.690  27.384  32.338  1.00  0.00     0.049 A 
ATOM     53  H   UNL A   1      41.985  28.319  31.517  1.00  0.00     0.167 HD
ATOM     54  C   UNL A   1      42.843  28.821  34.175  1.00  0.00     0.074 A 
ATOM     55  C   UNL A   1      42.884  29.337  35.527  1.00  0.00     0.031 C 
ATOM     56  C   UNL A   1      43.714  27.911  33.678  1.00  0.00     0.037 A 
BRANCH  43  57
ATOM     57  C   UNL A   1      42.651  26.325  27.807  1.00  0.00     0.064 A 
ATOM     58  C   UNL A   1      43.637  26.751  26.907  1.00  0.00     0.173 A 
ATOM     59  C   UNL A   1      42.070  25.064  27.597  1.00  0.00     0.173 A 
ATOM     60  F   UNL A   1      44.211  27.954  27.056  1.00  0.00    -0.203 F 
ATOM     61  C   UNL A   1      44.012  25.954  25.827  1.00  0.00     0.198 A 
ATOM     62  C   UNL A   1      42.464  24.260  26.532  1.00  0.00     0.198 A 
ATOM     63  F   UNL A   1      41.124  24.608  28.433  1.00  0.00    -0.203 F 
ATOM     64  F   UNL A   1      44.929  26.398  24.957  1.00  0.00    -0.200 F 
ATOM     65  C   UNL A   1      43.430  24.707  25.645  1.00  0.00     0.200 A 
ATOM     66  F   UNL A   1      41.908  23.052  26.363  1.00  0.00    -0.200 F 
ATOM     67  F   UNL A   1      43.798  23.940  24.610  1.00  0.00    -0.200 F 
ENDBRANCH  43  57
BRANCH  44  68
ATOM     68  C   UNL A   1      39.532  31.898  35.476  1.00  0.00     0.064 A 
ATOM     69  C   UNL A   1      39.982  33.212  35.662  1.00  0.00     0.173 A 
ATOM     70  C   UNL A   1      38.610  31.385  36.400  1.00  0.00     0.173 A 
ATOM     71  F   UNL A   1      40.885  33.736  34.821  1.00  0.00    -0.203 F 
ATOM     72  C   UNL A   1      39.528  33.982  36.732  1.00  0.00     0.198 A 
ATOM     73  C   UNL A   1      38.136  32.165  37.452  1.00  0.00     0.198 A 
ATOM     74  F   UNL A   1      38.152  30.131  36.266  1.00  0.00    -0.203 F 
ATOM     75  F   UNL A   1      39.997  35.224  36.907  1.00  0.00    -0.200 F 
ATOM     76  C   UNL A   1      38.598  33.460  37.620  1.00  0.00     0.200 A 
ATOM     77  F   UNL A   1      37.227  31.662  38.299  1.00  0.00    -0.200 F 
ATOM     78  F   UNL A   1      38.152  34.206  38.640  1.00  0.00    -0.200 F 
ENDBRANCH  44  68
BRANCH  56  79
ATOM     79  C   UNL A   1      44.798  27.437  34.596  1.00  0.00     0.064 A 
ATOM     80  C   UNL A   1      46.011  28.133  34.715  1.00  0.00     0.173 A 
ATOM     81  C   UNL A   1      44.612  26.293  35.384  1.00  0.00     0.173 A 
ATOM     82  F   UNL A   1      46.238  29.223  33.967  1.00  0.00    -0.203 F 
ATOM     83  C   UNL A   1      47.007  27.686  35.577  1.00  0.00     0.198 A 
ATOM     84  C   UNL A   1      45.603  25.862  36.261  1.00  0.00     0.198 A 
ATOM     85  F   UNL A   1      43.468  25.597  35.307  1.00  0.00    -0.203 F 
ATOM     86  F   UNL A   1      48.174  28.342  35.646  1.00  0.00    -0.200 F 
ATOM     87  C   UNL A   1      46.801  26.555  36.353  1.00  0.00     0.200 A 
ATOM     88  F   UNL A   1      45.400  24.773  37.016  1.00  0.00    -0.200 F 
ATOM     89  F   UNL A   1      47.762  26.127  37.183  1.00  0.00    -0.200 F 
ENDBRANCH  56  79
ENDBRANCH  30  31
ENDBRANCH  23  25
ENDBRANCH  22  23
ENDBRANCH  21  22
ENDBRANCH   1  21
TORSDOF 15
ENDMDL
