MODEL 1
REMARK VINA RESULT:     -11.6      0.000      0.000
REMARK SMILES CC(C)(C)OC(=O)N1CC[C@@H]2CO[C@@H](CC(=O)OCCOC(=O)c3ccc(-c4c5nc(c(-c6c(F)c(F)c(F)c(F)c6F)c6ccc([nH]6)c(-c6c(F)c(F)c(F)c(F)c6F)c6nc(c(-c7c(F)c(F)c(F)c(F)c7F)c7ccc4[nH]7)C=C6)C=C5)cc3)[C@@H]2C1
REMARK SMILES IDX 19 1 18 2 16 3 17 4 15 5 14 6 8 7 9 8 88 9 10 10 87 11 11 12
REMARK SMILES IDX 12 13 13 14 6 15 7 16 5 17 2 18 1 19 3 20 4 21 20 22 21 23
REMARK SMILES IDX 22 24 23 25 24 26 25 27 86 28 26 29 85 30 27 31 28 32 29 33
REMARK SMILES IDX 79 34 30 35 84 36 78 37 80 38 31 39 83 40 77 41 76 42 32 44
REMARK SMILES IDX 64 45 44 46 63 47 45 48 48 49 62 50 81 51 46 52 47 53 61 55
REMARK SMILES IDX 82 56 49 57 33 58 34 59 42 60 35 61 36 62 40 63 43 64 37 65
REMARK SMILES IDX 38 66 41 67 39 68 65 69 66 70 74 71 67 72 68 73 72 74 75 75
REMARK SMILES IDX 69 76 70 77 73 78 71 79 50 80 51 81 59 82 52 83 53 84 57 85
REMARK SMILES IDX 60 86 54 87 55 88 58 89 56 90
REMARK H PARENT 80 43 48 54
REMARK Flexibility Score: inf
ROOT
ATOM      1  C   UNL A   1      31.425  28.770  25.301  1.00  0.00     0.274 C 
ENDROOT
BRANCH   1   2
ATOM      2  O   UNL A   1      31.247  29.448  24.032  1.00  0.00    -0.462 OA
BRANCH   2   3
ATOM      3  C   UNL A   1      31.515  28.730  22.914  1.00  0.00     0.308 C 
ATOM      4  O   UNL A   1      30.651  28.356  22.120  1.00  0.00    -0.252 OA
BRANCH   3   5
ATOM      5  C   UNL A   1      32.964  28.322  22.731  1.00  0.00     0.155 C 
BRANCH   5   6
ATOM      6  C   UNL A   1      33.425  26.866  22.588  1.00  0.00     0.134 C 
ATOM      7  N   UNL A   1      33.792  23.672  24.663  1.00  0.00    -0.308 N 
ATOM      8  C   UNL A   1      33.188  22.832  23.646  1.00  0.00     0.123 C 
ATOM      9  C   UNL A   1      34.029  25.077  24.320  1.00  0.00     0.129 C 
ATOM     10  C   UNL A   1      31.907  23.448  23.139  1.00  0.00     0.028 C 
ATOM     11  C   UNL A   1      32.875  25.786  23.553  1.00  0.00     0.044 C 
ATOM     12  C   UNL A   1      32.133  24.847  22.602  1.00  0.00     0.024 C 
ATOM     13  C   UNL A   1      32.900  24.992  21.309  1.00  0.00     0.164 C 
ATOM     14  O   UNL A   1      33.278  26.375  21.244  1.00  0.00    -0.377 OA
BRANCH   7  15
ATOM     15  C   UNL A   1      34.476  23.009  25.679  1.00  0.00     0.410 C 
ATOM     16  O   UNL A   1      34.352  23.308  26.855  1.00  0.00    -0.224 OA
BRANCH  15  17
ATOM     17  O   UNL A   1      35.311  22.036  25.222  1.00  0.00    -0.444 OA
BRANCH  17  18
ATOM     18  C   UNL A   1      36.653  22.394  24.780  1.00  0.00     0.106 C 
ATOM     19  C   UNL A   1      37.516  21.153  25.057  1.00  0.00     0.056 C 
ATOM     20  C   UNL A   1      37.171  23.564  25.622  1.00  0.00     0.056 C 
ATOM     21  C   UNL A   1      36.753  22.697  23.274  1.00  0.00     0.056 C 
ENDBRANCH  17  18
ENDBRANCH  15  17
ENDBRANCH   7  15
ENDBRANCH   5   6
ENDBRANCH   3   5
ENDBRANCH   2   3
ENDBRANCH   1   2
BRANCH   1  22
ATOM     22  C   UNL A   1      31.932  29.717  26.406  1.00  0.00     0.275 C 
BRANCH  22  23
ATOM     23  O   UNL A   1      33.156  30.413  26.057  1.00  0.00    -0.458 OA
BRANCH  23  24
ATOM     24  C   UNL A   1      33.614  31.174  27.061  1.00  0.00     0.338 C 
ATOM     25  O   UNL A   1      33.007  32.082  27.605  1.00  0.00    -0.246 OA
BRANCH  24  26
ATOM     26  C   UNL A   1      34.931  30.902  27.593  1.00  0.00     0.060 A 
ATOM     27  C   UNL A   1      35.119  29.611  28.106  1.00  0.00     0.016 A 
ATOM     28  C   UNL A   1      35.781  31.952  27.933  1.00  0.00     0.016 A 
ATOM     29  C   UNL A   1      36.170  29.362  28.968  1.00  0.00     0.010 A 
ATOM     30  C   UNL A   1      36.869  31.689  28.762  1.00  0.00     0.010 A 
ATOM     31  C   UNL A   1      37.070  30.394  29.273  1.00  0.00    -0.014 A 
BRANCH  31  32
ATOM     32  C   UNL A   1      38.307  30.062  30.002  1.00  0.00     0.031 A 
ATOM     33  C   UNL A   1      39.337  29.147  29.427  1.00  0.00     0.074 A 
ATOM     34  C   UNL A   1      38.451  30.609  31.223  1.00  0.00     0.049 A 
ATOM     35  N   UNL A   1      40.408  28.661  29.998  1.00  0.00    -0.248 NA
ATOM     36  C   UNL A   1      39.144  28.716  28.034  1.00  0.00     0.031 C 
ATOM     37  C   UNL A   1      37.501  31.538  31.842  1.00  0.00     0.029 A 
ATOM     38  N   UNL A   1      39.434  30.460  32.162  1.00  0.00    -0.354 N 
ATOM     39  C   UNL A   1      41.007  27.847  29.048  1.00  0.00     0.074 A 
ATOM     40  C   UNL A   1      40.180  27.904  27.860  1.00  0.00     0.031 C 
ATOM     41  C   UNL A   1      37.948  31.878  33.057  1.00  0.00     0.029 A 
ATOM     42  C   UNL A   1      39.172  31.136  33.326  1.00  0.00     0.049 A 
ATOM     43  H   UNL A   1      40.246  29.923  32.017  1.00  0.00     0.167 HD
ATOM     44  C   UNL A   1      42.141  27.118  29.177  1.00  0.00     0.037 A 
ATOM     45  C   UNL A   1      39.820  31.119  34.501  1.00  0.00     0.037 A 
ATOM     46  C   UNL A   1      42.948  27.092  30.373  1.00  0.00     0.049 A 
ATOM     47  C   UNL A   1      41.045  30.266  34.627  1.00  0.00     0.074 A 
ATOM     48  C   UNL A   1      44.131  26.412  30.604  1.00  0.00     0.029 A 
ATOM     49  N   UNL A   1      42.647  27.778  31.544  1.00  0.00    -0.354 N 
ATOM     50  N   UNL A   1      41.608  29.497  33.726  1.00  0.00    -0.248 NA
ATOM     51  C   UNL A   1      41.720  30.270  35.928  1.00  0.00     0.031 C 
ATOM     52  C   UNL A   1      44.522  26.650  31.926  1.00  0.00     0.029 A 
ATOM     53  C   UNL A   1      43.608  27.516  32.507  1.00  0.00     0.049 A 
ATOM     54  H   UNL A   1      41.866  28.363  31.670  1.00  0.00     0.167 HD
ATOM     55  C   UNL A   1      42.712  28.935  34.344  1.00  0.00     0.074 A 
ATOM     56  C   UNL A   1      42.748  29.467  35.694  1.00  0.00     0.031 C 
ATOM     57  C   UNL A   1      43.616  28.057  33.843  1.00  0.00     0.037 A 
BRANCH  44  58
ATOM     58  C   UNL A   1      42.560  26.260  28.021  1.00  0.00     0.064 A 
ATOM     59  C   UNL A   1      42.057  24.964  27.837  1.00  0.00     0.173 A 
ATOM     60  C   UNL A   1      43.439  26.765  27.050  1.00  0.00     0.173 A 
ATOM     61  F   UNL A   1      41.221  24.429  28.740  1.00  0.00    -0.203 F 
ATOM     62  C   UNL A   1      42.428  24.202  26.730  1.00  0.00     0.198 A 
ATOM     63  C   UNL A   1      43.790  26.010  25.934  1.00  0.00     0.198 A 
ATOM     64  F   UNL A   1      43.947  28.001  27.177  1.00  0.00    -0.203 F 
ATOM     65  F   UNL A   1      41.955  22.955  26.588  1.00  0.00    -0.200 F 
ATOM     66  C   UNL A   1      43.288  24.728  25.777  1.00  0.00     0.200 A 
ATOM     67  F   UNL A   1      44.612  26.525  25.009  1.00  0.00    -0.200 F 
ATOM     68  F   UNL A   1      43.634  23.997  24.708  1.00  0.00    -0.200 F 
ENDBRANCH  44  58
BRANCH  45  69
ATOM     69  C   UNL A   1      39.290  31.907  35.640  1.00  0.00     0.064 A 
ATOM     70  C   UNL A   1      38.401  31.337  36.559  1.00  0.00     0.173 A 
ATOM     71  C   UNL A   1      39.698  33.232  35.856  1.00  0.00     0.173 A 
ATOM     72  F   UNL A   1      37.976  30.077  36.385  1.00  0.00    -0.203 F 
ATOM     73  C   UNL A   1      37.931  32.068  37.647  1.00  0.00     0.198 A 
ATOM     74  C   UNL A   1      39.250  33.951  36.960  1.00  0.00     0.198 A 
ATOM     75  F   UNL A   1      40.558  33.818  35.009  1.00  0.00    -0.203 F 
ATOM     76  F   UNL A   1      37.056  31.511  38.496  1.00  0.00    -0.200 F 
ATOM     77  C   UNL A   1      38.361  33.370  37.851  1.00  0.00     0.200 A 
ATOM     78  F   UNL A   1      39.685  35.202  37.165  1.00  0.00    -0.200 F 
ATOM     79  F   UNL A   1      37.916  34.067  38.906  1.00  0.00    -0.200 F 
ENDBRANCH  45  69
BRANCH  57  80
ATOM     80  C   UNL A   1      44.726  27.642  34.760  1.00  0.00     0.064 A 
ATOM     81  C   UNL A   1      45.916  28.376  34.846  1.00  0.00     0.173 A 
ATOM     82  C   UNL A   1      44.585  26.508  35.572  1.00  0.00     0.173 A 
ATOM     83  F   UNL A   1      46.103  29.455  34.070  1.00  0.00    -0.203 F 
ATOM     84  C   UNL A   1      46.940  27.976  35.701  1.00  0.00     0.198 A 
ATOM     85  C   UNL A   1      45.599  26.126  36.446  1.00  0.00     0.198 A 
ATOM     86  F   UNL A   1      43.464  25.775  35.524  1.00  0.00    -0.203 F 
ATOM     87  F   UNL A   1      48.089  28.664  35.735  1.00  0.00    -0.200 F 
ATOM     88  C   UNL A   1      46.777  26.857  36.504  1.00  0.00     0.200 A 
ATOM     89  F   UNL A   1      45.438  25.050  37.226  1.00  0.00    -0.200 F 
ATOM     90  F   UNL A   1      47.762  26.476  37.329  1.00  0.00    -0.200 F 
ENDBRANCH  57  80
ENDBRANCH  31  32
ENDBRANCH  24  26
ENDBRANCH  23  24
ENDBRANCH  22  23
ENDBRANCH   1  22
TORSDOF 15
ENDMDL
MODEL 2
REMARK VINA RESULT:     -11.6      2.577      4.877
REMARK SMILES CC(C)(C)OC(=O)N1CC[C@@H]2CO[C@@H](CC(=O)OCCOC(=O)c3ccc(-c4c5nc(c(-c6c(F)c(F)c(F)c(F)c6F)c6ccc([nH]6)c(-c6c(F)c(F)c(F)c(F)c6F)c6nc(c(-c7c(F)c(F)c(F)c(F)c7F)c7ccc4[nH]7)C=C6)C=C5)cc3)[C@@H]2C1
REMARK SMILES IDX 19 1 18 2 16 3 17 4 15 5 14 6 8 7 9 8 88 9 10 10 87 11 11 12
REMARK SMILES IDX 12 13 13 14 6 15 7 16 5 17 2 18 1 19 3 20 4 21 20 22 21 23
REMARK SMILES IDX 22 24 23 25 24 26 25 27 86 28 26 29 85 30 27 31 28 32 29 33
REMARK SMILES IDX 79 34 30 35 84 36 78 37 80 38 31 39 83 40 77 41 76 42 32 44
REMARK SMILES IDX 64 45 44 46 63 47 45 48 48 49 62 50 81 51 46 52 47 53 61 55
REMARK SMILES IDX 82 56 49 57 33 58 34 59 42 60 35 61 36 62 40 63 43 64 37 65
REMARK SMILES IDX 38 66 41 67 39 68 65 69 66 70 74 71 67 72 68 73 72 74 75 75
REMARK SMILES IDX 69 76 70 77 73 78 71 79 50 80 51 81 59 82 52 83 53 84 57 85
REMARK SMILES IDX 60 86 54 87 55 88 58 89 56 90
REMARK H PARENT 80 43 48 54
REMARK Flexibility Score: inf
ROOT
ATOM      1  C   UNL A   1      32.148  32.181  27.162  1.00  0.00     0.274 C 
ENDROOT
BRANCH   1   2
ATOM      2  O   UNL A   1      33.006  31.191  26.538  1.00  0.00    -0.462 OA
BRANCH   2   3
ATOM      3  C   UNL A   1      33.594  30.289  27.361  1.00  0.00     0.308 C 
ATOM      4  O   UNL A   1      34.551  30.554  28.090  1.00  0.00    -0.252 OA
BRANCH   3   5
ATOM      5  C   UNL A   1      33.057  28.874  27.271  1.00  0.00     0.155 C 
BRANCH   5   6
ATOM      6  C   UNL A   1      31.771  28.500  26.523  1.00  0.00     0.134 C 
ATOM      7  N   UNL A   1      30.084  29.009  23.127  1.00  0.00    -0.308 N 
ATOM      8  C   UNL A   1      29.719  27.611  22.995  1.00  0.00     0.123 C 
ATOM      9  C   UNL A   1      30.693  29.429  24.392  1.00  0.00     0.129 C 
ATOM     10  C   UNL A   1      30.898  26.722  23.303  1.00  0.00     0.028 C 
ATOM     11  C   UNL A   1      31.766  28.462  24.974  1.00  0.00     0.044 C 
ATOM     12  C   UNL A   1      31.458  26.994  24.685  1.00  0.00     0.024 C 
ATOM     13  C   UNL A   1      30.630  26.575  25.877  1.00  0.00     0.164 C 
ATOM     14  O   UNL A   1      31.200  27.269  26.997  1.00  0.00    -0.377 OA
BRANCH   7  15
ATOM     15  C   UNL A   1      29.451  29.892  22.255  1.00  0.00     0.410 C 
ATOM     16  O   UNL A   1      28.784  29.512  21.306  1.00  0.00    -0.224 OA
BRANCH  15  17
ATOM     17  O   UNL A   1      29.685  31.201  22.547  1.00  0.00    -0.444 OA
BRANCH  17  18
ATOM     18  C   UNL A   1      28.565  32.133  22.599  1.00  0.00     0.106 C 
ATOM     19  C   UNL A   1      29.144  33.430  23.186  1.00  0.00     0.056 C 
ATOM     20  C   UNL A   1      27.492  31.589  23.547  1.00  0.00     0.056 C 
ATOM     21  C   UNL A   1      27.975  32.476  21.219  1.00  0.00     0.056 C 
ENDBRANCH  17  18
ENDBRANCH  15  17
ENDBRANCH   7  15
ENDBRANCH   5   6
ENDBRANCH   3   5
ENDBRANCH   2   3
ENDBRANCH   1   2
BRANCH   1  22
ATOM     22  C   UNL A   1      32.874  33.518  27.402  1.00  0.00     0.275 C 
BRANCH  22  23
ATOM     23  O   UNL A   1      32.253  34.341  28.421  1.00  0.00    -0.458 OA
BRANCH  23  24
ATOM     24  C   UNL A   1      33.108  35.222  28.959  1.00  0.00     0.338 C 
ATOM     25  O   UNL A   1      32.999  36.437  28.927  1.00  0.00    -0.246 OA
BRANCH  24  26
ATOM     26  C   UNL A   1      34.260  34.722  29.676  1.00  0.00     0.060 A 
ATOM     27  C   UNL A   1      35.483  34.820  28.996  1.00  0.00     0.016 A 
ATOM     28  C   UNL A   1      34.094  33.856  30.754  1.00  0.00     0.016 A 
ATOM     29  C   UNL A   1      36.554  34.046  29.398  1.00  0.00     0.010 A 
ATOM     30  C   UNL A   1      35.189  33.114  31.190  1.00  0.00     0.010 A 
ATOM     31  C   UNL A   1      36.421  33.214  30.519  1.00  0.00    -0.014 A 
BRANCH  31  32
ATOM     32  C   UNL A   1      37.628  32.574  31.073  1.00  0.00     0.031 A 
ATOM     33  C   UNL A   1      38.338  31.477  30.351  1.00  0.00     0.074 A 
ATOM     34  C   UNL A   1      38.044  33.013  32.275  1.00  0.00     0.049 A 
ATOM     35  N   UNL A   1      39.328  30.732  30.768  1.00  0.00    -0.248 NA
ATOM     36  C   UNL A   1      37.880  31.170  28.988  1.00  0.00     0.031 C 
ATOM     37  C   UNL A   1      37.420  34.103  33.031  1.00  0.00     0.029 A 
ATOM     38  N   UNL A   1      39.073  32.598  33.074  1.00  0.00    -0.354 N 
ATOM     39  C   UNL A   1      39.600  29.850  29.732  1.00  0.00     0.074 A 
ATOM     40  C   UNL A   1      38.669  30.152  28.664  1.00  0.00     0.031 C 
ATOM     41  C   UNL A   1      38.079  34.272  34.183  1.00  0.00     0.029 A 
ATOM     42  C   UNL A   1      39.121  33.258  34.275  1.00  0.00     0.049 A 
ATOM     43  H   UNL A   1      39.714  31.897  32.814  1.00  0.00     0.167 HD
ATOM     44  C   UNL A   1      40.540  28.876  29.698  1.00  0.00     0.037 A 
ATOM     45  C   UNL A   1      39.887  33.036  35.355  1.00  0.00     0.037 A 
ATOM     46  C   UNL A   1      41.459  28.608  30.777  1.00  0.00     0.049 A 
ATOM     47  C   UNL A   1      40.885  31.922  35.303  1.00  0.00     0.074 A 
ATOM     48  C   UNL A   1      42.472  27.666  30.838  1.00  0.00     0.029 A 
ATOM     49  N   UNL A   1      41.473  29.287  31.990  1.00  0.00    -0.354 N 
ATOM     50  N   UNL A   1      41.139  31.089  34.322  1.00  0.00    -0.248 NA
ATOM     51  C   UNL A   1      41.697  31.708  36.504  1.00  0.00     0.031 C 
ATOM     52  C   UNL A   1      43.067  27.744  32.102  1.00  0.00     0.029 A 
ATOM     53  C   UNL A   1      42.458  28.765  32.814  1.00  0.00     0.049 A 
ATOM     54  H   UNL A   1      40.871  30.028  32.229  1.00  0.00     0.167 HD
ATOM     55  C   UNL A   1      42.150  30.261  34.779  1.00  0.00     0.074 A 
ATOM     56  C   UNL A   1      42.474  30.704  36.123  1.00  0.00     0.031 C 
ATOM     57  C   UNL A   1      42.755  29.225  34.147  1.00  0.00     0.037 A 
BRANCH  44  58
ATOM     58  C   UNL A   1      40.603  28.003  28.481  1.00  0.00     0.064 A 
ATOM     59  C   UNL A   1      41.375  28.344  27.361  1.00  0.00     0.173 A 
ATOM     60  C   UNL A   1      39.923  26.774  28.458  1.00  0.00     0.173 A 
ATOM     61  F   UNL A   1      42.036  29.511  27.327  1.00  0.00    -0.203 F 
ATOM     62  C   UNL A   1      41.452  27.495  26.258  1.00  0.00     0.198 A 
ATOM     63  C   UNL A   1      40.021  25.918  27.365  1.00  0.00     0.198 A 
ATOM     64  F   UNL A   1      39.174  26.397  29.506  1.00  0.00    -0.203 F 
ATOM     65  F   UNL A   1      42.174  27.855  25.187  1.00  0.00    -0.200 F 
ATOM     66  C   UNL A   1      40.782  26.280  26.264  1.00  0.00     0.200 A 
ATOM     67  F   UNL A   1      39.383  24.739  27.378  1.00  0.00    -0.200 F 
ATOM     68  F   UNL A   1      40.869  25.460  25.207  1.00  0.00    -0.200 F 
ENDBRANCH  44  58
BRANCH  45  69
ATOM     69  C   UNL A   1      39.698  33.868  36.568  1.00  0.00     0.064 A 
ATOM     70  C   UNL A   1      40.321  35.116  36.690  1.00  0.00     0.173 A 
ATOM     71  C   UNL A   1      38.853  33.451  37.609  1.00  0.00     0.173 A 
ATOM     72  F   UNL A   1      41.144  35.549  35.725  1.00  0.00    -0.203 F 
ATOM     73  C   UNL A   1      40.115  35.911  37.815  1.00  0.00     0.198 A 
ATOM     74  C   UNL A   1      38.626  34.260  38.718  1.00  0.00     0.198 A 
ATOM     75  F   UNL A   1      38.225  32.269  37.532  1.00  0.00    -0.203 F 
ATOM     76  F   UNL A   1      40.748  37.088  37.923  1.00  0.00    -0.200 F 
ATOM     77  C   UNL A   1      39.263  35.487  38.823  1.00  0.00     0.200 A 
ATOM     78  F   UNL A   1      37.785  33.855  39.679  1.00  0.00    -0.200 F 
ATOM     79  F   UNL A   1      39.057  36.259  39.898  1.00  0.00    -0.200 F 
ENDBRANCH  45  69
BRANCH  57  80
ATOM     80  C   UNL A   1      43.842  28.523  34.903  1.00  0.00     0.064 A 
ATOM     81  C   UNL A   1      45.163  28.991  34.887  1.00  0.00     0.173 A 
ATOM     82  C   UNL A   1      43.552  27.383  35.664  1.00  0.00     0.173 A 
ATOM     83  F   UNL A   1      45.491  30.066  34.154  1.00  0.00    -0.203 F 
ATOM     84  C   UNL A   1      46.163  28.326  35.592  1.00  0.00     0.198 A 
ATOM     85  C   UNL A   1      44.548  26.736  36.390  1.00  0.00     0.198 A 
ATOM     86  F   UNL A   1      42.302  26.899  35.710  1.00  0.00    -0.203 F 
ATOM     87  F   UNL A   1      47.428  28.762  35.527  1.00  0.00    -0.200 F 
ATOM     88  C   UNL A   1      45.853  27.205  36.348  1.00  0.00     0.200 A 
ATOM     89  F   UNL A   1      44.246  25.658  37.125  1.00  0.00    -0.200 F 
ATOM     90  F   UNL A   1      46.816  26.569  37.029  1.00  0.00    -0.200 F 
ENDBRANCH  57  80
ENDBRANCH  31  32
ENDBRANCH  24  26
ENDBRANCH  23  24
ENDBRANCH  22  23
ENDBRANCH   1  22
TORSDOF 15
ENDMDL
MODEL 3
REMARK VINA RESULT:     -11.5      1.558      2.411
REMARK SMILES CC(C)(C)OC(=O)N1CC[C@@H]2CO[C@@H](CC(=O)OCCOC(=O)c3ccc(-c4c5nc(c(-c6c(F)c(F)c(F)c(F)c6F)c6ccc([nH]6)c(-c6c(F)c(F)c(F)c(F)c6F)c6nc(c(-c7c(F)c(F)c(F)c(F)c7F)c7ccc4[nH]7)C=C6)C=C5)cc3)[C@@H]2C1
REMARK SMILES IDX 19 1 18 2 16 3 17 4 15 5 14 6 8 7 9 8 88 9 10 10 87 11 11 12
REMARK SMILES IDX 12 13 13 14 6 15 7 16 5 17 2 18 1 19 3 20 4 21 20 22 21 23
REMARK SMILES IDX 22 24 23 25 24 26 25 27 86 28 26 29 85 30 27 31 28 32 29 33
REMARK SMILES IDX 79 34 30 35 84 36 78 37 80 38 31 39 83 40 77 41 76 42 32 44
REMARK SMILES IDX 64 45 44 46 63 47 45 48 48 49 62 50 81 51 46 52 47 53 61 55
REMARK SMILES IDX 82 56 49 57 33 58 34 59 42 60 35 61 36 62 40 63 43 64 37 65
REMARK SMILES IDX 38 66 41 67 39 68 65 69 66 70 74 71 67 72 68 73 72 74 75 75
REMARK SMILES IDX 69 76 70 77 73 78 71 79 50 80 51 81 59 82 52 83 53 84 57 85
REMARK SMILES IDX 60 86 54 87 55 88 58 89 56 90
REMARK H PARENT 80 43 48 54
REMARK Flexibility Score: inf
ROOT
ATOM      1  C   UNL A   1      32.987  28.359  25.158  1.00  0.00     0.274 C 
ENDROOT
BRANCH   1   2
ATOM      2  O   UNL A   1      33.878  28.105  24.042  1.00  0.00    -0.462 OA
BRANCH   2   3
ATOM      3  C   UNL A   1      33.566  27.058  23.239  1.00  0.00     0.308 C 
ATOM      4  O   UNL A   1      33.819  27.023  22.035  1.00  0.00    -0.252 OA
BRANCH   3   5
ATOM      5  C   UNL A   1      32.788  25.936  23.900  1.00  0.00     0.155 C 
BRANCH   5   6
ATOM      6  C   UNL A   1      33.445  24.807  24.704  1.00  0.00     0.134 C 
ATOM      7  N   UNL A   1      33.841  21.002  24.659  1.00  0.00    -0.308 N 
ATOM      8  C   UNL A   1      35.266  21.055  24.927  1.00  0.00     0.123 C 
ATOM      9  C   UNL A   1      33.103  22.268  24.692  1.00  0.00     0.129 C 
ATOM     10  C   UNL A   1      35.940  22.052  24.018  1.00  0.00     0.028 C 
ATOM     11  C   UNL A   1      33.807  23.473  24.004  1.00  0.00     0.044 C 
ATOM     12  C   UNL A   1      35.328  23.432  24.149  1.00  0.00     0.024 C 
ATOM     13  C   UNL A   1      35.572  24.196  25.429  1.00  0.00     0.164 C 
ATOM     14  O   UNL A   1      34.602  25.254  25.431  1.00  0.00    -0.377 OA
BRANCH   7  15
ATOM     15  C   UNL A   1      33.232  19.760  24.824  1.00  0.00     0.410 C 
ATOM     16  O   UNL A   1      32.147  19.629  25.368  1.00  0.00    -0.224 OA
BRANCH  15  17
ATOM     17  O   UNL A   1      33.981  18.724  24.356  1.00  0.00    -0.444 OA
BRANCH  17  18
ATOM     18  C   UNL A   1      33.317  17.587  23.730  1.00  0.00     0.106 C 
ATOM     19  C   UNL A   1      34.448  16.734  23.133  1.00  0.00     0.056 C 
ATOM     20  C   UNL A   1      32.413  18.084  22.598  1.00  0.00     0.056 C 
ATOM     21  C   UNL A   1      32.541  16.697  24.719  1.00  0.00     0.056 C 
ENDBRANCH  17  18
ENDBRANCH  15  17
ENDBRANCH   7  15
ENDBRANCH   5   6
ENDBRANCH   3   5
ENDBRANCH   2   3
ENDBRANCH   1   2
BRANCH   1  22
ATOM     22  C   UNL A   1      32.771  29.865  25.404  1.00  0.00     0.275 C 
BRANCH  22  23
ATOM     23  O   UNL A   1      32.561  30.200  26.800  1.00  0.00    -0.458 OA
BRANCH  23  24
ATOM     24  C   UNL A   1      33.324  31.227  27.199  1.00  0.00     0.338 C 
ATOM     25  O   UNL A   1      32.986  32.399  27.232  1.00  0.00    -0.246 OA
BRANCH  24  26
ATOM     26  C   UNL A   1      34.664  30.954  27.670  1.00  0.00     0.060 A 
ATOM     27  C   UNL A   1      34.851  29.697  28.261  1.00  0.00     0.016 A 
ATOM     28  C   UNL A   1      35.560  31.999  27.882  1.00  0.00     0.016 A 
ATOM     29  C   UNL A   1      35.946  29.478  29.074  1.00  0.00     0.010 A 
ATOM     30  C   UNL A   1      36.690  31.763  28.662  1.00  0.00     0.010 A 
ATOM     31  C   UNL A   1      36.888  30.501  29.250  1.00  0.00    -0.014 A 
BRANCH  31  32
ATOM     32  C   UNL A   1      38.160  30.185  29.926  1.00  0.00     0.031 A 
ATOM     33  C   UNL A   1      39.168  29.270  29.315  1.00  0.00     0.074 A 
ATOM     34  C   UNL A   1      38.356  30.746  31.134  1.00  0.00     0.049 A 
ATOM     35  N   UNL A   1      40.267  28.796  29.843  1.00  0.00    -0.248 NA
ATOM     36  C   UNL A   1      38.915  28.822  27.937  1.00  0.00     0.031 C 
ATOM     37  C   UNL A   1      37.428  31.676  31.785  1.00  0.00     0.029 A 
ATOM     38  N   UNL A   1      39.381  30.613  32.028  1.00  0.00    -0.354 N 
ATOM     39  C   UNL A   1      40.827  27.975  28.875  1.00  0.00     0.074 A 
ATOM     40  C   UNL A   1      39.948  28.014  27.725  1.00  0.00     0.031 C 
ATOM     41  C   UNL A   1      37.927  32.032  32.975  1.00  0.00     0.029 A 
ATOM     42  C   UNL A   1      39.167  31.301  33.196  1.00  0.00     0.049 A 
ATOM     43  H   UNL A   1      40.189  30.079  31.853  1.00  0.00     0.167 HD
ATOM     44  C   UNL A   1      41.971  27.254  28.961  1.00  0.00     0.037 A 
ATOM     45  C   UNL A   1      39.868  31.300  34.341  1.00  0.00     0.037 A 
ATOM     46  C   UNL A   1      42.831  27.246  30.119  1.00  0.00     0.049 A 
ATOM     47  C   UNL A   1      41.103  30.456  34.420  1.00  0.00     0.074 A 
ATOM     48  C   UNL A   1      44.028  26.576  30.303  1.00  0.00     0.029 A 
ATOM     49  N   UNL A   1      42.580  27.943  31.294  1.00  0.00    -0.354 N 
ATOM     50  N   UNL A   1      41.629  29.681  33.503  1.00  0.00    -0.248 NA
ATOM     51  C   UNL A   1      41.836  30.479  35.689  1.00  0.00     0.031 C 
ATOM     52  C   UNL A   1      44.477  26.831  31.603  1.00  0.00     0.029 A 
ATOM     53  C   UNL A   1      43.585  27.698  32.216  1.00  0.00     0.049 A 
ATOM     54  H   UNL A   1      41.801  28.525  31.450  1.00  0.00     0.167 HD
ATOM     55  C   UNL A   1      42.764  29.132  34.077  1.00  0.00     0.074 A 
ATOM     56  C   UNL A   1      42.858  29.679  35.418  1.00  0.00     0.031 C 
ATOM     57  C   UNL A   1      43.649  28.254  33.544  1.00  0.00     0.037 A 
BRANCH  44  58
ATOM     58  C   UNL A   1      42.343  26.386  27.796  1.00  0.00     0.064 A 
ATOM     59  C   UNL A   1      43.260  26.805  26.821  1.00  0.00     0.173 A 
ATOM     60  C   UNL A   1      41.815  25.090  27.685  1.00  0.00     0.173 A 
ATOM     61  F   UNL A   1      43.788  28.037  26.875  1.00  0.00    -0.203 F 
ATOM     62  C   UNL A   1      43.624  25.963  25.771  1.00  0.00     0.198 A 
ATOM     63  C   UNL A   1      42.197  24.244  26.648  1.00  0.00     0.198 A 
ATOM     64  F   UNL A   1      40.936  24.639  28.594  1.00  0.00    -0.203 F 
ATOM     65  F   UNL A   1      44.482  26.394  24.836  1.00  0.00    -0.200 F 
ATOM     66  C   UNL A   1      43.098  24.681  25.690  1.00  0.00     0.200 A 
ATOM     67  F   UNL A   1      41.697  23.002  26.578  1.00  0.00    -0.200 F 
ATOM     68  F   UNL A   1      43.459  23.870  24.686  1.00  0.00    -0.200 F 
ENDBRANCH  44  58
BRANCH  45  69
ATOM     69  C   UNL A   1      39.385  32.098  35.494  1.00  0.00     0.064 A 
ATOM     70  C   UNL A   1      38.527  31.538  36.448  1.00  0.00     0.173 A 
ATOM     71  C   UNL A   1      39.809  33.422  35.688  1.00  0.00     0.173 A 
ATOM     72  F   UNL A   1      38.089  30.280  36.297  1.00  0.00    -0.203 F 
ATOM     73  C   UNL A   1      38.101  32.278  37.549  1.00  0.00     0.198 A 
ATOM     74  C   UNL A   1      39.406  34.149  36.803  1.00  0.00     0.198 A 
ATOM     75  F   UNL A   1      40.640  33.997  34.807  1.00  0.00    -0.203 F 
ATOM     76  F   UNL A   1      37.255  31.730  38.432  1.00  0.00    -0.200 F 
ATOM     77  C   UNL A   1      38.547  33.579  37.730  1.00  0.00     0.200 A 
ATOM     78  F   UNL A   1      39.856  35.398  36.985  1.00  0.00    -0.200 F 
ATOM     79  F   UNL A   1      38.146  34.284  38.796  1.00  0.00    -0.200 F 
ENDBRANCH  45  69
BRANCH  57  80
ATOM     80  C   UNL A   1      44.803  27.855  34.414  1.00  0.00     0.064 A 
ATOM     81  C   UNL A   1      45.990  28.599  34.440  1.00  0.00     0.173 A 
ATOM     82  C   UNL A   1      44.707  26.729  35.243  1.00  0.00     0.173 A 
ATOM     83  F   UNL A   1      46.134  29.671  33.647  1.00  0.00    -0.203 F 
ATOM     84  C   UNL A   1      47.054  28.214  35.252  1.00  0.00     0.198 A 
ATOM     85  C   UNL A   1      45.762  26.362  36.073  1.00  0.00     0.198 A 
ATOM     86  F   UNL A   1      43.590  25.987  35.252  1.00  0.00    -0.203 F 
ATOM     87  F   UNL A   1      48.198  28.911  35.228  1.00  0.00    -0.200 F 
ATOM     88  C   UNL A   1      46.936  27.101  36.072  1.00  0.00     0.200 A 
ATOM     89  F   UNL A   1      45.644  25.292  36.871  1.00  0.00    -0.200 F 
ATOM     90  F   UNL A   1      47.959  26.735  36.855  1.00  0.00    -0.200 F 
ENDBRANCH  57  80
ENDBRANCH  31  32
ENDBRANCH  24  26
ENDBRANCH  23  24
ENDBRANCH  22  23
ENDBRANCH   1  22
TORSDOF 15
ENDMDL
