MODEL 1
REMARK VINA RESULT:     -13.2      0.000      0.000
REMARK SMILES O=C(OCCOC(=O)c1cnccc1C(=O)N1CCC(Cc2ccccc2)CC1)c1ccc(-c2c3nc(c(-c4c(F)c(F)c(F)c(F)c4F)c4ccc([nH]4)c(-c4c(F)c(F)c(F)c(F)c4F)c4nc(c(-c5c(F)c(F)c(F)c(F)c5F)c5ccc2[nH]5)C=C4)C=C3)cc1
REMARK SMILES IDX 5 1 4 2 3 3 2 4 1 5 30 6 31 7 92 8 32 9 91 10 33 11 34 12
REMARK SMILES IDX 35 13 85 14 36 15 90 16 84 17 86 18 37 19 89 20 83 21 82 22
REMARK SMILES IDX 38 24 70 25 50 26 69 27 51 28 54 29 68 30 87 31 52 32 53 33
REMARK SMILES IDX 67 35 88 36 55 37 39 38 40 39 48 40 41 41 42 42 46 43 49 44
REMARK SMILES IDX 43 45 44 46 47 47 45 48 71 49 72 50 80 51 73 52 74 53 78 54
REMARK SMILES IDX 81 55 75 56 76 57 79 58 77 59 56 60 57 61 65 62 58 63 59 64
REMARK SMILES IDX 63 65 66 66 60 67 61 68 64 69 62 70 6 71 7 72 8 73 9 74
REMARK SMILES IDX 10 75 14 76 11 77 13 78 12 79 15 80 16 81 17 82 18 83 29 84
REMARK SMILES IDX 19 85 28 86 20 87 21 88 22 89 23 90 27 91 24 92 26 93 25 94
REMARK H PARENT 86 23 54 34
REMARK Flexibility Score: inf
ROOT
ATOM      1  C   UNL A   1      32.643  31.063  26.891  1.00  0.00     0.275 C 
ENDROOT
BRANCH   1   2
ATOM      2  C   UNL A   1      31.717  32.227  27.233  1.00  0.00     0.275 C 
BRANCH   2   3
ATOM      3  O   UNL A   1      32.352  33.517  27.198  1.00  0.00    -0.458 OA
BRANCH   3   4
ATOM      4  C   UNL A   1      32.984  34.203  28.178  1.00  0.00     0.338 C 
ATOM      5  O   UNL A   1      32.509  35.283  28.528  1.00  0.00    -0.246 OA
BRANCH   4   6
ATOM      6  C   UNL A   1      34.241  33.745  28.863  1.00  0.00     0.060 A 
ATOM      7  C   UNL A   1      35.534  34.203  28.597  1.00  0.00     0.016 A 
ATOM      8  C   UNL A   1      34.088  32.784  29.883  1.00  0.00     0.016 A 
ATOM      9  C   UNL A   1      36.624  33.777  29.354  1.00  0.00     0.010 A 
ATOM     10  C   UNL A   1      35.179  32.331  30.633  1.00  0.00     0.010 A 
ATOM     11  C   UNL A   1      36.457  32.823  30.357  1.00  0.00    -0.014 A 
BRANCH  11  12
ATOM     12  C   UNL A   1      37.670  32.178  30.898  1.00  0.00     0.031 A 
ATOM     13  C   UNL A   1      38.080  32.558  32.282  1.00  0.00     0.074 A 
ATOM     14  C   UNL A   1      38.288  31.182  30.243  1.00  0.00     0.049 A 
ATOM     15  N   UNL A   1      38.994  32.030  33.046  1.00  0.00    -0.248 NA
ATOM     16  C   UNL A   1      37.325  33.658  32.906  1.00  0.00     0.031 C 
ATOM     17  C   UNL A   1      37.874  30.677  28.946  1.00  0.00     0.029 A 
ATOM     18  N   UNL A   1      39.360  30.397  30.573  1.00  0.00    -0.354 N 
ATOM     19  C   UNL A   1      38.908  32.713  34.247  1.00  0.00     0.074 A 
ATOM     20  C   UNL A   1      37.882  33.719  34.104  1.00  0.00     0.031 C 
ATOM     21  C   UNL A   1      38.679  29.673  28.569  1.00  0.00     0.029 A 
ATOM     22  C   UNL A   1      39.677  29.466  29.610  1.00  0.00     0.049 A 
ATOM     23  H   UNL A   1      39.856  30.488  31.419  1.00  0.00     0.167 HD
ATOM     24  C   UNL A   1      39.624  32.503  35.374  1.00  0.00     0.037 A 
ATOM     25  C   UNL A   1      40.661  28.547  29.585  1.00  0.00     0.037 A 
ATOM     26  C   UNL A   1      40.675  31.529  35.470  1.00  0.00     0.049 A 
ATOM     27  C   UNL A   1      41.533  28.431  30.806  1.00  0.00     0.074 A 
ATOM     28  C   UNL A   1      41.513  31.266  36.536  1.00  0.00     0.029 A 
ATOM     29  N   UNL A   1      41.045  30.670  34.442  1.00  0.00    -0.354 N 
ATOM     30  N   UNL A   1      41.445  29.075  31.947  1.00  0.00    -0.248 NA
ATOM     31  C   UNL A   1      42.626  27.454  30.750  1.00  0.00     0.031 C 
ATOM     32  C   UNL A   1      42.435  30.297  36.129  1.00  0.00     0.029 A 
ATOM     33  C   UNL A   1      42.125  29.899  34.836  1.00  0.00     0.049 A 
ATOM     34  H   UNL A   1      40.606  30.618  33.562  1.00  0.00     0.167 HD
ATOM     35  C   UNL A   1      42.441  28.555  32.760  1.00  0.00     0.074 A 
ATOM     36  C   UNL A   1      43.114  27.533  31.980  1.00  0.00     0.031 C 
ATOM     37  C   UNL A   1      42.767  28.885  34.033  1.00  0.00     0.037 A 
BRANCH  24  38
ATOM     38  C   UNL A   1      39.332  33.411  36.527  1.00  0.00     0.064 A 
ATOM     39  C   UNL A   1      39.959  34.660  36.669  1.00  0.00     0.173 A 
ATOM     40  C   UNL A   1      38.468  32.991  37.548  1.00  0.00     0.173 A 
ATOM     41  F   UNL A   1      40.826  35.089  35.739  1.00  0.00    -0.203 F 
ATOM     42  C   UNL A   1      39.761  35.435  37.808  1.00  0.00     0.198 A 
ATOM     43  C   UNL A   1      38.248  33.783  38.671  1.00  0.00     0.198 A 
ATOM     44  F   UNL A   1      37.859  31.798  37.469  1.00  0.00    -0.203 F 
ATOM     45  F   UNL A   1      40.430  36.586  37.958  1.00  0.00    -0.200 F 
ATOM     46  C   UNL A   1      38.902  34.997  38.806  1.00  0.00     0.200 A 
ATOM     47  F   UNL A   1      37.419  33.358  39.634  1.00  0.00    -0.200 F 
ATOM     48  F   UNL A   1      38.723  35.737  39.909  1.00  0.00    -0.200 F 
ENDBRANCH  24  38
BRANCH  25  49
ATOM     49  C   UNL A   1      40.863  27.674  28.397  1.00  0.00     0.064 A 
ATOM     50  C   UNL A   1      41.656  28.082  27.315  1.00  0.00     0.173 A 
ATOM     51  C   UNL A   1      40.233  26.423  28.300  1.00  0.00     0.173 A 
ATOM     52  F   UNL A   1      42.266  29.276  27.343  1.00  0.00    -0.203 F 
ATOM     53  C   UNL A   1      41.785  27.290  26.173  1.00  0.00     0.198 A 
ATOM     54  C   UNL A   1      40.386  25.619  27.171  1.00  0.00     0.198 A 
ATOM     55  F   UNL A   1      39.458  25.981  29.302  1.00  0.00    -0.203 F 
ATOM     56  F   UNL A   1      42.499  27.734  25.129  1.00  0.00    -0.200 F 
ATOM     57  C   UNL A   1      41.153  26.058  26.103  1.00  0.00     0.200 A 
ATOM     58  F   UNL A   1      39.776  24.428  27.110  1.00  0.00    -0.200 F 
ATOM     59  F   UNL A   1      41.267  25.305  25.001  1.00  0.00    -0.200 F 
ENDBRANCH  25  49
BRANCH  37  60
ATOM     60  C   UNL A   1      43.870  28.097  34.676  1.00  0.00     0.064 A 
ATOM     61  C   UNL A   1      45.199  28.543  34.672  1.00  0.00     0.173 A 
ATOM     62  C   UNL A   1      43.579  26.894  35.339  1.00  0.00     0.173 A 
ATOM     63  F   UNL A   1      45.529  29.680  34.040  1.00  0.00    -0.203 F 
ATOM     64  C   UNL A   1      46.203  27.795  35.279  1.00  0.00     0.198 A 
ATOM     65  C   UNL A   1      44.579  26.171  35.978  1.00  0.00     0.198 A 
ATOM     66  F   UNL A   1      42.321  26.430  35.378  1.00  0.00    -0.203 F 
ATOM     67  F   UNL A   1      47.477  28.208  35.212  1.00  0.00    -0.200 F 
ATOM     68  C   UNL A   1      45.891  26.616  35.938  1.00  0.00     0.200 A 
ATOM     69  F   UNL A   1      44.272  25.041  36.631  1.00  0.00    -0.200 F 
ATOM     70  F   UNL A   1      46.859  25.902  36.531  1.00  0.00    -0.200 F 
ENDBRANCH  37  60
ENDBRANCH  11  12
ENDBRANCH   4   6
ENDBRANCH   3   4
ENDBRANCH   2   3
ENDBRANCH   1   2
BRANCH   1  71
ATOM     71  O   UNL A   1      31.924  29.833  26.679  1.00  0.00    -0.458 OA
BRANCH  71  72
ATOM     72  C   UNL A   1      32.447  28.962  25.786  1.00  0.00     0.340 C 
ATOM     73  O   UNL A   1      33.608  28.581  25.722  1.00  0.00    -0.246 OA
BRANCH  72  74
ATOM     74  C   UNL A   1      31.406  28.445  24.904  1.00  0.00     0.091 A 
ATOM     75  C   UNL A   1      30.829  29.394  24.063  1.00  0.00     0.127 A 
ATOM     76  C   UNL A   1      30.910  27.139  24.872  1.00  0.00     0.057 A 
ATOM     77  N   UNL A   1      29.855  29.124  23.161  1.00  0.00    -0.264 NA
ATOM     78  C   UNL A   1      29.870  26.862  23.961  1.00  0.00     0.035 A 
ATOM     79  C   UNL A   1      29.397  27.861  23.126  1.00  0.00     0.112 A 
BRANCH  76  80
ATOM     80  C   UNL A   1      31.402  25.952  25.653  1.00  0.00     0.254 C 
ATOM     81  O   UNL A   1      31.375  25.981  26.883  1.00  0.00    -0.269 OA
ATOM     82  N   UNL A   1      31.702  24.782  24.984  1.00  0.00    -0.339 N 
ATOM     83  C   UNL A   1      30.892  23.592  25.248  1.00  0.00     0.120 C 
ATOM     84  C   UNL A   1      33.019  24.613  24.383  1.00  0.00     0.120 C 
ATOM     85  C   UNL A   1      31.687  22.399  25.776  1.00  0.00     0.025 C 
ATOM     86  C   UNL A   1      33.786  23.433  24.950  1.00  0.00     0.025 C 
ATOM     87  C   UNL A   1      32.928  22.158  24.905  1.00  0.00    -0.003 C 
BRANCH  87  88
ATOM     88  C   UNL A   1      33.791  20.969  25.351  1.00  0.00     0.039 C 
BRANCH  88  89
ATOM     89  C   UNL A   1      33.655  19.710  24.536  1.00  0.00    -0.048 A 
ATOM     90  C   UNL A   1      32.533  19.542  23.712  1.00  0.00     0.004 A 
ATOM     91  C   UNL A   1      34.591  18.671  24.627  1.00  0.00     0.004 A 
ATOM     92  C   UNL A   1      32.343  18.358  23.002  1.00  0.00     0.000 A 
ATOM     93  C   UNL A   1      34.399  17.485  23.913  1.00  0.00     0.000 A 
ATOM     94  C   UNL A   1      33.274  17.327  23.106  1.00  0.00     0.000 A 
ENDBRANCH  88  89
ENDBRANCH  87  88
ENDBRANCH  76  80
ENDBRANCH  72  74
ENDBRANCH  71  72
ENDBRANCH   1  71
TORSDOF 14
ENDMDL
MODEL 2
REMARK VINA RESULT:     -13.0      5.163     10.906
REMARK SMILES O=C(OCCOC(=O)c1cnccc1C(=O)N1CCC(Cc2ccccc2)CC1)c1ccc(-c2c3nc(c(-c4c(F)c(F)c(F)c(F)c4F)c4ccc([nH]4)c(-c4c(F)c(F)c(F)c(F)c4F)c4nc(c(-c5c(F)c(F)c(F)c(F)c5F)c5ccc2[nH]5)C=C4)C=C3)cc1
REMARK SMILES IDX 5 1 4 2 3 3 2 4 1 5 30 6 31 7 92 8 32 9 91 10 33 11 34 12
REMARK SMILES IDX 35 13 85 14 36 15 90 16 84 17 86 18 37 19 89 20 83 21 82 22
REMARK SMILES IDX 38 24 70 25 50 26 69 27 51 28 54 29 68 30 87 31 52 32 53 33
REMARK SMILES IDX 67 35 88 36 55 37 39 38 40 39 48 40 41 41 42 42 46 43 49 44
REMARK SMILES IDX 43 45 44 46 47 47 45 48 71 49 72 50 80 51 73 52 74 53 78 54
REMARK SMILES IDX 81 55 75 56 76 57 79 58 77 59 56 60 57 61 65 62 58 63 59 64
REMARK SMILES IDX 63 65 66 66 60 67 61 68 64 69 62 70 6 71 7 72 8 73 9 74
REMARK SMILES IDX 10 75 14 76 11 77 13 78 12 79 15 80 16 81 17 82 18 83 29 84
REMARK SMILES IDX 19 85 28 86 20 87 21 88 22 89 23 90 27 91 24 92 26 93 25 94
REMARK H PARENT 86 23 54 34
REMARK Flexibility Score: inf
ROOT
ATOM      1  C   UNL A   1      38.205  21.265  25.367  1.00  0.00     0.275 C 
ENDROOT
BRANCH   1   2
ATOM      2  C   UNL A   1      38.721  19.856  25.087  1.00  0.00     0.275 C 
BRANCH   2   3
ATOM      3  O   UNL A   1      39.722  19.398  26.012  1.00  0.00    -0.458 OA
BRANCH   3   4
ATOM      4  C   UNL A   1      41.043  19.678  26.074  1.00  0.00     0.338 C 
ATOM      5  O   UNL A   1      41.838  18.802  25.736  1.00  0.00    -0.246 OA
BRANCH   4   6
ATOM      6  C   UNL A   1      41.614  20.986  26.546  1.00  0.00     0.060 A 
ATOM      7  C   UNL A   1      41.934  21.314  27.867  1.00  0.00     0.016 A 
ATOM      8  C   UNL A   1      41.870  21.955  25.555  1.00  0.00     0.016 A 
ATOM      9  C   UNL A   1      42.544  22.526  28.186  1.00  0.00     0.010 A 
ATOM     10  C   UNL A   1      42.460  23.185  25.867  1.00  0.00     0.010 A 
ATOM     11  C   UNL A   1      42.787  23.476  27.194  1.00  0.00    -0.014 A 
BRANCH  11  12
ATOM     12  C   UNL A   1      43.130  24.845  27.627  1.00  0.00     0.031 A 
ATOM     13  C   UNL A   1      44.519  25.316  27.350  1.00  0.00     0.074 A 
ATOM     14  C   UNL A   1      42.197  25.685  28.103  1.00  0.00     0.049 A 
ATOM     15  N   UNL A   1      45.025  26.511  27.475  1.00  0.00    -0.248 NA
ATOM     16  C   UNL A   1      45.455  24.310  26.820  1.00  0.00     0.031 C 
ATOM     17  C   UNL A   1      40.800  25.335  28.287  1.00  0.00     0.029 A 
ATOM     18  N   UNL A   1      42.258  26.998  28.488  1.00  0.00    -0.354 N 
ATOM     19  C   UNL A   1      46.326  26.407  27.015  1.00  0.00     0.074 A 
ATOM     20  C   UNL A   1      46.550  25.030  26.644  1.00  0.00     0.031 C 
ATOM     21  C   UNL A   1      40.123  26.392  28.760  1.00  0.00     0.029 A 
ATOM     22  C   UNL A   1      41.052  27.503  28.915  1.00  0.00     0.049 A 
ATOM     23  H   UNL A   1      43.087  27.529  28.461  1.00  0.00     0.167 HD
ATOM     24  C   UNL A   1      47.248  27.390  26.906  1.00  0.00     0.037 A 
ATOM     25  C   UNL A   1      40.741  28.730  29.372  1.00  0.00     0.037 A 
ATOM     26  C   UNL A   1      47.015  28.741  27.331  1.00  0.00     0.049 A 
ATOM     27  C   UNL A   1      41.830  29.770  29.367  1.00  0.00     0.074 A 
ATOM     28  C   UNL A   1      47.889  29.810  27.330  1.00  0.00     0.029 A 
ATOM     29  N   UNL A   1      45.813  29.200  27.860  1.00  0.00    -0.354 N 
ATOM     30  N   UNL A   1      43.062  29.671  28.924  1.00  0.00    -0.248 NA
ATOM     31  C   UNL A   1      41.487  31.091  29.904  1.00  0.00     0.031 C 
ATOM     32  C   UNL A   1      47.239  30.897  27.922  1.00  0.00     0.029 A 
ATOM     33  C   UNL A   1      45.935  30.531  28.222  1.00  0.00     0.049 A 
ATOM     34  H   UNL A   1      44.997  28.660  27.963  1.00  0.00     0.167 HD
ATOM     35  C   UNL A   1      43.630  30.925  29.089  1.00  0.00     0.074 A 
ATOM     36  C   UNL A   1      42.601  31.770  29.664  1.00  0.00     0.031 C 
ATOM     37  C   UNL A   1      44.884  31.343  28.788  1.00  0.00     0.037 A 
BRANCH  24  38
ATOM     38  C   UNL A   1      48.594  26.985  26.390  1.00  0.00     0.064 A 
ATOM     39  C   UNL A   1      48.939  27.110  25.034  1.00  0.00     0.173 A 
ATOM     40  C   UNL A   1      49.526  26.391  27.252  1.00  0.00     0.173 A 
ATOM     41  F   UNL A   1      48.066  27.635  24.160  1.00  0.00    -0.203 F 
ATOM     42  C   UNL A   1      50.151  26.620  24.556  1.00  0.00     0.198 A 
ATOM     43  C   UNL A   1      50.749  25.930  26.776  1.00  0.00     0.198 A 
ATOM     44  F   UNL A   1      49.236  26.232  28.552  1.00  0.00    -0.203 F 
ATOM     45  F   UNL A   1      50.426  26.679  23.246  1.00  0.00    -0.200 F 
ATOM     46  C   UNL A   1      51.056  26.033  25.429  1.00  0.00     0.200 A 
ATOM     47  F   UNL A   1      51.622  25.363  27.621  1.00  0.00    -0.200 F 
ATOM     48  F   UNL A   1      52.216  25.548  24.966  1.00  0.00    -0.200 F 
ENDBRANCH  24  38
BRANCH  25  49
ATOM     49  C   UNL A   1      39.366  29.044  29.849  1.00  0.00     0.064 A 
ATOM     50  C   UNL A   1      38.410  29.622  29.001  1.00  0.00     0.173 A 
ATOM     51  C   UNL A   1      38.989  28.808  31.181  1.00  0.00     0.173 A 
ATOM     52  F   UNL A   1      38.721  29.889  27.724  1.00  0.00    -0.203 F 
ATOM     53  C   UNL A   1      37.146  29.979  29.473  1.00  0.00     0.198 A 
ATOM     54  C   UNL A   1      37.716  29.138  31.644  1.00  0.00     0.198 A 
ATOM     55  F   UNL A   1      39.862  28.261  32.040  1.00  0.00    -0.203 F 
ATOM     56  F   UNL A   1      36.276  30.587  28.655  1.00  0.00    -0.200 F 
ATOM     57  C   UNL A   1      36.799  29.735  30.792  1.00  0.00     0.200 A 
ATOM     58  F   UNL A   1      37.384  28.896  32.919  1.00  0.00    -0.200 F 
ATOM     59  F   UNL A   1      35.590  30.090  31.247  1.00  0.00    -0.200 F 
ENDBRANCH  25  49
BRANCH  37  60
ATOM     60  C   UNL A   1      45.192  32.791  29.032  1.00  0.00     0.064 A 
ATOM     61  C   UNL A   1      44.907  33.781  28.080  1.00  0.00     0.173 A 
ATOM     62  C   UNL A   1      45.748  33.194  30.256  1.00  0.00     0.173 A 
ATOM     63  F   UNL A   1      44.388  33.444  26.890  1.00  0.00    -0.203 F 
ATOM     64  C   UNL A   1      45.200  35.117  28.333  1.00  0.00     0.198 A 
ATOM     65  C   UNL A   1      46.001  34.534  30.520  1.00  0.00     0.198 A 
ATOM     66  F   UNL A   1      46.030  32.285  31.202  1.00  0.00    -0.203 F 
ATOM     67  F   UNL A   1      44.976  36.040  27.387  1.00  0.00    -0.200 F 
ATOM     68  C   UNL A   1      45.738  35.493  29.555  1.00  0.00     0.200 A 
ATOM     69  F   UNL A   1      46.503  34.898  31.709  1.00  0.00    -0.200 F 
ATOM     70  F   UNL A   1      46.009  36.783  29.800  1.00  0.00    -0.200 F 
ENDBRANCH  37  60
ENDBRANCH  11  12
ENDBRANCH   4   6
ENDBRANCH   3   4
ENDBRANCH   2   3
ENDBRANCH   1   2
BRANCH   1  71
ATOM     71  O   UNL A   1      37.045  21.592  24.578  1.00  0.00    -0.458 OA
BRANCH  71  72
ATOM     72  C   UNL A   1      35.980  22.105  25.237  1.00  0.00     0.340 C 
ATOM     73  O   UNL A   1      35.997  22.963  26.109  1.00  0.00    -0.246 OA
BRANCH  72  74
ATOM     74  C   UNL A   1      34.738  21.545  24.716  1.00  0.00     0.091 A 
ATOM     75  C   UNL A   1      34.517  20.209  25.045  1.00  0.00     0.127 A 
ATOM     76  C   UNL A   1      33.810  22.188  23.894  1.00  0.00     0.057 A 
ATOM     77  N   UNL A   1      33.424  19.501  24.674  1.00  0.00    -0.264 NA
ATOM     78  C   UNL A   1      32.689  21.444  23.474  1.00  0.00     0.035 A 
ATOM     79  C   UNL A   1      32.529  20.135  23.898  1.00  0.00     0.112 A 
BRANCH  76  80
ATOM     80  C   UNL A   1      33.821  23.624  23.448  1.00  0.00     0.254 C 
ATOM     81  O   UNL A   1      34.733  24.029  22.728  1.00  0.00    -0.269 OA
ATOM     82  N   UNL A   1      32.719  24.417  23.699  1.00  0.00    -0.339 N 
ATOM     83  C   UNL A   1      31.941  24.921  22.566  1.00  0.00     0.120 C 
ATOM     84  C   UNL A   1      32.588  25.083  24.989  1.00  0.00     0.120 C 
ATOM     85  C   UNL A   1      31.859  26.446  22.493  1.00  0.00     0.025 C 
ATOM     86  C   UNL A   1      32.532  26.595  24.876  1.00  0.00     0.025 C 
ATOM     87  C   UNL A   1      31.462  27.023  23.859  1.00  0.00    -0.003 C 
BRANCH  87  88
ATOM     88  C   UNL A   1      31.343  28.553  23.885  1.00  0.00     0.039 C 
BRANCH  88  89
ATOM     89  C   UNL A   1      29.988  29.118  23.548  1.00  0.00    -0.048 A 
ATOM     90  C   UNL A   1      29.748  30.487  23.734  1.00  0.00     0.004 A 
ATOM     91  C   UNL A   1      28.938  28.299  23.112  1.00  0.00     0.004 A 
ATOM     92  C   UNL A   1      28.484  31.025  23.501  1.00  0.00     0.000 A 
ATOM     93  C   UNL A   1      27.672  28.841  22.877  1.00  0.00     0.000 A 
ATOM     94  C   UNL A   1      27.444  30.201  23.076  1.00  0.00     0.000 A 
ENDBRANCH  88  89
ENDBRANCH  87  88
ENDBRANCH  76  80
ENDBRANCH  72  74
ENDBRANCH  71  72
ENDBRANCH   1  71
TORSDOF 14
ENDMDL
MODEL 3
REMARK VINA RESULT:     -13.0      5.211     11.002
REMARK SMILES O=C(OCCOC(=O)c1cnccc1C(=O)N1CCC(Cc2ccccc2)CC1)c1ccc(-c2c3nc(c(-c4c(F)c(F)c(F)c(F)c4F)c4ccc([nH]4)c(-c4c(F)c(F)c(F)c(F)c4F)c4nc(c(-c5c(F)c(F)c(F)c(F)c5F)c5ccc2[nH]5)C=C4)C=C3)cc1
REMARK SMILES IDX 5 1 4 2 3 3 2 4 1 5 30 6 31 7 92 8 32 9 91 10 33 11 34 12
REMARK SMILES IDX 35 13 85 14 36 15 90 16 84 17 86 18 37 19 89 20 83 21 82 22
REMARK SMILES IDX 38 24 70 25 50 26 69 27 51 28 54 29 68 30 87 31 52 32 53 33
REMARK SMILES IDX 67 35 88 36 55 37 39 38 40 39 48 40 41 41 42 42 46 43 49 44
REMARK SMILES IDX 43 45 44 46 47 47 45 48 71 49 72 50 80 51 73 52 74 53 78 54
REMARK SMILES IDX 81 55 75 56 76 57 79 58 77 59 56 60 57 61 65 62 58 63 59 64
REMARK SMILES IDX 63 65 66 66 60 67 61 68 64 69 62 70 6 71 7 72 8 73 9 74
REMARK SMILES IDX 10 75 14 76 11 77 13 78 12 79 15 80 16 81 17 82 18 83 29 84
REMARK SMILES IDX 19 85 28 86 20 87 21 88 22 89 23 90 27 91 24 92 26 93 25 94
REMARK H PARENT 86 23 54 34
REMARK Flexibility Score: inf
ROOT
ATOM      1  C   UNL A   1      38.247  21.168  25.369  1.00  0.00     0.275 C 
ENDROOT
BRANCH   1   2
ATOM      2  C   UNL A   1      38.782  19.762  25.111  1.00  0.00     0.275 C 
BRANCH   2   3
ATOM      3  O   UNL A   1      39.789  19.332  26.043  1.00  0.00    -0.458 OA
BRANCH   3   4
ATOM      4  C   UNL A   1      41.110  19.617  26.090  1.00  0.00     0.338 C 
ATOM      5  O   UNL A   1      41.904  18.740  25.752  1.00  0.00    -0.246 OA
BRANCH   4   6
ATOM      6  C   UNL A   1      41.681  20.931  26.546  1.00  0.00     0.060 A 
ATOM      7  C   UNL A   1      42.011  21.270  27.861  1.00  0.00     0.016 A 
ATOM      8  C   UNL A   1      41.926  21.891  25.544  1.00  0.00     0.016 A 
ATOM      9  C   UNL A   1      42.620  22.487  28.164  1.00  0.00     0.010 A 
ATOM     10  C   UNL A   1      42.516  23.125  25.841  1.00  0.00     0.010 A 
ATOM     11  C   UNL A   1      42.853  23.429  27.162  1.00  0.00    -0.014 A 
BRANCH  11  12
ATOM     12  C   UNL A   1      43.195  24.802  27.580  1.00  0.00     0.031 A 
ATOM     13  C   UNL A   1      44.585  25.269  27.301  1.00  0.00     0.074 A 
ATOM     14  C   UNL A   1      42.262  25.648  28.045  1.00  0.00     0.049 A 
ATOM     15  N   UNL A   1      45.091  26.466  27.413  1.00  0.00    -0.248 NA
ATOM     16  C   UNL A   1      45.522  24.257  26.784  1.00  0.00     0.031 C 
ATOM     17  C   UNL A   1      40.864  25.301  28.229  1.00  0.00     0.029 A 
ATOM     18  N   UNL A   1      42.323  26.965  28.415  1.00  0.00    -0.354 N 
ATOM     19  C   UNL A   1      46.394  26.356  26.958  1.00  0.00     0.074 A 
ATOM     20  C   UNL A   1      46.618  24.974  26.603  1.00  0.00     0.031 C 
ATOM     21  C   UNL A   1      40.187  26.364  28.688  1.00  0.00     0.029 A 
ATOM     22  C   UNL A   1      41.116  27.476  28.834  1.00  0.00     0.049 A 
ATOM     23  H   UNL A   1      43.152  27.496  28.383  1.00  0.00     0.167 HD
ATOM     24  C   UNL A   1      47.317  27.336  26.839  1.00  0.00     0.037 A 
ATOM     25  C   UNL A   1      40.805  28.709  29.275  1.00  0.00     0.037 A 
ATOM     26  C   UNL A   1      47.083  28.692  27.249  1.00  0.00     0.049 A 
ATOM     27  C   UNL A   1      41.894  29.747  29.261  1.00  0.00     0.074 A 
ATOM     28  C   UNL A   1      47.958  29.761  27.237  1.00  0.00     0.029 A 
ATOM     29  N   UNL A   1      45.881  29.159  27.769  1.00  0.00    -0.354 N 
ATOM     30  N   UNL A   1      43.127  29.643  28.822  1.00  0.00    -0.248 NA
ATOM     31  C   UNL A   1      41.552  31.075  29.782  1.00  0.00     0.031 C 
ATOM     32  C   UNL A   1      47.307  30.856  27.815  1.00  0.00     0.029 A 
ATOM     33  C   UNL A   1      46.002  30.493  28.116  1.00  0.00     0.049 A 
ATOM     34  H   UNL A   1      45.064  28.620  27.876  1.00  0.00     0.167 HD
ATOM     35  C   UNL A   1      43.696  30.898  28.974  1.00  0.00     0.074 A 
ATOM     36  C   UNL A   1      42.666  31.750  29.537  1.00  0.00     0.031 C 
ATOM     37  C   UNL A   1      44.951  31.312  28.671  1.00  0.00     0.037 A 
BRANCH  24  38
ATOM     38  C   UNL A   1      48.664  26.925  26.330  1.00  0.00     0.064 A 
ATOM     39  C   UNL A   1      49.032  27.089  24.985  1.00  0.00     0.173 A 
ATOM     40  C   UNL A   1      49.570  26.286  27.187  1.00  0.00     0.173 A 
ATOM     41  F   UNL A   1      48.182  27.659  24.116  1.00  0.00    -0.203 F 
ATOM     42  C   UNL A   1      50.243  26.594  24.510  1.00  0.00     0.198 A 
ATOM     43  C   UNL A   1      50.793  25.819  26.715  1.00  0.00     0.198 A 
ATOM     44  F   UNL A   1      49.257  26.088  28.476  1.00  0.00    -0.203 F 
ATOM     45  F   UNL A   1      50.540  26.692  23.207  1.00  0.00    -0.200 F 
ATOM     46  C   UNL A   1      51.124  25.962  25.376  1.00  0.00     0.200 A 
ATOM     47  F   UNL A   1      51.642  25.208  27.553  1.00  0.00    -0.200 F 
ATOM     48  F   UNL A   1      52.282  25.472  24.915  1.00  0.00    -0.200 F 
ENDBRANCH  24  38
BRANCH  25  49
ATOM     49  C   UNL A   1      39.429  29.029  29.746  1.00  0.00     0.064 A 
ATOM     50  C   UNL A   1      39.049  28.838  31.082  1.00  0.00     0.173 A 
ATOM     51  C   UNL A   1      38.449  29.497  28.856  1.00  0.00     0.173 A 
ATOM     52  F   UNL A   1      39.938  28.373  31.972  1.00  0.00    -0.203 F 
ATOM     53  C   UNL A   1      37.739  29.073  31.502  1.00  0.00     0.198 A 
ATOM     54  C   UNL A   1      37.147  29.760  29.282  1.00  0.00     0.198 A 
ATOM     55  F   UNL A   1      38.752  29.695  27.564  1.00  0.00    -0.203 F 
ATOM     56  F   UNL A   1      37.390  28.822  32.771  1.00  0.00    -0.200 F 
ATOM     57  C   UNL A   1      36.790  29.536  30.603  1.00  0.00     0.200 A 
ATOM     58  F   UNL A   1      36.236  30.210  28.411  1.00  0.00    -0.200 F 
ATOM     59  F   UNL A   1      35.530  29.747  31.005  1.00  0.00    -0.200 F 
ENDBRANCH  25  49
BRANCH  37  60
ATOM     60  C   UNL A   1      45.259  32.763  28.899  1.00  0.00     0.064 A 
ATOM     61  C   UNL A   1      45.834  33.220  30.094  1.00  0.00     0.173 A 
ATOM     62  C   UNL A   1      45.008  33.702  27.886  1.00  0.00     0.173 A 
ATOM     63  F   UNL A   1      46.080  32.363  31.097  1.00  0.00    -0.203 F 
ATOM     64  C   UNL A   1      46.113  34.570  30.279  1.00  0.00     0.198 A 
ATOM     65  C   UNL A   1      45.326  35.043  28.060  1.00  0.00     0.198 A 
ATOM     66  F   UNL A   1      44.467  33.312  26.722  1.00  0.00    -0.203 F 
ATOM     67  F   UNL A   1      46.606  34.995  31.451  1.00  0.00    -0.200 F 
ATOM     68  C   UNL A   1      45.868  35.478  29.260  1.00  0.00     0.200 A 
ATOM     69  F   UNL A   1      45.106  35.916  27.067  1.00  0.00    -0.200 F 
ATOM     70  F   UNL A   1      46.147  36.777  29.437  1.00  0.00    -0.200 F 
ENDBRANCH  37  60
ENDBRANCH  11  12
ENDBRANCH   4   6
ENDBRANCH   3   4
ENDBRANCH   2   3
ENDBRANCH   1   2
BRANCH   1  71
ATOM     71  O   UNL A   1      37.090  21.472  24.567  1.00  0.00    -0.458 OA
BRANCH  71  72
ATOM     72  C   UNL A   1      36.045  22.057  25.195  1.00  0.00     0.340 C 
ATOM     73  O   UNL A   1      36.094  22.947  26.034  1.00  0.00    -0.246 OA
BRANCH  72  74
ATOM     74  C   UNL A   1      34.782  21.537  24.683  1.00  0.00     0.091 A 
ATOM     75  C   UNL A   1      34.530  20.204  25.001  1.00  0.00     0.127 A 
ATOM     76  C   UNL A   1      33.862  22.213  23.879  1.00  0.00     0.057 A 
ATOM     77  N   UNL A   1      33.414  19.529  24.635  1.00  0.00    -0.264 NA
ATOM     78  C   UNL A   1      32.717  21.503  23.464  1.00  0.00     0.035 A 
ATOM     79  C   UNL A   1      32.527  20.194  23.877  1.00  0.00     0.112 A 
BRANCH  76  80
ATOM     80  C   UNL A   1      33.906  23.653  23.447  1.00  0.00     0.254 C 
ATOM     81  O   UNL A   1      34.839  24.049  22.749  1.00  0.00    -0.269 OA
ATOM     82  N   UNL A   1      32.813  24.462  23.685  1.00  0.00    -0.339 N 
ATOM     83  C   UNL A   1      32.066  24.990  22.542  1.00  0.00     0.120 C 
ATOM     84  C   UNL A   1      32.668  25.117  24.979  1.00  0.00     0.120 C 
ATOM     85  C   UNL A   1      32.011  26.516  22.483  1.00  0.00     0.025 C 
ATOM     86  C   UNL A   1      32.640  26.631  24.880  1.00  0.00     0.025 C 
ATOM     87  C   UNL A   1      31.597  27.087  23.846  1.00  0.00    -0.003 C 
BRANCH  87  88
ATOM     88  C   UNL A   1      31.504  28.619  23.886  1.00  0.00     0.039 C 
BRANCH  88  89
ATOM     89  C   UNL A   1      30.160  29.209  23.546  1.00  0.00    -0.048 A 
ATOM     90  C   UNL A   1      29.903  30.553  23.852  1.00  0.00     0.004 A 
ATOM     91  C   UNL A   1      29.136  28.433  22.988  1.00  0.00     0.004 A 
ATOM     92  C   UNL A   1      28.646  31.107  23.616  1.00  0.00     0.000 A 
ATOM     93  C   UNL A   1      27.878  28.991  22.751  1.00  0.00     0.000 A 
ATOM     94  C   UNL A   1      27.631  30.325  23.070  1.00  0.00     0.000 A 
ENDBRANCH  88  89
ENDBRANCH  87  88
ENDBRANCH  76  80
ENDBRANCH  72  74
ENDBRANCH  71  72
ENDBRANCH   1  71
TORSDOF 14
ENDMDL
