MODEL 1
REMARK VINA RESULT:     -12.6      0.000      0.000
REMARK SMILES O=C(OCCOC(=O)[C@@H]1C=C[C@@H]([NH+]2CC3(CCOCC3)C2)C1)c1ccc(-c2c3nc(c(-c4c(F)c(F)c(F)c(F)c4F)c4ccc([nH]4)c(-c4c(F)c(F)c(F)c(F)c4F)c4nc(c(-c5c(F)c(F)c(F)c(F)c5F)c5ccc2[nH]5)C=C4)C=C3)cc1
REMARK SMILES IDX 4 1 3 2 2 3 1 4 23 5 24 6 85 7 25 8 84 9 26 10 27 11 28 12
REMARK SMILES IDX 78 13 29 14 83 15 77 16 79 17 30 18 82 19 76 20 75 21 31 23
REMARK SMILES IDX 63 24 43 25 62 26 44 27 47 28 61 29 80 30 45 31 46 32 60 34
REMARK SMILES IDX 81 35 48 36 32 37 33 38 41 39 34 40 35 41 39 42 42 43 36 44
REMARK SMILES IDX 37 45 40 46 38 47 64 48 65 49 73 50 66 51 67 52 71 53 74 54
REMARK SMILES IDX 68 55 69 56 72 57 70 58 49 59 50 60 58 61 51 62 52 63 56 64
REMARK SMILES IDX 59 65 53 66 54 67 57 68 55 69 5 70 6 71 7 72 8 73 9 74 10 75
REMARK SMILES IDX 22 76 11 77 12 78 13 79 14 80 21 81 15 83 16 84 20 85 17 86
REMARK SMILES IDX 19 87 18 88
REMARK H PARENT 79 22 47 33 13 82
REMARK Flexibility Score: inf
ROOT
ATOM      1  C   UNL A   1      44.545  21.368  24.265  1.00  0.00     0.275 C 
ENDROOT
BRANCH   1   2
ATOM      2  O   UNL A   1      43.787  22.576  24.297  1.00  0.00    -0.458 OA
BRANCH   2   3
ATOM      3  C   UNL A   1      44.184  23.808  24.669  1.00  0.00     0.338 C 
ATOM      4  O   UNL A   1      45.276  24.201  24.260  1.00  0.00    -0.246 OA
BRANCH   3   5
ATOM      5  C   UNL A   1      43.434  24.710  25.615  1.00  0.00     0.060 A 
ATOM      6  C   UNL A   1      42.426  24.392  26.540  1.00  0.00     0.016 A 
ATOM      7  C   UNL A   1      43.869  26.036  25.599  1.00  0.00     0.016 A 
ATOM      8  C   UNL A   1      41.952  25.328  27.487  1.00  0.00     0.010 A 
ATOM      9  C   UNL A   1      43.428  26.942  26.558  1.00  0.00     0.010 A 
ATOM     10  C   UNL A   1      42.492  26.607  27.545  1.00  0.00    -0.014 A 
BRANCH  10  11
ATOM     11  C   UNL A   1      42.184  27.635  28.595  1.00  0.00     0.031 A 
ATOM     12  C   UNL A   1      42.795  27.454  29.965  1.00  0.00     0.074 A 
ATOM     13  C   UNL A   1      41.155  28.500  28.444  1.00  0.00     0.049 A 
ATOM     14  N   UNL A   1      42.364  27.853  31.135  1.00  0.00    -0.248 NA
ATOM     15  C   UNL A   1      43.996  26.606  30.022  1.00  0.00     0.031 C 
ATOM     16  C   UNL A   1      40.378  28.715  27.222  1.00  0.00     0.029 A 
ATOM     17  N   UNL A   1      40.495  29.264  29.384  1.00  0.00    -0.354 N 
ATOM     18  C   UNL A   1      43.202  27.244  32.064  1.00  0.00     0.074 A 
ATOM     19  C   UNL A   1      44.092  26.377  31.324  1.00  0.00     0.031 C 
ATOM     20  C   UNL A   1      39.293  29.455  27.508  1.00  0.00     0.029 A 
ATOM     21  C   UNL A   1      39.300  29.777  28.928  1.00  0.00     0.049 A 
ATOM     22  H   UNL A   1      40.844  29.427  30.292  1.00  0.00     0.167 HD
ATOM     23  C   UNL A   1      43.262  27.429  33.406  1.00  0.00     0.037 A 
ATOM     24  C   UNL A   1      38.301  30.404  29.582  1.00  0.00     0.037 A 
ATOM     25  C   UNL A   1      42.474  28.404  34.110  1.00  0.00     0.049 A 
ATOM     26  C   UNL A   1      38.451  30.710  31.046  1.00  0.00     0.074 A 
ATOM     27  C   UNL A   1      42.617  28.855  35.411  1.00  0.00     0.029 A 
ATOM     28  N   UNL A   1      41.407  29.094  33.561  1.00  0.00    -0.354 N 
ATOM     29  N   UNL A   1      39.340  30.261  31.896  1.00  0.00    -0.248 NA
ATOM     30  C   UNL A   1      37.489  31.658  31.627  1.00  0.00     0.031 C 
ATOM     31  C   UNL A   1      41.623  29.809  35.655  1.00  0.00     0.029 A 
ATOM     32  C   UNL A   1      40.886  29.974  34.495  1.00  0.00     0.049 A 
ATOM     33  H   UNL A   1      41.068  28.977  32.644  1.00  0.00     0.167 HD
ATOM     34  C   UNL A   1      39.095  30.933  33.086  1.00  0.00     0.074 A 
ATOM     35  C   UNL A   1      37.951  31.788  32.863  1.00  0.00     0.031 C 
ATOM     36  C   UNL A   1      39.783  30.864  34.250  1.00  0.00     0.037 A 
BRANCH  23  37
ATOM     37  C   UNL A   1      44.258  26.619  34.188  1.00  0.00     0.064 A 
ATOM     38  C   UNL A   1      43.903  25.413  34.815  1.00  0.00     0.173 A 
ATOM     39  C   UNL A   1      45.597  27.032  34.285  1.00  0.00     0.173 A 
ATOM     40  F   UNL A   1      42.644  24.959  34.743  1.00  0.00    -0.203 F 
ATOM     41  C   UNL A   1      44.828  24.691  35.564  1.00  0.00     0.198 A 
ATOM     42  C   UNL A   1      46.530  26.282  34.997  1.00  0.00     0.198 A 
ATOM     43  F   UNL A   1      46.003  28.159  33.681  1.00  0.00    -0.203 F 
ATOM     44  F   UNL A   1      44.440  23.587  36.217  1.00  0.00    -0.200 F 
ATOM     45  C   UNL A   1      46.142  25.122  35.650  1.00  0.00     0.200 A 
ATOM     46  F   UNL A   1      47.808  26.683  35.054  1.00  0.00    -0.200 F 
ATOM     47  F   UNL A   1      47.032  24.421  36.365  1.00  0.00    -0.200 F 
ENDBRANCH  23  37
BRANCH  24  48
ATOM     48  C   UNL A   1      37.079  30.846  28.863  1.00  0.00     0.064 A 
ATOM     49  C   UNL A   1      36.907  32.192  28.511  1.00  0.00     0.173 A 
ATOM     50  C   UNL A   1      36.035  29.956  28.580  1.00  0.00     0.173 A 
ATOM     51  F   UNL A   1      37.869  33.082  28.792  1.00  0.00    -0.203 F 
ATOM     52  C   UNL A   1      35.720  32.639  27.935  1.00  0.00     0.198 A 
ATOM     53  C   UNL A   1      34.854  30.401  27.986  1.00  0.00     0.198 A 
ATOM     54  F   UNL A   1      36.149  28.661  28.907  1.00  0.00    -0.203 F 
ATOM     55  F   UNL A   1      35.560  33.942  27.665  1.00  0.00    -0.200 F 
ATOM     56  C   UNL A   1      34.694  31.744  27.673  1.00  0.00     0.200 A 
ATOM     57  F   UNL A   1      33.862  29.537  27.736  1.00  0.00    -0.200 F 
ATOM     58  F   UNL A   1      33.545  32.180  27.139  1.00  0.00    -0.200 F 
ENDBRANCH  24  48
BRANCH  36  59
ATOM     59  C   UNL A   1      39.414  31.827  35.338  1.00  0.00     0.064 A 
ATOM     60  C   UNL A   1      38.535  31.486  36.372  1.00  0.00     0.173 A 
ATOM     61  C   UNL A   1      40.007  33.099  35.365  1.00  0.00     0.173 A 
ATOM     62  F   UNL A   1      37.929  30.289  36.376  1.00  0.00    -0.203 F 
ATOM     63  C   UNL A   1      38.253  32.390  37.393  1.00  0.00     0.198 A 
ATOM     64  C   UNL A   1      39.744  33.990  36.400  1.00  0.00     0.198 A 
ATOM     65  F   UNL A   1      40.855  33.471  34.394  1.00  0.00    -0.203 F 
ATOM     66  F   UNL A   1      37.384  32.058  38.359  1.00  0.00    -0.200 F 
ATOM     67  C   UNL A   1      38.865  33.635  37.412  1.00  0.00     0.200 A 
ATOM     68  F   UNL A   1      40.343  35.189  36.420  1.00  0.00    -0.200 F 
ATOM     69  F   UNL A   1      38.604  34.498  38.404  1.00  0.00    -0.200 F 
ENDBRANCH  36  59
ENDBRANCH  10  11
ENDBRANCH   3   5
ENDBRANCH   2   3
ENDBRANCH   1   2
BRANCH   1  70
ATOM     70  C   UNL A   1      44.117  20.325  25.306  1.00  0.00     0.274 C 
BRANCH  70  71
ATOM     71  O   UNL A   1      42.898  20.626  26.029  1.00  0.00    -0.462 OA
BRANCH  71  72
ATOM     72  C   UNL A   1      42.002  19.595  26.094  1.00  0.00     0.313 C 
ATOM     73  O   UNL A   1      42.237  18.469  25.673  1.00  0.00    -0.252 OA
BRANCH  72  74
ATOM     74  C   UNL A   1      40.614  19.978  26.625  1.00  0.00     0.128 C 
ATOM     75  C   UNL A   1      39.492  19.582  25.718  1.00  0.00    -0.010 C 
ATOM     76  C   UNL A   1      40.329  21.457  26.943  1.00  0.00     0.089 C 
ATOM     77  C   UNL A   1      38.677  20.608  25.455  1.00  0.00     0.033 C 
ATOM     78  C   UNL A   1      39.142  21.906  26.055  1.00  0.00     0.208 C 
BRANCH  78  79
ATOM     79  N   UNL A   1      37.981  22.668  26.531  1.00  0.00    -0.328 N 
ATOM     80  C   UNL A   1      36.702  22.165  26.012  1.00  0.00     0.275 C 
ATOM     81  C   UNL A   1      37.722  24.003  25.990  1.00  0.00     0.275 C 
ATOM     82  H   UNL A   1      38.222  22.619  27.521  1.00  0.00     0.348 HD
ATOM     83  C   UNL A   1      36.474  23.474  25.225  1.00  0.00     0.073 C 
ATOM     84  C   UNL A   1      35.145  24.175  25.550  1.00  0.00     0.047 C 
ATOM     85  C   UNL A   1      36.673  23.401  23.704  1.00  0.00     0.047 C 
ATOM     86  C   UNL A   1      34.008  23.512  24.774  1.00  0.00     0.161 C 
ATOM     87  C   UNL A   1      35.425  22.831  23.032  1.00  0.00     0.161 C 
ATOM     88  O   UNL A   1      34.273  23.597  23.370  1.00  0.00    -0.381 OA
ENDBRANCH  78  79
ENDBRANCH  72  74
ENDBRANCH  71  72
ENDBRANCH  70  71
ENDBRANCH   1  70
TORSDOF 12
ENDMDL
MODEL 2
REMARK VINA RESULT:     -12.4      1.147      2.055
REMARK SMILES O=C(OCCOC(=O)[C@@H]1C=C[C@@H]([NH+]2CC3(CCOCC3)C2)C1)c1ccc(-c2c3nc(c(-c4c(F)c(F)c(F)c(F)c4F)c4ccc([nH]4)c(-c4c(F)c(F)c(F)c(F)c4F)c4nc(c(-c5c(F)c(F)c(F)c(F)c5F)c5ccc2[nH]5)C=C4)C=C3)cc1
REMARK SMILES IDX 4 1 3 2 2 3 1 4 23 5 24 6 85 7 25 8 84 9 26 10 27 11 28 12
REMARK SMILES IDX 78 13 29 14 83 15 77 16 79 17 30 18 82 19 76 20 75 21 31 23
REMARK SMILES IDX 63 24 43 25 62 26 44 27 47 28 61 29 80 30 45 31 46 32 60 34
REMARK SMILES IDX 81 35 48 36 32 37 33 38 41 39 34 40 35 41 39 42 42 43 36 44
REMARK SMILES IDX 37 45 40 46 38 47 64 48 65 49 73 50 66 51 67 52 71 53 74 54
REMARK SMILES IDX 68 55 69 56 72 57 70 58 49 59 50 60 58 61 51 62 52 63 56 64
REMARK SMILES IDX 59 65 53 66 54 67 57 68 55 69 5 70 6 71 7 72 8 73 9 74 10 75
REMARK SMILES IDX 22 76 11 77 12 78 13 79 14 80 21 81 15 83 16 84 20 85 17 86
REMARK SMILES IDX 19 87 18 88
REMARK H PARENT 79 22 47 33 13 82
REMARK Flexibility Score: inf
ROOT
ATOM      1  C   UNL A   1      43.480  21.344  25.388  1.00  0.00     0.275 C 
ENDROOT
BRANCH   1   2
ATOM      2  O   UNL A   1      43.216  22.529  24.640  1.00  0.00    -0.458 OA
BRANCH   2   3
ATOM      3  C   UNL A   1      43.633  23.787  24.881  1.00  0.00     0.338 C 
ATOM      4  O   UNL A   1      44.710  24.130  24.395  1.00  0.00    -0.246 OA
BRANCH   3   5
ATOM      5  C   UNL A   1      42.925  24.778  25.768  1.00  0.00     0.060 A 
ATOM      6  C   UNL A   1      41.799  24.597  26.587  1.00  0.00     0.016 A 
ATOM      7  C   UNL A   1      43.537  26.032  25.817  1.00  0.00     0.016 A 
ATOM      8  C   UNL A   1      41.368  25.584  27.501  1.00  0.00     0.010 A 
ATOM      9  C   UNL A   1      43.133  26.985  26.745  1.00  0.00     0.010 A 
ATOM     10  C   UNL A   1      42.068  26.777  27.634  1.00  0.00    -0.014 A 
BRANCH  10  11
ATOM     11  C   UNL A   1      41.803  27.832  28.668  1.00  0.00     0.031 A 
ATOM     12  C   UNL A   1      42.430  27.662  30.032  1.00  0.00     0.074 A 
ATOM     13  C   UNL A   1      40.796  28.722  28.516  1.00  0.00     0.049 A 
ATOM     14  N   UNL A   1      42.028  28.093  31.200  1.00  0.00    -0.248 NA
ATOM     15  C   UNL A   1      43.610  26.783  30.088  1.00  0.00     0.031 C 
ATOM     16  C   UNL A   1      40.006  28.934  27.301  1.00  0.00     0.029 A 
ATOM     17  N   UNL A   1      40.171  29.521  29.450  1.00  0.00    -0.354 N 
ATOM     18  C   UNL A   1      42.864  27.480  32.129  1.00  0.00     0.074 A 
ATOM     19  C   UNL A   1      43.719  26.576  31.392  1.00  0.00     0.031 C 
ATOM     20  C   UNL A   1      38.946  29.708  27.588  1.00  0.00     0.029 A 
ATOM     21  C   UNL A   1      38.982  30.057  29.002  1.00  0.00     0.049 A 
ATOM     22  H   UNL A   1      40.537  29.691  30.349  1.00  0.00     0.167 HD
ATOM     23  C   UNL A   1      42.949  27.689  33.465  1.00  0.00     0.037 A 
ATOM     24  C   UNL A   1      38.010  30.722  29.658  1.00  0.00     0.037 A 
ATOM     25  C   UNL A   1      42.198  28.697  34.162  1.00  0.00     0.049 A 
ATOM     26  C   UNL A   1      38.191  31.051  31.114  1.00  0.00     0.074 A 
ATOM     27  C   UNL A   1      42.373  29.169  35.452  1.00  0.00     0.029 A 
ATOM     28  N   UNL A   1      41.141  29.405  33.616  1.00  0.00    -0.354 N 
ATOM     29  N   UNL A   1      39.081  30.596  31.959  1.00  0.00    -0.248 NA
ATOM     30  C   UNL A   1      37.262  32.035  31.691  1.00  0.00     0.031 C 
ATOM     31  C   UNL A   1      41.408  30.153  35.692  1.00  0.00     0.029 A 
ATOM     32  C   UNL A   1      40.657  30.316  34.540  1.00  0.00     0.049 A 
ATOM     33  H   UNL A   1      40.785  29.280  32.706  1.00  0.00     0.167 HD
ATOM     34  C   UNL A   1      38.871  31.296  33.139  1.00  0.00     0.074 A 
ATOM     35  C   UNL A   1      37.747  32.176  32.917  1.00  0.00     0.031 C 
ATOM     36  C   UNL A   1      39.575  31.230  34.294  1.00  0.00     0.037 A 
BRANCH  23  37
ATOM     37  C   UNL A   1      43.935  26.867  34.248  1.00  0.00     0.064 A 
ATOM     38  C   UNL A   1      45.274  27.263  34.399  1.00  0.00     0.173 A 
ATOM     39  C   UNL A   1      43.531  25.685  34.890  1.00  0.00     0.173 A 
ATOM     40  F   UNL A   1      45.715  28.391  33.823  1.00  0.00    -0.203 F 
ATOM     41  C   UNL A   1      46.184  26.475  35.098  1.00  0.00     0.198 A 
ATOM     42  C   UNL A   1      44.434  24.923  35.628  1.00  0.00     0.198 A 
ATOM     43  F   UNL A   1      42.257  25.272  34.808  1.00  0.00    -0.203 F 
ATOM     44  F   UNL A   1      47.473  26.838  35.156  1.00  0.00    -0.200 F 
ATOM     45  C   UNL A   1      45.763  25.309  35.717  1.00  0.00     0.200 A 
ATOM     46  F   UNL A   1      44.020  23.812  36.252  1.00  0.00    -0.200 F 
ATOM     47  F   UNL A   1      46.640  24.558  36.396  1.00  0.00    -0.200 F 
ENDBRANCH  23  37
BRANCH  24  48
ATOM     48  C   UNL A   1      36.790  31.183  28.949  1.00  0.00     0.064 A 
ATOM     49  C   UNL A   1      36.651  32.525  28.568  1.00  0.00     0.173 A 
ATOM     50  C   UNL A   1      35.716  30.317  28.704  1.00  0.00     0.173 A 
ATOM     51  F   UNL A   1      37.643  33.393  28.811  1.00  0.00    -0.203 F 
ATOM     52  C   UNL A   1      35.468  32.993  28.001  1.00  0.00     0.198 A 
ATOM     53  C   UNL A   1      34.538  30.783  28.119  1.00  0.00     0.198 A 
ATOM     54  F   UNL A   1      35.797  29.028  29.060  1.00  0.00    -0.203 F 
ATOM     55  F   UNL A   1      35.341  34.293  27.702  1.00  0.00    -0.200 F 
ATOM     56  C   UNL A   1      34.412  32.123  27.777  1.00  0.00     0.200 A 
ATOM     57  F   UNL A   1      33.517  29.943  27.906  1.00  0.00    -0.200 F 
ATOM     58  F   UNL A   1      33.267  32.579  27.252  1.00  0.00    -0.200 F 
ENDBRANCH  24  48
BRANCH  36  59
ATOM     59  C   UNL A   1      39.248  32.223  35.368  1.00  0.00     0.064 A 
ATOM     60  C   UNL A   1      38.412  31.910  36.446  1.00  0.00     0.173 A 
ATOM     61  C   UNL A   1      39.838  33.497  35.336  1.00  0.00     0.173 A 
ATOM     62  F   UNL A   1      37.810  30.714  36.509  1.00  0.00    -0.203 F 
ATOM     63  C   UNL A   1      38.170  32.842  37.453  1.00  0.00     0.198 A 
ATOM     64  C   UNL A   1      39.616  34.416  36.355  1.00  0.00     0.198 A 
ATOM     65  F   UNL A   1      40.646  33.842  34.322  1.00  0.00    -0.203 F 
ATOM     66  F   UNL A   1      37.342  32.537  38.462  1.00  0.00    -0.200 F 
ATOM     67  C   UNL A   1      38.779  34.089  37.412  1.00  0.00     0.200 A 
ATOM     68  F   UNL A   1      40.212  35.615  36.317  1.00  0.00    -0.200 F 
ATOM     69  F   UNL A   1      38.557  34.978  38.389  1.00  0.00    -0.200 F 
ENDBRANCH  36  59
ENDBRANCH  10  11
ENDBRANCH   3   5
ENDBRANCH   2   3
ENDBRANCH   1   2
BRANCH   1  70
ATOM     70  C   UNL A   1      42.440  21.034  26.472  1.00  0.00     0.274 C 
BRANCH  70  71
ATOM     71  O   UNL A   1      41.109  20.724  25.992  1.00  0.00    -0.462 OA
BRANCH  71  72
ATOM     72  C   UNL A   1      40.113  21.490  26.531  1.00  0.00     0.313 C 
ATOM     73  O   UNL A   1      40.035  21.752  27.726  1.00  0.00    -0.252 OA
BRANCH  72  74
ATOM     74  C   UNL A   1      39.011  21.906  25.547  1.00  0.00     0.128 C 
ATOM     75  C   UNL A   1      38.172  23.046  26.028  1.00  0.00    -0.010 C 
ATOM     76  C   UNL A   1      37.983  20.850  25.103  1.00  0.00     0.089 C 
ATOM     77  C   UNL A   1      36.867  22.768  25.964  1.00  0.00     0.033 C 
ATOM     78  C   UNL A   1      36.581  21.360  25.518  1.00  0.00     0.208 C 
BRANCH  78  79
ATOM     79  N   UNL A   1      35.396  21.355  24.650  1.00  0.00    -0.328 N 
ATOM     80  C   UNL A   1      34.578  22.568  24.773  1.00  0.00     0.275 C 
ATOM     81  C   UNL A   1      34.256  20.502  24.990  1.00  0.00     0.275 C 
ATOM     82  H   UNL A   1      35.896  21.121  23.792  1.00  0.00     0.348 HD
ATOM     83  C   UNL A   1      33.405  21.753  25.358  1.00  0.00     0.073 C 
ATOM     84  C   UNL A   1      32.086  21.913  24.584  1.00  0.00     0.047 C 
ATOM     85  C   UNL A   1      33.152  21.901  26.866  1.00  0.00     0.047 C 
ATOM     86  C   UNL A   1      31.394  23.208  25.006  1.00  0.00     0.161 C 
ATOM     87  C   UNL A   1      32.353  23.172  27.147  1.00  0.00     0.161 C 
ATOM     88  O   UNL A   1      31.133  23.176  26.412  1.00  0.00    -0.381 OA
ENDBRANCH  78  79
ENDBRANCH  72  74
ENDBRANCH  71  72
ENDBRANCH  70  71
ENDBRANCH   1  70
TORSDOF 12
ENDMDL
MODEL 3
REMARK VINA RESULT:     -12.4      4.211      9.194
REMARK SMILES O=C(OCCOC(=O)[C@@H]1C=C[C@@H]([NH+]2CC3(CCOCC3)C2)C1)c1ccc(-c2c3nc(c(-c4c(F)c(F)c(F)c(F)c4F)c4ccc([nH]4)c(-c4c(F)c(F)c(F)c(F)c4F)c4nc(c(-c5c(F)c(F)c(F)c(F)c5F)c5ccc2[nH]5)C=C4)C=C3)cc1
REMARK SMILES IDX 4 1 3 2 2 3 1 4 23 5 24 6 85 7 25 8 84 9 26 10 27 11 28 12
REMARK SMILES IDX 78 13 29 14 83 15 77 16 79 17 30 18 82 19 76 20 75 21 31 23
REMARK SMILES IDX 63 24 43 25 62 26 44 27 47 28 61 29 80 30 45 31 46 32 60 34
REMARK SMILES IDX 81 35 48 36 32 37 33 38 41 39 34 40 35 41 39 42 42 43 36 44
REMARK SMILES IDX 37 45 40 46 38 47 64 48 65 49 73 50 66 51 67 52 71 53 74 54
REMARK SMILES IDX 68 55 69 56 72 57 70 58 49 59 50 60 58 61 51 62 52 63 56 64
REMARK SMILES IDX 59 65 53 66 54 67 57 68 55 69 5 70 6 71 7 72 8 73 9 74 10 75
REMARK SMILES IDX 22 76 11 77 12 78 13 79 14 80 21 81 15 83 16 84 20 85 17 86
REMARK SMILES IDX 19 87 18 88
REMARK H PARENT 79 22 47 33 13 82
REMARK Flexibility Score: inf
ROOT
ATOM      1  C   UNL A   1      31.445  29.202  27.127  1.00  0.00     0.275 C 
ENDROOT
BRANCH   1   2
ATOM      2  O   UNL A   1      32.565  29.939  26.640  1.00  0.00    -0.458 OA
BRANCH   2   3
ATOM      3  C   UNL A   1      33.134  31.044  27.158  1.00  0.00     0.338 C 
ATOM      4  O   UNL A   1      32.438  32.055  27.244  1.00  0.00    -0.246 OA
BRANCH   3   5
ATOM      5  C   UNL A   1      34.581  31.163  27.564  1.00  0.00     0.060 A 
ATOM      6  C   UNL A   1      35.365  32.314  27.744  1.00  0.00     0.016 A 
ATOM      7  C   UNL A   1      35.187  29.942  27.865  1.00  0.00     0.016 A 
ATOM      8  C   UNL A   1      36.659  32.261  28.309  1.00  0.00     0.010 A 
ATOM      9  C   UNL A   1      36.445  29.899  28.456  1.00  0.00     0.010 A 
ATOM     10  C   UNL A   1      37.197  31.050  28.727  1.00  0.00    -0.014 A 
BRANCH  10  11
ATOM     11  C   UNL A   1      38.488  30.882  29.474  1.00  0.00     0.031 A 
ATOM     12  C   UNL A   1      39.447  29.814  29.002  1.00  0.00     0.074 A 
ATOM     13  C   UNL A   1      38.659  31.420  30.703  1.00  0.00     0.049 A 
ATOM     14  N   UNL A   1      40.342  29.134  29.673  1.00  0.00    -0.248 NA
ATOM     15  C   UNL A   1      39.284  29.380  27.605  1.00  0.00     0.031 C 
ATOM     16  C   UNL A   1      37.766  32.377  31.360  1.00  0.00     0.029 A 
ATOM     17  N   UNL A   1      39.584  31.119  31.682  1.00  0.00    -0.354 N 
ATOM     18  C   UNL A   1      40.792  28.151  28.797  1.00  0.00     0.074 A 
ATOM     19  C   UNL A   1      39.998  28.265  27.593  1.00  0.00     0.031 C 
ATOM     20  C   UNL A   1      38.115  32.498  32.652  1.00  0.00     0.029 A 
ATOM     21  C   UNL A   1      39.260  31.638  32.917  1.00  0.00     0.049 A 
ATOM     22  H   UNL A   1      40.396  30.585  31.514  1.00  0.00     0.167 HD
ATOM     23  C   UNL A   1      41.807  27.267  28.958  1.00  0.00     0.037 A 
ATOM     24  C   UNL A   1      39.795  31.419  34.135  1.00  0.00     0.037 A 
ATOM     25  C   UNL A   1      42.684  27.263  30.097  1.00  0.00     0.049 A 
ATOM     26  C   UNL A   1      41.003  30.534  34.265  1.00  0.00     0.074 A 
ATOM     27  C   UNL A   1      43.884  26.593  30.262  1.00  0.00     0.029 A 
ATOM     28  N   UNL A   1      42.463  27.982  31.259  1.00  0.00    -0.354 N 
ATOM     29  N   UNL A   1      41.529  29.720  33.384  1.00  0.00    -0.248 NA
ATOM     30  C   UNL A   1      41.725  30.582  35.545  1.00  0.00     0.031 C 
ATOM     31  C   UNL A   1      44.383  26.895  31.534  1.00  0.00     0.029 A 
ATOM     32  C   UNL A   1      43.509  27.779  32.144  1.00  0.00     0.049 A 
ATOM     33  H   UNL A   1      41.680  28.554  31.432  1.00  0.00     0.167 HD
ATOM     34  C   UNL A   1      42.685  29.225  33.972  1.00  0.00     0.074 A 
ATOM     35  C   UNL A   1      42.764  29.796  35.298  1.00  0.00     0.031 C 
ATOM     36  C   UNL A   1      43.612  28.394  33.440  1.00  0.00     0.037 A 
BRANCH  23  37
ATOM     37  C   UNL A   1      42.074  26.285  27.850  1.00  0.00     0.064 A 
ATOM     38  C   UNL A   1      41.360  25.081  27.742  1.00  0.00     0.173 A 
ATOM     39  C   UNL A   1      43.030  26.566  26.861  1.00  0.00     0.173 A 
ATOM     40  F   UNL A   1      40.423  24.766  28.648  1.00  0.00    -0.203 F 
ATOM     41  C   UNL A   1      41.641  24.166  26.731  1.00  0.00     0.198 A 
ATOM     42  C   UNL A   1      43.276  25.669  25.825  1.00  0.00     0.198 A 
ATOM     43  F   UNL A   1      43.722  27.715  26.895  1.00  0.00    -0.203 F 
ATOM     44  F   UNL A   1      41.000  22.989  26.700  1.00  0.00    -0.200 F 
ATOM     45  C   UNL A   1      42.594  24.462  25.769  1.00  0.00     0.200 A 
ATOM     46  F   UNL A   1      44.175  25.970  24.877  1.00  0.00    -0.200 F 
ATOM     47  F   UNL A   1      42.856  23.584  24.793  1.00  0.00    -0.200 F 
ENDBRANCH  23  37
BRANCH  24  48
ATOM     48  C   UNL A   1      39.243  32.086  35.341  1.00  0.00     0.064 A 
ATOM     49  C   UNL A   1      39.608  33.403  35.657  1.00  0.00     0.173 A 
ATOM     50  C   UNL A   1      38.405  31.406  36.234  1.00  0.00     0.173 A 
ATOM     51  F   UNL A   1      40.432  34.079  34.845  1.00  0.00    -0.203 F 
ATOM     52  C   UNL A   1      39.184  34.002  36.841  1.00  0.00     0.198 A 
ATOM     53  C   UNL A   1      37.967  32.014  37.410  1.00  0.00     0.198 A 
ATOM     54  F   UNL A   1      38.037  30.142  35.980  1.00  0.00    -0.203 F 
ATOM     55  F   UNL A   1      39.598  35.239  37.147  1.00  0.00    -0.200 F 
ATOM     56  C   UNL A   1      38.365  33.308  37.717  1.00  0.00     0.200 A 
ATOM     57  F   UNL A   1      37.177  31.341  38.258  1.00  0.00    -0.200 F 
ATOM     58  F   UNL A   1      37.976  33.877  38.866  1.00  0.00    -0.200 F 
ENDBRANCH  24  48
BRANCH  36  59
ATOM     59  C   UNL A   1      44.863  28.148  34.227  1.00  0.00     0.064 A 
ATOM     60  C   UNL A   1      45.002  27.054  35.089  1.00  0.00     0.173 A 
ATOM     61  C   UNL A   1      45.963  29.004  34.063  1.00  0.00     0.173 A 
ATOM     62  F   UNL A   1      43.970  26.221  35.294  1.00  0.00    -0.203 F 
ATOM     63  C   UNL A   1      46.197  26.829  35.767  1.00  0.00     0.198 A 
ATOM     64  C   UNL A   1      47.165  28.763  34.721  1.00  0.00     0.198 A 
ATOM     65  F   UNL A   1      45.877  30.067  33.248  1.00  0.00    -0.203 F 
ATOM     66  F   UNL A   1      46.302  25.793  36.612  1.00  0.00    -0.200 F 
ATOM     67  C   UNL A   1      47.280  27.676  35.574  1.00  0.00     0.200 A 
ATOM     68  F   UNL A   1      48.210  29.578  34.526  1.00  0.00    -0.200 F 
ATOM     69  F   UNL A   1      48.433  27.449  36.216  1.00  0.00    -0.200 F 
ENDBRANCH  36  59
ENDBRANCH  10  11
ENDBRANCH   3   5
ENDBRANCH   2   3
ENDBRANCH   1   2
BRANCH   1  70
ATOM     70  C   UNL A   1      31.799  27.841  27.738  1.00  0.00     0.274 C 
BRANCH  70  71
ATOM     71  O   UNL A   1      31.524  26.689  26.904  1.00  0.00    -0.462 OA
BRANCH  71  72
ATOM     72  C   UNL A   1      32.447  26.461  25.920  1.00  0.00     0.313 C 
ATOM     73  O   UNL A   1      33.618  26.180  26.146  1.00  0.00    -0.252 OA
BRANCH  72  74
ATOM     74  C   UNL A   1      31.942  26.706  24.491  1.00  0.00     0.128 C 
ATOM     75  C   UNL A   1      32.669  27.799  23.775  1.00  0.00    -0.010 C 
ATOM     76  C   UNL A   1      30.457  27.050  24.283  1.00  0.00     0.089 C 
ATOM     77  C   UNL A   1      31.829  28.700  23.257  1.00  0.00     0.033 C 
ATOM     78  C   UNL A   1      30.389  28.438  23.601  1.00  0.00     0.208 C 
BRANCH  78  79
ATOM     79  N   UNL A   1      29.544  28.765  22.446  1.00  0.00    -0.328 N 
ATOM     80  C   UNL A   1      29.864  30.063  21.838  1.00  0.00     0.275 C 
ATOM     81  C   UNL A   1      28.151  29.162  22.659  1.00  0.00     0.275 C 
ATOM     82  H   UNL A   1      29.693  27.883  21.955  1.00  0.00     0.348 HD
ATOM     83  C   UNL A   1      28.482  30.624  22.240  1.00  0.00     0.073 C 
ATOM     84  C   UNL A   1      27.667  31.180  21.061  1.00  0.00     0.047 C 
ATOM     85  C   UNL A   1      28.462  31.618  23.410  1.00  0.00     0.047 C 
ATOM     86  C   UNL A   1      28.142  32.594  20.726  1.00  0.00     0.161 C 
ATOM     87  C   UNL A   1      28.841  33.016  22.926  1.00  0.00     0.161 C 
ATOM     88  O   UNL A   1      27.982  33.437  21.870  1.00  0.00    -0.381 OA
ENDBRANCH  78  79
ENDBRANCH  72  74
ENDBRANCH  71  72
ENDBRANCH  70  71
ENDBRANCH   1  70
TORSDOF 12
ENDMDL
