MODEL 1
REMARK VINA RESULT:     -13.8      0.000      0.000
REMARK SMILES Cc1ccc(NC(=O)C[C@H]2SC[C@H](C(=O)OCCOC(=O)c3ccc(-c4c5nc(c(-c6c(F)c(F)c(F)c(F)c6F)c6ccc([nH]6)c(-c6c(F)c(F)c(F)c(F)c6F)c6nc(c(-c7c(F)c(F)c(F)c(F)c7F)c7ccc4[nH]7)C=C6)C=C5)cc3)NC2=O)cc1
REMARK SMILES IDX 17 1 16 2 14 3 15 4 13 5 10 6 11 7 86 8 12 9 85 10 87 11
REMARK SMILES IDX 9 13 7 14 6 15 8 17 5 18 1 19 2 20 3 21 89 22 4 23 88 24
REMARK SMILES IDX 18 25 19 26 20 27 21 28 22 29 23 30 84 31 24 32 83 33 25 34
REMARK SMILES IDX 26 35 27 36 77 37 28 38 82 39 76 40 78 41 29 42 81 43 75 44
REMARK SMILES IDX 74 45 30 47 62 48 42 49 61 50 43 51 46 52 60 53 79 54 44 55
REMARK SMILES IDX 45 56 59 58 80 59 47 60 31 61 32 62 40 63 33 64 34 65 38 66
REMARK SMILES IDX 41 67 35 68 36 69 39 70 37 71 63 72 64 73 72 74 65 75 66 76
REMARK SMILES IDX 70 77 73 78 67 79 68 80 71 81 69 82 48 83 49 84 57 85 50 86
REMARK SMILES IDX 51 87 55 88 58 89 52 90 53 91 56 92 54 93
REMARK H PARENT 85 12 6 16 78 46 46 57
REMARK Flexibility Score: inf
ROOT
ATOM      1  C   UNL A   1      32.330  30.284  26.215  1.00  0.00     0.274 C 
ENDROOT
BRANCH   1   2
ATOM      2  O   UNL A   1      32.453  29.681  24.923  1.00  0.00    -0.461 OA
BRANCH   2   3
ATOM      3  C   UNL A   1      31.307  29.145  24.419  1.00  0.00     0.329 C 
ATOM      4  O   UNL A   1      30.365  29.793  23.993  1.00  0.00    -0.250 OA
BRANCH   3   5
ATOM      5  C   UNL A   1      31.394  27.619  24.456  1.00  0.00     0.202 C 
ATOM      6  C   UNL A   1      32.292  25.181  25.995  1.00  0.00     0.145 C 
ATOM      7  S   UNL A   1      33.007  25.397  24.311  1.00  0.00    -0.145 SA
ATOM      8  C   UNL A   1      30.884  25.779  26.062  1.00  0.00     0.234 C 
ATOM      9  C   UNL A   1      32.838  27.207  24.225  1.00  0.00     0.107 C 
ATOM     10  N   UNL A   1      30.768  27.089  25.668  1.00  0.00    -0.341 N 
ATOM     11  O   UNL A   1      29.899  25.234  26.548  1.00  0.00    -0.274 OA
ATOM     12  H   UNL A   1      30.236  27.700  26.226  1.00  0.00     0.164 HD
BRANCH   6  13
ATOM     13  C   UNL A   1      32.496  23.743  26.469  1.00  0.00     0.124 C 
BRANCH  13  14
ATOM     14  C   UNL A   1      32.325  22.608  25.481  1.00  0.00     0.226 C 
ATOM     15  N   UNL A   1      33.338  21.818  25.040  1.00  0.00    -0.326 N 
ATOM     16  H   UNL A   1      33.025  21.068  24.484  1.00  0.00     0.169 HD
ATOM     17  O   UNL A   1      31.198  22.377  25.026  1.00  0.00    -0.275 OA
BRANCH  15  18
ATOM     18  C   UNL A   1      34.727  21.835  25.201  1.00  0.00     0.041 A 
ATOM     19  C   UNL A   1      39.001  21.567  25.721  1.00  0.00     0.044 C 
ATOM     20  C   UNL A   1      37.517  21.650  25.529  1.00  0.00    -0.051 A 
ATOM     21  C   UNL A   1      36.848  22.859  25.751  1.00  0.00     0.005 A 
ATOM     22  C   UNL A   1      36.782  20.538  25.116  1.00  0.00     0.005 A 
ATOM     23  C   UNL A   1      35.465  22.955  25.570  1.00  0.00     0.026 A 
ATOM     24  C   UNL A   1      35.401  20.635  24.943  1.00  0.00     0.026 A 
ENDBRANCH  15  18
ENDBRANCH  13  14
ENDBRANCH   6  13
ENDBRANCH   3   5
ENDBRANCH   2   3
ENDBRANCH   1   2
BRANCH   1  25
ATOM     25  C   UNL A   1      33.198  29.512  27.221  1.00  0.00     0.275 C 
BRANCH  25  26
ATOM     26  O   UNL A   1      34.649  29.586  27.119  1.00  0.00    -0.458 OA
BRANCH  26  27
ATOM     27  C   UNL A   1      35.342  30.575  27.730  1.00  0.00     0.338 C 
ATOM     28  O   UNL A   1      34.951  31.732  27.844  1.00  0.00    -0.246 OA
BRANCH  27  29
ATOM     29  C   UNL A   1      36.640  30.088  28.256  1.00  0.00     0.060 A 
ATOM     30  C   UNL A   1      36.707  29.431  29.498  1.00  0.00     0.016 A 
ATOM     31  C   UNL A   1      37.747  30.107  27.411  1.00  0.00     0.016 A 
ATOM     32  C   UNL A   1      37.830  28.661  29.822  1.00  0.00     0.010 A 
ATOM     33  C   UNL A   1      38.809  29.280  27.691  1.00  0.00     0.010 A 
ATOM     34  C   UNL A   1      38.854  28.538  28.883  1.00  0.00    -0.014 A 
BRANCH  34  35
ATOM     35  C   UNL A   1      40.105  27.808  29.064  1.00  0.00     0.031 A 
ATOM     36  C   UNL A   1      40.341  26.407  28.648  1.00  0.00     0.074 A 
ATOM     37  C   UNL A   1      41.132  28.605  29.422  1.00  0.00     0.049 A 
ATOM     38  N   UNL A   1      41.453  25.779  28.846  1.00  0.00    -0.248 NA
ATOM     39  C   UNL A   1      39.339  25.565  28.013  1.00  0.00     0.031 C 
ATOM     40  C   UNL A   1      42.563  28.399  29.282  1.00  0.00     0.029 A 
ATOM     41  N   UNL A   1      41.017  29.784  30.174  1.00  0.00    -0.354 N 
ATOM     42  C   UNL A   1      41.407  24.561  28.200  1.00  0.00     0.074 A 
ATOM     43  C   UNL A   1      40.037  24.449  27.761  1.00  0.00     0.031 C 
ATOM     44  C   UNL A   1      43.191  29.220  30.142  1.00  0.00     0.029 A 
ATOM     45  C   UNL A   1      42.160  29.805  30.990  1.00  0.00     0.049 A 
ATOM     46  H   UNL A   1      40.293  30.451  30.139  1.00  0.00     0.167 HD
ATOM     47  C   UNL A   1      42.570  23.854  28.058  1.00  0.00     0.037 A 
ATOM     48  C   UNL A   1      42.023  29.569  32.331  1.00  0.00     0.037 A 
ATOM     49  C   UNL A   1      43.635  24.473  28.849  1.00  0.00     0.049 A 
ATOM     50  C   UNL A   1      42.800  28.371  32.822  1.00  0.00     0.074 A 
ATOM     51  C   UNL A   1      44.680  25.334  28.560  1.00  0.00     0.029 A 
ATOM     52  N   UNL A   1      43.538  24.428  30.228  1.00  0.00    -0.354 N 
ATOM     53  N   UNL A   1      43.230  27.413  32.050  1.00  0.00    -0.248 NA
ATOM     54  C   UNL A   1      43.078  28.124  34.234  1.00  0.00     0.031 C 
ATOM     55  C   UNL A   1      45.188  25.835  29.794  1.00  0.00     0.029 A 
ATOM     56  C   UNL A   1      44.463  25.261  30.823  1.00  0.00     0.049 A 
ATOM     57  H   UNL A   1      42.892  23.873  30.722  1.00  0.00     0.167 HD
ATOM     58  C   UNL A   1      43.863  26.475  32.811  1.00  0.00     0.074 A 
ATOM     59  C   UNL A   1      43.705  26.937  34.177  1.00  0.00     0.031 C 
ATOM     60  C   UNL A   1      44.473  25.385  32.267  1.00  0.00     0.037 A 
BRANCH  47  61
ATOM     61  C   UNL A   1      42.858  22.678  27.133  1.00  0.00     0.064 A 
ATOM     62  C   UNL A   1      42.190  21.440  27.326  1.00  0.00     0.173 A 
ATOM     63  C   UNL A   1      43.797  22.657  26.086  1.00  0.00     0.173 A 
ATOM     64  F   UNL A   1      41.239  21.293  28.258  1.00  0.00    -0.203 F 
ATOM     65  C   UNL A   1      42.477  20.290  26.576  1.00  0.00     0.198 A 
ATOM     66  C   UNL A   1      44.077  21.511  25.329  1.00  0.00     0.198 A 
ATOM     67  F   UNL A   1      44.487  23.738  25.731  1.00  0.00    -0.203 F 
ATOM     68  F   UNL A   1      41.827  19.147  26.838  1.00  0.00    -0.200 F 
ATOM     69  C   UNL A   1      43.427  20.324  25.581  1.00  0.00     0.200 A 
ATOM     70  F   UNL A   1      44.995  21.574  24.352  1.00  0.00    -0.200 F 
ATOM     71  F   UNL A   1      43.711  19.226  24.868  1.00  0.00    -0.200 F 
ENDBRANCH  47  61
BRANCH  48  72
ATOM     72  C   UNL A   1      40.683  29.961  32.872  1.00  0.00     0.064 A 
ATOM     73  C   UNL A   1      40.352  31.330  32.968  1.00  0.00     0.173 A 
ATOM     74  C   UNL A   1      39.632  29.039  32.963  1.00  0.00     0.173 A 
ATOM     75  F   UNL A   1      41.314  32.263  32.879  1.00  0.00    -0.203 F 
ATOM     76  C   UNL A   1      39.026  31.753  33.034  1.00  0.00     0.198 A 
ATOM     77  C   UNL A   1      38.306  29.468  33.052  1.00  0.00     0.198 A 
ATOM     78  F   UNL A   1      39.870  27.723  32.879  1.00  0.00    -0.203 F 
ATOM     79  F   UNL A   1      38.739  33.063  33.005  1.00  0.00    -0.200 F 
ATOM     80  C   UNL A   1      38.002  30.821  33.055  1.00  0.00     0.200 A 
ATOM     81  F   UNL A   1      37.314  28.567  33.066  1.00  0.00    -0.200 F 
ATOM     82  F   UNL A   1      36.725  31.226  33.042  1.00  0.00    -0.200 F 
ENDBRANCH  48  72
BRANCH  60  83
ATOM     83  C   UNL A   1      45.164  24.347  33.087  1.00  0.00     0.064 A 
ATOM     84  C   UNL A   1      44.519  23.178  33.514  1.00  0.00     0.173 A 
ATOM     85  C   UNL A   1      46.474  24.559  33.559  1.00  0.00     0.173 A 
ATOM     86  F   UNL A   1      43.251  22.926  33.156  1.00  0.00    -0.203 F 
ATOM     87  C   UNL A   1      45.165  22.253  34.331  1.00  0.00     0.198 A 
ATOM     88  C   UNL A   1      47.098  23.659  34.417  1.00  0.00     0.198 A 
ATOM     89  F   UNL A   1      47.183  25.634  33.179  1.00  0.00    -0.203 F 
ATOM     90  F   UNL A   1      44.538  21.119  34.676  1.00  0.00    -0.200 F 
ATOM     91  C   UNL A   1      46.448  22.498  34.792  1.00  0.00     0.200 A 
ATOM     92  F   UNL A   1      48.331  23.919  34.872  1.00  0.00    -0.200 F 
ATOM     93  F   UNL A   1      47.059  21.616  35.594  1.00  0.00    -0.200 F 
ENDBRANCH  60  83
ENDBRANCH  34  35
ENDBRANCH  27  29
ENDBRANCH  26  27
ENDBRANCH  25  26
ENDBRANCH   1  25
TORSDOF 14
ENDMDL
MODEL 2
REMARK VINA RESULT:     -13.6      1.382      1.904
REMARK SMILES Cc1ccc(NC(=O)C[C@H]2SC[C@H](C(=O)OCCOC(=O)c3ccc(-c4c5nc(c(-c6c(F)c(F)c(F)c(F)c6F)c6ccc([nH]6)c(-c6c(F)c(F)c(F)c(F)c6F)c6nc(c(-c7c(F)c(F)c(F)c(F)c7F)c7ccc4[nH]7)C=C6)C=C5)cc3)NC2=O)cc1
REMARK SMILES IDX 17 1 16 2 14 3 15 4 13 5 10 6 11 7 86 8 12 9 85 10 87 11
REMARK SMILES IDX 9 13 7 14 6 15 8 17 5 18 1 19 2 20 3 21 89 22 4 23 88 24
REMARK SMILES IDX 18 25 19 26 20 27 21 28 22 29 23 30 84 31 24 32 83 33 25 34
REMARK SMILES IDX 26 35 27 36 77 37 28 38 82 39 76 40 78 41 29 42 81 43 75 44
REMARK SMILES IDX 74 45 30 47 62 48 42 49 61 50 43 51 46 52 60 53 79 54 44 55
REMARK SMILES IDX 45 56 59 58 80 59 47 60 31 61 32 62 40 63 33 64 34 65 38 66
REMARK SMILES IDX 41 67 35 68 36 69 39 70 37 71 63 72 64 73 72 74 65 75 66 76
REMARK SMILES IDX 70 77 73 78 67 79 68 80 71 81 69 82 48 83 49 84 57 85 50 86
REMARK SMILES IDX 51 87 55 88 58 89 52 90 53 91 56 92 54 93
REMARK H PARENT 85 12 6 16 78 46 46 57
REMARK Flexibility Score: inf
ROOT
ATOM      1  C   UNL A   1      32.107  29.737  26.272  1.00  0.00     0.274 C 
ENDROOT
BRANCH   1   2
ATOM      2  O   UNL A   1      31.548  28.515  25.779  1.00  0.00    -0.461 OA
BRANCH   2   3
ATOM      3  C   UNL A   1      31.361  27.543  26.714  1.00  0.00     0.329 C 
ATOM      4  O   UNL A   1      31.265  27.741  27.914  1.00  0.00    -0.250 OA
BRANCH   3   5
ATOM      5  C   UNL A   1      31.275  26.180  26.027  1.00  0.00     0.202 C 
ATOM      6  C   UNL A   1      32.664  23.566  25.429  1.00  0.00     0.145 C 
ATOM      7  S   UNL A   1      32.150  24.572  23.975  1.00  0.00    -0.145 SA
ATOM      8  C   UNL A   1      31.708  23.791  26.605  1.00  0.00     0.234 C 
ATOM      9  C   UNL A   1      32.174  26.192  24.802  1.00  0.00     0.107 C 
ATOM     10  N   UNL A   1      31.518  25.097  26.982  1.00  0.00    -0.341 N 
ATOM     11  O   UNL A   1      31.211  22.912  27.300  1.00  0.00    -0.274 OA
ATOM     12  H   UNL A   1      31.543  25.316  27.941  1.00  0.00     0.164 HD
BRANCH   6  13
ATOM     13  C   UNL A   1      32.958  22.131  24.995  1.00  0.00     0.124 C 
BRANCH  13  14
ATOM     14  C   UNL A   1      34.389  21.722  24.712  1.00  0.00     0.226 C 
ATOM     15  N   UNL A   1      34.817  20.436  24.635  1.00  0.00    -0.326 N 
ATOM     16  H   UNL A   1      35.753  20.360  24.340  1.00  0.00     0.169 HD
ATOM     17  O   UNL A   1      35.241  22.605  24.549  1.00  0.00    -0.275 OA
BRANCH  15  18
ATOM     18  C   UNL A   1      34.220  19.194  24.881  1.00  0.00     0.041 A 
ATOM     19  C   UNL A   1      32.551  15.251  25.395  1.00  0.00     0.044 C 
ATOM     20  C   UNL A   1      33.145  16.615  25.217  1.00  0.00    -0.051 A 
ATOM     21  C   UNL A   1      32.511  17.733  25.771  1.00  0.00     0.005 A 
ATOM     22  C   UNL A   1      34.337  16.794  24.514  1.00  0.00     0.005 A 
ATOM     23  C   UNL A   1      33.056  19.012  25.619  1.00  0.00     0.026 A 
ATOM     24  C   UNL A   1      34.875  18.073  24.359  1.00  0.00     0.026 A 
ENDBRANCH  15  18
ENDBRANCH  13  14
ENDBRANCH   6  13
ENDBRANCH   3   5
ENDBRANCH   2   3
ENDBRANCH   1   2
BRANCH   1  25
ATOM     25  C   UNL A   1      33.631  29.712  26.080  1.00  0.00     0.275 C 
BRANCH  25  26
ATOM     26  O   UNL A   1      34.493  29.479  27.231  1.00  0.00    -0.458 OA
BRANCH  26  27
ATOM     27  C   UNL A   1      35.188  30.492  27.800  1.00  0.00     0.338 C 
ATOM     28  O   UNL A   1      34.780  31.645  27.902  1.00  0.00    -0.246 OA
BRANCH  27  29
ATOM     29  C   UNL A   1      36.510  30.038  28.294  1.00  0.00     0.060 A 
ATOM     30  C   UNL A   1      36.631  29.440  29.561  1.00  0.00     0.016 A 
ATOM     31  C   UNL A   1      37.582  30.025  27.406  1.00  0.00     0.016 A 
ATOM     32  C   UNL A   1      37.772  28.693  29.875  1.00  0.00     0.010 A 
ATOM     33  C   UNL A   1      38.661  29.219  27.679  1.00  0.00     0.010 A 
ATOM     34  C   UNL A   1      38.759  28.532  28.902  1.00  0.00    -0.014 A 
BRANCH  34  35
ATOM     35  C   UNL A   1      40.023  27.819  29.065  1.00  0.00     0.031 A 
ATOM     36  C   UNL A   1      40.269  26.419  28.654  1.00  0.00     0.074 A 
ATOM     37  C   UNL A   1      41.045  28.632  29.401  1.00  0.00     0.049 A 
ATOM     38  N   UNL A   1      41.392  25.807  28.837  1.00  0.00    -0.248 NA
ATOM     39  C   UNL A   1      39.267  25.561  28.041  1.00  0.00     0.031 C 
ATOM     40  C   UNL A   1      42.476  28.443  29.237  1.00  0.00     0.029 A 
ATOM     41  N   UNL A   1      40.928  29.813  30.148  1.00  0.00    -0.354 N 
ATOM     42  C   UNL A   1      41.350  24.584  28.198  1.00  0.00     0.074 A 
ATOM     43  C   UNL A   1      39.974  24.452  27.784  1.00  0.00     0.031 C 
ATOM     44  C   UNL A   1      43.108  29.276  30.082  1.00  0.00     0.029 A 
ATOM     45  C   UNL A   1      42.085  29.853  30.944  1.00  0.00     0.049 A 
ATOM     46  H   UNL A   1      40.196  30.471  30.121  1.00  0.00     0.167 HD
ATOM     47  C   UNL A   1      42.519  23.890  28.041  1.00  0.00     0.037 A 
ATOM     48  C   UNL A   1      41.973  29.625  32.288  1.00  0.00     0.037 A 
ATOM     49  C   UNL A   1      43.589  24.528  28.810  1.00  0.00     0.049 A 
ATOM     50  C   UNL A   1      42.775  28.439  32.773  1.00  0.00     0.074 A 
ATOM     51  C   UNL A   1      44.618  25.400  28.497  1.00  0.00     0.029 A 
ATOM     52  N   UNL A   1      43.517  24.490  30.190  1.00  0.00    -0.354 N 
ATOM     53  N   UNL A   1      43.203  27.482  32.000  1.00  0.00    -0.248 NA
ATOM     54  C   UNL A   1      43.080  28.204  34.181  1.00  0.00     0.031 C 
ATOM     55  C   UNL A   1      45.142  25.915  29.719  1.00  0.00     0.029 A 
ATOM     56  C   UNL A   1      44.441  25.338  30.764  1.00  0.00     0.049 A 
ATOM     57  H   UNL A   1      42.887  23.930  30.699  1.00  0.00     0.167 HD
ATOM     58  C   UNL A   1      43.861  26.556  32.755  1.00  0.00     0.074 A 
ATOM     59  C   UNL A   1      43.721  27.025  34.120  1.00  0.00     0.031 C 
ATOM     60  C   UNL A   1      44.475  25.472  32.207  1.00  0.00     0.037 A 
BRANCH  47  61
ATOM     61  C   UNL A   1      42.806  22.712  27.118  1.00  0.00     0.064 A 
ATOM     62  C   UNL A   1      42.129  21.479  27.306  1.00  0.00     0.173 A 
ATOM     63  C   UNL A   1      43.752  22.685  26.077  1.00  0.00     0.173 A 
ATOM     64  F   UNL A   1      41.171  21.338  28.232  1.00  0.00    -0.203 F 
ATOM     65  C   UNL A   1      42.413  20.327  26.559  1.00  0.00     0.198 A 
ATOM     66  C   UNL A   1      44.031  21.537  25.322  1.00  0.00     0.198 A 
ATOM     67  F   UNL A   1      44.451  23.762  25.727  1.00  0.00    -0.203 F 
ATOM     68  F   UNL A   1      41.755  19.188  26.816  1.00  0.00    -0.200 F 
ATOM     69  C   UNL A   1      43.371  20.355  25.570  1.00  0.00     0.200 A 
ATOM     70  F   UNL A   1      44.955  21.594  24.351  1.00  0.00    -0.200 F 
ATOM     71  F   UNL A   1      43.653  19.255  24.859  1.00  0.00    -0.200 F 
ENDBRANCH  47  61
BRANCH  48  72
ATOM     72  C   UNL A   1      40.639  30.003  32.850  1.00  0.00     0.064 A 
ATOM     73  C   UNL A   1      40.289  31.367  32.936  1.00  0.00     0.173 A 
ATOM     74  C   UNL A   1      39.603  29.067  32.973  1.00  0.00     0.173 A 
ATOM     75  F   UNL A   1      41.234  32.314  32.817  1.00  0.00    -0.203 F 
ATOM     76  C   UNL A   1      38.957  31.772  33.022  1.00  0.00     0.198 A 
ATOM     77  C   UNL A   1      38.274  29.476  33.082  1.00  0.00     0.198 A 
ATOM     78  F   UNL A   1      39.861  27.753  32.900  1.00  0.00    -0.203 F 
ATOM     79  F   UNL A   1      38.650  33.077  32.982  1.00  0.00    -0.200 F 
ATOM     80  C   UNL A   1      37.949  30.824  33.074  1.00  0.00     0.200 A 
ATOM     81  F   UNL A   1      37.296  28.561  33.125  1.00  0.00    -0.200 F 
ATOM     82  F   UNL A   1      36.665  31.210  33.081  1.00  0.00    -0.200 F 
ENDBRANCH  48  72
BRANCH  60  83
ATOM     83  C   UNL A   1      45.193  24.447  33.021  1.00  0.00     0.064 A 
ATOM     84  C   UNL A   1      44.575  23.265  33.453  1.00  0.00     0.173 A 
ATOM     85  C   UNL A   1      46.502  24.685  33.483  1.00  0.00     0.173 A 
ATOM     86  F   UNL A   1      43.310  22.988  33.104  1.00  0.00    -0.203 F 
ATOM     87  C   UNL A   1      45.246  22.352  34.264  1.00  0.00     0.198 A 
ATOM     88  C   UNL A   1      47.150  23.797  34.336  1.00  0.00     0.198 A 
ATOM     89  F   UNL A   1      47.187  25.774  33.099  1.00  0.00    -0.203 F 
ATOM     90  F   UNL A   1      44.644  21.206  34.613  1.00  0.00    -0.200 F 
ATOM     91  C   UNL A   1      46.527  22.624  34.715  1.00  0.00     0.200 A 
ATOM     92  F   UNL A   1      48.382  24.082  34.781  1.00  0.00    -0.200 F 
ATOM     93  F   UNL A   1      47.162  21.754  35.512  1.00  0.00    -0.200 F 
ENDBRANCH  60  83
ENDBRANCH  34  35
ENDBRANCH  27  29
ENDBRANCH  26  27
ENDBRANCH  25  26
ENDBRANCH   1  25
TORSDOF 14
ENDMDL
MODEL 3
REMARK VINA RESULT:     -13.3      3.840     10.060
REMARK SMILES Cc1ccc(NC(=O)C[C@H]2SC[C@H](C(=O)OCCOC(=O)c3ccc(-c4c5nc(c(-c6c(F)c(F)c(F)c(F)c6F)c6ccc([nH]6)c(-c6c(F)c(F)c(F)c(F)c6F)c6nc(c(-c7c(F)c(F)c(F)c(F)c7F)c7ccc4[nH]7)C=C6)C=C5)cc3)NC2=O)cc1
REMARK SMILES IDX 17 1 16 2 14 3 15 4 13 5 10 6 11 7 86 8 12 9 85 10 87 11
REMARK SMILES IDX 9 13 7 14 6 15 8 17 5 18 1 19 2 20 3 21 89 22 4 23 88 24
REMARK SMILES IDX 18 25 19 26 20 27 21 28 22 29 23 30 84 31 24 32 83 33 25 34
REMARK SMILES IDX 26 35 27 36 77 37 28 38 82 39 76 40 78 41 29 42 81 43 75 44
REMARK SMILES IDX 74 45 30 47 62 48 42 49 61 50 43 51 46 52 60 53 79 54 44 55
REMARK SMILES IDX 45 56 59 58 80 59 47 60 31 61 32 62 40 63 33 64 34 65 38 66
REMARK SMILES IDX 41 67 35 68 36 69 39 70 37 71 63 72 64 73 72 74 65 75 66 76
REMARK SMILES IDX 70 77 73 78 67 79 68 80 71 81 69 82 48 83 49 84 57 85 50 86
REMARK SMILES IDX 51 87 55 88 58 89 52 90 53 91 56 92 54 93
REMARK H PARENT 85 12 6 16 78 46 46 57
REMARK Flexibility Score: inf
ROOT
ATOM      1  C   UNL A   1      36.799  21.239  25.288  1.00  0.00     0.274 C 
ENDROOT
BRANCH   1   2
ATOM      2  O   UNL A   1      35.736  21.578  26.186  1.00  0.00    -0.461 OA
BRANCH   2   3
ATOM      3  C   UNL A   1      34.486  21.531  25.651  1.00  0.00     0.329 C 
ATOM      4  O   UNL A   1      33.849  20.507  25.461  1.00  0.00    -0.250 OA
BRANCH   3   5
ATOM      5  C   UNL A   1      34.004  22.948  25.345  1.00  0.00     0.202 C 
ATOM      6  C   UNL A   1      31.747  24.681  24.332  1.00  0.00     0.145 C 
ATOM      7  S   UNL A   1      33.341  24.793  23.417  1.00  0.00    -0.145 SA
ATOM      8  C   UNL A   1      31.996  24.356  25.808  1.00  0.00     0.234 C 
ATOM      9  C   UNL A   1      33.961  23.135  23.838  1.00  0.00     0.107 C 
ATOM     10  N   UNL A   1      32.760  23.243  26.057  1.00  0.00    -0.341 N 
ATOM     11  O   UNL A   1      31.476  24.923  26.762  1.00  0.00    -0.274 OA
ATOM     12  H   UNL A   1      32.457  22.613  26.751  1.00  0.00     0.164 HD
BRANCH   6  13
ATOM     13  C   UNL A   1      30.862  25.878  23.989  1.00  0.00     0.124 C 
BRANCH  13  14
ATOM     14  C   UNL A   1      31.299  26.832  22.897  1.00  0.00     0.226 C 
ATOM     15  N   UNL A   1      32.021  27.961  23.110  1.00  0.00    -0.326 N 
ATOM     16  H   UNL A   1      32.302  28.401  22.275  1.00  0.00     0.169 HD
ATOM     17  O   UNL A   1      30.974  26.588  21.727  1.00  0.00    -0.275 OA
BRANCH  15  18
ATOM     18  C   UNL A   1      32.454  28.639  24.255  1.00  0.00     0.041 A 
ATOM     19  C   UNL A   1      33.573  30.952  27.719  1.00  0.00     0.044 C 
ATOM     20  C   UNL A   1      33.170  30.148  26.520  1.00  0.00    -0.051 A 
ATOM     21  C   UNL A   1      34.035  29.177  26.005  1.00  0.00     0.005 A 
ATOM     22  C   UNL A   1      31.931  30.342  25.908  1.00  0.00     0.005 A 
ATOM     23  C   UNL A   1      33.672  28.414  24.890  1.00  0.00     0.026 A 
ATOM     24  C   UNL A   1      31.573  29.583  24.792  1.00  0.00     0.026 A 
ENDBRANCH  15  18
ENDBRANCH  13  14
ENDBRANCH   6  13
ENDBRANCH   3   5
ENDBRANCH   2   3
ENDBRANCH   1   2
BRANCH   1  25
ATOM     25  C   UNL A   1      37.550  22.517  24.884  1.00  0.00     0.275 C 
BRANCH  25  26
ATOM     26  O   UNL A   1      37.999  23.441  25.918  1.00  0.00    -0.458 OA
BRANCH  26  27
ATOM     27  C   UNL A   1      39.199  23.282  26.522  1.00  0.00     0.338 C 
ATOM     28  O   UNL A   1      39.817  22.223  26.577  1.00  0.00    -0.246 OA
BRANCH  27  29
ATOM     29  C   UNL A   1      39.687  24.552  27.111  1.00  0.00     0.060 A 
ATOM     30  C   UNL A   1      40.297  25.526  26.300  1.00  0.00     0.016 A 
ATOM     31  C   UNL A   1      39.345  24.848  28.428  1.00  0.00     0.016 A 
ATOM     32  C   UNL A   1      40.421  26.842  26.762  1.00  0.00     0.010 A 
ATOM     33  C   UNL A   1      39.384  26.156  28.846  1.00  0.00     0.010 A 
ATOM     34  C   UNL A   1      39.902  27.166  28.016  1.00  0.00    -0.014 A 
BRANCH  34  35
ATOM     35  C   UNL A   1      39.971  28.471  28.666  1.00  0.00     0.031 A 
ATOM     36  C   UNL A   1      38.913  29.505  28.615  1.00  0.00     0.074 A 
ATOM     37  C   UNL A   1      40.991  28.568  29.543  1.00  0.00     0.049 A 
ATOM     38  N   UNL A   1      39.015  30.662  29.180  1.00  0.00    -0.248 NA
ATOM     39  C   UNL A   1      37.661  29.355  27.889  1.00  0.00     0.031 C 
ATOM     40  C   UNL A   1      41.164  29.463  30.674  1.00  0.00     0.029 A 
ATOM     41  N   UNL A   1      42.214  27.889  29.440  1.00  0.00    -0.354 N 
ATOM     42  C   UNL A   1      37.806  31.319  29.088  1.00  0.00     0.074 A 
ATOM     43  C   UNL A   1      37.022  30.489  28.206  1.00  0.00     0.031 C 
ATOM     44  C   UNL A   1      42.472  29.503  30.981  1.00  0.00     0.029 A 
ATOM     45  C   UNL A   1      43.173  28.799  29.915  1.00  0.00     0.049 A 
ATOM     46  H   UNL A   1      42.368  26.975  29.107  1.00  0.00     0.167 HD
ATOM     47  C   UNL A   1      37.615  32.443  29.846  1.00  0.00     0.037 A 
ATOM     48  C   UNL A   1      44.032  29.382  29.024  1.00  0.00     0.037 A 
ATOM     49  C   UNL A   1      38.877  32.850  30.467  1.00  0.00     0.049 A 
ATOM     50  C   UNL A   1      43.939  30.890  28.987  1.00  0.00     0.074 A 
ATOM     51  C   UNL A   1      39.439  32.677  31.720  1.00  0.00     0.029 A 
ATOM     52  N   UNL A   1      39.885  33.327  29.650  1.00  0.00    -0.354 N 
ATOM     53  N   UNL A   1      42.915  31.570  29.419  1.00  0.00    -0.248 NA
ATOM     54  C   UNL A   1      44.963  31.737  28.381  1.00  0.00     0.031 C 
ATOM     55  C   UNL A   1      40.818  33.025  31.633  1.00  0.00     0.029 A 
ATOM     56  C   UNL A   1      41.079  33.426  30.334  1.00  0.00     0.049 A 
ATOM     57  H   UNL A   1      39.768  33.566  28.702  1.00  0.00     0.167 HD
ATOM     58  C   UNL A   1      43.139  32.898  29.211  1.00  0.00     0.074 A 
ATOM     59  C   UNL A   1      44.412  32.956  28.518  1.00  0.00     0.031 C 
ATOM     60  C   UNL A   1      42.266  33.858  29.622  1.00  0.00     0.037 A 
BRANCH  47  61
ATOM     61  C   UNL A   1      36.308  33.153  30.177  1.00  0.00     0.064 A 
ATOM     62  C   UNL A   1      35.557  33.778  29.148  1.00  0.00     0.173 A 
ATOM     63  C   UNL A   1      35.754  33.316  31.460  1.00  0.00     0.173 A 
ATOM     64  F   UNL A   1      35.922  33.694  27.861  1.00  0.00    -0.203 F 
ATOM     65  C   UNL A   1      34.400  34.531  29.393  1.00  0.00     0.198 A 
ATOM     66  C   UNL A   1      34.592  34.060  31.706  1.00  0.00     0.198 A 
ATOM     67  F   UNL A   1      36.298  32.762  32.541  1.00  0.00    -0.203 F 
ATOM     68  F   UNL A   1      33.761  35.120  28.372  1.00  0.00    -0.200 F 
ATOM     69  C   UNL A   1      33.921  34.678  30.675  1.00  0.00     0.200 A 
ATOM     70  F   UNL A   1      34.135  34.173  32.962  1.00  0.00    -0.200 F 
ATOM     71  F   UNL A   1      32.821  35.403  30.916  1.00  0.00    -0.200 F 
ENDBRANCH  47  61
BRANCH  48  72
ATOM     72  C   UNL A   1      44.300  28.543  27.815  1.00  0.00     0.064 A 
ATOM     73  C   UNL A   1      45.072  27.369  27.948  1.00  0.00     0.173 A 
ATOM     74  C   UNL A   1      43.545  28.683  26.643  1.00  0.00     0.173 A 
ATOM     75  F   UNL A   1      45.811  27.170  29.052  1.00  0.00    -0.203 F 
ATOM     76  C   UNL A   1      44.997  26.340  27.010  1.00  0.00     0.198 A 
ATOM     77  C   UNL A   1      43.491  27.660  25.695  1.00  0.00     0.198 A 
ATOM     78  F   UNL A   1      42.786  29.772  26.448  1.00  0.00    -0.203 F 
ATOM     79  F   UNL A   1      45.652  25.189  27.225  1.00  0.00    -0.200 F 
ATOM     80  C   UNL A   1      44.189  26.479  25.894  1.00  0.00     0.200 A 
ATOM     81  F   UNL A   1      42.704  27.790  24.618  1.00  0.00    -0.200 F 
ATOM     82  F   UNL A   1      44.058  25.463  25.030  1.00  0.00    -0.200 F 
ENDBRANCH  48  72
BRANCH  60  83
ATOM     83  C   UNL A   1      42.494  35.316  29.395  1.00  0.00     0.064 A 
ATOM     84  C   UNL A   1      41.956  35.996  28.294  1.00  0.00     0.173 A 
ATOM     85  C   UNL A   1      43.361  36.046  30.232  1.00  0.00     0.173 A 
ATOM     86  F   UNL A   1      41.166  35.361  27.417  1.00  0.00    -0.203 F 
ATOM     87  C   UNL A   1      42.234  37.343  28.070  1.00  0.00     0.198 A 
ATOM     88  C   UNL A   1      43.678  37.376  29.976  1.00  0.00     0.198 A 
ATOM     89  F   UNL A   1      43.900  35.489  31.328  1.00  0.00    -0.203 F 
ATOM     90  F   UNL A   1      41.658  37.977  27.038  1.00  0.00    -0.200 F 
ATOM     91  C   UNL A   1      43.103  38.029  28.902  1.00  0.00     0.200 A 
ATOM     92  F   UNL A   1      44.537  38.021  30.777  1.00  0.00    -0.200 F 
ATOM     93  F   UNL A   1      43.384  39.318  28.671  1.00  0.00    -0.200 F 
ENDBRANCH  60  83
ENDBRANCH  34  35
ENDBRANCH  27  29
ENDBRANCH  26  27
ENDBRANCH  25  26
ENDBRANCH   1  25
TORSDOF 14
ENDMDL
