MODEL 1
REMARK VINA RESULT:     -11.6      0.000      0.000
REMARK SMILES CC[N@@H+]1CCO[C@@H](COc2ccc(C(=O)OCCOC(=O)c3ccc(-c4c5nc(c(-c6c(F)c(F)c(F)c(F)c6F)c6ccc([nH]6)c(-c6c(F)c(F)c(F)c(F)c6F)c6nc(c(-c7c(F)c(F)c(F)c(F)c7F)c7ccc4[nH]7)C=C6)C=C5)cc3)cc2OC)C1
REMARK SMILES IDX 17 1 16 2 14 3 15 4 13 5 10 6 11 7 86 8 12 9 85 10 9 11 8 12
REMARK SMILES IDX 7 13 3 14 4 15 89 16 5 18 6 19 2 20 1 21 87 22 88 23 18 24
REMARK SMILES IDX 19 25 20 26 21 27 22 28 23 29 84 30 24 31 83 32 25 33 26 34
REMARK SMILES IDX 27 35 77 36 28 37 82 38 76 39 78 40 29 41 81 42 75 43 74 44
REMARK SMILES IDX 30 46 62 47 42 48 61 49 43 50 46 51 60 52 79 53 44 54 45 55
REMARK SMILES IDX 59 57 80 58 47 59 31 60 32 61 40 62 33 63 34 64 38 65 41 66
REMARK SMILES IDX 35 67 36 68 39 69 37 70 63 71 64 72 72 73 65 74 66 75 70 76
REMARK SMILES IDX 73 77 67 78 68 79 71 80 69 81 48 82 49 83 57 84 50 85 51 86
REMARK SMILES IDX 55 87 58 88 52 89 53 90 56 91 54 92
REMARK H PARENT 3 17 78 45 46 56
REMARK Flexibility Score: inf
ROOT
ATOM      1  C   UNL A   1      31.028  30.068  24.800  1.00  0.00     0.275 C 
ENDROOT
BRANCH   1   2
ATOM      2  O   UNL A   1      31.725  29.000  24.133  1.00  0.00    -0.458 OA
BRANCH   2   3
ATOM      3  C   UNL A   1      31.093  27.804  24.140  1.00  0.00     0.338 C 
ATOM      4  O   UNL A   1      30.038  27.543  23.579  1.00  0.00    -0.246 OA
BRANCH   3   5
ATOM      5  C   UNL A   1      31.855  26.779  24.900  1.00  0.00     0.064 A 
ATOM      6  C   UNL A   1      33.337  24.719  26.035  1.00  0.00     0.161 A 
ATOM      7  C   UNL A   1      33.969  25.635  25.193  1.00  0.00     0.051 A 
ATOM      8  C   UNL A   1      32.014  24.919  26.450  1.00  0.00     0.161 A 
ATOM      9  C   UNL A   1      33.222  26.648  24.608  1.00  0.00     0.020 A 
ATOM     10  C   UNL A   1      31.268  25.946  25.859  1.00  0.00     0.066 A 
BRANCH   6  11
ATOM     11  O   UNL A   1      34.009  23.570  26.345  1.00  0.00    -0.487 OA
BRANCH  11  12
ATOM     12  C   UNL A   1      34.798  23.109  25.223  1.00  0.00     0.267 C 
BRANCH  12  13
ATOM     13  C   UNL A   1      34.340  21.734  24.705  1.00  0.00     0.210 C 
ATOM     14  N   UNL A   1      33.714  19.350  25.360  1.00  0.00    -0.331 N 
ATOM     15  C   UNL A   1      32.497  19.565  24.553  1.00  0.00     0.291 C 
ATOM     16  C   UNL A   1      34.189  20.674  25.835  1.00  0.00     0.298 C 
ATOM     17  H   UNL A   1      33.492  18.760  26.161  1.00  0.00     0.348 HD
ATOM     18  C   UNL A   1      32.636  20.656  23.482  1.00  0.00     0.222 C 
ATOM     19  O   UNL A   1      33.060  21.900  24.055  1.00  0.00    -0.363 OA
BRANCH  14  20
ATOM     20  C   UNL A   1      34.753  18.612  24.624  1.00  0.00     0.258 C 
ATOM     21  C   UNL A   1      34.183  17.331  24.026  1.00  0.00     0.071 C 
ENDBRANCH  14  20
ENDBRANCH  12  13
ENDBRANCH  11  12
ENDBRANCH   6  11
BRANCH   8  22
ATOM     22  O   UNL A   1      31.294  24.071  27.251  1.00  0.00    -0.493 OA
ATOM     23  C   UNL A   1      30.475  23.127  26.567  1.00  0.00     0.278 C 
ENDBRANCH   8  22
ENDBRANCH   3   5
ENDBRANCH   2   3
ENDBRANCH   1   2
BRANCH   1  24
ATOM     24  C   UNL A   1      31.539  30.242  26.230  1.00  0.00     0.275 C 
BRANCH  24  25
ATOM     25  O   UNL A   1      32.958  30.489  26.246  1.00  0.00    -0.458 OA
BRANCH  25  26
ATOM     26  C   UNL A   1      33.359  31.508  27.041  1.00  0.00     0.338 C 
ATOM     27  O   UNL A   1      32.755  32.533  27.306  1.00  0.00    -0.246 OA
BRANCH  26  28
ATOM     28  C   UNL A   1      34.657  31.179  27.647  1.00  0.00     0.060 A 
ATOM     29  C   UNL A   1      34.910  29.853  27.993  1.00  0.00     0.016 A 
ATOM     30  C   UNL A   1      35.558  32.182  28.000  1.00  0.00     0.016 A 
ATOM     31  C   UNL A   1      36.042  29.519  28.726  1.00  0.00     0.010 A 
ATOM     32  C   UNL A   1      36.723  31.841  28.698  1.00  0.00     0.010 A 
ATOM     33  C   UNL A   1      36.965  30.509  29.086  1.00  0.00    -0.014 A 
BRANCH  33  34
ATOM     34  C   UNL A   1      38.145  30.149  29.916  1.00  0.00     0.031 A 
ATOM     35  C   UNL A   1      39.218  29.260  29.353  1.00  0.00     0.074 A 
ATOM     36  C   UNL A   1      38.276  30.647  31.161  1.00  0.00     0.049 A 
ATOM     37  N   UNL A   1      40.247  28.717  29.953  1.00  0.00    -0.248 NA
ATOM     38  C   UNL A   1      39.114  28.930  27.923  1.00  0.00     0.031 C 
ATOM     39  C   UNL A   1      37.340  31.568  31.807  1.00  0.00     0.029 A 
ATOM     40  N   UNL A   1      39.255  30.453  32.105  1.00  0.00    -0.354 N 
ATOM     41  C   UNL A   1      40.884  27.945  28.991  1.00  0.00     0.074 A 
ATOM     42  C   UNL A   1      40.125  28.086  27.766  1.00  0.00     0.031 C 
ATOM     43  C   UNL A   1      37.800  31.879  33.027  1.00  0.00     0.029 A 
ATOM     44  C   UNL A   1      39.023  31.122  33.282  1.00  0.00     0.049 A 
ATOM     45  H   UNL A   1      40.047  29.889  31.952  1.00  0.00     0.167 HD
ATOM     46  C   UNL A   1      41.998  27.185  29.121  1.00  0.00     0.037 A 
ATOM     47  C   UNL A   1      39.695  31.098  34.449  1.00  0.00     0.037 A 
ATOM     48  C   UNL A   1      42.777  27.087  30.329  1.00  0.00     0.049 A 
ATOM     49  C   UNL A   1      40.910  30.221  34.578  1.00  0.00     0.074 A 
ATOM     50  C   UNL A   1      43.929  26.354  30.557  1.00  0.00     0.029 A 
ATOM     51  N   UNL A   1      42.490  27.757  31.509  1.00  0.00    -0.354 N 
ATOM     52  N   UNL A   1      41.475  29.453  33.679  1.00  0.00    -0.248 NA
ATOM     53  C   UNL A   1      41.570  30.195  35.889  1.00  0.00     0.031 C 
ATOM     54  C   UNL A   1      44.318  26.551  31.885  1.00  0.00     0.029 A 
ATOM     55  C   UNL A   1      43.436  27.443  32.473  1.00  0.00     0.049 A 
ATOM     56  H   UNL A   1      41.728  28.364  31.643  1.00  0.00     0.167 HD
ATOM     57  C   UNL A   1      42.560  28.862  34.309  1.00  0.00     0.074 A 
ATOM     58  C   UNL A   1      42.589  29.378  35.663  1.00  0.00     0.031 C 
ATOM     59  C   UNL A   1      43.451  27.968  33.813  1.00  0.00     0.037 A 
BRANCH  46  60
ATOM     60  C   UNL A   1      42.425  26.368  27.936  1.00  0.00     0.064 A 
ATOM     61  C   UNL A   1      41.907  25.090  27.689  1.00  0.00     0.173 A 
ATOM     62  C   UNL A   1      43.343  26.895  27.013  1.00  0.00     0.173 A 
ATOM     63  F   UNL A   1      41.038  24.535  28.548  1.00  0.00    -0.203 F 
ATOM     64  C   UNL A   1      42.308  24.358  26.574  1.00  0.00     0.198 A 
ATOM     65  C   UNL A   1      43.720  26.173  25.885  1.00  0.00     0.198 A 
ATOM     66  F   UNL A   1      43.864  28.117  27.200  1.00  0.00    -0.203 F 
ATOM     67  F   UNL A   1      41.833  23.120  26.379  1.00  0.00    -0.200 F 
ATOM     68  C   UNL A   1      43.208  24.903  25.669  1.00  0.00     0.200 A 
ATOM     69  F   UNL A   1      44.581  26.707  25.007  1.00  0.00    -0.200 F 
ATOM     70  F   UNL A   1      43.588  24.201  24.593  1.00  0.00    -0.200 F 
ENDBRANCH  46  60
BRANCH  47  71
ATOM     71  C   UNL A   1      39.209  31.903  35.598  1.00  0.00     0.064 A 
ATOM     72  C   UNL A   1      39.606  33.237  35.766  1.00  0.00     0.173 A 
ATOM     73  C   UNL A   1      38.334  31.358  36.550  1.00  0.00     0.173 A 
ATOM     74  F   UNL A   1      40.465  33.794  34.898  1.00  0.00    -0.203 F 
ATOM     75  C   UNL A   1      39.154  33.992  36.847  1.00  0.00     0.198 A 
ATOM     76  C   UNL A   1      37.858  32.123  37.613  1.00  0.00     0.198 A 
ATOM     77  F   UNL A   1      37.926  30.086  36.438  1.00  0.00    -0.203 F 
ATOM     78  F   UNL A   1      39.581  35.252  37.006  1.00  0.00    -0.200 F 
ATOM     79  C   UNL A   1      38.273  33.437  37.764  1.00  0.00     0.200 A 
ATOM     80  F   UNL A   1      36.997  31.587  38.487  1.00  0.00    -0.200 F 
ATOM     81  F   UNL A   1      37.831  34.167  38.797  1.00  0.00    -0.200 F 
ENDBRANCH  47  71
BRANCH  59  82
ATOM     82  C   UNL A   1      44.546  27.515  34.731  1.00  0.00     0.064 A 
ATOM     83  C   UNL A   1      45.755  28.219  34.837  1.00  0.00     0.173 A 
ATOM     84  C   UNL A   1      44.371  26.381  35.539  1.00  0.00     0.173 A 
ATOM     85  F   UNL A   1      45.974  29.300  34.073  1.00  0.00    -0.203 F 
ATOM     86  C   UNL A   1      46.758  27.789  35.700  1.00  0.00     0.198 A 
ATOM     87  C   UNL A   1      45.367  25.970  36.421  1.00  0.00     0.198 A 
ATOM     88  F   UNL A   1      43.231  25.677  35.478  1.00  0.00    -0.203 F 
ATOM     89  F   UNL A   1      47.922  28.451  35.753  1.00  0.00    -0.200 F 
ATOM     90  C   UNL A   1      46.562  26.669  36.496  1.00  0.00     0.200 A 
ATOM     91  F   UNL A   1      45.172  24.894  37.196  1.00  0.00    -0.200 F 
ATOM     92  F   UNL A   1      47.528  26.260  37.329  1.00  0.00    -0.200 F 
ENDBRANCH  59  82
ENDBRANCH  33  34
ENDBRANCH  26  28
ENDBRANCH  25  26
ENDBRANCH  24  25
ENDBRANCH   1  24
TORSDOF 16
ENDMDL
MODEL 2
REMARK VINA RESULT:     -11.3      1.176      2.045
REMARK SMILES CC[N@@H+]1CCO[C@@H](COc2ccc(C(=O)OCCOC(=O)c3ccc(-c4c5nc(c(-c6c(F)c(F)c(F)c(F)c6F)c6ccc([nH]6)c(-c6c(F)c(F)c(F)c(F)c6F)c6nc(c(-c7c(F)c(F)c(F)c(F)c7F)c7ccc4[nH]7)C=C6)C=C5)cc3)cc2OC)C1
REMARK SMILES IDX 17 1 16 2 14 3 15 4 13 5 10 6 11 7 86 8 12 9 85 10 9 11 8 12
REMARK SMILES IDX 7 13 3 14 4 15 89 16 5 18 6 19 2 20 1 21 87 22 88 23 18 24
REMARK SMILES IDX 19 25 20 26 21 27 22 28 23 29 84 30 24 31 83 32 25 33 26 34
REMARK SMILES IDX 27 35 77 36 28 37 82 38 76 39 78 40 29 41 81 42 75 43 74 44
REMARK SMILES IDX 30 46 62 47 42 48 61 49 43 50 46 51 60 52 79 53 44 54 45 55
REMARK SMILES IDX 59 57 80 58 47 59 31 60 32 61 40 62 33 63 34 64 38 65 41 66
REMARK SMILES IDX 35 67 36 68 39 69 37 70 63 71 64 72 72 73 65 74 66 75 70 76
REMARK SMILES IDX 73 77 67 78 68 79 71 80 69 81 48 82 49 83 57 84 50 85 51 86
REMARK SMILES IDX 55 87 58 88 52 89 53 90 56 91 54 92
REMARK H PARENT 3 17 78 45 46 56
REMARK Flexibility Score: inf
ROOT
ATOM      1  C   UNL A   1      31.548  29.700  24.413  1.00  0.00     0.275 C 
ENDROOT
BRANCH   1   2
ATOM      2  O   UNL A   1      30.217  29.279  24.064  1.00  0.00    -0.458 OA
BRANCH   2   3
ATOM      3  C   UNL A   1      30.120  28.547  22.930  1.00  0.00     0.338 C 
ATOM      4  O   UNL A   1      29.587  28.900  21.888  1.00  0.00    -0.246 OA
BRANCH   3   5
ATOM      5  C   UNL A   1      30.787  27.226  23.066  1.00  0.00     0.064 A 
ATOM      6  C   UNL A   1      31.862  24.662  23.058  1.00  0.00     0.161 A 
ATOM      7  C   UNL A   1      32.154  25.530  22.006  1.00  0.00     0.051 A 
ATOM      8  C   UNL A   1      31.180  25.114  24.196  1.00  0.00     0.161 A 
ATOM      9  C   UNL A   1      31.595  26.802  22.000  1.00  0.00     0.020 A 
ATOM     10  C   UNL A   1      30.624  26.399  24.184  1.00  0.00     0.066 A 
BRANCH   6  11
ATOM     11  O   UNL A   1      32.160  23.338  22.893  1.00  0.00    -0.487 OA
BRANCH  11  12
ATOM     12  C   UNL A   1      33.561  23.155  22.583  1.00  0.00     0.267 C 
BRANCH  12  13
ATOM     13  C   UNL A   1      34.405  22.841  23.832  1.00  0.00     0.210 C 
ATOM     14  N   UNL A   1      35.731  23.837  25.770  1.00  0.00    -0.331 N 
ATOM     15  C   UNL A   1      34.931  22.945  26.631  1.00  0.00     0.291 C 
ATOM     16  C   UNL A   1      34.942  24.117  24.543  1.00  0.00     0.298 C 
ATOM     17  H   UNL A   1      35.916  24.710  26.263  1.00  0.00     0.348 HD
ATOM     18  C   UNL A   1      34.352  21.721  25.906  1.00  0.00     0.222 C 
ATOM     19  O   UNL A   1      33.579  22.108  24.763  1.00  0.00    -0.363 OA
BRANCH  14  20
ATOM     20  C   UNL A   1      37.060  23.284  25.469  1.00  0.00     0.258 C 
ATOM     21  C   UNL A   1      38.146  24.059  26.205  1.00  0.00     0.071 C 
ENDBRANCH  14  20
ENDBRANCH  12  13
ENDBRANCH  11  12
ENDBRANCH   6  11
BRANCH   8  22
ATOM     22  O   UNL A   1      30.821  24.341  25.269  1.00  0.00    -0.493 OA
ATOM     23  C   UNL A   1      31.575  24.552  26.460  1.00  0.00     0.278 C 
ENDBRANCH   8  22
ENDBRANCH   3   5
ENDBRANCH   2   3
ENDBRANCH   1   2
BRANCH   1  24
ATOM     24  C   UNL A   1      31.564  30.377  25.783  1.00  0.00     0.275 C 
BRANCH  24  25
ATOM     25  O   UNL A   1      32.841  30.208  26.428  1.00  0.00    -0.458 OA
BRANCH  25  26
ATOM     26  C   UNL A   1      33.305  31.297  27.085  1.00  0.00     0.338 C 
ATOM     27  O   UNL A   1      32.741  32.363  27.258  1.00  0.00    -0.246 OA
BRANCH  26  28
ATOM     28  C   UNL A   1      34.622  30.998  27.665  1.00  0.00     0.060 A 
ATOM     29  C   UNL A   1      34.914  29.677  27.999  1.00  0.00     0.016 A 
ATOM     30  C   UNL A   1      35.503  32.022  28.007  1.00  0.00     0.016 A 
ATOM     31  C   UNL A   1      36.067  29.369  28.711  1.00  0.00     0.010 A 
ATOM     32  C   UNL A   1      36.689  31.707  28.681  1.00  0.00     0.010 A 
ATOM     33  C   UNL A   1      36.972  30.380  29.059  1.00  0.00    -0.014 A 
BRANCH  33  34
ATOM     34  C   UNL A   1      38.175  30.046  29.865  1.00  0.00     0.031 A 
ATOM     35  C   UNL A   1      39.247  29.165  29.288  1.00  0.00     0.074 A 
ATOM     36  C   UNL A   1      38.328  30.561  31.100  1.00  0.00     0.049 A 
ATOM     37  N   UNL A   1      40.297  28.643  29.870  1.00  0.00    -0.248 NA
ATOM     38  C   UNL A   1      39.115  28.816  27.864  1.00  0.00     0.031 C 
ATOM     39  C   UNL A   1      37.395  31.477  31.757  1.00  0.00     0.029 A 
ATOM     40  N   UNL A   1      39.331  30.391  32.024  1.00  0.00    -0.354 N 
ATOM     41  C   UNL A   1      40.922  27.867  28.903  1.00  0.00     0.074 A 
ATOM     42  C   UNL A   1      40.134  27.984  27.694  1.00  0.00     0.031 C 
ATOM     43  C   UNL A   1      37.878  31.808  32.963  1.00  0.00     0.029 A 
ATOM     44  C   UNL A   1      39.117  31.071  33.198  1.00  0.00     0.049 A 
ATOM     45  H   UNL A   1      40.127  29.836  31.859  1.00  0.00     0.167 HD
ATOM     46  C   UNL A   1      42.050  27.125  29.016  1.00  0.00     0.037 A 
ATOM     47  C   UNL A   1      39.816  31.070  34.349  1.00  0.00     0.037 A 
ATOM     48  C   UNL A   1      42.857  27.052  30.207  1.00  0.00     0.049 A 
ATOM     49  C   UNL A   1      41.046  30.211  34.461  1.00  0.00     0.074 A 
ATOM     50  C   UNL A   1      44.024  26.337  30.416  1.00  0.00     0.029 A 
ATOM     51  N   UNL A   1      42.588  27.732  31.386  1.00  0.00    -0.354 N 
ATOM     52  N   UNL A   1      41.600  29.441  33.558  1.00  0.00    -0.248 NA
ATOM     53  C   UNL A   1      41.736  30.210  35.757  1.00  0.00     0.031 C 
ATOM     54  C   UNL A   1      44.441  26.556  31.733  1.00  0.00     0.029 A 
ATOM     55  C   UNL A   1      43.560  27.442  32.331  1.00  0.00     0.049 A 
ATOM     56  H   UNL A   1      41.821  28.331  31.529  1.00  0.00     0.167 HD
ATOM     57  C   UNL A   1      42.708  28.872  34.169  1.00  0.00     0.074 A 
ATOM     58  C   UNL A   1      42.760  29.404  35.516  1.00  0.00     0.031 C 
ATOM     59  C   UNL A   1      43.599  27.984  33.664  1.00  0.00     0.037 A 
BRANCH  46  60
ATOM     60  C   UNL A   1      42.460  26.299  27.832  1.00  0.00     0.064 A 
ATOM     61  C   UNL A   1      43.464  26.715  26.947  1.00  0.00     0.173 A 
ATOM     62  C   UNL A   1      41.859  25.050  27.604  1.00  0.00     0.173 A 
ATOM     63  F   UNL A   1      44.060  27.905  27.112  1.00  0.00    -0.203 F 
ATOM     64  C   UNL A   1      43.836  25.922  25.864  1.00  0.00     0.198 A 
ATOM     65  C   UNL A   1      42.253  24.248  26.537  1.00  0.00     0.198 A 
ATOM     66  F   UNL A   1      40.896  24.603  28.425  1.00  0.00    -0.203 F 
ATOM     67  F   UNL A   1      44.769  26.357  25.005  1.00  0.00    -0.200 F 
ATOM     68  C   UNL A   1      43.236  24.687  25.664  1.00  0.00     0.200 A 
ATOM     69  F   UNL A   1      41.680  23.050  26.354  1.00  0.00    -0.200 F 
ATOM     70  F   UNL A   1      43.601  23.922  24.626  1.00  0.00    -0.200 F 
ENDBRANCH  46  60
BRANCH  47  71
ATOM     71  C   UNL A   1      39.345  31.883  35.500  1.00  0.00     0.064 A 
ATOM     72  C   UNL A   1      39.756  33.213  35.661  1.00  0.00     0.173 A 
ATOM     73  C   UNL A   1      38.472  31.348  36.460  1.00  0.00     0.173 A 
ATOM     74  F   UNL A   1      40.613  33.761  34.786  1.00  0.00    -0.203 F 
ATOM     75  C   UNL A   1      39.318  33.975  36.743  1.00  0.00     0.198 A 
ATOM     76  C   UNL A   1      38.011  32.120  37.524  1.00  0.00     0.198 A 
ATOM     77  F   UNL A   1      38.053  30.080  36.353  1.00  0.00    -0.203 F 
ATOM     78  F   UNL A   1      39.758  35.231  36.897  1.00  0.00    -0.200 F 
ATOM     79  C   UNL A   1      38.439  33.430  37.669  1.00  0.00     0.200 A 
ATOM     80  F   UNL A   1      37.152  31.593  38.406  1.00  0.00    -0.200 F 
ATOM     81  F   UNL A   1      38.011  34.167  38.703  1.00  0.00    -0.200 F 
ENDBRANCH  47  71
BRANCH  59  82
ATOM     82  C   UNL A   1      44.721  27.556  34.562  1.00  0.00     0.064 A 
ATOM     83  C   UNL A   1      45.921  28.280  34.634  1.00  0.00     0.173 A 
ATOM     84  C   UNL A   1      44.581  26.428  35.384  1.00  0.00     0.173 A 
ATOM     85  F   UNL A   1      46.106  29.356  33.855  1.00  0.00    -0.203 F 
ATOM     86  C   UNL A   1      46.949  27.874  35.479  1.00  0.00     0.198 A 
ATOM     87  C   UNL A   1      45.603  26.041  36.247  1.00  0.00     0.198 A 
ATOM     88  F   UNL A   1      43.452  25.706  35.356  1.00  0.00    -0.203 F 
ATOM     89  F   UNL A   1      48.104  28.554  35.499  1.00  0.00    -0.200 F 
ATOM     90  C   UNL A   1      46.788  26.759  36.289  1.00  0.00     0.200 A 
ATOM     91  F   UNL A   1      45.442  24.970  37.037  1.00  0.00    -0.200 F 
ATOM     92  F   UNL A   1      47.778  26.373  37.104  1.00  0.00    -0.200 F 
ENDBRANCH  59  82
ENDBRANCH  33  34
ENDBRANCH  26  28
ENDBRANCH  25  26
ENDBRANCH  24  25
ENDBRANCH   1  24
TORSDOF 16
ENDMDL
MODEL 3
REMARK VINA RESULT:     -11.2      0.880      2.145
REMARK SMILES CC[N@@H+]1CCO[C@@H](COc2ccc(C(=O)OCCOC(=O)c3ccc(-c4c5nc(c(-c6c(F)c(F)c(F)c(F)c6F)c6ccc([nH]6)c(-c6c(F)c(F)c(F)c(F)c6F)c6nc(c(-c7c(F)c(F)c(F)c(F)c7F)c7ccc4[nH]7)C=C6)C=C5)cc3)cc2OC)C1
REMARK SMILES IDX 17 1 16 2 14 3 15 4 13 5 10 6 11 7 86 8 12 9 85 10 9 11 8 12
REMARK SMILES IDX 7 13 3 14 4 15 89 16 5 18 6 19 2 20 1 21 87 22 88 23 18 24
REMARK SMILES IDX 19 25 20 26 21 27 22 28 23 29 84 30 24 31 83 32 25 33 26 34
REMARK SMILES IDX 27 35 77 36 28 37 82 38 76 39 78 40 29 41 81 42 75 43 74 44
REMARK SMILES IDX 30 46 62 47 42 48 61 49 43 50 46 51 60 52 79 53 44 54 45 55
REMARK SMILES IDX 59 57 80 58 47 59 31 60 32 61 40 62 33 63 34 64 38 65 41 66
REMARK SMILES IDX 35 67 36 68 39 69 37 70 63 71 64 72 72 73 65 74 66 75 70 76
REMARK SMILES IDX 73 77 67 78 68 79 71 80 69 81 48 82 49 83 57 84 50 85 51 86
REMARK SMILES IDX 55 87 58 88 52 89 53 90 56 91 54 92
REMARK H PARENT 3 17 78 45 46 56
REMARK Flexibility Score: inf
ROOT
ATOM      1  C   UNL A   1      31.322  29.929  25.323  1.00  0.00     0.275 C 
ENDROOT
BRANCH   1   2
ATOM      2  O   UNL A   1      32.026  29.004  24.475  1.00  0.00    -0.458 OA
BRANCH   2   3
ATOM      3  C   UNL A   1      31.410  27.816  24.278  1.00  0.00     0.338 C 
ATOM      4  O   UNL A   1      30.443  27.616  23.557  1.00  0.00    -0.246 OA
BRANCH   3   5
ATOM      5  C   UNL A   1      32.072  26.718  25.030  1.00  0.00     0.064 A 
ATOM      6  C   UNL A   1      33.369  24.527  26.146  1.00  0.00     0.161 A 
ATOM      7  C   UNL A   1      34.093  25.424  25.361  1.00  0.00     0.051 A 
ATOM      8  C   UNL A   1      32.046  24.802  26.519  1.00  0.00     0.161 A 
ATOM      9  C   UNL A   1      33.438  26.505  24.785  1.00  0.00     0.020 A 
ATOM     10  C   UNL A   1      31.394  25.896  25.937  1.00  0.00     0.066 A 
BRANCH   6  11
ATOM     11  O   UNL A   1      33.951  23.325  26.440  1.00  0.00    -0.487 OA
BRANCH  11  12
ATOM     12  C   UNL A   1      34.781  22.867  25.348  1.00  0.00     0.267 C 
BRANCH  12  13
ATOM     13  C   UNL A   1      34.285  21.539  24.748  1.00  0.00     0.210 C 
ATOM     14  N   UNL A   1      33.619  19.130  25.254  1.00  0.00    -0.331 N 
ATOM     15  C   UNL A   1      32.395  19.422  24.482  1.00  0.00     0.291 C 
ATOM     16  C   UNL A   1      34.128  20.410  25.807  1.00  0.00     0.298 C 
ATOM     17  H   UNL A   1      33.395  18.493  26.018  1.00  0.00     0.348 HD
ATOM     18  C   UNL A   1      32.542  20.579  23.483  1.00  0.00     0.222 C 
ATOM     19  O   UNL A   1      33.001  21.773  24.130  1.00  0.00    -0.363 OA
BRANCH  14  20
ATOM     20  C   UNL A   1      34.631  18.421  24.456  1.00  0.00     0.258 C 
ATOM     21  C   UNL A   1      34.027  17.190  23.789  1.00  0.00     0.071 C 
ENDBRANCH  14  20
ENDBRANCH  12  13
ENDBRANCH  11  12
ENDBRANCH   6  11
BRANCH   8  22
ATOM     22  O   UNL A   1      31.241  23.979  27.261  1.00  0.00    -0.493 OA
ATOM     23  C   UNL A   1      30.416  23.087  26.515  1.00  0.00     0.278 C 
ENDBRANCH   8  22
ENDBRANCH   3   5
ENDBRANCH   2   3
ENDBRANCH   1   2
BRANCH   1  24
ATOM     24  C   UNL A   1      32.047  30.107  26.657  1.00  0.00     0.275 C 
BRANCH  24  25
ATOM     25  O   UNL A   1      33.404  30.545  26.453  1.00  0.00    -0.458 OA
BRANCH  25  26
ATOM     26  C   UNL A   1      33.844  31.486  27.321  1.00  0.00     0.338 C 
ATOM     27  O   UNL A   1      33.254  32.478  27.712  1.00  0.00    -0.246 OA
BRANCH  26  28
ATOM     28  C   UNL A   1      35.171  31.107  27.827  1.00  0.00     0.060 A 
ATOM     29  C   UNL A   1      35.374  29.790  28.234  1.00  0.00     0.016 A 
ATOM     30  C   UNL A   1      36.161  32.066  28.031  1.00  0.00     0.016 A 
ATOM     31  C   UNL A   1      36.548  29.425  28.882  1.00  0.00     0.010 A 
ATOM     32  C   UNL A   1      37.364  31.689  28.640  1.00  0.00     0.010 A 
ATOM     33  C   UNL A   1      37.560  30.370  29.092  1.00  0.00    -0.014 A 
BRANCH  33  34
ATOM     34  C   UNL A   1      38.788  29.982  29.833  1.00  0.00     0.031 A 
ATOM     35  C   UNL A   1      39.748  28.994  29.232  1.00  0.00     0.074 A 
ATOM     36  C   UNL A   1      39.065  30.540  31.026  1.00  0.00     0.049 A 
ATOM     37  N   UNL A   1      40.795  28.419  29.769  1.00  0.00    -0.248 NA
ATOM     38  C   UNL A   1      39.491  28.590  27.840  1.00  0.00     0.031 C 
ATOM     39  C   UNL A   1      38.251  31.556  31.695  1.00  0.00     0.029 A 
ATOM     40  N   UNL A   1      40.115  30.336  31.889  1.00  0.00    -0.354 N 
ATOM     41  C   UNL A   1      41.291  27.554  28.804  1.00  0.00     0.074 A 
ATOM     42  C   UNL A   1      40.431  27.675  27.646  1.00  0.00     0.031 C 
ATOM     43  C   UNL A   1      38.841  31.904  32.848  1.00  0.00     0.029 A 
ATOM     44  C   UNL A   1      40.035  31.085  33.038  1.00  0.00     0.049 A 
ATOM     45  H   UNL A   1      40.854  29.714  31.701  1.00  0.00     0.167 HD
ATOM     46  C   UNL A   1      42.366  26.732  28.881  1.00  0.00     0.037 A 
ATOM     47  C   UNL A   1      40.811  31.084  34.139  1.00  0.00     0.037 A 
ATOM     48  C   UNL A   1      43.247  26.652  30.017  1.00  0.00     0.049 A 
ATOM     49  C   UNL A   1      41.978  30.138  34.212  1.00  0.00     0.074 A 
ATOM     50  C   UNL A   1      44.369  25.859  30.186  1.00  0.00     0.029 A 
ATOM     51  N   UNL A   1      43.113  27.405  31.175  1.00  0.00    -0.354 N 
ATOM     52  N   UNL A   1      42.409  29.285  33.316  1.00  0.00    -0.248 NA
ATOM     53  C   UNL A   1      42.756  30.144  35.458  1.00  0.00     0.031 C 
ATOM     54  C   UNL A   1      44.893  26.106  31.459  1.00  0.00     0.029 A 
ATOM     55  C   UNL A   1      44.124  27.085  32.067  1.00  0.00     0.049 A 
ATOM     56  H   UNL A   1      42.404  28.068  31.338  1.00  0.00     0.167 HD
ATOM     57  C   UNL A   1      43.511  28.661  33.882  1.00  0.00     0.074 A 
ATOM     58  C   UNL A   1      43.698  29.250  35.192  1.00  0.00     0.031 C 
ATOM     59  C   UNL A   1      44.297  27.684  33.365  1.00  0.00     0.037 A 
BRANCH  46  60
ATOM     60  C   UNL A   1      42.629  25.822  27.716  1.00  0.00     0.064 A 
ATOM     61  C   UNL A   1      43.560  26.141  26.719  1.00  0.00     0.173 A 
ATOM     62  C   UNL A   1      41.961  24.590  27.622  1.00  0.00     0.173 A 
ATOM     63  F   UNL A   1      44.215  27.312  26.755  1.00  0.00    -0.203 F 
ATOM     64  C   UNL A   1      43.797  25.272  25.657  1.00  0.00     0.198 A 
ATOM     65  C   UNL A   1      42.221  23.712  26.574  1.00  0.00     0.198 A 
ATOM     66  F   UNL A   1      41.063  24.234  28.554  1.00  0.00    -0.203 F 
ATOM     67  F   UNL A   1      44.661  25.616  24.691  1.00  0.00    -0.200 F 
ATOM     68  C   UNL A   1      43.133  24.055  25.589  1.00  0.00     0.200 A 
ATOM     69  F   UNL A   1      41.586  22.533  26.518  1.00  0.00    -0.200 F 
ATOM     70  F   UNL A   1      43.367  23.218  24.570  1.00  0.00    -0.200 F 
ENDBRANCH  46  60
BRANCH  47  71
ATOM     71  C   UNL A   1      40.484  31.983  35.274  1.00  0.00     0.064 A 
ATOM     72  C   UNL A   1      39.495  31.640  36.207  1.00  0.00     0.173 A 
ATOM     73  C   UNL A   1      41.154  33.203  35.453  1.00  0.00     0.173 A 
ATOM     74  F   UNL A   1      38.806  30.498  36.062  1.00  0.00    -0.203 F 
ATOM     75  C   UNL A   1      39.184  32.485  37.270  1.00  0.00     0.198 A 
ATOM     76  C   UNL A   1      40.864  34.033  36.533  1.00  0.00     0.198 A 
ATOM     77  F   UNL A   1      42.105  33.580  34.587  1.00  0.00    -0.203 F 
ATOM     78  F   UNL A   1      38.208  32.152  38.124  1.00  0.00    -0.200 F 
ATOM     79  C   UNL A   1      39.876  33.677  37.438  1.00  0.00     0.200 A 
ATOM     80  F   UNL A   1      41.544  35.175  36.698  1.00  0.00    -0.200 F 
ATOM     81  F   UNL A   1      39.583  34.484  38.466  1.00  0.00    -0.200 F 
ENDBRANCH  47  71
BRANCH  59  82
ATOM     82  C   UNL A   1      45.444  27.213  34.207  1.00  0.00     0.064 A 
ATOM     83  C   UNL A   1      45.311  26.130  35.090  1.00  0.00     0.173 A 
ATOM     84  C   UNL A   1      46.699  27.830  34.106  1.00  0.00     0.173 A 
ATOM     85  F   UNL A   1      44.125  25.518  35.233  1.00  0.00    -0.203 F 
ATOM     86  C   UNL A   1      46.388  25.700  35.859  1.00  0.00     0.198 A 
ATOM     87  C   UNL A   1      47.781  27.379  34.857  1.00  0.00     0.198 A 
ATOM     88  F   UNL A   1      46.879  28.865  33.272  1.00  0.00    -0.203 F 
ATOM     89  F   UNL A   1      46.227  24.693  36.729  1.00  0.00    -0.200 F 
ATOM     90  C   UNL A   1      47.623  26.320  35.738  1.00  0.00     0.200 A 
ATOM     91  F   UNL A   1      48.976  27.973  34.733  1.00  0.00    -0.200 F 
ATOM     92  F   UNL A   1      48.660  25.901  36.476  1.00  0.00    -0.200 F 
ENDBRANCH  59  82
ENDBRANCH  33  34
ENDBRANCH  26  28
ENDBRANCH  25  26
ENDBRANCH  24  25
ENDBRANCH   1  24
TORSDOF 16
ENDMDL
