MODEL 1
REMARK VINA RESULT:     -12.2      0.000      0.000
REMARK SMILES O=C(OCCOC(=O)c1cc(SCc2csc(-c3ccsc3)n2)ccn1)c1ccc(-c2c3nc(c(-c4c(F)c(F)c(F)c(F)c4F)c4ccc([nH]4)c(-c4c(F)c(F)c(F)c(F)c4F)c4nc(c(-c5c(F)c(F)c(F)c(F)c5F)c5ccc2[nH]5)C=C4)C=C3)cc1
REMARK SMILES IDX 5 1 4 2 3 3 2 4 1 5 27 6 28 7 89 8 29 9 88 10 30 11 31 12
REMARK SMILES IDX 32 13 82 14 33 15 87 16 81 17 83 18 34 19 86 20 80 21 79 22
REMARK SMILES IDX 35 24 67 25 47 26 66 27 48 28 51 29 65 30 84 31 49 32 50 33
REMARK SMILES IDX 64 35 85 36 52 37 36 38 37 39 45 40 38 41 39 42 43 43 46 44
REMARK SMILES IDX 40 45 41 46 44 47 42 48 68 49 69 50 77 51 70 52 71 53 75 54
REMARK SMILES IDX 78 55 72 56 73 57 76 58 74 59 53 60 54 61 62 62 55 63 56 64
REMARK SMILES IDX 60 65 63 66 57 67 58 68 61 69 59 70 6 71 7 72 8 73 9 74
REMARK SMILES IDX 10 75 26 76 11 77 25 78 24 79 12 80 13 81 14 82 15 83 23 84
REMARK SMILES IDX 16 85 17 86 18 87 19 88 22 89 20 90 21 91
REMARK H PARENT 83 23 51 34
REMARK Flexibility Score: inf
ROOT
ATOM      1  C   UNL A   1      32.890  29.366  24.553  1.00  0.00     0.275 C 
ENDROOT
BRANCH   1   2
ATOM      2  C   UNL A   1      31.744  29.691  25.510  1.00  0.00     0.275 C 
BRANCH   2   3
ATOM      3  O   UNL A   1      32.210  30.075  26.819  1.00  0.00    -0.458 OA
BRANCH   3   4
ATOM      4  C   UNL A   1      33.114  30.991  27.237  1.00  0.00     0.338 C 
ATOM      5  O   UNL A   1      32.759  32.172  27.254  1.00  0.00    -0.246 OA
BRANCH   4   6
ATOM      6  C   UNL A   1      34.524  30.705  27.685  1.00  0.00     0.060 A 
ATOM      7  C   UNL A   1      35.085  29.453  27.931  1.00  0.00     0.016 A 
ATOM      8  C   UNL A   1      35.359  31.827  27.896  1.00  0.00     0.016 A 
ATOM      9  C   UNL A   1      36.387  29.325  28.435  1.00  0.00     0.010 A 
ATOM     10  C   UNL A   1      36.673  31.706  28.382  1.00  0.00     0.010 A 
ATOM     11  C   UNL A   1      37.183  30.446  28.691  1.00  0.00    -0.014 A 
BRANCH  11  12
ATOM     12  C   UNL A   1      38.476  30.237  29.392  1.00  0.00     0.031 A 
ATOM     13  C   UNL A   1      38.577  30.603  30.838  1.00  0.00     0.074 A 
ATOM     14  C   UNL A   1      39.503  29.616  28.785  1.00  0.00     0.049 A 
ATOM     15  N   UNL A   1      39.484  30.258  31.713  1.00  0.00    -0.248 NA
ATOM     16  C   UNL A   1      37.538  31.504  31.359  1.00  0.00     0.031 C 
ATOM     17  C   UNL A   1      39.554  29.328  27.362  1.00  0.00     0.029 A 
ATOM     18  N   UNL A   1      40.658  29.054  29.280  1.00  0.00    -0.354 N 
ATOM     19  C   UNL A   1      39.166  30.952  32.870  1.00  0.00     0.074 A 
ATOM     20  C   UNL A   1      37.955  31.700  32.601  1.00  0.00     0.031 C 
ATOM     21  C   UNL A   1      40.600  28.522  27.115  1.00  0.00     0.029 A 
ATOM     22  C   UNL A   1      41.266  28.210  28.372  1.00  0.00     0.049 A 
ATOM     23  H   UNL A   1      41.012  29.233  30.182  1.00  0.00     0.167 HD
ATOM     24  C   UNL A   1      39.863  30.997  34.030  1.00  0.00     0.037 A 
ATOM     25  C   UNL A   1      42.164  27.220  28.570  1.00  0.00     0.037 A 
ATOM     26  C   UNL A   1      41.080  30.263  34.259  1.00  0.00     0.049 A 
ATOM     27  C   UNL A   1      42.746  27.076  29.951  1.00  0.00     0.074 A 
ATOM     28  C   UNL A   1      41.944  30.316  35.337  1.00  0.00     0.029 A 
ATOM     29  N   UNL A   1      41.599  29.322  33.378  1.00  0.00    -0.354 N 
ATOM     30  N   UNL A   1      42.425  27.710  31.052  1.00  0.00    -0.248 NA
ATOM     31  C   UNL A   1      43.832  26.098  30.110  1.00  0.00     0.031 C 
ATOM     32  C   UNL A   1      43.002  29.428  35.097  1.00  0.00     0.029 A 
ATOM     33  C   UNL A   1      42.770  28.789  33.889  1.00  0.00     0.049 A 
ATOM     34  H   UNL A   1      41.193  29.072  32.517  1.00  0.00     0.167 HD
ATOM     35  C   UNL A   1      43.316  27.262  32.014  1.00  0.00     0.074 A 
ATOM     36  C   UNL A   1      44.089  26.198  31.406  1.00  0.00     0.031 C 
ATOM     37  C   UNL A   1      43.539  27.750  33.257  1.00  0.00     0.037 A 
BRANCH  24  38
ATOM     38  C   UNL A   1      39.378  31.953  35.074  1.00  0.00     0.064 A 
ATOM     39  C   UNL A   1      39.744  33.307  35.074  1.00  0.00     0.173 A 
ATOM     40  C   UNL A   1      38.559  31.494  36.117  1.00  0.00     0.173 A 
ATOM     41  F   UNL A   1      40.552  33.786  34.117  1.00  0.00    -0.203 F 
ATOM     42  C   UNL A   1      39.328  34.159  36.095  1.00  0.00     0.198 A 
ATOM     43  C   UNL A   1      38.124  32.354  37.121  1.00  0.00     0.198 A 
ATOM     44  F   UNL A   1      38.190  30.205  36.168  1.00  0.00    -0.203 F 
ATOM     45  F   UNL A   1      39.736  35.436  36.107  1.00  0.00    -0.200 F 
ATOM     46  C   UNL A   1      38.516  33.684  37.113  1.00  0.00     0.200 A 
ATOM     47  F   UNL A   1      37.337  31.891  38.102  1.00  0.00    -0.200 F 
ATOM     48  F   UNL A   1      38.122  34.503  38.098  1.00  0.00    -0.200 F 
ENDBRANCH  24  38
BRANCH  25  49
ATOM     49  C   UNL A   1      42.447  26.182  27.527  1.00  0.00     0.064 A 
ATOM     50  C   UNL A   1      41.645  25.024  27.468  1.00  0.00     0.173 A 
ATOM     51  C   UNL A   1      43.461  26.297  26.569  1.00  0.00     0.173 A 
ATOM     52  F   UNL A   1      40.645  24.858  28.348  1.00  0.00    -0.203 F 
ATOM     53  C   UNL A   1      41.848  24.033  26.510  1.00  0.00     0.198 A 
ATOM     54  C   UNL A   1      43.643  25.319  25.586  1.00  0.00     0.198 A 
ATOM     55  F   UNL A   1      44.268  27.366  26.567  1.00  0.00    -0.203 F 
ATOM     56  F   UNL A   1      41.073  22.939  26.507  1.00  0.00    -0.200 F 
ATOM     57  C   UNL A   1      42.841  24.185  25.562  1.00  0.00     0.200 A 
ATOM     58  F   UNL A   1      44.593  25.478  24.655  1.00  0.00    -0.200 F 
ATOM     59  F   UNL A   1      43.027  23.244  24.626  1.00  0.00    -0.200 F 
ENDBRANCH  25  49
BRANCH  37  60
ATOM     60  C   UNL A   1      44.733  27.206  33.981  1.00  0.00     0.064 A 
ATOM     61  C   UNL A   1      45.998  27.795  33.814  1.00  0.00     0.173 A 
ATOM     62  C   UNL A   1      44.626  26.114  34.850  1.00  0.00     0.173 A 
ATOM     63  F   UNL A   1      46.153  28.837  32.983  1.00  0.00    -0.203 F 
ATOM     64  C   UNL A   1      47.118  27.284  34.458  1.00  0.00     0.198 A 
ATOM     65  C   UNL A   1      45.745  25.624  35.518  1.00  0.00     0.198 A 
ATOM     66  F   UNL A   1      43.440  25.520  35.048  1.00  0.00    -0.203 F 
ATOM     67  F   UNL A   1      48.324  27.826  34.233  1.00  0.00    -0.200 F 
ATOM     68  C   UNL A   1      46.990  26.201  35.314  1.00  0.00     0.200 A 
ATOM     69  F   UNL A   1      45.621  24.583  36.353  1.00  0.00    -0.200 F 
ATOM     70  F   UNL A   1      48.071  25.707  35.933  1.00  0.00    -0.200 F 
ENDBRANCH  37  60
ENDBRANCH  11  12
ENDBRANCH   4   6
ENDBRANCH   3   4
ENDBRANCH   2   3
ENDBRANCH   1   2
BRANCH   1  71
ATOM     71  O   UNL A   1      33.424  28.063  24.809  1.00  0.00    -0.457 OA
BRANCH  71  72
ATOM     72  C   UNL A   1      32.891  27.050  24.068  1.00  0.00     0.357 C 
ATOM     73  O   UNL A   1      32.779  27.011  22.857  1.00  0.00    -0.244 OA
BRANCH  72  74
ATOM     74  C   UNL A   1      32.535  25.960  25.011  1.00  0.00     0.149 A 
ATOM     75  C   UNL A   1      33.545  25.138  25.486  1.00  0.00     0.051 A 
ATOM     76  N   UNL A   1      31.224  25.805  25.312  1.00  0.00    -0.249 NA
ATOM     77  C   UNL A   1      33.205  24.084  26.319  1.00  0.00     0.012 A 
ATOM     78  C   UNL A   1      30.913  24.775  26.120  1.00  0.00     0.113 A 
ATOM     79  C   UNL A   1      31.857  23.908  26.649  1.00  0.00     0.035 A 
BRANCH  77  80
ATOM     80  S   UNL A   1      34.406  22.963  27.013  1.00  0.00    -0.120 SA
BRANCH  80  81
ATOM     81  C   UNL A   1      35.256  22.248  25.564  1.00  0.00     0.132 C 
BRANCH  81  82
ATOM     82  C   UNL A   1      34.488  21.195  24.821  1.00  0.00     0.062 A 
ATOM     83  C   UNL A   1      33.357  21.433  24.068  1.00  0.00     0.091 A 
ATOM     84  N   UNL A   1      34.768  19.839  24.998  1.00  0.00    -0.240 NA
ATOM     85  S   UNL A   1      32.528  19.991  23.719  1.00  0.00    -0.122 S 
ATOM     86  C   UNL A   1      33.744  19.125  24.567  1.00  0.00     0.124 A 
BRANCH  86  87
ATOM     87  C   UNL A   1      33.563  17.674  24.875  1.00  0.00     0.021 A 
ATOM     88  C   UNL A   1      34.567  16.685  24.642  1.00  0.00     0.023 A 
ATOM     89  C   UNL A   1      32.419  17.136  25.417  1.00  0.00     0.076 A 
ATOM     90  C   UNL A   1      34.147  15.426  25.006  1.00  0.00     0.065 A 
ATOM     91  S   UNL A   1      32.572  15.447  25.675  1.00  0.00    -0.152 S 
ENDBRANCH  86  87
ENDBRANCH  81  82
ENDBRANCH  80  81
ENDBRANCH  77  80
ENDBRANCH  72  74
ENDBRANCH  71  72
ENDBRANCH   1  71
TORSDOF 15
ENDMDL
MODEL 2
REMARK VINA RESULT:     -12.1      1.113      2.107
REMARK SMILES O=C(OCCOC(=O)c1cc(SCc2csc(-c3ccsc3)n2)ccn1)c1ccc(-c2c3nc(c(-c4c(F)c(F)c(F)c(F)c4F)c4ccc([nH]4)c(-c4c(F)c(F)c(F)c(F)c4F)c4nc(c(-c5c(F)c(F)c(F)c(F)c5F)c5ccc2[nH]5)C=C4)C=C3)cc1
REMARK SMILES IDX 5 1 4 2 3 3 2 4 1 5 27 6 28 7 89 8 29 9 88 10 30 11 31 12
REMARK SMILES IDX 32 13 82 14 33 15 87 16 81 17 83 18 34 19 86 20 80 21 79 22
REMARK SMILES IDX 35 24 67 25 47 26 66 27 48 28 51 29 65 30 84 31 49 32 50 33
REMARK SMILES IDX 64 35 85 36 52 37 36 38 37 39 45 40 38 41 39 42 43 43 46 44
REMARK SMILES IDX 40 45 41 46 44 47 42 48 68 49 69 50 77 51 70 52 71 53 75 54
REMARK SMILES IDX 78 55 72 56 73 57 76 58 74 59 53 60 54 61 62 62 55 63 56 64
REMARK SMILES IDX 60 65 63 66 57 67 58 68 61 69 59 70 6 71 7 72 8 73 9 74
REMARK SMILES IDX 10 75 26 76 11 77 25 78 24 79 12 80 13 81 14 82 15 83 23 84
REMARK SMILES IDX 16 85 17 86 18 87 19 88 22 89 20 90 21 91
REMARK H PARENT 83 23 51 34
REMARK Flexibility Score: inf
ROOT
ATOM      1  C   UNL A   1      32.835  28.847  24.666  1.00  0.00     0.275 C 
ENDROOT
BRANCH   1   2
ATOM      2  C   UNL A   1      31.841  29.822  25.295  1.00  0.00     0.275 C 
BRANCH   2   3
ATOM      3  O   UNL A   1      32.180  30.155  26.656  1.00  0.00    -0.458 OA
BRANCH   3   4
ATOM      4  C   UNL A   1      33.052  31.042  27.191  1.00  0.00     0.338 C 
ATOM      5  O   UNL A   1      32.663  32.203  27.334  1.00  0.00    -0.246 OA
BRANCH   4   6
ATOM      6  C   UNL A   1      34.463  30.744  27.629  1.00  0.00     0.060 A 
ATOM      7  C   UNL A   1      34.997  29.493  27.931  1.00  0.00     0.016 A 
ATOM      8  C   UNL A   1      35.328  31.854  27.769  1.00  0.00     0.016 A 
ATOM      9  C   UNL A   1      36.305  29.358  28.420  1.00  0.00     0.010 A 
ATOM     10  C   UNL A   1      36.647  31.726  28.238  1.00  0.00     0.010 A 
ATOM     11  C   UNL A   1      37.132  30.472  28.604  1.00  0.00    -0.014 A 
BRANCH  11  12
ATOM     12  C   UNL A   1      38.431  30.267  29.294  1.00  0.00     0.031 A 
ATOM     13  C   UNL A   1      38.547  30.642  30.736  1.00  0.00     0.074 A 
ATOM     14  C   UNL A   1      39.453  29.643  28.680  1.00  0.00     0.049 A 
ATOM     15  N   UNL A   1      39.462  30.302  31.605  1.00  0.00    -0.248 NA
ATOM     16  C   UNL A   1      37.513  31.545  31.263  1.00  0.00     0.031 C 
ATOM     17  C   UNL A   1      39.490  29.346  27.259  1.00  0.00     0.029 A 
ATOM     18  N   UNL A   1      40.613  29.083  29.168  1.00  0.00    -0.354 N 
ATOM     19  C   UNL A   1      39.155  31.003  32.761  1.00  0.00     0.074 A 
ATOM     20  C   UNL A   1      37.942  31.749  32.499  1.00  0.00     0.031 C 
ATOM     21  C   UNL A   1      40.534  28.540  27.006  1.00  0.00     0.029 A 
ATOM     22  C   UNL A   1      41.213  28.235  28.258  1.00  0.00     0.049 A 
ATOM     23  H   UNL A   1      40.975  29.269  30.065  1.00  0.00     0.167 HD
ATOM     24  C   UNL A   1      39.864  31.054  33.913  1.00  0.00     0.037 A 
ATOM     25  C   UNL A   1      42.112  27.246  28.453  1.00  0.00     0.037 A 
ATOM     26  C   UNL A   1      41.083  30.322  34.134  1.00  0.00     0.049 A 
ATOM     27  C   UNL A   1      42.708  27.110  29.829  1.00  0.00     0.074 A 
ATOM     28  C   UNL A   1      41.958  30.382  35.204  1.00  0.00     0.029 A 
ATOM     29  N   UNL A   1      41.594  29.377  33.254  1.00  0.00    -0.354 N 
ATOM     30  N   UNL A   1      42.398  27.750  30.930  1.00  0.00    -0.248 NA
ATOM     31  C   UNL A   1      43.795  26.133  29.983  1.00  0.00     0.031 C 
ATOM     32  C   UNL A   1      43.013  29.492  34.958  1.00  0.00     0.029 A 
ATOM     33  C   UNL A   1      42.770  28.846  33.757  1.00  0.00     0.049 A 
ATOM     34  H   UNL A   1      41.180  29.121  32.399  1.00  0.00     0.167 HD
ATOM     35  C   UNL A   1      43.298  27.308  31.885  1.00  0.00     0.074 A 
ATOM     36  C   UNL A   1      44.066  26.241  31.276  1.00  0.00     0.031 C 
ATOM     37  C   UNL A   1      43.533  27.804  33.123  1.00  0.00     0.037 A 
BRANCH  24  38
ATOM     38  C   UNL A   1      39.389  32.017  34.956  1.00  0.00     0.064 A 
ATOM     39  C   UNL A   1      39.741  33.374  34.936  1.00  0.00     0.173 A 
ATOM     40  C   UNL A   1      38.593  31.560  36.019  1.00  0.00     0.173 A 
ATOM     41  F   UNL A   1      40.527  33.851  33.960  1.00  0.00    -0.203 F 
ATOM     42  C   UNL A   1      39.336  34.232  35.955  1.00  0.00     0.198 A 
ATOM     43  C   UNL A   1      38.168  32.426  37.021  1.00  0.00     0.198 A 
ATOM     44  F   UNL A   1      38.238  30.268  36.090  1.00  0.00    -0.203 F 
ATOM     45  F   UNL A   1      39.731  35.513  35.947  1.00  0.00    -0.200 F 
ATOM     46  C   UNL A   1      38.547  33.759  36.994  1.00  0.00     0.200 A 
ATOM     47  F   UNL A   1      37.404  31.966  38.021  1.00  0.00    -0.200 F 
ATOM     48  F   UNL A   1      38.164  34.585  37.977  1.00  0.00    -0.200 F 
ENDBRANCH  24  38
BRANCH  25  49
ATOM     49  C   UNL A   1      42.386  26.202  27.414  1.00  0.00     0.064 A 
ATOM     50  C   UNL A   1      43.447  26.393  26.504  1.00  0.00     0.173 A 
ATOM     51  C   UNL A   1      41.660  25.011  27.295  1.00  0.00     0.173 A 
ATOM     52  F   UNL A   1      44.194  27.507  26.573  1.00  0.00    -0.203 F 
ATOM     53  C   UNL A   1      43.761  25.451  25.528  1.00  0.00     0.198 A 
ATOM     54  C   UNL A   1      41.997  24.050  26.336  1.00  0.00     0.198 A 
ATOM     55  F   UNL A   1      40.633  24.764  28.119  1.00  0.00    -0.203 F 
ATOM     56  F   UNL A   1      44.766  25.686  24.672  1.00  0.00    -0.200 F 
ATOM     57  C   UNL A   1      43.042  24.274  25.450  1.00  0.00     0.200 A 
ATOM     58  F   UNL A   1      41.312  22.901  26.276  1.00  0.00    -0.200 F 
ATOM     59  F   UNL A   1      43.354  23.356  24.526  1.00  0.00    -0.200 F 
ENDBRANCH  25  49
BRANCH  37  60
ATOM     60  C   UNL A   1      44.734  27.264  33.839  1.00  0.00     0.064 A 
ATOM     61  C   UNL A   1      44.636  26.097  34.617  1.00  0.00     0.173 A 
ATOM     62  C   UNL A   1      45.984  27.889  33.744  1.00  0.00     0.173 A 
ATOM     63  F   UNL A   1      43.458  25.469  34.746  1.00  0.00    -0.203 F 
ATOM     64  C   UNL A   1      45.736  25.601  35.307  1.00  0.00     0.198 A 
ATOM     65  C   UNL A   1      47.090  27.371  34.412  1.00  0.00     0.198 A 
ATOM     66  F   UNL A   1      46.130  29.001  33.010  1.00  0.00    -0.203 F 
ATOM     67  F   UNL A   1      45.601  24.523  36.091  1.00  0.00    -0.200 F 
ATOM     68  C   UNL A   1      46.964  26.236  35.200  1.00  0.00     0.200 A 
ATOM     69  F   UNL A   1      48.280  27.978  34.303  1.00  0.00    -0.200 F 
ATOM     70  F   UNL A   1      48.023  25.759  35.867  1.00  0.00    -0.200 F 
ENDBRANCH  37  60
ENDBRANCH  11  12
ENDBRANCH   4   6
ENDBRANCH   3   4
ENDBRANCH   2   3
ENDBRANCH   1   2
BRANCH   1  71
ATOM     71  O   UNL A   1      32.716  28.833  23.240  1.00  0.00    -0.457 OA
BRANCH  71  72
ATOM     72  C   UNL A   1      31.491  28.483  22.753  1.00  0.00     0.357 C 
ATOM     73  O   UNL A   1      30.714  29.199  22.150  1.00  0.00    -0.244 OA
BRANCH  72  74
ATOM     74  C   UNL A   1      31.308  27.036  23.028  1.00  0.00     0.149 A 
ATOM     75  C   UNL A   1      32.263  26.146  22.563  1.00  0.00     0.051 A 
ATOM     76  N   UNL A   1      30.181  26.668  23.683  1.00  0.00    -0.249 NA
ATOM     77  C   UNL A   1      32.062  24.790  22.768  1.00  0.00     0.012 A 
ATOM     78  C   UNL A   1      30.001  25.348  23.871  1.00  0.00     0.113 A 
ATOM     79  C   UNL A   1      30.907  24.387  23.448  1.00  0.00     0.035 A 
BRANCH  77  80
ATOM     80  S   UNL A   1      33.218  23.541  22.236  1.00  0.00    -0.120 SA
BRANCH  80  81
ATOM     81  C   UNL A   1      34.640  23.721  23.366  1.00  0.00     0.132 C 
BRANCH  81  82
ATOM     82  C   UNL A   1      35.006  22.492  24.144  1.00  0.00     0.062 A 
ATOM     83  C   UNL A   1      36.289  22.158  24.525  1.00  0.00     0.091 A 
ATOM     84  N   UNL A   1      34.071  21.483  24.380  1.00  0.00    -0.240 NA
ATOM     85  S   UNL A   1      36.390  20.533  25.015  1.00  0.00    -0.122 S 
ATOM     86  C   UNL A   1      34.706  20.375  24.720  1.00  0.00     0.124 A 
BRANCH  86  87
ATOM     87  C   UNL A   1      34.057  19.029  24.747  1.00  0.00     0.021 A 
ATOM     88  C   UNL A   1      32.731  18.800  25.225  1.00  0.00     0.023 A 
ATOM     89  C   UNL A   1      34.660  17.872  24.311  1.00  0.00     0.076 A 
ATOM     90  C   UNL A   1      32.375  17.473  25.148  1.00  0.00     0.065 A 
ATOM     91  S   UNL A   1      33.614  16.519  24.450  1.00  0.00    -0.152 S 
ENDBRANCH  86  87
ENDBRANCH  81  82
ENDBRANCH  80  81
ENDBRANCH  77  80
ENDBRANCH  72  74
ENDBRANCH  71  72
ENDBRANCH   1  71
TORSDOF 15
ENDMDL
MODEL 3
REMARK VINA RESULT:     -12.1      5.914      9.329
REMARK SMILES O=C(OCCOC(=O)c1cc(SCc2csc(-c3ccsc3)n2)ccn1)c1ccc(-c2c3nc(c(-c4c(F)c(F)c(F)c(F)c4F)c4ccc([nH]4)c(-c4c(F)c(F)c(F)c(F)c4F)c4nc(c(-c5c(F)c(F)c(F)c(F)c5F)c5ccc2[nH]5)C=C4)C=C3)cc1
REMARK SMILES IDX 5 1 4 2 3 3 2 4 1 5 27 6 28 7 89 8 29 9 88 10 30 11 31 12
REMARK SMILES IDX 32 13 82 14 33 15 87 16 81 17 83 18 34 19 86 20 80 21 79 22
REMARK SMILES IDX 35 24 67 25 47 26 66 27 48 28 51 29 65 30 84 31 49 32 50 33
REMARK SMILES IDX 64 35 85 36 52 37 36 38 37 39 45 40 38 41 39 42 43 43 46 44
REMARK SMILES IDX 40 45 41 46 44 47 42 48 68 49 69 50 77 51 70 52 71 53 75 54
REMARK SMILES IDX 78 55 72 56 73 57 76 58 74 59 53 60 54 61 62 62 55 63 56 64
REMARK SMILES IDX 60 65 63 66 57 67 58 68 61 69 59 70 6 71 7 72 8 73 9 74
REMARK SMILES IDX 10 75 26 76 11 77 25 78 24 79 12 80 13 81 14 82 15 83 23 84
REMARK SMILES IDX 16 85 17 86 18 87 19 88 22 89 20 90 21 91
REMARK H PARENT 83 23 51 34
REMARK Flexibility Score: inf
ROOT
ATOM      1  C   UNL A   1      42.573  19.155  26.580  1.00  0.00     0.275 C 
ENDROOT
BRANCH   1   2
ATOM      2  C   UNL A   1      43.008  18.267  25.415  1.00  0.00     0.275 C 
BRANCH   2   3
ATOM      3  O   UNL A   1      44.412  18.401  25.113  1.00  0.00    -0.458 OA
BRANCH   3   4
ATOM      4  C   UNL A   1      45.125  19.363  24.484  1.00  0.00     0.338 C 
ATOM      5  O   UNL A   1      45.914  19.003  23.608  1.00  0.00    -0.246 OA
BRANCH   4   6
ATOM      6  C   UNL A   1      45.048  20.844  24.755  1.00  0.00     0.060 A 
ATOM      7  C   UNL A   1      44.595  21.831  23.882  1.00  0.00     0.016 A 
ATOM      8  C   UNL A   1      45.504  21.278  26.021  1.00  0.00     0.016 A 
ATOM      9  C   UNL A   1      44.660  23.190  24.221  1.00  0.00     0.010 A 
ATOM     10  C   UNL A   1      45.554  22.638  26.378  1.00  0.00     0.010 A 
ATOM     11  C   UNL A   1      45.164  23.609  25.458  1.00  0.00    -0.014 A 
BRANCH  11  12
ATOM     12  C   UNL A   1      45.370  25.065  25.668  1.00  0.00     0.031 A 
ATOM     13  C   UNL A   1      44.354  25.829  26.453  1.00  0.00     0.074 A 
ATOM     14  C   UNL A   1      46.506  25.670  25.274  1.00  0.00     0.049 A 
ATOM     15  N   UNL A   1      44.453  27.012  26.998  1.00  0.00    -0.248 NA
ATOM     16  C   UNL A   1      43.039  25.190  26.618  1.00  0.00     0.031 C 
ATOM     17  C   UNL A   1      47.497  25.056  24.408  1.00  0.00     0.029 A 
ATOM     18  N   UNL A   1      47.055  26.890  25.597  1.00  0.00    -0.354 N 
ATOM     19  C   UNL A   1      43.196  27.291  27.512  1.00  0.00     0.074 A 
ATOM     20  C   UNL A   1      42.364  26.134  27.257  1.00  0.00     0.031 C 
ATOM     21  C   UNL A   1      48.594  25.830  24.380  1.00  0.00     0.029 A 
ATOM     22  C   UNL A   1      48.392  26.973  25.258  1.00  0.00     0.049 A 
ATOM     23  H   UNL A   1      46.551  27.623  26.021  1.00  0.00     0.167 HD
ATOM     24  C   UNL A   1      42.772  28.438  28.092  1.00  0.00     0.037 A 
ATOM     25  C   UNL A   1      49.354  27.806  25.713  1.00  0.00     0.037 A 
ATOM     26  C   UNL A   1      43.617  29.583  28.308  1.00  0.00     0.049 A 
ATOM     27  C   UNL A   1      48.926  28.940  26.606  1.00  0.00     0.074 A 
ATOM     28  C   UNL A   1      43.282  30.843  28.769  1.00  0.00     0.029 A 
ATOM     29  N   UNL A   1      44.987  29.595  28.078  1.00  0.00    -0.354 N 
ATOM     30  N   UNL A   1      47.745  29.189  27.117  1.00  0.00    -0.248 NA
ATOM     31  C   UNL A   1      49.958  29.924  26.963  1.00  0.00     0.031 C 
ATOM     32  C   UNL A   1      44.445  31.626  28.793  1.00  0.00     0.029 A 
ATOM     33  C   UNL A   1      45.511  30.838  28.389  1.00  0.00     0.049 A 
ATOM     34  H   UNL A   1      45.508  28.830  27.743  1.00  0.00     0.167 HD
ATOM     35  C   UNL A   1      47.875  30.391  27.792  1.00  0.00     0.074 A 
ATOM     36  C   UNL A   1      49.279  30.744  27.751  1.00  0.00     0.031 C 
ATOM     37  C   UNL A   1      46.907  31.179  28.317  1.00  0.00     0.037 A 
BRANCH  24  38
ATOM     38  C   UNL A   1      41.315  28.532  28.419  1.00  0.00     0.064 A 
ATOM     39  C   UNL A   1      40.369  28.985  27.487  1.00  0.00     0.173 A 
ATOM     40  C   UNL A   1      40.863  28.196  29.704  1.00  0.00     0.173 A 
ATOM     41  F   UNL A   1      40.756  29.350  26.257  1.00  0.00    -0.203 F 
ATOM     42  C   UNL A   1      39.028  29.122  27.841  1.00  0.00     0.198 A 
ATOM     43  C   UNL A   1      39.519  28.309  30.045  1.00  0.00     0.198 A 
ATOM     44  F   UNL A   1      41.730  27.768  30.634  1.00  0.00    -0.203 F 
ATOM     45  F   UNL A   1      38.150  29.611  26.953  1.00  0.00    -0.200 F 
ATOM     46  C   UNL A   1      38.604  28.780  29.116  1.00  0.00     0.200 A 
ATOM     47  F   UNL A   1      39.112  27.975  31.277  1.00  0.00    -0.200 F 
ATOM     48  F   UNL A   1      37.315  28.919  29.456  1.00  0.00    -0.200 F 
ENDBRANCH  24  38
BRANCH  25  49
ATOM     49  C   UNL A   1      50.811  27.529  25.503  1.00  0.00     0.064 A 
ATOM     50  C   UNL A   1      51.520  26.785  26.470  1.00  0.00     0.173 A 
ATOM     51  C   UNL A   1      51.529  27.944  24.375  1.00  0.00     0.173 A 
ATOM     52  F   UNL A   1      50.888  26.343  27.568  1.00  0.00    -0.203 F 
ATOM     53  C   UNL A   1      52.870  26.480  26.321  1.00  0.00     0.198 A 
ATOM     54  C   UNL A   1      52.876  27.609  24.210  1.00  0.00     0.198 A 
ATOM     55  F   UNL A   1      50.924  28.660  23.418  1.00  0.00    -0.203 F 
ATOM     56  F   UNL A   1      53.507  25.789  27.277  1.00  0.00    -0.200 F 
ATOM     57  C   UNL A   1      53.547  26.883  25.186  1.00  0.00     0.200 A 
ATOM     58  F   UNL A   1      53.525  27.982  23.099  1.00  0.00    -0.200 F 
ATOM     59  F   UNL A   1      54.841  26.574  25.030  1.00  0.00    -0.200 F 
ENDBRANCH  25  49
BRANCH  37  60
ATOM     60  C   UNL A   1      47.334  32.538  28.780  1.00  0.00     0.064 A 
ATOM     61  C   UNL A   1      47.686  32.755  30.124  1.00  0.00     0.173 A 
ATOM     62  C   UNL A   1      47.412  33.621  27.897  1.00  0.00     0.173 A 
ATOM     63  F   UNL A   1      47.617  31.751  31.011  1.00  0.00    -0.203 F 
ATOM     64  C   UNL A   1      48.058  34.017  30.573  1.00  0.00     0.198 A 
ATOM     65  C   UNL A   1      47.815  34.877  28.344  1.00  0.00     0.198 A 
ATOM     66  F   UNL A   1      47.093  33.464  26.604  1.00  0.00    -0.203 F 
ATOM     67  F   UNL A   1      48.328  34.211  31.872  1.00  0.00    -0.200 F 
ATOM     68  C   UNL A   1      48.127  35.076  29.681  1.00  0.00     0.200 A 
ATOM     69  F   UNL A   1      47.892  35.899  27.481  1.00  0.00    -0.200 F 
ATOM     70  F   UNL A   1      48.484  36.292  30.115  1.00  0.00    -0.200 F 
ENDBRANCH  37  60
ENDBRANCH  11  12
ENDBRANCH   4   6
ENDBRANCH   3   4
ENDBRANCH   2   3
ENDBRANCH   1   2
BRANCH   1  71
ATOM     71  O   UNL A   1      41.848  20.298  26.117  1.00  0.00    -0.457 OA
BRANCH  71  72
ATOM     72  C   UNL A   1      40.496  20.143  26.024  1.00  0.00     0.357 C 
ATOM     73  O   UNL A   1      39.895  19.117  25.768  1.00  0.00    -0.244 OA
BRANCH  72  74
ATOM     74  C   UNL A   1      39.882  21.450  26.367  1.00  0.00     0.149 A 
ATOM     75  C   UNL A   1      38.717  21.826  25.717  1.00  0.00     0.051 A 
ATOM     76  N   UNL A   1      40.532  22.222  27.270  1.00  0.00    -0.249 NA
ATOM     77  C   UNL A   1      38.175  23.071  25.994  1.00  0.00     0.012 A 
ATOM     78  C   UNL A   1      39.993  23.428  27.524  1.00  0.00     0.113 A 
ATOM     79  C   UNL A   1      38.827  23.884  26.928  1.00  0.00     0.035 A 
BRANCH  77  80
ATOM     80  S   UNL A   1      36.675  23.672  25.240  1.00  0.00    -0.120 SA
BRANCH  80  81
ATOM     81  C   UNL A   1      35.343  22.730  26.059  1.00  0.00     0.132 C 
BRANCH  81  82
ATOM     82  C   UNL A   1      34.547  21.825  25.165  1.00  0.00     0.062 A 
ATOM     83  C   UNL A   1      33.434  22.212  24.448  1.00  0.00     0.091 A 
ATOM     84  N   UNL A   1      34.776  20.448  25.144  1.00  0.00    -0.240 NA
ATOM     85  S   UNL A   1      32.558  20.868  23.886  1.00  0.00    -0.122 S 
ATOM     86  C   UNL A   1      33.733  19.843  24.607  1.00  0.00     0.124 A 
BRANCH  86  87
ATOM     87  C   UNL A   1      33.496  18.371  24.698  1.00  0.00     0.021 A 
ATOM     88  C   UNL A   1      34.005  17.428  23.754  1.00  0.00     0.023 A 
ATOM     89  C   UNL A   1      32.772  17.766  25.699  1.00  0.00     0.076 A 
ATOM     90  C   UNL A   1      33.640  16.138  24.063  1.00  0.00     0.065 A 
ATOM     91  S   UNL A   1      32.736  16.060  25.514  1.00  0.00    -0.152 S 
ENDBRANCH  86  87
ENDBRANCH  81  82
ENDBRANCH  80  81
ENDBRANCH  77  80
ENDBRANCH  72  74
ENDBRANCH  71  72
ENDBRANCH   1  71
TORSDOF 15
ENDMDL
