MODEL 1
REMARK VINA RESULT:     -12.0      0.000      0.000
REMARK SMILES Cc1ccc(C)c([C@@H](C)[N@@H+](CC(=O)OCCOC(=O)c2ccc(-c3c4nc(c(-c5c(F)c(F)c(F)c(F)c5F)c5ccc([nH]5)c(-c5c(F)c(F)c(F)c(F)c5F)c5nc(c(-c6c(F)c(F)c(F)c(F)c6F)c6ccc3[nH]6)C=C5)C=C4)cc2)CC(F)(F)F)c1
REMARK SMILES IDX 15 1 14 2 12 3 13 4 11 5 10 6 8 8 9 9 7 10 1 11 2 12 3 13
REMARK SMILES IDX 88 14 4 15 5 16 6 17 83 18 84 19 85 20 86 21 87 22 16 23
REMARK SMILES IDX 17 24 18 25 19 26 20 27 21 28 82 29 22 30 81 31 23 32 24 33
REMARK SMILES IDX 25 34 75 35 26 36 80 37 74 38 76 39 27 40 79 41 73 42 72 43
REMARK SMILES IDX 28 45 60 46 40 47 59 48 41 49 44 50 58 51 77 52 42 53 43 54
REMARK SMILES IDX 57 56 78 57 45 58 29 59 30 60 38 61 31 62 32 63 36 64 39 65
REMARK SMILES IDX 33 66 34 67 37 68 35 69 61 70 62 71 70 72 63 73 64 74 68 75
REMARK SMILES IDX 71 76 65 77 66 78 69 79 67 80 46 81 47 82 55 83 48 84 49 85
REMARK SMILES IDX 53 86 56 87 50 88 51 89 54 90 52 91
REMARK H PARENT 10 7 76 44 44 55
REMARK Flexibility Score: inf
ROOT
ATOM      1  C   UNL A   1      37.559  21.492  25.002  1.00  0.00     0.274 C 
ENDROOT
BRANCH   1   2
ATOM      2  O   UNL A   1      37.324  22.459  23.964  1.00  0.00    -0.458 OA
BRANCH   2   3
ATOM      3  C   UNL A   1      36.053  22.839  23.743  1.00  0.00     0.361 C 
ATOM      4  O   UNL A   1      35.639  23.284  22.703  1.00  0.00    -0.245 OA
BRANCH   3   5
ATOM      5  C   UNL A   1      35.088  22.555  24.850  1.00  0.00     0.387 C 
BRANCH   5   6
ATOM      6  N   UNL A   1      33.710  22.727  24.356  1.00  0.00    -0.312 N 
ATOM      7  H   UNL A   1      33.665  23.131  23.420  1.00  0.00     0.349 HD
BRANCH   6   8
ATOM      8  C   UNL A   1      33.005  23.855  24.975  1.00  0.00     0.213 C 
ATOM      9  C   UNL A   1      31.475  23.765  25.121  1.00  0.00     0.081 C 
BRANCH   8  10
ATOM     10  C   UNL A   1      33.403  25.300  24.675  1.00  0.00     0.012 A 
ATOM     11  C   UNL A   1      33.735  28.356  26.957  1.00  0.00     0.044 C 
ATOM     12  C   UNL A   1      33.739  27.508  25.723  1.00  0.00    -0.051 A 
ATOM     13  C   UNL A   1      33.769  28.100  24.466  1.00  0.00     0.004 A 
ATOM     14  C   UNL A   1      33.627  26.117  25.811  1.00  0.00     0.013 A 
ATOM     15  C   UNL A   1      33.585  27.321  23.330  1.00  0.00     0.004 A 
ATOM     16  C   UNL A   1      33.321  25.943  23.424  1.00  0.00    -0.042 A 
ATOM     17  C   UNL A   1      32.915  25.282  22.147  1.00  0.00     0.045 C 
ENDBRANCH   8  10
ENDBRANCH   6   8
BRANCH   6  18
ATOM     18  C   UNL A   1      33.058  21.514  23.775  1.00  0.00     0.380 C 
BRANCH  18  19
ATOM     19  C   UNL A   1      32.988  20.051  24.364  1.00  0.00     0.438 C 
ATOM     20  F   UNL A   1      32.483  20.001  25.618  1.00  0.00    -0.165 F 
ATOM     21  F   UNL A   1      32.184  19.273  23.591  1.00  0.00    -0.165 F 
ATOM     22  F   UNL A   1      34.184  19.422  24.354  1.00  0.00    -0.165 F 
ENDBRANCH  18  19
ENDBRANCH   6  18
ENDBRANCH   5   6
ENDBRANCH   3   5
ENDBRANCH   2   3
ENDBRANCH   1   2
BRANCH   1  23
ATOM     23  C   UNL A   1      38.896  21.360  25.806  1.00  0.00     0.275 C 
BRANCH  23  24
ATOM     24  O   UNL A   1      39.444  22.249  26.865  1.00  0.00    -0.458 OA
BRANCH  24  25
ATOM     25  C   UNL A   1      40.708  22.606  27.251  1.00  0.00     0.338 C 
ATOM     26  O   UNL A   1      41.700  21.911  27.091  1.00  0.00    -0.246 OA
BRANCH  25  27
ATOM     27  C   UNL A   1      40.786  23.882  27.962  1.00  0.00     0.060 A 
ATOM     28  C   UNL A   1      41.953  24.398  28.554  1.00  0.00     0.016 A 
ATOM     29  C   UNL A   1      39.658  24.645  27.816  1.00  0.00     0.016 A 
ATOM     30  C   UNL A   1      41.994  25.761  28.878  1.00  0.00     0.010 A 
ATOM     31  C   UNL A   1      39.842  25.986  27.847  1.00  0.00     0.010 A 
ATOM     32  C   UNL A   1      40.926  26.574  28.476  1.00  0.00    -0.014 A 
BRANCH  32  33
ATOM     33  C   UNL A   1      40.832  28.029  28.609  1.00  0.00     0.031 A 
ATOM     34  C   UNL A   1      41.883  28.830  27.940  1.00  0.00     0.074 A 
ATOM     35  C   UNL A   1      39.805  28.635  29.267  1.00  0.00     0.049 A 
ATOM     36  N   UNL A   1      42.986  29.202  28.495  1.00  0.00    -0.248 NA
ATOM     37  C   UNL A   1      41.804  29.172  26.516  1.00  0.00     0.031 C 
ATOM     38  C   UNL A   1      38.595  28.050  29.887  1.00  0.00     0.029 A 
ATOM     39  N   UNL A   1      39.619  29.961  29.516  1.00  0.00    -0.354 N 
ATOM     40  C   UNL A   1      43.610  30.061  27.604  1.00  0.00     0.074 A 
ATOM     41  C   UNL A   1      42.948  29.848  26.341  1.00  0.00     0.031 C 
ATOM     42  C   UNL A   1      37.709  29.005  30.222  1.00  0.00     0.029 A 
ATOM     43  C   UNL A   1      38.395  30.271  30.101  1.00  0.00     0.049 A 
ATOM     44  H   UNL A   1      40.294  30.644  29.301  1.00  0.00     0.167 HD
ATOM     45  C   UNL A   1      44.428  31.044  28.086  1.00  0.00     0.037 A 
ATOM     46  C   UNL A   1      38.014  31.397  30.745  1.00  0.00     0.037 A 
ATOM     47  C   UNL A   1      44.721  30.812  29.488  1.00  0.00     0.049 A 
ATOM     48  C   UNL A   1      39.256  32.044  31.220  1.00  0.00     0.074 A 
ATOM     49  C   UNL A   1      45.295  29.773  30.198  1.00  0.00     0.029 A 
ATOM     50  N   UNL A   1      44.007  31.534  30.417  1.00  0.00    -0.354 N 
ATOM     51  N   UNL A   1      40.001  31.547  32.167  1.00  0.00    -0.248 NA
ATOM     52  C   UNL A   1      39.922  32.946  30.296  1.00  0.00     0.031 C 
ATOM     53  C   UNL A   1      44.483  29.633  31.365  1.00  0.00     0.029 A 
ATOM     54  C   UNL A   1      43.538  30.659  31.365  1.00  0.00     0.049 A 
ATOM     55  H   UNL A   1      43.861  32.507  30.405  1.00  0.00     0.167 HD
ATOM     56  C   UNL A   1      41.297  31.695  31.698  1.00  0.00     0.074 A 
ATOM     57  C   UNL A   1      41.189  32.631  30.577  1.00  0.00     0.031 C 
ATOM     58  C   UNL A   1      42.293  30.843  32.082  1.00  0.00     0.037 A 
BRANCH  45  59
ATOM     59  C   UNL A   1      44.650  32.403  27.462  1.00  0.00     0.064 A 
ATOM     60  C   UNL A   1      45.812  32.611  26.687  1.00  0.00     0.173 A 
ATOM     61  C   UNL A   1      43.957  33.570  27.838  1.00  0.00     0.173 A 
ATOM     62  F   UNL A   1      46.552  31.571  26.270  1.00  0.00    -0.203 F 
ATOM     63  C   UNL A   1      46.298  33.890  26.405  1.00  0.00     0.198 A 
ATOM     64  C   UNL A   1      44.420  34.847  27.515  1.00  0.00     0.198 A 
ATOM     65  F   UNL A   1      42.873  33.536  28.620  1.00  0.00    -0.203 F 
ATOM     66  F   UNL A   1      47.478  34.032  25.787  1.00  0.00    -0.200 F 
ATOM     67  C   UNL A   1      45.608  35.008  26.832  1.00  0.00     0.200 A 
ATOM     68  F   UNL A   1      43.746  35.920  27.951  1.00  0.00    -0.200 F 
ATOM     69  F   UNL A   1      46.105  36.235  26.627  1.00  0.00    -0.200 F 
ENDBRANCH  45  59
BRANCH  46  70
ATOM     70  C   UNL A   1      36.714  32.089  30.619  1.00  0.00     0.064 A 
ATOM     71  C   UNL A   1      35.814  32.100  31.694  1.00  0.00     0.173 A 
ATOM     72  C   UNL A   1      36.452  32.986  29.565  1.00  0.00     0.173 A 
ATOM     73  F   UNL A   1      36.002  31.279  32.737  1.00  0.00    -0.203 F 
ATOM     74  C   UNL A   1      34.756  33.010  31.751  1.00  0.00     0.198 A 
ATOM     75  C   UNL A   1      35.394  33.893  29.623  1.00  0.00     0.198 A 
ATOM     76  F   UNL A   1      37.270  33.063  28.505  1.00  0.00    -0.203 F 
ATOM     77  F   UNL A   1      33.967  33.046  32.834  1.00  0.00    -0.200 F 
ATOM     78  C   UNL A   1      34.560  33.920  30.726  1.00  0.00     0.200 A 
ATOM     79  F   UNL A   1      35.228  34.787  28.637  1.00  0.00    -0.200 F 
ATOM     80  F   UNL A   1      33.596  34.846  30.819  1.00  0.00    -0.200 F 
ENDBRANCH  46  70
BRANCH  58  81
ATOM     81  C   UNL A   1      42.016  29.902  33.229  1.00  0.00     0.064 A 
ATOM     82  C   UNL A   1      41.618  28.562  33.088  1.00  0.00     0.173 A 
ATOM     83  C   UNL A   1      42.288  30.348  34.530  1.00  0.00     0.173 A 
ATOM     84  F   UNL A   1      41.413  28.027  31.882  1.00  0.00    -0.203 F 
ATOM     85  C   UNL A   1      41.466  27.723  34.194  1.00  0.00     0.198 A 
ATOM     86  C   UNL A   1      42.167  29.502  35.631  1.00  0.00     0.198 A 
ATOM     87  F   UNL A   1      42.715  31.605  34.732  1.00  0.00    -0.203 F 
ATOM     88  F   UNL A   1      41.075  26.450  34.025  1.00  0.00    -0.200 F 
ATOM     89  C   UNL A   1      41.747  28.194  35.465  1.00  0.00     0.200 A 
ATOM     90  F   UNL A   1      42.481  29.953  36.853  1.00  0.00    -0.200 F 
ATOM     91  F   UNL A   1      41.631  27.382  36.526  1.00  0.00    -0.200 F 
ENDBRANCH  58  81
ENDBRANCH  32  33
ENDBRANCH  25  27
ENDBRANCH  24  25
ENDBRANCH  23  24
ENDBRANCH   1  23
TORSDOF 16
ENDMDL
MODEL 2
REMARK VINA RESULT:     -11.6      3.712      8.877
REMARK SMILES Cc1ccc(C)c([C@@H](C)[N@@H+](CC(=O)OCCOC(=O)c2ccc(-c3c4nc(c(-c5c(F)c(F)c(F)c(F)c5F)c5ccc([nH]5)c(-c5c(F)c(F)c(F)c(F)c5F)c5nc(c(-c6c(F)c(F)c(F)c(F)c6F)c6ccc3[nH]6)C=C5)C=C4)cc2)CC(F)(F)F)c1
REMARK SMILES IDX 15 1 14 2 12 3 13 4 11 5 10 6 8 8 9 9 7 10 1 11 2 12 3 13
REMARK SMILES IDX 88 14 4 15 5 16 6 17 83 18 84 19 85 20 86 21 87 22 16 23
REMARK SMILES IDX 17 24 18 25 19 26 20 27 21 28 82 29 22 30 81 31 23 32 24 33
REMARK SMILES IDX 25 34 75 35 26 36 80 37 74 38 76 39 27 40 79 41 73 42 72 43
REMARK SMILES IDX 28 45 60 46 40 47 59 48 41 49 44 50 58 51 77 52 42 53 43 54
REMARK SMILES IDX 57 56 78 57 45 58 29 59 30 60 38 61 31 62 32 63 36 64 39 65
REMARK SMILES IDX 33 66 34 67 37 68 35 69 61 70 62 71 70 72 63 73 64 74 68 75
REMARK SMILES IDX 71 76 65 77 66 78 69 79 67 80 46 81 47 82 55 83 48 84 49 85
REMARK SMILES IDX 53 86 56 87 50 88 51 89 54 90 52 91
REMARK H PARENT 10 7 76 44 44 55
REMARK Flexibility Score: inf
ROOT
ATOM      1  C   UNL A   1      32.128  30.089  26.867  1.00  0.00     0.274 C 
ENDROOT
BRANCH   1   2
ATOM      2  O   UNL A   1      32.315  28.947  26.012  1.00  0.00    -0.458 OA
BRANCH   2   3
ATOM      3  C   UNL A   1      32.234  27.729  26.574  1.00  0.00     0.361 C 
ATOM      4  O   UNL A   1      31.396  27.392  27.371  1.00  0.00    -0.245 OA
BRANCH   3   5
ATOM      5  C   UNL A   1      33.197  26.707  26.054  1.00  0.00     0.387 C 
BRANCH   5   6
ATOM      6  N   UNL A   1      32.480  25.755  25.187  1.00  0.00    -0.312 N 
ATOM      7  H   UNL A   1      31.508  25.612  25.462  1.00  0.00     0.349 HD
BRANCH   6   8
ATOM      8  C   UNL A   1      32.848  24.355  25.430  1.00  0.00     0.213 C 
ATOM      9  C   UNL A   1      32.538  23.751  26.811  1.00  0.00     0.081 C 
BRANCH   8  10
ATOM     10  C   UNL A   1      34.162  23.777  24.905  1.00  0.00     0.012 A 
ATOM     11  C   UNL A   1      37.759  24.121  26.172  1.00  0.00     0.044 C 
ATOM     12  C   UNL A   1      36.592  23.711  25.327  1.00  0.00    -0.051 A 
ATOM     13  C   UNL A   1      36.797  23.171  24.063  1.00  0.00     0.004 A 
ATOM     14  C   UNL A   1      35.282  23.942  25.759  1.00  0.00     0.013 A 
ATOM     15  C   UNL A   1      35.716  22.966  23.215  1.00  0.00     0.004 A 
ATOM     16  C   UNL A   1      34.412  23.339  23.590  1.00  0.00    -0.042 A 
ATOM     17  C   UNL A   1      33.392  23.279  22.499  1.00  0.00     0.045 C 
ENDBRANCH   8  10
ENDBRANCH   6   8
BRANCH   6  18
ATOM     18  C   UNL A   1      31.950  26.299  23.901  1.00  0.00     0.380 C 
BRANCH  18  19
ATOM     19  C   UNL A   1      32.750  26.803  22.636  1.00  0.00     0.438 C 
ATOM     20  F   UNL A   1      32.284  26.299  21.470  1.00  0.00    -0.165 F 
ATOM     21  F   UNL A   1      32.663  28.156  22.536  1.00  0.00    -0.165 F 
ATOM     22  F   UNL A   1      34.075  26.551  22.716  1.00  0.00    -0.165 F 
ENDBRANCH  18  19
ENDBRANCH   6  18
ENDBRANCH   5   6
ENDBRANCH   3   5
ENDBRANCH   2   3
ENDBRANCH   1   2
BRANCH   1  23
ATOM     23  C   UNL A   1      33.203  31.200  27.111  1.00  0.00     0.275 C 
BRANCH  23  24
ATOM     24  O   UNL A   1      34.536  31.087  27.761  1.00  0.00    -0.458 OA
BRANCH  24  25
ATOM     25  C   UNL A   1      35.486  31.991  28.155  1.00  0.00     0.338 C 
ATOM     26  O   UNL A   1      35.271  33.179  28.344  1.00  0.00    -0.246 OA
BRANCH  25  27
ATOM     27  C   UNL A   1      36.837  31.441  28.264  1.00  0.00     0.060 A 
ATOM     28  C   UNL A   1      37.874  32.012  29.023  1.00  0.00     0.016 A 
ATOM     29  C   UNL A   1      36.948  30.185  27.728  1.00  0.00     0.016 A 
ATOM     30  C   UNL A   1      38.987  31.221  29.341  1.00  0.00     0.010 A 
ATOM     31  C   UNL A   1      37.865  29.373  28.306  1.00  0.00     0.010 A 
ATOM     32  C   UNL A   1      38.955  29.861  29.005  1.00  0.00    -0.014 A 
BRANCH  32  33
ATOM     33  C   UNL A   1      39.953  28.848  29.352  1.00  0.00     0.031 A 
ATOM     34  C   UNL A   1      40.187  28.607  30.794  1.00  0.00     0.074 A 
ATOM     35  C   UNL A   1      40.606  28.115  28.407  1.00  0.00     0.049 A 
ATOM     36  N   UNL A   1      41.073  29.218  31.506  1.00  0.00    -0.248 NA
ATOM     37  C   UNL A   1      39.326  27.715  31.578  1.00  0.00     0.031 C 
ATOM     38  C   UNL A   1      40.437  28.093  26.936  1.00  0.00     0.029 A 
ATOM     39  N   UNL A   1      41.589  27.189  28.578  1.00  0.00    -0.354 N 
ATOM     40  C   UNL A   1      41.086  28.597  32.745  1.00  0.00     0.074 A 
ATOM     41  C   UNL A   1      39.869  27.826  32.798  1.00  0.00     0.031 C 
ATOM     42  C   UNL A   1      41.101  27.060  26.387  1.00  0.00     0.029 A 
ATOM     43  C   UNL A   1      41.957  26.518  27.416  1.00  0.00     0.049 A 
ATOM     44  H   UNL A   1      42.006  27.008  29.452  1.00  0.00     0.167 HD
ATOM     45  C   UNL A   1      42.241  28.586  33.474  1.00  0.00     0.037 A 
ATOM     46  C   UNL A   1      43.066  25.788  27.163  1.00  0.00     0.037 A 
ATOM     47  C   UNL A   1      43.202  29.515  32.907  1.00  0.00     0.049 A 
ATOM     48  C   UNL A   1      44.096  26.252  28.118  1.00  0.00     0.074 A 
ATOM     49  C   UNL A   1      43.198  30.874  32.647  1.00  0.00     0.029 A 
ATOM     50  N   UNL A   1      44.196  28.997  32.110  1.00  0.00    -0.354 N 
ATOM     51  N   UNL A   1      44.647  27.432  28.053  1.00  0.00    -0.248 NA
ATOM     52  C   UNL A   1      44.121  25.611  29.421  1.00  0.00     0.031 C 
ATOM     53  C   UNL A   1      43.803  31.002  31.360  1.00  0.00     0.029 A 
ATOM     54  C   UNL A   1      44.249  29.743  30.958  1.00  0.00     0.049 A 
ATOM     55  H   UNL A   1      44.771  28.228  32.328  1.00  0.00     0.167 HD
ATOM     56  C   UNL A   1      44.670  27.874  29.367  1.00  0.00     0.074 A 
ATOM     57  C   UNL A   1      44.403  26.680  30.171  1.00  0.00     0.031 C 
ATOM     58  C   UNL A   1      44.632  29.205  29.669  1.00  0.00     0.037 A 
BRANCH  45  59
ATOM     59  C   UNL A   1      42.684  27.499  34.426  1.00  0.00     0.064 A 
ATOM     60  C   UNL A   1      43.110  26.263  33.892  1.00  0.00     0.173 A 
ATOM     61  C   UNL A   1      42.420  27.501  35.809  1.00  0.00     0.173 A 
ATOM     62  F   UNL A   1      43.391  26.143  32.585  1.00  0.00    -0.203 F 
ATOM     63  C   UNL A   1      43.160  25.099  34.662  1.00  0.00     0.198 A 
ATOM     64  C   UNL A   1      42.517  26.346  36.587  1.00  0.00     0.198 A 
ATOM     65  F   UNL A   1      41.955  28.581  36.446  1.00  0.00    -0.203 F 
ATOM     66  F   UNL A   1      43.434  23.925  34.078  1.00  0.00    -0.200 F 
ATOM     67  C   UNL A   1      42.850  25.139  36.008  1.00  0.00     0.200 A 
ATOM     68  F   UNL A   1      42.197  26.400  37.888  1.00  0.00    -0.200 F 
ATOM     69  F   UNL A   1      42.827  24.014  36.735  1.00  0.00    -0.200 F 
ENDBRANCH  45  59
BRANCH  46  70
ATOM     70  C   UNL A   1      43.131  24.504  26.434  1.00  0.00     0.064 A 
ATOM     71  C   UNL A   1      43.981  24.363  25.328  1.00  0.00     0.173 A 
ATOM     72  C   UNL A   1      42.590  23.320  26.972  1.00  0.00     0.173 A 
ATOM     73  F   UNL A   1      44.540  25.444  24.766  1.00  0.00    -0.203 F 
ATOM     74  C   UNL A   1      44.334  23.106  24.834  1.00  0.00     0.198 A 
ATOM     75  C   UNL A   1      42.942  22.064  26.476  1.00  0.00     0.198 A 
ATOM     76  F   UNL A   1      41.784  23.354  28.044  1.00  0.00    -0.203 F 
ATOM     77  F   UNL A   1      45.215  23.008  23.829  1.00  0.00    -0.200 F 
ATOM     78  C   UNL A   1      43.832  21.957  25.422  1.00  0.00     0.200 A 
ATOM     79  F   UNL A   1      42.470  20.958  27.069  1.00  0.00    -0.200 F 
ATOM     80  F   UNL A   1      44.234  20.749  25.002  1.00  0.00    -0.200 F 
ENDBRANCH  46  70
BRANCH  58  81
ATOM     81  C   UNL A   1      44.832  30.192  28.546  1.00  0.00     0.064 A 
ATOM     82  C   UNL A   1      43.794  30.809  27.826  1.00  0.00     0.173 A 
ATOM     83  C   UNL A   1      46.136  30.624  28.270  1.00  0.00     0.173 A 
ATOM     84  F   UNL A   1      42.515  30.519  28.076  1.00  0.00    -0.203 F 
ATOM     85  C   UNL A   1      44.052  31.782  26.858  1.00  0.00     0.198 A 
ATOM     86  C   UNL A   1      46.392  31.617  27.326  1.00  0.00     0.198 A 
ATOM     87  F   UNL A   1      47.172  30.108  28.951  1.00  0.00    -0.203 F 
ATOM     88  F   UNL A   1      43.038  32.344  26.183  1.00  0.00    -0.200 F 
ATOM     89  C   UNL A   1      45.351  32.188  26.613  1.00  0.00     0.200 A 
ATOM     90  F   UNL A   1      47.649  32.035  27.125  1.00  0.00    -0.200 F 
ATOM     91  F   UNL A   1      45.600  33.144  25.706  1.00  0.00    -0.200 F 
ENDBRANCH  58  81
ENDBRANCH  32  33
ENDBRANCH  25  27
ENDBRANCH  24  25
ENDBRANCH  23  24
ENDBRANCH   1  23
TORSDOF 16
ENDMDL
MODEL 3
REMARK VINA RESULT:     -11.6      1.712      2.309
REMARK SMILES Cc1ccc(C)c([C@@H](C)[N@@H+](CC(=O)OCCOC(=O)c2ccc(-c3c4nc(c(-c5c(F)c(F)c(F)c(F)c5F)c5ccc([nH]5)c(-c5c(F)c(F)c(F)c(F)c5F)c5nc(c(-c6c(F)c(F)c(F)c(F)c6F)c6ccc3[nH]6)C=C5)C=C4)cc2)CC(F)(F)F)c1
REMARK SMILES IDX 15 1 14 2 12 3 13 4 11 5 10 6 8 8 9 9 7 10 1 11 2 12 3 13
REMARK SMILES IDX 88 14 4 15 5 16 6 17 83 18 84 19 85 20 86 21 87 22 16 23
REMARK SMILES IDX 17 24 18 25 19 26 20 27 21 28 82 29 22 30 81 31 23 32 24 33
REMARK SMILES IDX 25 34 75 35 26 36 80 37 74 38 76 39 27 40 79 41 73 42 72 43
REMARK SMILES IDX 28 45 60 46 40 47 59 48 41 49 44 50 58 51 77 52 42 53 43 54
REMARK SMILES IDX 57 56 78 57 45 58 29 59 30 60 38 61 31 62 32 63 36 64 39 65
REMARK SMILES IDX 33 66 34 67 37 68 35 69 61 70 62 71 70 72 63 73 64 74 68 75
REMARK SMILES IDX 71 76 65 77 66 78 69 79 67 80 46 81 47 82 55 83 48 84 49 85
REMARK SMILES IDX 53 86 56 87 50 88 51 89 54 90 52 91
REMARK H PARENT 10 7 76 44 44 55
REMARK Flexibility Score: inf
ROOT
ATOM      1  C   UNL A   1      37.381  21.548  25.494  1.00  0.00     0.274 C 
ENDROOT
BRANCH   1   2
ATOM      2  O   UNL A   1      36.566  22.162  24.481  1.00  0.00    -0.458 OA
BRANCH   2   3
ATOM      3  C   UNL A   1      35.430  22.764  24.876  1.00  0.00     0.361 C 
ATOM      4  O   UNL A   1      34.649  22.307  25.671  1.00  0.00    -0.245 OA
BRANCH   3   5
ATOM      5  C   UNL A   1      35.218  24.154  24.363  1.00  0.00     0.387 C 
BRANCH   5   6
ATOM      6  N   UNL A   1      33.897  24.642  24.799  1.00  0.00    -0.312 N 
ATOM      7  H   UNL A   1      33.454  24.039  25.493  1.00  0.00     0.349 HD
BRANCH   6   8
ATOM      8  C   UNL A   1      32.840  24.428  23.805  1.00  0.00     0.213 C 
ATOM      9  C   UNL A   1      33.252  24.236  22.335  1.00  0.00     0.081 C 
BRANCH   8  10
ATOM     10  C   UNL A   1      31.524  25.202  23.868  1.00  0.00     0.012 A 
ATOM     11  C   UNL A   1      30.478  28.540  22.312  1.00  0.00     0.044 C 
ATOM     12  C   UNL A   1      30.415  27.267  23.098  1.00  0.00    -0.051 A 
ATOM     13  C   UNL A   1      29.390  27.058  24.013  1.00  0.00     0.004 A 
ATOM     14  C   UNL A   1      31.427  26.308  22.987  1.00  0.00     0.013 A 
ATOM     15  C   UNL A   1      29.439  25.965  24.869  1.00  0.00     0.004 A 
ATOM     16  C   UNL A   1      30.533  25.081  24.862  1.00  0.00    -0.042 A 
ATOM     17  C   UNL A   1      30.564  24.095  25.985  1.00  0.00     0.045 C 
ENDBRANCH   8  10
ENDBRANCH   6   8
BRANCH   6  18
ATOM     18  C   UNL A   1      33.897  25.708  25.846  1.00  0.00     0.380 C 
BRANCH  18  19
ATOM     19  C   UNL A   1      33.689  27.264  25.673  1.00  0.00     0.438 C 
ATOM     20  F   UNL A   1      32.424  27.668  25.934  1.00  0.00    -0.165 F 
ATOM     21  F   UNL A   1      34.498  27.943  26.529  1.00  0.00    -0.165 F 
ATOM     22  F   UNL A   1      34.041  27.709  24.446  1.00  0.00    -0.165 F 
ENDBRANCH  18  19
ENDBRANCH   6  18
ENDBRANCH   5   6
ENDBRANCH   3   5
ENDBRANCH   2   3
ENDBRANCH   1   2
BRANCH   1  23
ATOM     23  C   UNL A   1      38.896  21.865  25.727  1.00  0.00     0.275 C 
BRANCH  23  24
ATOM     24  O   UNL A   1      39.609  22.150  27.000  1.00  0.00    -0.458 OA
BRANCH  24  25
ATOM     25  C   UNL A   1      40.873  22.571  27.313  1.00  0.00     0.338 C 
ATOM     26  O   UNL A   1      41.889  21.927  27.095  1.00  0.00    -0.246 OA
BRANCH  25  27
ATOM     27  C   UNL A   1      40.928  23.851  28.019  1.00  0.00     0.060 A 
ATOM     28  C   UNL A   1      42.085  24.391  28.609  1.00  0.00     0.016 A 
ATOM     29  C   UNL A   1      39.786  24.593  27.869  1.00  0.00     0.016 A 
ATOM     30  C   UNL A   1      42.102  25.755  28.928  1.00  0.00     0.010 A 
ATOM     31  C   UNL A   1      39.946  25.937  27.896  1.00  0.00     0.010 A 
ATOM     32  C   UNL A   1      41.018  26.548  28.522  1.00  0.00    -0.014 A 
BRANCH  32  33
ATOM     33  C   UNL A   1      40.898  28.000  28.650  1.00  0.00     0.031 A 
ATOM     34  C   UNL A   1      41.932  28.818  27.976  1.00  0.00     0.074 A 
ATOM     35  C   UNL A   1      39.861  28.590  29.308  1.00  0.00     0.049 A 
ATOM     36  N   UNL A   1      43.030  29.213  28.527  1.00  0.00    -0.248 NA
ATOM     37  C   UNL A   1      41.844  29.153  26.550  1.00  0.00     0.031 C 
ATOM     38  C   UNL A   1      38.663  27.985  29.933  1.00  0.00     0.029 A 
ATOM     39  N   UNL A   1      39.651  29.913  29.552  1.00  0.00    -0.354 N 
ATOM     40  C   UNL A   1      43.636  30.080  27.631  1.00  0.00     0.074 A 
ATOM     41  C   UNL A   1      42.975  29.849  26.371  1.00  0.00     0.031 C 
ATOM     42  C   UNL A   1      37.761  28.926  30.266  1.00  0.00     0.029 A 
ATOM     43  C   UNL A   1      38.423  30.203  30.138  1.00  0.00     0.049 A 
ATOM     44  H   UNL A   1      40.313  30.608  29.333  1.00  0.00     0.167 HD
ATOM     45  C   UNL A   1      44.437  31.079  28.107  1.00  0.00     0.037 A 
ATOM     46  C   UNL A   1      38.023  31.324  30.779  1.00  0.00     0.037 A 
ATOM     47  C   UNL A   1      44.736  30.858  29.510  1.00  0.00     0.049 A 
ATOM     48  C   UNL A   1      39.253  31.996  31.248  1.00  0.00     0.074 A 
ATOM     49  C   UNL A   1      45.332  29.833  30.223  1.00  0.00     0.029 A 
ATOM     50  N   UNL A   1      44.012  31.570  30.438  1.00  0.00    -0.354 N 
ATOM     51  N   UNL A   1      40.009  31.517  32.196  1.00  0.00    -0.248 NA
ATOM     52  C   UNL A   1      39.900  32.907  30.320  1.00  0.00     0.031 C 
ATOM     53  C   UNL A   1      44.524  29.683  31.392  1.00  0.00     0.029 A 
ATOM     54  C   UNL A   1      43.560  30.691  31.391  1.00  0.00     0.049 A 
ATOM     55  H   UNL A   1      43.847  32.541  30.422  1.00  0.00     0.167 HD
ATOM     56  C   UNL A   1      41.302  31.687  31.723  1.00  0.00     0.074 A 
ATOM     57  C   UNL A   1      41.174  32.616  30.599  1.00  0.00     0.031 C 
ATOM     58  C   UNL A   1      42.314  30.855  32.109  1.00  0.00     0.037 A 
BRANCH  45  59
ATOM     59  C   UNL A   1      44.632  32.440  27.479  1.00  0.00     0.064 A 
ATOM     60  C   UNL A   1      45.793  32.669  26.707  1.00  0.00     0.173 A 
ATOM     61  C   UNL A   1      43.913  33.593  27.845  1.00  0.00     0.173 A 
ATOM     62  F   UNL A   1      46.556  31.643  26.299  1.00  0.00    -0.203 F 
ATOM     63  C   UNL A   1      46.253  33.957  26.421  1.00  0.00     0.198 A 
ATOM     64  C   UNL A   1      44.350  34.879  27.518  1.00  0.00     0.198 A 
ATOM     65  F   UNL A   1      42.827  33.541  28.623  1.00  0.00    -0.203 F 
ATOM     66  F   UNL A   1      47.432  34.121  25.807  1.00  0.00    -0.200 F 
ATOM     67  C   UNL A   1      45.537  35.062  26.839  1.00  0.00     0.200 A 
ATOM     68  F   UNL A   1      43.651  35.939  27.946  1.00  0.00    -0.200 F 
ATOM     69  F   UNL A   1      46.009  36.298  26.630  1.00  0.00    -0.200 F 
ENDBRANCH  45  59
BRANCH  46  70
ATOM     70  C   UNL A   1      36.710  31.992  30.653  1.00  0.00     0.064 A 
ATOM     71  C   UNL A   1      35.838  32.046  31.750  1.00  0.00     0.173 A 
ATOM     72  C   UNL A   1      36.407  32.830  29.562  1.00  0.00     0.173 A 
ATOM     73  F   UNL A   1      36.065  31.282  32.828  1.00  0.00    -0.203 F 
ATOM     74  C   UNL A   1      34.769  32.943  31.789  1.00  0.00     0.198 A 
ATOM     75  C   UNL A   1      35.338  33.725  29.602  1.00  0.00     0.198 A 
ATOM     76  F   UNL A   1      37.197  32.864  28.478  1.00  0.00    -0.203 F 
ATOM     77  F   UNL A   1      34.008  33.024  32.889  1.00  0.00    -0.200 F 
ATOM     78  C   UNL A   1      34.533  33.797  30.725  1.00  0.00     0.200 A 
ATOM     79  F   UNL A   1      35.133  34.565  28.577  1.00  0.00    -0.200 F 
ATOM     80  F   UNL A   1      33.558  34.714  30.796  1.00  0.00    -0.200 F 
ENDBRANCH  46  70
BRANCH  58  81
ATOM     81  C   UNL A   1      42.057  29.914  33.261  1.00  0.00     0.064 A 
ATOM     82  C   UNL A   1      41.663  28.571  33.125  1.00  0.00     0.173 A 
ATOM     83  C   UNL A   1      42.344  30.361  34.557  1.00  0.00     0.173 A 
ATOM     84  F   UNL A   1      41.444  28.035  31.923  1.00  0.00    -0.203 F 
ATOM     85  C   UNL A   1      41.529  27.733  34.234  1.00  0.00     0.198 A 
ATOM     86  C   UNL A   1      42.241  29.517  35.660  1.00  0.00     0.198 A 
ATOM     87  F   UNL A   1      42.767  31.621  34.753  1.00  0.00    -0.203 F 
ATOM     88  F   UNL A   1      41.142  26.458  34.071  1.00  0.00    -0.200 F 
ATOM     89  C   UNL A   1      41.825  28.206  35.501  1.00  0.00     0.200 A 
ATOM     90  F   UNL A   1      42.570  29.970  36.878  1.00  0.00    -0.200 F 
ATOM     91  F   UNL A   1      41.727  27.395  36.564  1.00  0.00    -0.200 F 
ENDBRANCH  58  81
ENDBRANCH  32  33
ENDBRANCH  25  27
ENDBRANCH  24  25
ENDBRANCH  23  24
ENDBRANCH   1  23
TORSDOF 16
ENDMDL
