MODEL 1
REMARK VINA RESULT:     -12.0      0.000      0.000
REMARK SMILES O=C(CCCOc1ccc(Cl)cc1Cl)Nc1cccc(C(=O)OCCOC(=O)c2ccc(-c3c4nc(c(-c5c(F)c(F)c(F)c(F)c5F)c5ccc([nH]5)c(-c5c(F)c(F)c(F)c(F)c5F)c5nc(c(-c6c(F)c(F)c(F)c(F)c6F)c6ccc3[nH]6)C=C5)C=C4)cc2)c1
REMARK SMILES IDX 21 1 22 2 20 3 16 4 17 5 92 6 18 7 19 8 15 9 1 10 2 11 3 13
REMARK SMILES IDX 4 14 5 15 6 16 7 17 8 18 13 19 9 20 12 21 14 22 10 23 11 24
REMARK SMILES IDX 23 25 24 26 25 27 26 28 27 29 28 30 29 31 30 32 91 33 31 34
REMARK SMILES IDX 90 35 32 36 33 37 34 38 84 39 35 40 89 41 83 42 85 43 36 44
REMARK SMILES IDX 88 45 82 46 81 47 37 49 69 50 49 51 68 52 50 53 53 54 67 55
REMARK SMILES IDX 86 56 51 57 52 58 66 60 87 61 54 62 38 63 39 64 47 65 40 66
REMARK SMILES IDX 41 67 45 68 48 69 42 70 43 71 46 72 44 73 70 74 71 75 79 76
REMARK SMILES IDX 72 77 73 78 77 79 80 80 74 81 75 82 78 83 76 84 55 85 56 86
REMARK SMILES IDX 64 87 57 88 58 89 62 90 65 91 59 92 60 93 63 94 61 95
REMARK H PARENT 15 12 85 48 53 59
REMARK Flexibility Score: inf
ROOT
ATOM      1  C   UNL A   1      39.832  20.401  25.881  1.00  0.00     0.338 C 
ATOM      2  O   UNL A   1      39.674  19.250  25.531  1.00  0.00    -0.246 OA
ENDROOT
BRANCH   1   3
ATOM      3  C   UNL A   1      38.799  21.458  25.752  1.00  0.00     0.062 A 
ATOM      4  C   UNL A   1      36.719  22.212  24.834  1.00  0.00     0.042 A 
ATOM      5  C   UNL A   1      36.935  23.501  25.327  1.00  0.00     0.026 A 
ATOM      6  C   UNL A   1      37.681  21.219  24.972  1.00  0.00     0.041 A 
ATOM      7  C   UNL A   1      38.024  23.725  26.160  1.00  0.00     0.003 A 
ATOM      8  C   UNL A   1      38.913  22.682  26.425  1.00  0.00     0.016 A 
BRANCH   4   9
ATOM      9  N   UNL A   1      35.463  21.908  24.301  1.00  0.00    -0.326 N 
ATOM     10  O   UNL A   1      34.579  21.094  26.274  1.00  0.00    -0.275 OA
ATOM     11  C   UNL A   1      34.453  21.390  25.084  1.00  0.00     0.224 C 
ATOM     12  H   UNL A   1      35.296  22.068  23.344  1.00  0.00     0.169 HD
BRANCH  11  13
ATOM     13  C   UNL A   1      33.126  21.149  24.400  1.00  0.00     0.104 C 
BRANCH  13  14
ATOM     14  C   UNL A   1      32.436  22.308  23.685  1.00  0.00     0.051 C 
BRANCH  14  15
ATOM     15  C   UNL A   1      32.946  22.798  22.320  1.00  0.00     0.230 C 
BRANCH  15  16
ATOM     16  O   UNL A   1      33.995  23.769  22.394  1.00  0.00    -0.492 OA
BRANCH  16  17
ATOM     17  C   UNL A   1      33.612  25.031  22.762  1.00  0.00     0.137 A 
ATOM     18  C   UNL A   1      34.028  25.432  24.033  1.00  0.00     0.049 A 
ATOM     19  C   UNL A   1      32.936  25.943  21.942  1.00  0.00     0.084 A 
ATOM     20  C   UNL A   1      33.648  26.669  24.547  1.00  0.00     0.024 A 
ATOM     21  C   UNL A   1      32.591  27.205  22.440  1.00  0.00     0.045 A 
ATOM     22  Cl  UNL A   1      32.528  25.579  20.306  1.00  0.00    -0.080 Cl
ATOM     23  C   UNL A   1      32.926  27.549  23.749  1.00  0.00     0.042 A 
ATOM     24  Cl  UNL A   1      32.466  29.081  24.382  1.00  0.00    -0.084 Cl
ENDBRANCH  16  17
ENDBRANCH  15  16
ENDBRANCH  14  15
ENDBRANCH  13  14
ENDBRANCH  11  13
ENDBRANCH   4   9
ENDBRANCH   1   3
BRANCH   1  25
ATOM     25  O   UNL A   1      40.888  20.918  26.563  1.00  0.00    -0.458 OA
BRANCH  25  26
ATOM     26  C   UNL A   1      42.155  20.247  26.430  1.00  0.00     0.275 C 
BRANCH  26  27
ATOM     27  C   UNL A   1      43.152  21.117  25.661  1.00  0.00     0.275 C 
BRANCH  27  28
ATOM     28  O   UNL A   1      42.516  22.331  25.218  1.00  0.00    -0.458 OA
BRANCH  28  29
ATOM     29  C   UNL A   1      43.279  23.445  25.289  1.00  0.00     0.338 C 
ATOM     30  O   UNL A   1      44.248  23.737  24.609  1.00  0.00    -0.246 OA
BRANCH  29  31
ATOM     31  C   UNL A   1      42.685  24.385  26.248  1.00  0.00     0.060 A 
ATOM     32  C   UNL A   1      43.027  25.721  26.112  1.00  0.00     0.016 A 
ATOM     33  C   UNL A   1      41.956  23.969  27.355  1.00  0.00     0.016 A 
ATOM     34  C   UNL A   1      42.770  26.636  27.121  1.00  0.00     0.010 A 
ATOM     35  C   UNL A   1      41.571  24.920  28.312  1.00  0.00     0.010 A 
ATOM     36  C   UNL A   1      42.003  26.260  28.224  1.00  0.00    -0.014 A 
BRANCH  36  37
ATOM     37  C   UNL A   1      41.676  27.266  29.274  1.00  0.00     0.031 A 
ATOM     38  C   UNL A   1      42.514  27.357  30.521  1.00  0.00     0.074 A 
ATOM     39  C   UNL A   1      40.643  28.118  29.105  1.00  0.00     0.049 A 
ATOM     40  N   UNL A   1      42.284  28.015  31.629  1.00  0.00    -0.248 NA
ATOM     41  C   UNL A   1      43.773  26.596  30.526  1.00  0.00     0.031 C 
ATOM     42  C   UNL A   1      39.788  28.196  27.917  1.00  0.00     0.029 A 
ATOM     43  N   UNL A   1      40.131  29.087  29.936  1.00  0.00    -0.354 N 
ATOM     44  C   UNL A   1      43.335  27.698  32.482  1.00  0.00     0.074 A 
ATOM     45  C   UNL A   1      44.200  26.787  31.766  1.00  0.00     0.031 C 
ATOM     46  C   UNL A   1      38.885  29.172  28.082  1.00  0.00     0.029 A 
ATOM     47  C   UNL A   1      39.018  29.713  29.427  1.00  0.00     0.049 A 
ATOM     48  H   UNL A   1      40.523  29.310  30.811  1.00  0.00     0.167 HD
ATOM     49  C   UNL A   1      43.549  28.131  33.749  1.00  0.00     0.037 A 
ATOM     50  C   UNL A   1      38.155  30.576  29.997  1.00  0.00     0.037 A 
ATOM     51  C   UNL A   1      42.703  29.074  34.434  1.00  0.00     0.049 A 
ATOM     52  C   UNL A   1      38.375  30.981  31.427  1.00  0.00     0.074 A 
ATOM     53  C   UNL A   1      42.841  29.587  35.713  1.00  0.00     0.029 A 
ATOM     54  N   UNL A   1      41.560  29.650  33.896  1.00  0.00    -0.354 N 
ATOM     55  N   UNL A   1      39.342  30.644  32.244  1.00  0.00    -0.248 NA
ATOM     56  C   UNL A   1      37.371  31.874  32.021  1.00  0.00     0.031 C 
ATOM     57  C   UNL A   1      41.752  30.426  35.969  1.00  0.00     0.029 A 
ATOM     58  C   UNL A   1      40.969  30.490  34.826  1.00  0.00     0.049 A 
ATOM     59  H   UNL A   1      41.220  29.484  32.987  1.00  0.00     0.167 HD
ATOM     60  C   UNL A   1      39.079  31.298  33.439  1.00  0.00     0.074 A 
ATOM     61  C   UNL A   1      37.870  32.070  33.232  1.00  0.00     0.031 C 
ATOM     62  C   UNL A   1      39.770  31.259  34.603  1.00  0.00     0.037 A 
BRANCH  49  63
ATOM     63  C   UNL A   1      44.718  27.554  34.498  1.00  0.00     0.064 A 
ATOM     64  C   UNL A   1      44.618  26.377  35.253  1.00  0.00     0.173 A 
ATOM     65  C   UNL A   1      45.974  28.178  34.424  1.00  0.00     0.173 A 
ATOM     66  F   UNL A   1      43.439  25.746  35.368  1.00  0.00    -0.203 F 
ATOM     67  C   UNL A   1      45.723  25.861  35.927  1.00  0.00     0.198 A 
ATOM     68  C   UNL A   1      47.085  27.640  35.070  1.00  0.00     0.198 A 
ATOM     69  F   UNL A   1      46.129  29.304  33.712  1.00  0.00    -0.203 F 
ATOM     70  F   UNL A   1      45.592  24.761  36.683  1.00  0.00    -0.200 F 
ATOM     71  C   UNL A   1      46.956  26.487  35.829  1.00  0.00     0.200 A 
ATOM     72  F   UNL A   1      48.278  28.240  34.960  1.00  0.00    -0.200 F 
ATOM     73  F   UNL A   1      48.021  25.984  36.468  1.00  0.00    -0.200 F 
ENDBRANCH  49  63
BRANCH  50  74
ATOM     74  C   UNL A   1      36.972  31.061  29.236  1.00  0.00     0.064 A 
ATOM     75  C   UNL A   1      35.880  30.220  28.981  1.00  0.00     0.173 A 
ATOM     76  C   UNL A   1      36.913  32.371  28.734  1.00  0.00     0.173 A 
ATOM     77  F   UNL A   1      35.897  28.952  29.415  1.00  0.00    -0.203 F 
ATOM     78  C   UNL A   1      34.787  30.664  28.240  1.00  0.00     0.198 A 
ATOM     79  C   UNL A   1      35.803  32.826  28.027  1.00  0.00     0.198 A 
ATOM     80  F   UNL A   1      37.931  33.219  28.945  1.00  0.00    -0.203 F 
ATOM     81  F   UNL A   1      33.782  29.821  27.963  1.00  0.00    -0.200 F 
ATOM     82  C   UNL A   1      34.745  31.969  27.771  1.00  0.00     0.200 A 
ATOM     83  F   UNL A   1      35.760  34.093  27.592  1.00  0.00    -0.200 F 
ATOM     84  F   UNL A   1      33.690  32.395  27.063  1.00  0.00    -0.200 F 
ENDBRANCH  50  74
BRANCH  62  85
ATOM     85  C   UNL A   1      39.264  32.113  35.730  1.00  0.00     0.064 A 
ATOM     86  C   UNL A   1      38.384  31.612  36.701  1.00  0.00     0.173 A 
ATOM     87  C   UNL A   1      39.687  33.445  35.852  1.00  0.00     0.173 A 
ATOM     88  F   UNL A   1      37.936  30.350  36.618  1.00  0.00    -0.203 F 
ATOM     89  C   UNL A   1      37.923  32.422  37.735  1.00  0.00     0.198 A 
ATOM     90  C   UNL A   1      39.252  34.242  36.907  1.00  0.00     0.198 A 
ATOM     91  F   UNL A   1      40.532  33.973  34.953  1.00  0.00    -0.203 F 
ATOM     92  F   UNL A   1      37.037  31.939  38.616  1.00  0.00    -0.200 F 
ATOM     93  C   UNL A   1      38.363  33.733  37.842  1.00  0.00     0.200 A 
ATOM     94  F   UNL A   1      39.692  35.503  37.019  1.00  0.00    -0.200 F 
ATOM     95  F   UNL A   1      37.924  34.509  38.841  1.00  0.00    -0.200 F 
ENDBRANCH  62  85
ENDBRANCH  36  37
ENDBRANCH  29  31
ENDBRANCH  28  29
ENDBRANCH  27  28
ENDBRANCH  26  27
ENDBRANCH  25  26
ENDBRANCH   1  25
TORSDOF 17
ENDMDL
MODEL 2
REMARK VINA RESULT:     -11.6      3.048      8.196
REMARK SMILES O=C(CCCOc1ccc(Cl)cc1Cl)Nc1cccc(C(=O)OCCOC(=O)c2ccc(-c3c4nc(c(-c5c(F)c(F)c(F)c(F)c5F)c5ccc([nH]5)c(-c5c(F)c(F)c(F)c(F)c5F)c5nc(c(-c6c(F)c(F)c(F)c(F)c6F)c6ccc3[nH]6)C=C5)C=C4)cc2)c1
REMARK SMILES IDX 21 1 22 2 20 3 16 4 17 5 92 6 18 7 19 8 15 9 1 10 2 11 3 13
REMARK SMILES IDX 4 14 5 15 6 16 7 17 8 18 13 19 9 20 12 21 14 22 10 23 11 24
REMARK SMILES IDX 23 25 24 26 25 27 26 28 27 29 28 30 29 31 30 32 91 33 31 34
REMARK SMILES IDX 90 35 32 36 33 37 34 38 84 39 35 40 89 41 83 42 85 43 36 44
REMARK SMILES IDX 88 45 82 46 81 47 37 49 69 50 49 51 68 52 50 53 53 54 67 55
REMARK SMILES IDX 86 56 51 57 52 58 66 60 87 61 54 62 38 63 39 64 47 65 40 66
REMARK SMILES IDX 41 67 45 68 48 69 42 70 43 71 46 72 44 73 70 74 71 75 79 76
REMARK SMILES IDX 72 77 73 78 77 79 80 80 74 81 75 82 78 83 76 84 55 85 56 86
REMARK SMILES IDX 64 87 57 88 58 89 62 90 65 91 59 92 60 93 63 94 61 95
REMARK H PARENT 15 12 85 48 53 59
REMARK Flexibility Score: inf
ROOT
ATOM      1  C   UNL A   1      31.637  28.343  23.620  1.00  0.00     0.338 C 
ATOM      2  O   UNL A   1      30.956  28.246  22.621  1.00  0.00    -0.246 OA
ENDROOT
BRANCH   1   3
ATOM      3  C   UNL A   1      32.299  27.196  24.290  1.00  0.00     0.062 A 
ATOM      4  C   UNL A   1      32.338  24.863  24.832  1.00  0.00     0.042 A 
ATOM      5  C   UNL A   1      33.410  25.054  25.705  1.00  0.00     0.026 A 
ATOM      6  C   UNL A   1      31.731  25.937  24.192  1.00  0.00     0.041 A 
ATOM      7  C   UNL A   1      34.018  26.302  25.757  1.00  0.00     0.003 A 
ATOM      8  C   UNL A   1      33.501  27.351  24.993  1.00  0.00     0.016 A 
BRANCH   4   9
ATOM      9  N   UNL A   1      31.961  23.554  24.521  1.00  0.00    -0.326 N 
ATOM     10  O   UNL A   1      33.572  23.241  22.896  1.00  0.00    -0.275 OA
ATOM     11  C   UNL A   1      32.640  22.811  23.578  1.00  0.00     0.224 C 
ATOM     12  H   UNL A   1      31.191  23.152  24.987  1.00  0.00     0.169 HD
BRANCH  11  13
ATOM     13  C   UNL A   1      32.165  21.391  23.368  1.00  0.00     0.104 C 
BRANCH  13  14
ATOM     14  C   UNL A   1      32.906  20.249  24.058  1.00  0.00     0.051 C 
BRANCH  14  15
ATOM     15  C   UNL A   1      33.992  20.541  25.106  1.00  0.00     0.230 C 
BRANCH  15  16
ATOM     16  O   UNL A   1      35.331  20.328  24.646  1.00  0.00    -0.492 OA
BRANCH  16  17
ATOM     17  C   UNL A   1      36.263  21.223  25.098  1.00  0.00     0.137 A 
ATOM     18  C   UNL A   1      35.758  22.471  25.471  1.00  0.00     0.049 A 
ATOM     19  C   UNL A   1      37.623  20.949  25.290  1.00  0.00     0.084 A 
ATOM     20  C   UNL A   1      36.614  23.488  25.888  1.00  0.00     0.024 A 
ATOM     21  C   UNL A   1      38.479  21.956  25.752  1.00  0.00     0.045 A 
ATOM     22  Cl  UNL A   1      38.293  19.386  25.003  1.00  0.00    -0.080 Cl
ATOM     23  C   UNL A   1      37.973  23.227  26.021  1.00  0.00     0.042 A 
ATOM     24  Cl  UNL A   1      39.026  24.481  26.545  1.00  0.00    -0.084 Cl
ENDBRANCH  16  17
ENDBRANCH  15  16
ENDBRANCH  14  15
ENDBRANCH  13  14
ENDBRANCH  11  13
ENDBRANCH   4   9
ENDBRANCH   1   3
BRANCH   1  25
ATOM     25  O   UNL A   1      32.041  29.486  24.235  1.00  0.00    -0.458 OA
BRANCH  25  26
ATOM     26  C   UNL A   1      31.145  30.073  25.197  1.00  0.00     0.275 C 
BRANCH  26  27
ATOM     27  C   UNL A   1      31.741  30.010  26.604  1.00  0.00     0.275 C 
BRANCH  27  28
ATOM     28  O   UNL A   1      33.165  30.227  26.552  1.00  0.00    -0.458 OA
BRANCH  28  29
ATOM     29  C   UNL A   1      33.605  31.339  27.183  1.00  0.00     0.338 C 
ATOM     30  O   UNL A   1      32.996  32.373  27.398  1.00  0.00    -0.246 OA
BRANCH  29  31
ATOM     31  C   UNL A   1      34.943  31.091  27.734  1.00  0.00     0.060 A 
ATOM     32  C   UNL A   1      35.218  29.801  28.160  1.00  0.00     0.016 A 
ATOM     33  C   UNL A   1      35.849  32.110  27.995  1.00  0.00     0.016 A 
ATOM     34  C   UNL A   1      36.319  29.524  28.954  1.00  0.00     0.010 A 
ATOM     35  C   UNL A   1      37.037  31.807  28.680  1.00  0.00     0.010 A 
ATOM     36  C   UNL A   1      37.270  30.515  29.197  1.00  0.00    -0.014 A 
BRANCH  36  37
ATOM     37  C   UNL A   1      38.484  30.193  30.000  1.00  0.00     0.031 A 
ATOM     38  C   UNL A   1      39.547  29.291  29.434  1.00  0.00     0.074 A 
ATOM     39  C   UNL A   1      38.650  30.724  31.230  1.00  0.00     0.049 A 
ATOM     40  N   UNL A   1      40.568  28.732  30.034  1.00  0.00    -0.248 NA
ATOM     41  C   UNL A   1      39.442  28.965  28.003  1.00  0.00     0.031 C 
ATOM     42  C   UNL A   1      37.739  31.671  31.879  1.00  0.00     0.029 A 
ATOM     43  N   UNL A   1      39.646  30.545  32.160  1.00  0.00    -0.354 N 
ATOM     44  C   UNL A   1      41.187  27.943  29.073  1.00  0.00     0.074 A 
ATOM     45  C   UNL A   1      40.426  28.090  27.851  1.00  0.00     0.031 C 
ATOM     46  C   UNL A   1      38.230  32.010  33.079  1.00  0.00     0.029 A 
ATOM     47  C   UNL A   1      39.427  31.221  33.337  1.00  0.00     0.049 A 
ATOM     48  H   UNL A   1      40.441  29.985  31.999  1.00  0.00     0.167 HD
ATOM     49  C   UNL A   1      42.289  27.164  29.206  1.00  0.00     0.037 A 
ATOM     50  C   UNL A   1      40.072  31.167  34.517  1.00  0.00     0.037 A 
ATOM     51  C   UNL A   1      43.063  27.062  30.416  1.00  0.00     0.049 A 
ATOM     52  C   UNL A   1      41.245  30.239  34.659  1.00  0.00     0.074 A 
ATOM     53  C   UNL A   1      44.205  26.313  30.649  1.00  0.00     0.029 A 
ATOM     54  N   UNL A   1      42.778  27.732  31.598  1.00  0.00    -0.354 N 
ATOM     55  N   UNL A   1      41.798  29.460  33.763  1.00  0.00    -0.248 NA
ATOM     56  C   UNL A   1      41.873  30.169  35.985  1.00  0.00     0.031 C 
ATOM     57  C   UNL A   1      44.575  26.483  31.987  1.00  0.00     0.029 A 
ATOM     58  C   UNL A   1      43.705  27.391  32.571  1.00  0.00     0.049 A 
ATOM     59  H   UNL A   1      42.028  28.356  31.726  1.00  0.00     0.167 HD
ATOM     60  C   UNL A   1      42.851  28.825  34.405  1.00  0.00     0.074 A 
ATOM     61  C   UNL A   1      42.872  29.328  35.764  1.00  0.00     0.031 C 
ATOM     62  C   UNL A   1      43.719  27.906  33.917  1.00  0.00     0.037 A 
BRANCH  49  63
ATOM     63  C   UNL A   1      42.699  26.324  28.029  1.00  0.00     0.064 A 
ATOM     64  C   UNL A   1      42.229  25.016  27.841  1.00  0.00     0.173 A 
ATOM     65  C   UNL A   1      43.553  26.857  27.050  1.00  0.00     0.173 A 
ATOM     66  F   UNL A   1      41.420  24.452  28.751  1.00  0.00    -0.203 F 
ATOM     67  C   UNL A   1      42.618  24.265  26.734  1.00  0.00     0.198 A 
ATOM     68  C   UNL A   1      43.913  26.117  25.926  1.00  0.00     0.198 A 
ATOM     69  F   UNL A   1      44.030  28.105  27.175  1.00  0.00    -0.203 F 
ATOM     70  F   UNL A   1      42.196  23.000  26.601  1.00  0.00    -0.200 F 
ATOM     71  C   UNL A   1      43.453  24.819  25.773  1.00  0.00     0.200 A 
ATOM     72  F   UNL A   1      44.706  26.661  24.993  1.00  0.00    -0.200 F 
ATOM     73  F   UNL A   1      43.818  24.099  24.703  1.00  0.00    -0.200 F 
ENDBRANCH  49  63
BRANCH  50  74
ATOM     74  C   UNL A   1      39.581  31.965  35.673  1.00  0.00     0.064 A 
ATOM     75  C   UNL A   1      38.614  31.453  36.549  1.00  0.00     0.173 A 
ATOM     76  C   UNL A   1      40.057  33.263  35.920  1.00  0.00     0.173 A 
ATOM     77  F   UNL A   1      38.106  30.229  36.343  1.00  0.00    -0.203 F 
ATOM     78  C   UNL A   1      38.130  32.213  37.613  1.00  0.00     0.198 A 
ATOM     79  C   UNL A   1      39.601  34.007  37.006  1.00  0.00     0.198 A 
ATOM     80  F   UNL A   1      40.981  33.805  35.113  1.00  0.00    -0.203 F 
ATOM     81  F   UNL A   1      37.164  31.719  38.400  1.00  0.00    -0.200 F 
ATOM     82  C   UNL A   1      38.630  33.485  37.845  1.00  0.00     0.200 A 
ATOM     83  F   UNL A   1      40.102  35.228  37.236  1.00  0.00    -0.200 F 
ATOM     84  F   UNL A   1      38.167  34.212  38.871  1.00  0.00    -0.200 F 
ENDBRANCH  50  74
BRANCH  62  85
ATOM     85  C   UNL A   1      44.795  27.419  34.845  1.00  0.00     0.064 A 
ATOM     86  C   UNL A   1      44.626  26.275  35.638  1.00  0.00     0.173 A 
ATOM     87  C   UNL A   1      46.022  28.096  34.920  1.00  0.00     0.173 A 
ATOM     88  F   UNL A   1      43.465  25.603  35.616  1.00  0.00    -0.203 F 
ATOM     89  C   UNL A   1      45.635  25.844  36.495  1.00  0.00     0.198 A 
ATOM     90  C   UNL A   1      47.042  27.641  35.751  1.00  0.00     0.198 A 
ATOM     91  F   UNL A   1      46.237  29.193  34.179  1.00  0.00    -0.203 F 
ATOM     92  F   UNL A   1      45.430  24.782  37.286  1.00  0.00    -0.200 F 
ATOM     93  C   UNL A   1      46.844  26.521  36.545  1.00  0.00     0.200 A 
ATOM     94  F   UNL A   1      48.215  28.288  35.785  1.00  0.00    -0.200 F 
ATOM     95  F   UNL A   1      47.816  26.101  37.365  1.00  0.00    -0.200 F 
ENDBRANCH  62  85
ENDBRANCH  36  37
ENDBRANCH  29  31
ENDBRANCH  28  29
ENDBRANCH  27  28
ENDBRANCH  26  27
ENDBRANCH  25  26
ENDBRANCH   1  25
TORSDOF 17
ENDMDL
MODEL 3
REMARK VINA RESULT:     -11.3      5.402      7.700
REMARK SMILES O=C(CCCOc1ccc(Cl)cc1Cl)Nc1cccc(C(=O)OCCOC(=O)c2ccc(-c3c4nc(c(-c5c(F)c(F)c(F)c(F)c5F)c5ccc([nH]5)c(-c5c(F)c(F)c(F)c(F)c5F)c5nc(c(-c6c(F)c(F)c(F)c(F)c6F)c6ccc3[nH]6)C=C5)C=C4)cc2)c1
REMARK SMILES IDX 21 1 22 2 20 3 16 4 17 5 92 6 18 7 19 8 15 9 1 10 2 11 3 13
REMARK SMILES IDX 4 14 5 15 6 16 7 17 8 18 13 19 9 20 12 21 14 22 10 23 11 24
REMARK SMILES IDX 23 25 24 26 25 27 26 28 27 29 28 30 29 31 30 32 91 33 31 34
REMARK SMILES IDX 90 35 32 36 33 37 34 38 84 39 35 40 89 41 83 42 85 43 36 44
REMARK SMILES IDX 88 45 82 46 81 47 37 49 69 50 49 51 68 52 50 53 53 54 67 55
REMARK SMILES IDX 86 56 51 57 52 58 66 60 87 61 54 62 38 63 39 64 47 65 40 66
REMARK SMILES IDX 41 67 45 68 48 69 42 70 43 71 46 72 44 73 70 74 71 75 79 76
REMARK SMILES IDX 72 77 73 78 77 79 80 80 74 81 75 82 78 83 76 84 55 85 56 86
REMARK SMILES IDX 64 87 57 88 58 89 62 90 65 91 59 92 60 93 63 94 61 95
REMARK H PARENT 15 12 85 48 53 59
REMARK Flexibility Score: inf
ROOT
ATOM      1  C   UNL A   1      41.620  21.416  26.863  1.00  0.00     0.338 C 
ATOM      2  O   UNL A   1      42.616  21.667  27.509  1.00  0.00    -0.246 OA
ENDROOT
BRANCH   1   3
ATOM      3  C   UNL A   1      40.392  22.248  26.871  1.00  0.00     0.062 A 
ATOM      4  C   UNL A   1      38.152  22.632  26.115  1.00  0.00     0.042 A 
ATOM      5  C   UNL A   1      38.138  23.896  26.708  1.00  0.00     0.026 A 
ATOM      6  C   UNL A   1      39.299  21.846  26.124  1.00  0.00     0.041 A 
ATOM      7  C   UNL A   1      39.208  24.272  27.508  1.00  0.00     0.003 A 
ATOM      8  C   UNL A   1      40.301  23.414  27.643  1.00  0.00     0.016 A 
BRANCH   4   9
ATOM      9  N   UNL A   1      36.952  22.121  25.613  1.00  0.00    -0.326 N 
ATOM     10  O   UNL A   1      36.990  23.349  23.658  1.00  0.00    -0.275 OA
ATOM     11  C   UNL A   1      36.464  22.501  24.381  1.00  0.00     0.224 C 
ATOM     12  H   UNL A   1      36.443  21.473  26.153  1.00  0.00     0.169 HD
BRANCH  11  13
ATOM     13  C   UNL A   1      35.181  21.840  23.929  1.00  0.00     0.104 C 
BRANCH  13  14
ATOM     14  C   UNL A   1      34.387  20.999  24.925  1.00  0.00     0.051 C 
BRANCH  14  15
ATOM     15  C   UNL A   1      32.989  20.472  24.563  1.00  0.00     0.230 C 
BRANCH  15  16
ATOM     16  O   UNL A   1      31.945  20.914  25.438  1.00  0.00    -0.492 OA
BRANCH  16  17
ATOM     17  C   UNL A   1      31.803  22.270  25.556  1.00  0.00     0.137 A 
ATOM     18  C   UNL A   1      31.115  22.889  24.509  1.00  0.00     0.049 A 
ATOM     19  C   UNL A   1      32.206  23.035  26.657  1.00  0.00     0.084 A 
ATOM     20  C   UNL A   1      30.961  24.273  24.481  1.00  0.00     0.024 A 
ATOM     21  C   UNL A   1      32.011  24.421  26.653  1.00  0.00     0.045 A 
ATOM     22  Cl  UNL A   1      32.918  22.322  28.057  1.00  0.00    -0.080 Cl
ATOM     23  C   UNL A   1      31.414  25.034  25.552  1.00  0.00     0.042 A 
ATOM     24  Cl  UNL A   1      31.213  26.742  25.520  1.00  0.00    -0.084 Cl
ENDBRANCH  16  17
ENDBRANCH  15  16
ENDBRANCH  14  15
ENDBRANCH  13  14
ENDBRANCH  11  13
ENDBRANCH   4   9
ENDBRANCH   1   3
BRANCH   1  25
ATOM     25  O   UNL A   1      41.469  20.441  25.926  1.00  0.00    -0.458 OA
BRANCH  25  26
ATOM     26  C   UNL A   1      41.708  19.083  26.340  1.00  0.00     0.275 C 
BRANCH  26  27
ATOM     27  C   UNL A   1      43.048  18.579  25.799  1.00  0.00     0.275 C 
BRANCH  27  28
ATOM     28  O   UNL A   1      43.382  19.265  24.577  1.00  0.00    -0.458 OA
BRANCH  28  29
ATOM     29  C   UNL A   1      44.702  19.457  24.362  1.00  0.00     0.338 C 
ATOM     30  O   UNL A   1      45.524  18.652  23.958  1.00  0.00    -0.246 OA
BRANCH  29  31
ATOM     31  C   UNL A   1      45.027  20.876  24.554  1.00  0.00     0.060 A 
ATOM     32  C   UNL A   1      45.660  21.221  25.737  1.00  0.00     0.016 A 
ATOM     33  C   UNL A   1      44.580  21.872  23.695  1.00  0.00     0.016 A 
ATOM     34  C   UNL A   1      45.745  22.541  26.150  1.00  0.00     0.010 A 
ATOM     35  C   UNL A   1      44.790  23.215  24.043  1.00  0.00     0.010 A 
ATOM     36  C   UNL A   1      45.346  23.567  25.292  1.00  0.00    -0.014 A 
BRANCH  36  37
ATOM     37  C   UNL A   1      45.499  24.987  25.717  1.00  0.00     0.031 A 
ATOM     38  C   UNL A   1      46.831  25.677  25.584  1.00  0.00     0.074 A 
ATOM     39  C   UNL A   1      44.443  25.673  26.203  1.00  0.00     0.049 A 
ATOM     40  N   UNL A   1      47.223  26.826  26.072  1.00  0.00    -0.248 NA
ATOM     41  C   UNL A   1      47.862  24.974  24.806  1.00  0.00     0.031 C 
ATOM     42  C   UNL A   1      43.076  25.158  26.323  1.00  0.00     0.029 A 
ATOM     43  N   UNL A   1      44.350  26.955  26.691  1.00  0.00    -0.354 N 
ATOM     44  C   UNL A   1      48.560  26.953  25.715  1.00  0.00     0.074 A 
ATOM     45  C   UNL A   1      48.913  25.763  24.972  1.00  0.00     0.031 C 
ATOM     46  C   UNL A   1      42.281  26.117  26.817  1.00  0.00     0.029 A 
ATOM     47  C   UNL A   1      43.097  27.274  27.158  1.00  0.00     0.049 A 
ATOM     48  H   UNL A   1      45.108  27.584  26.704  1.00  0.00     0.167 HD
ATOM     49  C   UNL A   1      49.410  27.973  25.988  1.00  0.00     0.037 A 
ATOM     50  C   UNL A   1      42.660  28.346  27.845  1.00  0.00     0.037 A 
ATOM     51  C   UNL A   1      49.033  29.173  26.690  1.00  0.00     0.049 A 
ATOM     52  C   UNL A   1      43.641  29.427  28.200  1.00  0.00     0.074 A 
ATOM     53  C   UNL A   1      49.815  30.271  27.004  1.00  0.00     0.029 A 
ATOM     54  N   UNL A   1      47.762  29.435  27.184  1.00  0.00    -0.354 N 
ATOM     55  N   UNL A   1      44.913  29.522  27.901  1.00  0.00    -0.248 NA
ATOM     56  C   UNL A   1      43.129  30.544  29.005  1.00  0.00     0.031 C 
ATOM     57  C   UNL A   1      49.035  31.170  27.739  1.00  0.00     0.029 A 
ATOM     58  C   UNL A   1      47.747  30.664  27.825  1.00  0.00     0.049 A 
ATOM     59  H   UNL A   1      46.986  28.836  27.093  1.00  0.00     0.167 HD
ATOM     60  C   UNL A   1      45.350  30.715  28.459  1.00  0.00     0.074 A 
ATOM     61  C   UNL A   1      44.198  31.321  29.097  1.00  0.00     0.031 C 
ATOM     62  C   UNL A   1      46.591  31.258  28.449  1.00  0.00     0.037 A 
BRANCH  49  63
ATOM     63  C   UNL A   1      50.846  27.819  25.571  1.00  0.00     0.064 A 
ATOM     64  C   UNL A   1      51.287  28.122  24.275  1.00  0.00     0.173 A 
ATOM     65  C   UNL A   1      51.806  27.395  26.504  1.00  0.00     0.173 A 
ATOM     66  F   UNL A   1      50.411  28.520  23.339  1.00  0.00    -0.203 F 
ATOM     67  C   UNL A   1      52.627  27.979  23.921  1.00  0.00     0.198 A 
ATOM     68  C   UNL A   1      53.150  27.287  26.158  1.00  0.00     0.198 A 
ATOM     69  F   UNL A   1      51.441  27.097  27.761  1.00  0.00    -0.203 F 
ATOM     70  F   UNL A   1      53.017  28.226  22.662  1.00  0.00    -0.200 F 
ATOM     71  C   UNL A   1      53.559  27.571  24.864  1.00  0.00     0.200 A 
ATOM     72  F   UNL A   1      54.050  26.907  27.076  1.00  0.00    -0.200 F 
ATOM     73  F   UNL A   1      54.849  27.445  24.526  1.00  0.00    -0.200 F 
ENDBRANCH  49  63
BRANCH  50  74
ATOM     74  C   UNL A   1      41.244  28.416  28.299  1.00  0.00     0.064 A 
ATOM     75  C   UNL A   1      40.246  28.955  27.476  1.00  0.00     0.173 A 
ATOM     76  C   UNL A   1      40.861  27.960  29.570  1.00  0.00     0.173 A 
ATOM     77  F   UNL A   1      40.563  29.430  26.262  1.00  0.00    -0.203 F 
ATOM     78  C   UNL A   1      38.926  29.050  27.913  1.00  0.00     0.198 A 
ATOM     79  C   UNL A   1      39.534  28.019  29.991  1.00  0.00     0.198 A 
ATOM     80  F   UNL A   1      41.775  27.437  30.401  1.00  0.00    -0.203 F 
ATOM     81  F   UNL A   1      38.003  29.621  27.126  1.00  0.00    -0.200 F 
ATOM     82  C   UNL A   1      38.570  28.575  29.165  1.00  0.00     0.200 A 
ATOM     83  F   UNL A   1      39.193  27.542  31.195  1.00  0.00    -0.200 F 
ATOM     84  F   UNL A   1      37.299  28.663  29.582  1.00  0.00    -0.200 F 
ENDBRANCH  50  74
BRANCH  62  85
ATOM     85  C   UNL A   1      46.758  32.597  29.108  1.00  0.00     0.064 A 
ATOM     86  C   UNL A   1      46.554  33.796  28.410  1.00  0.00     0.173 A 
ATOM     87  C   UNL A   1      47.103  32.678  30.466  1.00  0.00     0.173 A 
ATOM     88  F   UNL A   1      46.241  33.773  27.105  1.00  0.00    -0.203 F 
ATOM     89  C   UNL A   1      46.719  35.027  29.039  1.00  0.00     0.198 A 
ATOM     90  C   UNL A   1      47.232  33.909  31.101  1.00  0.00     0.198 A 
ATOM     91  F   UNL A   1      47.305  31.561  31.181  1.00  0.00    -0.203 F 
ATOM     92  F   UNL A   1      46.577  36.159  28.337  1.00  0.00    -0.200 F 
ATOM     93  C   UNL A   1      47.049  35.083  30.385  1.00  0.00     0.200 A 
ATOM     94  F   UNL A   1      47.534  33.961  32.405  1.00  0.00    -0.200 F 
ATOM     95  F   UNL A   1      47.201  36.268  30.990  1.00  0.00    -0.200 F 
ENDBRANCH  62  85
ENDBRANCH  36  37
ENDBRANCH  29  31
ENDBRANCH  28  29
ENDBRANCH  27  28
ENDBRANCH  26  27
ENDBRANCH  25  26
ENDBRANCH   1  25
TORSDOF 17
ENDMDL
