MODEL 1
REMARK VINA RESULT:     -12.4      0.000      0.000
REMARK SMILES CC1(C)[C@H](C(=O)Nc2ccc(C(F)(F)F)nc2)[C@@H]1C(=O)OCCOC(=O)c1ccc(-c2c3nc(c(-c4c(F)c(F)c(F)c(F)c4F)c4ccc([nH]4)c(-c4c(F)c(F)c(F)c(F)c4F)c4nc(c(-c5c(F)c(F)c(F)c(F)c5F)c5ccc2[nH]5)C=C4)C=C3)cc1
REMARK SMILES IDX 22 1 21 2 19 3 20 4 18 5 1 6 2 7 3 8 4 9 5 10 6 11 7 12 8 14
REMARK SMILES IDX 9 15 17 16 10 17 16 18 11 19 12 20 13 21 14 22 15 23 23 24
REMARK SMILES IDX 24 25 25 26 26 27 27 28 28 29 89 30 29 31 88 32 30 33 31 34
REMARK SMILES IDX 32 35 82 36 33 37 87 38 81 39 83 40 34 41 86 42 80 43 79 44
REMARK SMILES IDX 35 46 67 47 47 48 66 49 48 50 51 51 65 52 84 53 49 54 50 55
REMARK SMILES IDX 64 57 85 58 52 59 36 60 37 61 45 62 38 63 39 64 43 65 46 66
REMARK SMILES IDX 40 67 41 68 44 69 42 70 68 71 69 72 77 73 70 74 71 75 75 76
REMARK SMILES IDX 78 77 72 78 73 79 76 80 74 81 53 82 54 83 62 84 55 85 56 86
REMARK SMILES IDX 60 87 63 88 57 89 58 90 61 91 59 92
REMARK H PARENT 7 13 83 45 51 56
REMARK Flexibility Score: inf
ROOT
ATOM      1  C   UNL A   1      32.103  29.706  25.263  1.00  0.00     0.274 C 
ENDROOT
BRANCH   1   2
ATOM      2  O   UNL A   1      30.942  29.215  24.561  1.00  0.00    -0.462 OA
BRANCH   2   3
ATOM      3  C   UNL A   1      30.730  27.874  24.614  1.00  0.00     0.310 C 
ATOM      4  O   UNL A   1      29.886  27.259  23.964  1.00  0.00    -0.252 OA
BRANCH   3   5
ATOM      5  C   UNL A   1      31.767  27.194  25.414  1.00  0.00     0.118 C 
ATOM      6  C   UNL A   1      34.208  26.277  25.415  1.00  0.00     0.013 C 
ATOM      7  C   UNL A   1      32.792  26.182  24.874  1.00  0.00    -0.009 C 
ATOM      8  C   UNL A   1      32.804  25.735  23.438  1.00  0.00     0.013 C 
ATOM      9  C   UNL A   1      31.715  25.768  25.878  1.00  0.00     0.100 C 
BRANCH   9  10
ATOM     10  C   UNL A   1      30.600  24.772  25.763  1.00  0.00     0.228 C 
ATOM     11  O   UNL A   1      29.591  24.990  26.431  1.00  0.00    -0.274 OA
ATOM     12  N   UNL A   1      30.516  23.893  24.710  1.00  0.00    -0.324 N 
ATOM     13  H   UNL A   1      29.803  24.067  24.054  1.00  0.00     0.169 HD
BRANCH  12  14
ATOM     14  C   UNL A   1      31.326  22.778  24.463  1.00  0.00     0.059 A 
ATOM     15  C   UNL A   1      31.725  22.417  23.189  1.00  0.00     0.030 A 
ATOM     16  C   UNL A   1      31.712  21.954  25.509  1.00  0.00     0.137 A 
ATOM     17  C   UNL A   1      32.226  21.137  22.966  1.00  0.00     0.035 A 
ATOM     18  N   UNL A   1      32.200  20.703  25.332  1.00  0.00    -0.250 NA
ATOM     19  C   UNL A   1      32.349  20.264  24.046  1.00  0.00     0.144 A 
BRANCH  19  20
ATOM     20  C   UNL A   1      32.564  18.780  23.775  1.00  0.00     0.433 C 
ATOM     21  F   UNL A   1      31.975  17.976  24.704  1.00  0.00    -0.165 F 
ATOM     22  F   UNL A   1      32.083  18.374  22.564  1.00  0.00    -0.165 F 
ATOM     23  F   UNL A   1      33.886  18.423  23.772  1.00  0.00    -0.165 F 
ENDBRANCH  19  20
ENDBRANCH  12  14
ENDBRANCH   9  10
ENDBRANCH   3   5
ENDBRANCH   2   3
ENDBRANCH   1   2
BRANCH   1  24
ATOM     24  C   UNL A   1      31.789  30.913  26.152  1.00  0.00     0.275 C 
BRANCH  24  25
ATOM     25  O   UNL A   1      32.585  30.912  27.351  1.00  0.00    -0.458 OA
BRANCH  25  26
ATOM     26  C   UNL A   1      33.393  31.988  27.496  1.00  0.00     0.338 C 
ATOM     27  O   UNL A   1      33.073  33.163  27.414  1.00  0.00    -0.246 OA
BRANCH  26  28
ATOM     28  C   UNL A   1      34.730  31.565  27.949  1.00  0.00     0.060 A 
ATOM     29  C   UNL A   1      34.905  30.211  28.253  1.00  0.00     0.016 A 
ATOM     30  C   UNL A   1      35.770  32.474  28.144  1.00  0.00     0.016 A 
ATOM     31  C   UNL A   1      36.106  29.759  28.782  1.00  0.00     0.010 A 
ATOM     32  C   UNL A   1      36.978  32.022  28.684  1.00  0.00     0.010 A 
ATOM     33  C   UNL A   1      37.140  30.668  29.030  1.00  0.00    -0.014 A 
BRANCH  33  34
ATOM     34  C   UNL A   1      38.340  30.199  29.758  1.00  0.00     0.031 A 
ATOM     35  C   UNL A   1      38.566  30.658  31.169  1.00  0.00     0.074 A 
ATOM     36  C   UNL A   1      39.176  29.316  29.183  1.00  0.00     0.049 A 
ATOM     37  N   UNL A   1      39.547  30.375  31.988  1.00  0.00    -0.248 NA
ATOM     38  C   UNL A   1      37.550  31.558  31.736  1.00  0.00     0.031 C 
ATOM     39  C   UNL A   1      39.022  28.765  27.838  1.00  0.00     0.029 A 
ATOM     40  N   UNL A   1      40.318  28.728  29.662  1.00  0.00    -0.354 N 
ATOM     41  C   UNL A   1      39.272  31.069  33.159  1.00  0.00     0.074 A 
ATOM     42  C   UNL A   1      38.050  31.809  32.937  1.00  0.00     0.031 C 
ATOM     43  C   UNL A   1      40.035  27.916  27.598  1.00  0.00     0.029 A 
ATOM     44  C   UNL A   1      40.926  27.896  28.757  1.00  0.00     0.049 A 
ATOM     45  H   UNL A   1      40.669  28.887  30.568  1.00  0.00     0.167 HD
ATOM     46  C   UNL A   1      39.976  31.077  34.317  1.00  0.00     0.037 A 
ATOM     47  C   UNL A   1      42.083  27.213  28.848  1.00  0.00     0.037 A 
ATOM     48  C   UNL A   1      41.190  30.331  34.527  1.00  0.00     0.049 A 
ATOM     49  C   UNL A   1      42.882  27.295  30.123  1.00  0.00     0.074 A 
ATOM     50  C   UNL A   1      41.975  30.264  35.664  1.00  0.00     0.029 A 
ATOM     51  N   UNL A   1      41.799  29.528  33.574  1.00  0.00    -0.354 N 
ATOM     52  N   UNL A   1      42.611  27.941  31.231  1.00  0.00    -0.248 NA
ATOM     53  C   UNL A   1      44.144  26.545  30.159  1.00  0.00     0.031 C 
ATOM     54  C   UNL A   1      43.087  29.465  35.381  1.00  0.00     0.029 A 
ATOM     55  C   UNL A   1      42.962  28.980  34.089  1.00  0.00     0.049 A 
ATOM     56  H   UNL A   1      41.454  29.370  32.664  1.00  0.00     0.167 HD
ATOM     57  C   UNL A   1      43.649  27.652  32.106  1.00  0.00     0.074 A 
ATOM     58  C   UNL A   1      44.547  26.759  31.404  1.00  0.00     0.031 C 
ATOM     59  C   UNL A   1      43.839  28.084  33.378  1.00  0.00     0.037 A 
BRANCH  46  60
ATOM     60  C   UNL A   1      39.468  31.945  35.431  1.00  0.00     0.064 A 
ATOM     61  C   UNL A   1      38.588  31.458  36.410  1.00  0.00     0.173 A 
ATOM     62  C   UNL A   1      39.893  33.278  35.538  1.00  0.00     0.173 A 
ATOM     63  F   UNL A   1      38.139  30.194  36.346  1.00  0.00    -0.203 F 
ATOM     64  C   UNL A   1      38.131  32.280  37.437  1.00  0.00     0.198 A 
ATOM     65  C   UNL A   1      39.458  34.088  36.585  1.00  0.00     0.198 A 
ATOM     66  F   UNL A   1      40.736  33.794  34.632  1.00  0.00    -0.203 F 
ATOM     67  F   UNL A   1      37.251  31.807  38.331  1.00  0.00    -0.200 F 
ATOM     68  C   UNL A   1      38.573  33.591  37.528  1.00  0.00     0.200 A 
ATOM     69  F   UNL A   1      39.897  35.351  36.678  1.00  0.00    -0.200 F 
ATOM     70  F   UNL A   1      38.138  34.379  38.521  1.00  0.00    -0.200 F 
ENDBRANCH  46  60
BRANCH  47  71
ATOM     71  C   UNL A   1      42.562  26.405  27.696  1.00  0.00     0.064 A 
ATOM     72  C   UNL A   1      42.096  25.100  27.482  1.00  0.00     0.173 A 
ATOM     73  C   UNL A   1      43.506  26.916  26.793  1.00  0.00     0.173 A 
ATOM     74  F   UNL A   1      41.210  24.558  28.330  1.00  0.00    -0.203 F 
ATOM     75  C   UNL A   1      42.572  24.331  26.423  1.00  0.00     0.198 A 
ATOM     76  C   UNL A   1      43.957  26.156  25.715  1.00  0.00     0.198 A 
ATOM     77  F   UNL A   1      43.985  28.158  26.951  1.00  0.00    -0.203 F 
ATOM     78  F   UNL A   1      42.148  23.069  26.271  1.00  0.00    -0.200 F 
ATOM     79  C   UNL A   1      43.497  24.861  25.536  1.00  0.00     0.200 A 
ATOM     80  F   UNL A   1      44.841  26.679  24.854  1.00  0.00    -0.200 F 
ATOM     81  F   UNL A   1      43.951  24.122  24.516  1.00  0.00    -0.200 F 
ENDBRANCH  47  71
BRANCH  59  82
ATOM     82  C   UNL A   1      45.042  27.557  34.110  1.00  0.00     0.064 A 
ATOM     83  C   UNL A   1      46.267  28.237  34.110  1.00  0.00     0.173 A 
ATOM     84  C   UNL A   1      44.952  26.368  34.850  1.00  0.00     0.173 A 
ATOM     85  F   UNL A   1      46.411  29.372  33.407  1.00  0.00    -0.203 F 
ATOM     86  C   UNL A   1      47.368  27.730  34.797  1.00  0.00     0.198 A 
ATOM     87  C   UNL A   1      46.043  25.881  35.564  1.00  0.00     0.198 A 
ATOM     88  F   UNL A   1      43.800  25.681  34.892  1.00  0.00    -0.203 F 
ATOM     89  F   UNL A   1      48.545  28.368  34.736  1.00  0.00    -0.200 F 
ATOM     90  C   UNL A   1      47.254  26.557  35.529  1.00  0.00     0.200 A 
ATOM     91  F   UNL A   1      45.925  24.757  36.284  1.00  0.00    -0.200 F 
ATOM     92  F   UNL A   1      48.311  26.074  36.193  1.00  0.00    -0.200 F 
ENDBRANCH  59  82
ENDBRANCH  33  34
ENDBRANCH  26  28
ENDBRANCH  25  26
ENDBRANCH  24  25
ENDBRANCH   1  24
TORSDOF 14
ENDMDL
MODEL 2
REMARK VINA RESULT:     -12.4      2.937      8.288
REMARK SMILES CC1(C)[C@H](C(=O)Nc2ccc(C(F)(F)F)nc2)[C@@H]1C(=O)OCCOC(=O)c1ccc(-c2c3nc(c(-c4c(F)c(F)c(F)c(F)c4F)c4ccc([nH]4)c(-c4c(F)c(F)c(F)c(F)c4F)c4nc(c(-c5c(F)c(F)c(F)c(F)c5F)c5ccc2[nH]5)C=C4)C=C3)cc1
REMARK SMILES IDX 22 1 21 2 19 3 20 4 18 5 1 6 2 7 3 8 4 9 5 10 6 11 7 12 8 14
REMARK SMILES IDX 9 15 17 16 10 17 16 18 11 19 12 20 13 21 14 22 15 23 23 24
REMARK SMILES IDX 24 25 25 26 26 27 27 28 28 29 89 30 29 31 88 32 30 33 31 34
REMARK SMILES IDX 32 35 82 36 33 37 87 38 81 39 83 40 34 41 86 42 80 43 79 44
REMARK SMILES IDX 35 46 67 47 47 48 66 49 48 50 51 51 65 52 84 53 49 54 50 55
REMARK SMILES IDX 64 57 85 58 52 59 36 60 37 61 45 62 38 63 39 64 43 65 46 66
REMARK SMILES IDX 40 67 41 68 44 69 42 70 68 71 69 72 77 73 70 74 71 75 75 76
REMARK SMILES IDX 78 77 72 78 73 79 76 80 74 81 53 82 54 83 62 84 55 85 56 86
REMARK SMILES IDX 60 87 63 88 57 89 58 90 61 91 59 92
REMARK H PARENT 7 13 83 45 51 56
REMARK Flexibility Score: inf
ROOT
ATOM      1  C   UNL A   1      32.908  28.528  25.486  1.00  0.00     0.274 C 
ENDROOT
BRANCH   1   2
ATOM      2  O   UNL A   1      31.661  27.804  25.436  1.00  0.00    -0.462 OA
BRANCH   2   3
ATOM      3  C   UNL A   1      31.364  27.043  26.521  1.00  0.00     0.310 C 
ATOM      4  O   UNL A   1      31.404  27.421  27.690  1.00  0.00    -0.252 OA
BRANCH   3   5
ATOM      5  C   UNL A   1      30.794  25.740  26.127  1.00  0.00     0.118 C 
ATOM      6  C   UNL A   1      30.921  23.159  26.470  1.00  0.00     0.013 C 
ATOM      7  C   UNL A   1      31.583  24.430  25.969  1.00  0.00    -0.009 C 
ATOM      8  C   UNL A   1      33.074  24.359  26.158  1.00  0.00     0.013 C 
ATOM      9  C   UNL A   1      30.916  25.108  24.771  1.00  0.00     0.100 C 
BRANCH   9  10
ATOM     10  C   UNL A   1      31.503  25.670  23.511  1.00  0.00     0.228 C 
ATOM     11  O   UNL A   1      32.585  25.209  23.151  1.00  0.00    -0.274 OA
ATOM     12  N   UNL A   1      30.741  26.355  22.595  1.00  0.00    -0.324 N 
ATOM     13  H   UNL A   1      30.556  25.889  21.748  1.00  0.00     0.169 HD
BRANCH  12  14
ATOM     14  C   UNL A   1      30.198  27.639  22.728  1.00  0.00     0.059 A 
ATOM     15  C   UNL A   1      28.949  27.866  23.275  1.00  0.00     0.030 A 
ATOM     16  C   UNL A   1      30.894  28.740  22.251  1.00  0.00     0.137 A 
ATOM     17  C   UNL A   1      28.324  29.093  23.070  1.00  0.00     0.035 A 
ATOM     18  N   UNL A   1      30.321  29.948  22.036  1.00  0.00    -0.250 NA
ATOM     19  C   UNL A   1      28.997  30.079  22.350  1.00  0.00     0.144 A 
BRANCH  19  20
ATOM     20  C   UNL A   1      28.213  31.278  21.830  1.00  0.00     0.433 C 
ATOM     21  F   UNL A   1      27.662  31.066  20.601  1.00  0.00    -0.165 F 
ATOM     22  F   UNL A   1      27.184  31.649  22.647  1.00  0.00    -0.165 F 
ATOM     23  F   UNL A   1      28.984  32.401  21.692  1.00  0.00    -0.165 F 
ENDBRANCH  19  20
ENDBRANCH  12  14
ENDBRANCH   9  10
ENDBRANCH   3   5
ENDBRANCH   2   3
ENDBRANCH   1   2
BRANCH   1  24
ATOM     24  C   UNL A   1      32.707  30.043  25.590  1.00  0.00     0.275 C 
BRANCH  24  25
ATOM     25  O   UNL A   1      32.577  30.469  26.959  1.00  0.00    -0.458 OA
BRANCH  25  26
ATOM     26  C   UNL A   1      33.285  31.578  27.277  1.00  0.00     0.338 C 
ATOM     27  O   UNL A   1      32.894  32.732  27.247  1.00  0.00    -0.246 OA
BRANCH  26  28
ATOM     28  C   UNL A   1      34.591  31.202  27.848  1.00  0.00     0.060 A 
ATOM     29  C   UNL A   1      34.733  29.891  28.314  1.00  0.00     0.016 A 
ATOM     30  C   UNL A   1      35.629  32.122  27.997  1.00  0.00     0.016 A 
ATOM     31  C   UNL A   1      35.899  29.496  28.956  1.00  0.00     0.010 A 
ATOM     32  C   UNL A   1      36.801  31.727  28.651  1.00  0.00     0.010 A 
ATOM     33  C   UNL A   1      36.928  30.421  29.156  1.00  0.00    -0.014 A 
BRANCH  33  34
ATOM     34  C   UNL A   1      38.081  30.032  29.998  1.00  0.00     0.031 A 
ATOM     35  C   UNL A   1      39.122  29.109  29.435  1.00  0.00     0.074 A 
ATOM     36  C   UNL A   1      38.226  30.558  31.228  1.00  0.00     0.049 A 
ATOM     37  N   UNL A   1      40.208  28.640  29.995  1.00  0.00    -0.248 NA
ATOM     38  C   UNL A   1      38.915  28.655  28.052  1.00  0.00     0.031 C 
ATOM     39  C   UNL A   1      37.302  31.503  31.853  1.00  0.00     0.029 A 
ATOM     40  N   UNL A   1      39.208  30.372  32.167  1.00  0.00    -0.354 N 
ATOM     41  C   UNL A   1      40.804  27.827  29.040  1.00  0.00     0.074 A 
ATOM     42  C   UNL A   1      39.948  27.844  27.874  1.00  0.00     0.031 C 
ATOM     43  C   UNL A   1      37.762  31.816  33.075  1.00  0.00     0.029 A 
ATOM     44  C   UNL A   1      38.988  31.063  33.331  1.00  0.00     0.049 A 
ATOM     45  H   UNL A   1      39.994  29.798  32.020  1.00  0.00     0.167 HD
ATOM     46  C   UNL A   1      41.967  27.138  29.129  1.00  0.00     0.037 A 
ATOM     47  C   UNL A   1      39.689  31.068  34.481  1.00  0.00     0.037 A 
ATOM     48  C   UNL A   1      42.813  27.133  30.294  1.00  0.00     0.049 A 
ATOM     49  C   UNL A   1      40.943  30.238  34.577  1.00  0.00     0.074 A 
ATOM     50  C   UNL A   1      44.016  26.476  30.485  1.00  0.00     0.029 A 
ATOM     51  N   UNL A   1      42.541  27.815  31.472  1.00  0.00    -0.354 N 
ATOM     52  N   UNL A   1      41.509  29.483  33.667  1.00  0.00    -0.248 NA
ATOM     53  C   UNL A   1      41.657  30.268  35.860  1.00  0.00     0.031 C 
ATOM     54  C   UNL A   1      44.442  26.714  31.795  1.00  0.00     0.029 A 
ATOM     55  C   UNL A   1      43.540  27.574  32.400  1.00  0.00     0.049 A 
ATOM     56  H   UNL A   1      41.753  28.386  31.624  1.00  0.00     0.167 HD
ATOM     57  C   UNL A   1      42.660  28.974  34.253  1.00  0.00     0.074 A 
ATOM     58  C   UNL A   1      42.718  29.519  35.594  1.00  0.00     0.031 C 
ATOM     59  C   UNL A   1      43.587  28.134  33.728  1.00  0.00     0.037 A 
BRANCH  46  60
ATOM     60  C   UNL A   1      42.373  26.306  27.948  1.00  0.00     0.064 A 
ATOM     61  C   UNL A   1      41.859  25.018  27.735  1.00  0.00     0.173 A 
ATOM     62  C   UNL A   1      43.269  26.818  26.997  1.00  0.00     0.173 A 
ATOM     63  F   UNL A   1      41.010  24.474  28.621  1.00  0.00    -0.203 F 
ATOM     64  C   UNL A   1      42.247  24.264  26.630  1.00  0.00     0.198 A 
ATOM     65  C   UNL A   1      43.631  26.074  25.877  1.00  0.00     0.198 A 
ATOM     66  F   UNL A   1      43.788  28.046  27.149  1.00  0.00    -0.203 F 
ATOM     67  F   UNL A   1      41.782  23.016  26.474  1.00  0.00    -0.200 F 
ATOM     68  C   UNL A   1      43.126  24.796  25.699  1.00  0.00     0.200 A 
ATOM     69  F   UNL A   1      44.470  26.595  24.971  1.00  0.00    -0.200 F 
ATOM     70  F   UNL A   1      43.493  24.072  24.632  1.00  0.00    -0.200 F 
ENDBRANCH  46  60
BRANCH  47  71
ATOM     71  C   UNL A   1      39.217  31.876  35.636  1.00  0.00     0.064 A 
ATOM     72  C   UNL A   1      39.647  33.197  35.822  1.00  0.00     0.173 A 
ATOM     73  C   UNL A   1      38.335  31.338  36.586  1.00  0.00     0.173 A 
ATOM     74  F   UNL A   1      40.508  33.749  34.955  1.00  0.00    -0.203 F 
ATOM     75  C   UNL A   1      39.231  33.941  36.924  1.00  0.00     0.198 A 
ATOM     76  C   UNL A   1      37.895  32.094  37.670  1.00  0.00     0.198 A 
ATOM     77  F   UNL A   1      37.892  30.079  36.455  1.00  0.00    -0.203 F 
ATOM     78  F   UNL A   1      39.698  35.183  37.106  1.00  0.00    -0.200 F 
ATOM     79  C   UNL A   1      38.351  33.391  37.844  1.00  0.00     0.200 A 
ATOM     80  F   UNL A   1      37.033  31.563  38.548  1.00  0.00    -0.200 F 
ATOM     81  F   UNL A   1      37.948  34.109  38.902  1.00  0.00    -0.200 F 
ENDBRANCH  47  71
BRANCH  59  82
ATOM     82  C   UNL A   1      44.771  27.792  34.589  1.00  0.00     0.064 A 
ATOM     83  C   UNL A   1      45.929  28.581  34.606  1.00  0.00     0.173 A 
ATOM     84  C   UNL A   1      44.726  26.672  35.435  1.00  0.00     0.173 A 
ATOM     85  F   UNL A   1      46.027  29.654  33.807  1.00  0.00    -0.203 F 
ATOM     86  C   UNL A   1      47.013  28.244  35.413  1.00  0.00     0.198 A 
ATOM     87  C   UNL A   1      45.798  26.358  36.266  1.00  0.00     0.198 A 
ATOM     88  F   UNL A   1      43.638  25.887  35.464  1.00  0.00    -0.203 F 
ATOM     89  F   UNL A   1      48.131  28.980  35.371  1.00  0.00    -0.200 F 
ATOM     90  C   UNL A   1      46.944  27.138  36.248  1.00  0.00     0.200 A 
ATOM     91  F   UNL A   1      45.722  25.299  37.083  1.00  0.00    -0.200 F 
ATOM     92  F   UNL A   1      47.985  26.819  37.028  1.00  0.00    -0.200 F 
ENDBRANCH  59  82
ENDBRANCH  33  34
ENDBRANCH  26  28
ENDBRANCH  25  26
ENDBRANCH  24  25
ENDBRANCH   1  24
TORSDOF 14
ENDMDL
MODEL 3
REMARK VINA RESULT:     -12.3      4.977      9.858
REMARK SMILES CC1(C)[C@H](C(=O)Nc2ccc(C(F)(F)F)nc2)[C@@H]1C(=O)OCCOC(=O)c1ccc(-c2c3nc(c(-c4c(F)c(F)c(F)c(F)c4F)c4ccc([nH]4)c(-c4c(F)c(F)c(F)c(F)c4F)c4nc(c(-c5c(F)c(F)c(F)c(F)c5F)c5ccc2[nH]5)C=C4)C=C3)cc1
REMARK SMILES IDX 22 1 21 2 19 3 20 4 18 5 1 6 2 7 3 8 4 9 5 10 6 11 7 12 8 14
REMARK SMILES IDX 9 15 17 16 10 17 16 18 11 19 12 20 13 21 14 22 15 23 23 24
REMARK SMILES IDX 24 25 25 26 26 27 27 28 28 29 89 30 29 31 88 32 30 33 31 34
REMARK SMILES IDX 32 35 82 36 33 37 87 38 81 39 83 40 34 41 86 42 80 43 79 44
REMARK SMILES IDX 35 46 67 47 47 48 66 49 48 50 51 51 65 52 84 53 49 54 50 55
REMARK SMILES IDX 64 57 85 58 52 59 36 60 37 61 45 62 38 63 39 64 43 65 46 66
REMARK SMILES IDX 40 67 41 68 44 69 42 70 68 71 69 72 77 73 70 74 71 75 75 76
REMARK SMILES IDX 78 77 72 78 73 79 76 80 74 81 53 82 54 83 62 84 55 85 56 86
REMARK SMILES IDX 60 87 63 88 57 89 58 90 61 91 59 92
REMARK H PARENT 7 13 83 45 51 56
REMARK Flexibility Score: inf
ROOT
ATOM      1  C   UNL A   1      35.778  20.727  24.679  1.00  0.00     0.274 C 
ENDROOT
BRANCH   1   2
ATOM      2  O   UNL A   1      35.295  22.023  25.087  1.00  0.00    -0.462 OA
BRANCH   2   3
ATOM      3  C   UNL A   1      34.506  22.678  24.198  1.00  0.00     0.310 C 
ATOM      4  O   UNL A   1      33.637  22.160  23.498  1.00  0.00    -0.252 OA
BRANCH   3   5
ATOM      5  C   UNL A   1      34.677  24.140  24.297  1.00  0.00     0.118 C 
ATOM      6  C   UNL A   1      34.397  26.227  25.836  1.00  0.00     0.013 C 
ATOM      7  C   UNL A   1      33.743  25.100  25.054  1.00  0.00    -0.009 C 
ATOM      8  C   UNL A   1      32.494  24.631  25.748  1.00  0.00     0.013 C 
ATOM      9  C   UNL A   1      33.890  25.165  23.533  1.00  0.00     0.100 C 
BRANCH   9  10
ATOM     10  C   UNL A   1      32.880  24.967  22.443  1.00  0.00     0.228 C 
ATOM     11  O   UNL A   1      33.279  24.436  21.407  1.00  0.00    -0.274 OA
ATOM     12  N   UNL A   1      31.528  24.998  22.689  1.00  0.00    -0.324 N 
ATOM     13  H   UNL A   1      31.058  24.133  22.642  1.00  0.00     0.169 HD
BRANCH  12  14
ATOM     14  C   UNL A   1      30.742  26.114  22.998  1.00  0.00     0.059 A 
ATOM     15  C   UNL A   1      29.673  26.053  23.872  1.00  0.00     0.030 A 
ATOM     16  C   UNL A   1      30.988  27.329  22.376  1.00  0.00     0.137 A 
ATOM     17  C   UNL A   1      28.733  27.081  23.878  1.00  0.00     0.035 A 
ATOM     18  N   UNL A   1      30.098  28.351  22.358  1.00  0.00    -0.250 NA
ATOM     19  C   UNL A   1      28.919  28.168  23.026  1.00  0.00     0.144 A 
BRANCH  19  20
ATOM     20  C   UNL A   1      27.753  29.115  22.771  1.00  0.00     0.433 C 
ATOM     21  F   UNL A   1      27.659  29.511  21.471  1.00  0.00    -0.165 F 
ATOM     22  F   UNL A   1      26.539  28.579  23.092  1.00  0.00    -0.165 F 
ATOM     23  F   UNL A   1      27.836  30.273  23.498  1.00  0.00    -0.165 F 
ENDBRANCH  19  20
ENDBRANCH  12  14
ENDBRANCH   9  10
ENDBRANCH   3   5
ENDBRANCH   2   3
ENDBRANCH   1   2
BRANCH   1  24
ATOM     24  C   UNL A   1      37.279  20.549  24.930  1.00  0.00     0.275 C 
BRANCH  24  25
ATOM     25  O   UNL A   1      37.801  21.582  25.785  1.00  0.00    -0.458 OA
BRANCH  25  26
ATOM     26  C   UNL A   1      39.101  21.432  26.127  1.00  0.00     0.338 C 
ATOM     27  O   UNL A   1      39.820  20.478  25.879  1.00  0.00    -0.246 OA
BRANCH  26  28
ATOM     28  C   UNL A   1      39.621  22.680  26.714  1.00  0.00     0.060 A 
ATOM     29  C   UNL A   1      39.046  23.880  26.282  1.00  0.00     0.016 A 
ATOM     30  C   UNL A   1      40.693  22.691  27.607  1.00  0.00     0.016 A 
ATOM     31  C   UNL A   1      39.552  25.098  26.715  1.00  0.00     0.010 A 
ATOM     32  C   UNL A   1      41.210  23.918  28.037  1.00  0.00     0.010 A 
ATOM     33  C   UNL A   1      40.658  25.125  27.571  1.00  0.00    -0.014 A 
BRANCH  33  34
ATOM     34  C   UNL A   1      41.292  26.427  27.873  1.00  0.00     0.031 A 
ATOM     35  C   UNL A   1      42.694  26.685  27.405  1.00  0.00     0.074 A 
ATOM     36  C   UNL A   1      40.591  27.389  28.498  1.00  0.00     0.049 A 
ATOM     37  N   UNL A   1      43.440  27.749  27.561  1.00  0.00    -0.248 NA
ATOM     38  C   UNL A   1      43.346  25.599  26.657  1.00  0.00     0.031 C 
ATOM     39  C   UNL A   1      39.207  27.263  28.950  1.00  0.00     0.029 A 
ATOM     40  N   UNL A   1      40.950  28.664  28.857  1.00  0.00    -0.354 N 
ATOM     41  C   UNL A   1      44.649  27.456  26.944  1.00  0.00     0.074 A 
ATOM     42  C   UNL A   1      44.550  26.106  26.435  1.00  0.00     0.031 C 
ATOM     43  C   UNL A   1      38.831  28.417  29.527  1.00  0.00     0.029 A 
ATOM     44  C   UNL A   1      39.961  29.344  29.519  1.00  0.00     0.049 A 
ATOM     45  H   UNL A   1      41.833  29.052  28.658  1.00  0.00     0.167 HD
ATOM     46  C   UNL A   1      45.739  28.249  26.808  1.00  0.00     0.037 A 
ATOM     47  C   UNL A   1      39.976  30.570  30.076  1.00  0.00     0.037 A 
ATOM     48  C   UNL A   1      45.824  29.594  27.316  1.00  0.00     0.049 A 
ATOM     49  C   UNL A   1      41.225  31.406  29.971  1.00  0.00     0.074 A 
ATOM     50  C   UNL A   1      46.878  30.486  27.225  1.00  0.00     0.029 A 
ATOM     51  N   UNL A   1      44.816  30.240  28.016  1.00  0.00    -0.354 N 
ATOM     52  N   UNL A   1      42.360  31.129  29.374  1.00  0.00    -0.248 NA
ATOM     53  C   UNL A   1      41.192  32.727  30.611  1.00  0.00     0.031 C 
ATOM     54  C   UNL A   1      46.529  31.648  27.919  1.00  0.00     0.029 A 
ATOM     55  C   UNL A   1      45.232  31.509  28.385  1.00  0.00     0.049 A 
ATOM     56  H   UNL A   1      43.933  29.853  28.222  1.00  0.00     0.167 HD
ATOM     57  C   UNL A   1      43.162  32.250  29.539  1.00  0.00     0.074 A 
ATOM     58  C   UNL A   1      42.378  33.217  30.279  1.00  0.00     0.031 C 
ATOM     59  C   UNL A   1      44.433  32.462  29.113  1.00  0.00     0.037 A 
BRANCH  46  60
ATOM     60  C   UNL A   1      46.937  27.670  26.114  1.00  0.00     0.064 A 
ATOM     61  C   UNL A   1      47.068  27.693  24.716  1.00  0.00     0.173 A 
ATOM     62  C   UNL A   1      47.984  27.109  26.860  1.00  0.00     0.173 A 
ATOM     63  F   UNL A   1      46.089  28.205  23.954  1.00  0.00    -0.203 F 
ATOM     64  C   UNL A   1      48.190  27.152  24.093  1.00  0.00     0.198 A 
ATOM     65  C   UNL A   1      49.118  26.598  26.234  1.00  0.00     0.198 A 
ATOM     66  F   UNL A   1      47.912  27.064  28.199  1.00  0.00    -0.203 F 
ATOM     67  F   UNL A   1      48.271  27.140  22.754  1.00  0.00    -0.200 F 
ATOM     68  C   UNL A   1      49.217  26.613  24.852  1.00  0.00     0.200 A 
ATOM     69  F   UNL A   1      50.116  26.089  26.972  1.00  0.00    -0.200 F 
ATOM     70  F   UNL A   1      50.299  26.099  24.251  1.00  0.00    -0.200 F 
ENDBRANCH  46  60
BRANCH  47  71
ATOM     71  C   UNL A   1      38.776  31.077  30.792  1.00  0.00     0.064 A 
ATOM     72  C   UNL A   1      37.745  31.734  30.105  1.00  0.00     0.173 A 
ATOM     73  C   UNL A   1      38.641  30.926  32.180  1.00  0.00     0.173 A 
ATOM     74  F   UNL A   1      37.837  31.922  28.781  1.00  0.00    -0.203 F 
ATOM     75  C   UNL A   1      36.637  32.239  30.782  1.00  0.00     0.198 A 
ATOM     76  C   UNL A   1      37.517  31.404  32.851  1.00  0.00     0.198 A 
ATOM     77  F   UNL A   1      39.598  30.306  32.885  1.00  0.00    -0.203 F 
ATOM     78  F   UNL A   1      35.691  32.908  30.109  1.00  0.00    -0.200 F 
ATOM     79  C   UNL A   1      36.521  32.068  32.154  1.00  0.00     0.200 A 
ATOM     80  F   UNL A   1      37.404  31.224  34.175  1.00  0.00    -0.200 F 
ATOM     81  F   UNL A   1      35.454  32.551  32.803  1.00  0.00    -0.200 F 
ENDBRANCH  47  71
BRANCH  59  82
ATOM     82  C   UNL A   1      45.037  33.810  29.394  1.00  0.00     0.064 A 
ATOM     83  C   UNL A   1      45.787  34.059  30.552  1.00  0.00     0.173 A 
ATOM     84  C   UNL A   1      44.888  34.856  28.471  1.00  0.00     0.173 A 
ATOM     85  F   UNL A   1      45.947  33.097  31.474  1.00  0.00    -0.203 F 
ATOM     86  C   UNL A   1      46.338  35.316  30.792  1.00  0.00     0.198 A 
ATOM     87  C   UNL A   1      45.470  36.101  28.696  1.00  0.00     0.198 A 
ATOM     88  F   UNL A   1      44.188  34.669  27.341  1.00  0.00    -0.203 F 
ATOM     89  F   UNL A   1      47.002  35.547  31.932  1.00  0.00    -0.200 F 
ATOM     90  C   UNL A   1      46.185  36.333  29.861  1.00  0.00     0.200 A 
ATOM     91  F   UNL A   1      45.335  37.076  27.787  1.00  0.00    -0.200 F 
ATOM     92  F   UNL A   1      46.721  37.539  30.089  1.00  0.00    -0.200 F 
ENDBRANCH  59  82
ENDBRANCH  33  34
ENDBRANCH  26  28
ENDBRANCH  25  26
ENDBRANCH  24  25
ENDBRANCH   1  24
TORSDOF 14
ENDMDL
