MODEL 1
REMARK VINA RESULT:     -12.2      0.000      0.000
REMARK SMILES C[N@H+]1CCO[C@H](CNC(=O)N2CC[C@@](C)(C(=O)OCCOC(=O)c3ccc(-c4c5nc(c(-c6c(F)c(F)c(F)c(F)c6F)c6ccc([nH]6)c(-c6c(F)c(F)c(F)c(F)c6F)c6nc(c(-c7c(F)c(F)c(F)c(F)c7F)c7ccc4[nH]7)C=C6)C=C5)cc3)C2)C1
REMARK SMILES IDX 19 1 18 2 16 3 17 4 14 5 11 6 12 7 87 8 13 9 15 10 9 11 8 12
REMARK SMILES IDX 10 14 7 15 6 16 1 17 2 18 3 19 88 20 4 22 5 23 20 24 21 25
REMARK SMILES IDX 22 26 23 27 24 28 25 29 86 30 26 31 85 32 27 33 28 34 29 35
REMARK SMILES IDX 79 36 30 37 84 38 78 39 80 40 31 41 83 42 77 43 76 44 32 46
REMARK SMILES IDX 64 47 44 48 63 49 45 50 48 51 62 52 81 53 46 54 47 55 61 57
REMARK SMILES IDX 82 58 49 59 33 60 34 61 42 62 35 63 36 64 40 65 43 66 37 67
REMARK SMILES IDX 38 68 41 69 39 70 65 71 66 72 74 73 67 74 68 75 72 76 75 77
REMARK SMILES IDX 69 78 70 79 73 80 71 81 50 82 51 83 59 84 52 85 53 86 57 87
REMARK SMILES IDX 60 88 54 89 55 90 58 91 56 92
REMARK H PARENT 8 13 2 21 80 45 48 56
REMARK Flexibility Score: inf
ROOT
ATOM      1  C   UNL A   1      31.578  29.000  24.490  1.00  0.00     0.274 C 
ENDROOT
BRANCH   1   2
ATOM      2  O   UNL A   1      30.635  27.987  24.903  1.00  0.00    -0.462 OA
BRANCH   2   3
ATOM      3  C   UNL A   1      31.082  27.008  25.728  1.00  0.00     0.313 C 
ATOM      4  O   UNL A   1      31.120  27.108  26.950  1.00  0.00    -0.252 OA
BRANCH   3   5
ATOM      5  C   UNL A   1      31.560  25.757  24.990  1.00  0.00     0.084 C 
ATOM      6  N   UNL A   1      32.642  25.504  22.889  1.00  0.00    -0.324 N 
ATOM      7  C   UNL A   1      33.677  25.916  23.809  1.00  0.00     0.122 C 
ATOM      8  C   UNL A   1      31.341  25.776  23.466  1.00  0.00     0.139 C 
ATOM      9  C   UNL A   1      33.090  25.621  25.176  1.00  0.00     0.042 C 
ATOM     10  C   UNL A   1      30.861  24.519  25.576  1.00  0.00     0.026 C 
BRANCH   6  11
ATOM     11  C   UNL A   1      32.917  24.700  21.823  1.00  0.00     0.317 C 
ATOM     12  N   UNL A   1      32.884  23.351  21.961  1.00  0.00    -0.335 N 
ATOM     13  H   UNL A   1      33.495  22.854  21.370  1.00  0.00     0.165 HD
ATOM     14  O   UNL A   1      33.221  25.154  20.720  1.00  0.00    -0.249 OA
BRANCH  12  15
ATOM     15  C   UNL A   1      32.078  22.531  22.857  1.00  0.00     0.155 C 
BRANCH  15  16
ATOM     16  C   UNL A   1      32.898  21.630  23.814  1.00  0.00     0.192 C 
ATOM     17  C   UNL A   1      33.083  18.945  25.420  1.00  0.00     0.332 C 
ATOM     18  N   UNL A   1      32.700  20.254  25.942  1.00  0.00    -0.333 N 
ATOM     19  C   UNL A   1      33.871  21.018  26.420  1.00  0.00     0.290 C 
ATOM     20  C   UNL A   1      31.990  21.070  24.934  1.00  0.00     0.296 C 
ATOM     21  H   UNL A   1      32.072  20.066  26.724  1.00  0.00     0.348 HD
ATOM     22  C   UNL A   1      34.760  21.564  25.291  1.00  0.00     0.222 C 
ATOM     23  O   UNL A   1      34.011  22.353  24.365  1.00  0.00    -0.365 OA
ENDBRANCH  15  16
ENDBRANCH  12  15
ENDBRANCH   6  11
ENDBRANCH   3   5
ENDBRANCH   2   3
ENDBRANCH   1   2
BRANCH   1  24
ATOM     24  C   UNL A   1      31.653  30.111  25.534  1.00  0.00     0.275 C 
BRANCH  24  25
ATOM     25  O   UNL A   1      32.998  30.208  26.034  1.00  0.00    -0.458 OA
BRANCH  25  26
ATOM     26  C   UNL A   1      33.243  31.229  26.882  1.00  0.00     0.338 C 
ATOM     27  O   UNL A   1      32.523  32.177  27.152  1.00  0.00    -0.246 OA
BRANCH  26  28
ATOM     28  C   UNL A   1      34.528  30.982  27.546  1.00  0.00     0.060 A 
ATOM     29  C   UNL A   1      34.841  29.674  27.905  1.00  0.00     0.016 A 
ATOM     30  C   UNL A   1      35.373  32.032  27.901  1.00  0.00     0.016 A 
ATOM     31  C   UNL A   1      35.952  29.411  28.694  1.00  0.00     0.010 A 
ATOM     32  C   UNL A   1      36.549  31.752  28.609  1.00  0.00     0.010 A 
ATOM     33  C   UNL A   1      36.838  30.442  29.034  1.00  0.00    -0.014 A 
BRANCH  33  34
ATOM     34  C   UNL A   1      38.053  30.135  29.833  1.00  0.00     0.031 A 
ATOM     35  C   UNL A   1      39.172  29.326  29.241  1.00  0.00     0.074 A 
ATOM     36  C   UNL A   1      38.171  30.612  31.089  1.00  0.00     0.049 A 
ATOM     37  N   UNL A   1      40.239  28.838  29.824  1.00  0.00    -0.248 NA
ATOM     38  C   UNL A   1      39.077  29.017  27.807  1.00  0.00     0.031 C 
ATOM     39  C   UNL A   1      37.186  31.457  31.768  1.00  0.00     0.029 A 
ATOM     40  N   UNL A   1      39.179  30.475  32.009  1.00  0.00    -0.354 N 
ATOM     41  C   UNL A   1      40.909  28.118  28.844  1.00  0.00     0.074 A 
ATOM     42  C   UNL A   1      40.136  28.240  27.627  1.00  0.00     0.031 C 
ATOM     43  C   UNL A   1      37.665  31.810  32.971  1.00  0.00     0.029 A 
ATOM     44  C   UNL A   1      38.945  31.146  33.184  1.00  0.00     0.049 A 
ATOM     45  H   UNL A   1      39.994  29.947  31.843  1.00  0.00     0.167 HD
ATOM     46  C   UNL A   1      42.061  27.414  28.957  1.00  0.00     0.037 A 
ATOM     47  C   UNL A   1      39.661  31.193  34.323  1.00  0.00     0.037 A 
ATOM     48  C   UNL A   1      42.862  27.347  30.151  1.00  0.00     0.049 A 
ATOM     49  C   UNL A   1      40.914  30.376  34.435  1.00  0.00     0.074 A 
ATOM     50  C   UNL A   1      44.064  26.690  30.351  1.00  0.00     0.029 A 
ATOM     51  N   UNL A   1      42.546  27.976  31.346  1.00  0.00    -0.354 N 
ATOM     52  N   UNL A   1      41.500  29.637  33.526  1.00  0.00    -0.248 NA
ATOM     53  C   UNL A   1      41.580  30.366  35.745  1.00  0.00     0.031 C 
ATOM     54  C   UNL A   1      44.460  26.897  31.678  1.00  0.00     0.029 A 
ATOM     55  C   UNL A   1      43.519  27.705  32.295  1.00  0.00     0.049 A 
ATOM     56  H   UNL A   1      41.748  28.532  31.499  1.00  0.00     0.167 HD
ATOM     57  C   UNL A   1      42.595  29.063  34.154  1.00  0.00     0.074 A 
ATOM     58  C   UNL A   1      42.610  29.562  35.514  1.00  0.00     0.031 C 
ATOM     59  C   UNL A   1      43.501  28.190  33.650  1.00  0.00     0.037 A 
BRANCH  46  60
ATOM     60  C   UNL A   1      42.504  26.622  27.763  1.00  0.00     0.064 A 
ATOM     61  C   UNL A   1      43.441  27.118  26.847  1.00  0.00     0.173 A 
ATOM     62  C   UNL A   1      41.991  25.333  27.550  1.00  0.00     0.173 A 
ATOM     63  F   UNL A   1      43.947  28.351  27.000  1.00  0.00    -0.203 F 
ATOM     64  C   UNL A   1      43.834  26.360  25.746  1.00  0.00     0.198 A 
ATOM     65  C   UNL A   1      42.401  24.570  26.461  1.00  0.00     0.198 A 
ATOM     66  F   UNL A   1      41.092  24.814  28.400  1.00  0.00    -0.203 F 
ATOM     67  F   UNL A   1      44.700  26.869  24.860  1.00  0.00    -0.200 F 
ATOM     68  C   UNL A   1      43.317  25.087  25.557  1.00  0.00     0.200 A 
ATOM     69  F   UNL A   1      41.905  23.338  26.282  1.00  0.00    -0.200 F 
ATOM     70  F   UNL A   1      43.696  24.360  24.496  1.00  0.00    -0.200 F 
ENDBRANCH  46  60
BRANCH  47  71
ATOM     71  C   UNL A   1      39.176  32.015  35.459  1.00  0.00     0.064 A 
ATOM     72  C   UNL A   1      38.373  31.451  36.460  1.00  0.00     0.173 A 
ATOM     73  C   UNL A   1      39.534  33.365  35.589  1.00  0.00     0.173 A 
ATOM     74  F   UNL A   1      37.983  30.172  36.363  1.00  0.00    -0.203 F 
ATOM     75  C   UNL A   1      37.953  32.207  37.552  1.00  0.00     0.198 A 
ATOM     76  C   UNL A   1      39.134  34.112  36.693  1.00  0.00     0.198 A 
ATOM     77  F   UNL A   1      40.299  33.948  34.654  1.00  0.00    -0.203 F 
ATOM     78  F   UNL A   1      37.169  31.652  38.486  1.00  0.00    -0.200 F 
ATOM     79  C   UNL A   1      38.343  33.533  37.673  1.00  0.00     0.200 A 
ATOM     80  F   UNL A   1      39.524  35.389  36.811  1.00  0.00    -0.200 F 
ATOM     81  F   UNL A   1      37.953  34.255  38.733  1.00  0.00    -0.200 F 
ENDBRANCH  47  71
BRANCH  59  82
ATOM     82  C   UNL A   1      44.567  27.707  34.585  1.00  0.00     0.064 A 
ATOM     83  C   UNL A   1      45.760  28.424  34.751  1.00  0.00     0.173 A 
ATOM     84  C   UNL A   1      44.386  26.537  35.335  1.00  0.00     0.173 A 
ATOM     85  F   UNL A   1      45.982  29.540  34.039  1.00  0.00    -0.203 F 
ATOM     86  C   UNL A   1      46.745  27.976  35.626  1.00  0.00     0.198 A 
ATOM     87  C   UNL A   1      45.366  26.102  36.222  1.00  0.00     0.198 A 
ATOM     88  F   UNL A   1      43.261  25.820  35.208  1.00  0.00    -0.203 F 
ATOM     89  F   UNL A   1      47.893  28.657  35.745  1.00  0.00    -0.200 F 
ATOM     90  C   UNL A   1      46.545  26.819  36.364  1.00  0.00     0.200 A 
ATOM     91  F   UNL A   1      45.172  24.985  36.938  1.00  0.00    -0.200 F 
ATOM     92  F   UNL A   1      47.495  26.390  37.207  1.00  0.00    -0.200 F 
ENDBRANCH  59  82
ENDBRANCH  33  34
ENDBRANCH  26  28
ENDBRANCH  25  26
ENDBRANCH  24  25
ENDBRANCH   1  24
TORSDOF 14
ENDMDL
MODEL 2
REMARK VINA RESULT:     -12.2      0.861      1.650
REMARK SMILES C[N@H+]1CCO[C@H](CNC(=O)N2CC[C@@](C)(C(=O)OCCOC(=O)c3ccc(-c4c5nc(c(-c6c(F)c(F)c(F)c(F)c6F)c6ccc([nH]6)c(-c6c(F)c(F)c(F)c(F)c6F)c6nc(c(-c7c(F)c(F)c(F)c(F)c7F)c7ccc4[nH]7)C=C6)C=C5)cc3)C2)C1
REMARK SMILES IDX 19 1 18 2 16 3 17 4 14 5 11 6 12 7 87 8 13 9 15 10 9 11 8 12
REMARK SMILES IDX 10 14 7 15 6 16 1 17 2 18 3 19 88 20 4 22 5 23 20 24 21 25
REMARK SMILES IDX 22 26 23 27 24 28 25 29 86 30 26 31 85 32 27 33 28 34 29 35
REMARK SMILES IDX 79 36 30 37 84 38 78 39 80 40 31 41 83 42 77 43 76 44 32 46
REMARK SMILES IDX 64 47 44 48 63 49 45 50 48 51 62 52 81 53 46 54 47 55 61 57
REMARK SMILES IDX 82 58 49 59 33 60 34 61 42 62 35 63 36 64 40 65 43 66 37 67
REMARK SMILES IDX 38 68 41 69 39 70 65 71 66 72 74 73 67 74 68 75 72 76 75 77
REMARK SMILES IDX 69 78 70 79 73 80 71 81 50 82 51 83 59 84 52 85 53 86 57 87
REMARK SMILES IDX 60 88 54 89 55 90 58 91 56 92
REMARK H PARENT 8 13 2 21 80 45 48 56
REMARK Flexibility Score: inf
ROOT
ATOM      1  C   UNL A   1      31.484  29.146  24.676  1.00  0.00     0.274 C 
ENDROOT
BRANCH   1   2
ATOM      2  O   UNL A   1      30.738  28.001  25.142  1.00  0.00    -0.462 OA
BRANCH   2   3
ATOM      3  C   UNL A   1      31.355  27.154  26.004  1.00  0.00     0.313 C 
ATOM      4  O   UNL A   1      31.416  27.335  27.215  1.00  0.00    -0.252 OA
BRANCH   3   5
ATOM      5  C   UNL A   1      31.996  25.946  25.319  1.00  0.00     0.084 C 
ATOM      6  N   UNL A   1      32.810  25.658  23.105  1.00  0.00    -0.324 N 
ATOM      7  C   UNL A   1      33.843  26.389  23.804  1.00  0.00     0.122 C 
ATOM      8  C   UNL A   1      31.573  25.726  23.855  1.00  0.00     0.139 C 
ATOM      9  C   UNL A   1      33.529  26.155  25.269  1.00  0.00     0.042 C 
ATOM     10  C   UNL A   1      31.679  24.675  26.124  1.00  0.00     0.026 C 
BRANCH   6  11
ATOM     11  C   UNL A   1      33.110  24.800  22.089  1.00  0.00     0.317 C 
ATOM     12  N   UNL A   1      33.641  23.582  22.361  1.00  0.00    -0.335 N 
ATOM     13  H   UNL A   1      34.235  23.218  21.665  1.00  0.00     0.165 HD
ATOM     14  O   UNL A   1      32.937  25.097  20.906  1.00  0.00    -0.249 OA
BRANCH  12  15
ATOM     15  C   UNL A   1      33.461  22.735  23.533  1.00  0.00     0.155 C 
BRANCH  15  16
ATOM     16  C   UNL A   1      34.749  22.505  24.362  1.00  0.00     0.192 C 
ATOM     17  C   UNL A   1      37.371  23.715  25.580  1.00  0.00     0.332 C 
ATOM     18  N   UNL A   1      37.254  22.937  24.349  1.00  0.00    -0.333 N 
ATOM     19  C   UNL A   1      37.399  21.489  24.599  1.00  0.00     0.290 C 
ATOM     20  C   UNL A   1      35.962  23.166  23.667  1.00  0.00     0.296 C 
ATOM     21  H   UNL A   1      38.013  23.258  23.747  1.00  0.00     0.348 HD
ATOM     22  C   UNL A   1      36.184  20.852  25.292  1.00  0.00     0.222 C 
ATOM     23  O   UNL A   1      34.976  21.101  24.571  1.00  0.00    -0.365 OA
ENDBRANCH  15  16
ENDBRANCH  12  15
ENDBRANCH   6  11
ENDBRANCH   3   5
ENDBRANCH   2   3
ENDBRANCH   1   2
BRANCH   1  24
ATOM     24  C   UNL A   1      31.610  30.185  25.787  1.00  0.00     0.275 C 
BRANCH  24  25
ATOM     25  O   UNL A   1      33.000  30.411  26.075  1.00  0.00    -0.458 OA
BRANCH  25  26
ATOM     26  C   UNL A   1      33.272  31.418  26.932  1.00  0.00     0.338 C 
ATOM     27  O   UNL A   1      32.576  32.382  27.211  1.00  0.00    -0.246 OA
BRANCH  26  28
ATOM     28  C   UNL A   1      34.551  31.133  27.593  1.00  0.00     0.060 A 
ATOM     29  C   UNL A   1      34.815  29.820  27.972  1.00  0.00     0.016 A 
ATOM     30  C   UNL A   1      35.437  32.155  27.925  1.00  0.00     0.016 A 
ATOM     31  C   UNL A   1      35.921  29.527  28.759  1.00  0.00     0.010 A 
ATOM     32  C   UNL A   1      36.606  31.842  28.630  1.00  0.00     0.010 A 
ATOM     33  C   UNL A   1      36.847  30.529  29.075  1.00  0.00    -0.014 A 
BRANCH  33  34
ATOM     34  C   UNL A   1      38.055  30.188  29.873  1.00  0.00     0.031 A 
ATOM     35  C   UNL A   1      39.150  29.349  29.278  1.00  0.00     0.074 A 
ATOM     36  C   UNL A   1      38.188  30.662  31.129  1.00  0.00     0.049 A 
ATOM     37  N   UNL A   1      40.204  28.831  29.859  1.00  0.00    -0.248 NA
ATOM     38  C   UNL A   1      39.045  29.043  27.844  1.00  0.00     0.031 C 
ATOM     39  C   UNL A   1      37.229  31.533  31.809  1.00  0.00     0.029 A 
ATOM     40  N   UNL A   1      39.195  30.497  32.046  1.00  0.00    -0.354 N 
ATOM     41  C   UNL A   1      40.852  28.093  28.878  1.00  0.00     0.074 A 
ATOM     42  C   UNL A   1      40.081  28.237  27.662  1.00  0.00     0.031 C 
ATOM     43  C   UNL A   1      37.719  31.873  33.011  1.00  0.00     0.029 A 
ATOM     44  C   UNL A   1      38.981  31.174  33.222  1.00  0.00     0.049 A 
ATOM     45  H   UNL A   1      39.994  29.947  31.879  1.00  0.00     0.167 HD
ATOM     46  C   UNL A   1      41.985  27.358  28.989  1.00  0.00     0.037 A 
ATOM     47  C   UNL A   1      39.700  31.202  34.359  1.00  0.00     0.037 A 
ATOM     48  C   UNL A   1      42.786  27.269  30.182  1.00  0.00     0.049 A 
ATOM     49  C   UNL A   1      40.931  30.350  34.469  1.00  0.00     0.074 A 
ATOM     50  C   UNL A   1      43.970  26.580  30.380  1.00  0.00     0.029 A 
ATOM     51  N   UNL A   1      42.490  27.906  31.377  1.00  0.00    -0.354 N 
ATOM     52  N   UNL A   1      41.494  29.595  33.560  1.00  0.00    -0.248 NA
ATOM     53  C   UNL A   1      41.598  30.322  35.778  1.00  0.00     0.031 C 
ATOM     54  C   UNL A   1      44.374  26.775  31.706  1.00  0.00     0.029 A 
ATOM     55  C   UNL A   1      43.457  27.608  32.325  1.00  0.00     0.049 A 
ATOM     56  H   UNL A   1      41.708  28.484  31.532  1.00  0.00     0.167 HD
ATOM     57  C   UNL A   1      42.574  28.991  34.185  1.00  0.00     0.074 A 
ATOM     58  C   UNL A   1      42.605  29.490  35.545  1.00  0.00     0.031 C 
ATOM     59  C   UNL A   1      43.454  28.094  33.680  1.00  0.00     0.037 A 
BRANCH  46  60
ATOM     60  C   UNL A   1      42.404  26.554  27.794  1.00  0.00     0.064 A 
ATOM     61  C   UNL A   1      43.343  27.030  26.869  1.00  0.00     0.173 A 
ATOM     62  C   UNL A   1      41.866  25.275  27.590  1.00  0.00     0.173 A 
ATOM     63  F   UNL A   1      43.872  28.254  27.014  1.00  0.00    -0.203 F 
ATOM     64  C   UNL A   1      43.712  26.261  25.768  1.00  0.00     0.198 A 
ATOM     65  C   UNL A   1      42.253  24.501  26.500  1.00  0.00     0.198 A 
ATOM     66  F   UNL A   1      40.964  24.774  28.448  1.00  0.00    -0.203 F 
ATOM     67  F   UNL A   1      44.581  26.751  24.873  1.00  0.00    -0.200 F 
ATOM     68  C   UNL A   1      43.171  24.997  25.587  1.00  0.00     0.200 A 
ATOM     69  F   UNL A   1      41.733  23.277  26.329  1.00  0.00    -0.200 F 
ATOM     70  F   UNL A   1      43.528  24.260  24.526  1.00  0.00    -0.200 F 
ENDBRANCH  46  60
BRANCH  47  71
ATOM     71  C   UNL A   1      39.240  32.036  35.497  1.00  0.00     0.064 A 
ATOM     72  C   UNL A   1      38.425  31.495  36.499  1.00  0.00     0.173 A 
ATOM     73  C   UNL A   1      39.634  33.376  35.624  1.00  0.00     0.173 A 
ATOM     74  F   UNL A   1      38.001  30.226  36.404  1.00  0.00    -0.203 F 
ATOM     75  C   UNL A   1      38.028  32.262  37.592  1.00  0.00     0.198 A 
ATOM     76  C   UNL A   1      39.257  34.134  36.730  1.00  0.00     0.198 A 
ATOM     77  F   UNL A   1      40.412  33.939  34.688  1.00  0.00    -0.203 F 
ATOM     78  F   UNL A   1      37.232  31.728  38.529  1.00  0.00    -0.200 F 
ATOM     79  C   UNL A   1      38.453  33.577  37.712  1.00  0.00     0.200 A 
ATOM     80  F   UNL A   1      39.680  35.401  36.846  1.00  0.00    -0.200 F 
ATOM     81  F   UNL A   1      38.085  34.309  38.773  1.00  0.00    -0.200 F 
ENDBRANCH  47  71
BRANCH  59  82
ATOM     82  C   UNL A   1      44.508  27.581  34.612  1.00  0.00     0.064 A 
ATOM     83  C   UNL A   1      44.301  26.417  35.366  1.00  0.00     0.173 A 
ATOM     84  C   UNL A   1      45.738  28.242  34.736  1.00  0.00     0.173 A 
ATOM     85  F   UNL A   1      43.131  25.764  35.292  1.00  0.00    -0.203 F 
ATOM     86  C   UNL A   1      45.286  25.940  36.225  1.00  0.00     0.198 A 
ATOM     87  C   UNL A   1      46.728  27.751  35.583  1.00  0.00     0.198 A 
ATOM     88  F   UNL A   1      45.980  29.358  34.035  1.00  0.00    -0.203 F 
ATOM     89  F   UNL A   1      45.056  24.845  36.962  1.00  0.00    -0.200 F 
ATOM     90  C   UNL A   1      46.499  26.604  36.329  1.00  0.00     0.200 A 
ATOM     91  F   UNL A   1      47.901  28.391  35.681  1.00  0.00    -0.200 F 
ATOM     92  F   UNL A   1      47.447  26.142  37.157  1.00  0.00    -0.200 F 
ENDBRANCH  59  82
ENDBRANCH  33  34
ENDBRANCH  26  28
ENDBRANCH  25  26
ENDBRANCH  24  25
ENDBRANCH   1  24
TORSDOF 14
ENDMDL
MODEL 3
REMARK VINA RESULT:     -12.2      1.105      1.748
REMARK SMILES C[N@H+]1CCO[C@H](CNC(=O)N2CC[C@@](C)(C(=O)OCCOC(=O)c3ccc(-c4c5nc(c(-c6c(F)c(F)c(F)c(F)c6F)c6ccc([nH]6)c(-c6c(F)c(F)c(F)c(F)c6F)c6nc(c(-c7c(F)c(F)c(F)c(F)c7F)c7ccc4[nH]7)C=C6)C=C5)cc3)C2)C1
REMARK SMILES IDX 19 1 18 2 16 3 17 4 14 5 11 6 12 7 87 8 13 9 15 10 9 11 8 12
REMARK SMILES IDX 10 14 7 15 6 16 1 17 2 18 3 19 88 20 4 22 5 23 20 24 21 25
REMARK SMILES IDX 22 26 23 27 24 28 25 29 86 30 26 31 85 32 27 33 28 34 29 35
REMARK SMILES IDX 79 36 30 37 84 38 78 39 80 40 31 41 83 42 77 43 76 44 32 46
REMARK SMILES IDX 64 47 44 48 63 49 45 50 48 51 62 52 81 53 46 54 47 55 61 57
REMARK SMILES IDX 82 58 49 59 33 60 34 61 42 62 35 63 36 64 40 65 43 66 37 67
REMARK SMILES IDX 38 68 41 69 39 70 65 71 66 72 74 73 67 74 68 75 72 76 75 77
REMARK SMILES IDX 69 78 70 79 73 80 71 81 50 82 51 83 59 84 52 85 53 86 57 87
REMARK SMILES IDX 60 88 54 89 55 90 58 91 56 92
REMARK H PARENT 8 13 2 21 80 45 48 56
REMARK Flexibility Score: inf
ROOT
ATOM      1  C   UNL A   1      31.406  28.716  25.011  1.00  0.00     0.274 C 
ENDROOT
BRANCH   1   2
ATOM      2  O   UNL A   1      32.356  27.757  25.523  1.00  0.00    -0.462 OA
BRANCH   2   3
ATOM      3  C   UNL A   1      32.992  26.960  24.628  1.00  0.00     0.313 C 
ATOM      4  O   UNL A   1      33.602  27.380  23.650  1.00  0.00    -0.252 OA
BRANCH   3   5
ATOM      5  C   UNL A   1      32.864  25.468  24.939  1.00  0.00     0.084 C 
ATOM      6  N   UNL A   1      31.044  24.205  25.801  1.00  0.00    -0.324 N 
ATOM      7  C   UNL A   1      30.745  24.409  24.401  1.00  0.00     0.122 C 
ATOM      8  C   UNL A   1      32.075  25.134  26.218  1.00  0.00     0.139 C 
ATOM      9  C   UNL A   1      32.083  24.784  23.792  1.00  0.00     0.042 C 
ATOM     10  C   UNL A   1      34.266  24.846  25.045  1.00  0.00     0.026 C 
BRANCH   6  11
ATOM     11  C   UNL A   1      30.626  23.090  26.462  1.00  0.00     0.317 C 
ATOM     12  N   UNL A   1      31.004  21.861  26.031  1.00  0.00    -0.335 N 
ATOM     13  H   UNL A   1      30.363  21.136  26.214  1.00  0.00     0.165 HD
ATOM     14  O   UNL A   1      29.885  23.148  27.445  1.00  0.00    -0.249 OA
BRANCH  12  15
ATOM     15  C   UNL A   1      32.219  21.456  25.337  1.00  0.00     0.155 C 
BRANCH  15  16
ATOM     16  C   UNL A   1      32.247  19.969  24.904  1.00  0.00     0.192 C 
ATOM     17  C   UNL A   1      32.559  16.966  25.748  1.00  0.00     0.332 C 
ATOM     18  N   UNL A   1      33.587  17.824  25.163  1.00  0.00    -0.333 N 
ATOM     19  C   UNL A   1      33.577  17.764  23.687  1.00  0.00     0.290 C 
ATOM     20  C   UNL A   1      33.433  19.236  25.573  1.00  0.00     0.296 C 
ATOM     21  H   UNL A   1      34.476  17.467  25.514  1.00  0.00     0.348 HD
ATOM     22  C   UNL A   1      32.389  18.496  23.042  1.00  0.00     0.222 C 
ATOM     23  O   UNL A   1      32.312  19.856  23.473  1.00  0.00    -0.365 OA
ENDBRANCH  15  16
ENDBRANCH  12  15
ENDBRANCH   6  11
ENDBRANCH   3   5
ENDBRANCH   2   3
ENDBRANCH   1   2
BRANCH   1  24
ATOM     24  C   UNL A   1      31.600  30.069  25.690  1.00  0.00     0.275 C 
BRANCH  24  25
ATOM     25  O   UNL A   1      32.959  30.187  26.144  1.00  0.00    -0.458 OA
BRANCH  25  26
ATOM     26  C   UNL A   1      33.227  31.238  26.947  1.00  0.00     0.338 C 
ATOM     27  O   UNL A   1      32.531  32.216  27.170  1.00  0.00    -0.246 OA
BRANCH  26  28
ATOM     28  C   UNL A   1      34.501  30.986  27.631  1.00  0.00     0.060 A 
ATOM     29  C   UNL A   1      34.893  29.664  27.821  1.00  0.00     0.016 A 
ATOM     30  C   UNL A   1      35.253  32.029  28.168  1.00  0.00     0.016 A 
ATOM     31  C   UNL A   1      35.990  29.366  28.618  1.00  0.00     0.010 A 
ATOM     32  C   UNL A   1      36.418  31.731  28.885  1.00  0.00     0.010 A 
ATOM     33  C   UNL A   1      36.785  30.396  29.138  1.00  0.00    -0.014 A 
BRANCH  33  34
ATOM     34  C   UNL A   1      37.988  30.061  29.945  1.00  0.00     0.031 A 
ATOM     35  C   UNL A   1      39.096  29.234  29.356  1.00  0.00     0.074 A 
ATOM     36  C   UNL A   1      38.107  30.529  31.204  1.00  0.00     0.049 A 
ATOM     37  N   UNL A   1      40.148  28.721  29.944  1.00  0.00    -0.248 NA
ATOM     38  C   UNL A   1      39.005  28.934  27.919  1.00  0.00     0.031 C 
ATOM     39  C   UNL A   1      37.134  31.390  31.881  1.00  0.00     0.029 A 
ATOM     40  N   UNL A   1      39.106  30.367  32.130  1.00  0.00    -0.354 N 
ATOM     41  C   UNL A   1      40.811  27.993  28.965  1.00  0.00     0.074 A 
ATOM     42  C   UNL A   1      40.049  28.137  27.743  1.00  0.00     0.031 C 
ATOM     43  C   UNL A   1      37.612  31.727  33.088  1.00  0.00     0.029 A 
ATOM     44  C   UNL A   1      38.877  31.037  33.307  1.00  0.00     0.049 A 
ATOM     45  H   UNL A   1      39.911  29.824  31.967  1.00  0.00     0.167 HD
ATOM     46  C   UNL A   1      41.949  27.266  29.082  1.00  0.00     0.037 A 
ATOM     47  C   UNL A   1      39.585  31.064  34.451  1.00  0.00     0.037 A 
ATOM     48  C   UNL A   1      42.739  27.177  30.281  1.00  0.00     0.049 A 
ATOM     49  C   UNL A   1      40.822  30.222  34.568  1.00  0.00     0.074 A 
ATOM     50  C   UNL A   1      43.926  26.496  30.486  1.00  0.00     0.029 A 
ATOM     51  N   UNL A   1      42.428  27.806  31.477  1.00  0.00    -0.354 N 
ATOM     52  N   UNL A   1      41.399  29.476  33.659  1.00  0.00    -0.248 NA
ATOM     53  C   UNL A   1      41.478  30.192  35.882  1.00  0.00     0.031 C 
ATOM     54  C   UNL A   1      44.317  26.687  31.816  1.00  0.00     0.029 A 
ATOM     55  C   UNL A   1      43.388  27.510  32.432  1.00  0.00     0.049 A 
ATOM     56  H   UNL A   1      41.639  28.377  31.628  1.00  0.00     0.167 HD
ATOM     57  C   UNL A   1      42.478  28.877  34.291  1.00  0.00     0.074 A 
ATOM     58  C   UNL A   1      42.493  29.368  35.654  1.00  0.00     0.031 C 
ATOM     59  C   UNL A   1      43.370  27.989  33.789  1.00  0.00     0.037 A 
BRANCH  46  60
ATOM     60  C   UNL A   1      42.384  26.472  27.887  1.00  0.00     0.064 A 
ATOM     61  C   UNL A   1      43.323  26.962  26.970  1.00  0.00     0.173 A 
ATOM     62  C   UNL A   1      41.862  25.187  27.674  1.00  0.00     0.173 A 
ATOM     63  F   UNL A   1      43.838  28.191  27.123  1.00  0.00    -0.203 F 
ATOM     64  C   UNL A   1      43.709  26.201  25.868  1.00  0.00     0.198 A 
ATOM     65  C   UNL A   1      42.265  24.422  26.583  1.00  0.00     0.198 A 
ATOM     66  F   UNL A   1      40.960  24.673  28.524  1.00  0.00    -0.203 F 
ATOM     67  F   UNL A   1      44.578  26.705  24.981  1.00  0.00    -0.200 F 
ATOM     68  C   UNL A   1      43.184  24.932  25.678  1.00  0.00     0.200 A 
ATOM     69  F   UNL A   1      41.760  23.193  26.405  1.00  0.00    -0.200 F 
ATOM     70  F   UNL A   1      43.555  24.203  24.617  1.00  0.00    -0.200 F 
ENDBRANCH  46  60
BRANCH  47  71
ATOM     71  C   UNL A   1      39.109  31.889  35.588  1.00  0.00     0.064 A 
ATOM     72  C   UNL A   1      38.256  31.347  36.559  1.00  0.00     0.173 A 
ATOM     73  C   UNL A   1      39.523  33.219  35.749  1.00  0.00     0.173 A 
ATOM     74  F   UNL A   1      37.812  30.088  36.432  1.00  0.00    -0.203 F 
ATOM     75  C   UNL A   1      37.842  32.104  37.653  1.00  0.00     0.198 A 
ATOM     76  C   UNL A   1      39.129  33.967  36.855  1.00  0.00     0.198 A 
ATOM     77  F   UNL A   1      40.337  33.781  34.843  1.00  0.00    -0.203 F 
ATOM     78  F   UNL A   1      37.011  31.570  38.558  1.00  0.00    -0.200 F 
ATOM     79  C   UNL A   1      38.288  33.409  37.805  1.00  0.00     0.200 A 
ATOM     80  F   UNL A   1      39.572  35.223  37.004  1.00  0.00    -0.200 F 
ATOM     81  F   UNL A   1      37.903  34.131  38.867  1.00  0.00    -0.200 F 
ENDBRANCH  47  71
BRANCH  59  82
ATOM     82  C   UNL A   1      44.419  27.480  34.728  1.00  0.00     0.064 A 
ATOM     83  C   UNL A   1      45.603  28.200  34.947  1.00  0.00     0.173 A 
ATOM     84  C   UNL A   1      44.233  26.281  35.430  1.00  0.00     0.173 A 
ATOM     85  F   UNL A   1      45.830  29.343  34.282  1.00  0.00    -0.203 F 
ATOM     86  C   UNL A   1      46.572  27.728  35.826  1.00  0.00     0.198 A 
ATOM     87  C   UNL A   1      45.197  25.822  36.323  1.00  0.00     0.198 A 
ATOM     88  F   UNL A   1      43.117  25.560  35.252  1.00  0.00    -0.203 F 
ATOM     89  F   UNL A   1      47.711  28.413  35.996  1.00  0.00    -0.200 F 
ATOM     90  C   UNL A   1      46.366  26.543  36.517  1.00  0.00     0.200 A 
ATOM     91  F   UNL A   1      44.997  24.678  36.992  1.00  0.00    -0.200 F 
ATOM     92  F   UNL A   1      47.301  26.089  37.364  1.00  0.00    -0.200 F 
ENDBRANCH  59  82
ENDBRANCH  33  34
ENDBRANCH  26  28
ENDBRANCH  25  26
ENDBRANCH  24  25
ENDBRANCH   1  24
TORSDOF 14
ENDMDL
