MODEL 1
REMARK VINA RESULT:     -13.0      0.000      0.000
REMARK SMILES Cc1ccc(S(=O)(=O)N2CCN(C(=O)[C@H]3CCCC[C@H]3C(=O)OCCOC(=O)c3ccc(-c4c5nc(c(-c6c(F)c(F)c(F)c(F)c6F)c6ccc([nH]6)c(-c6c(F)c(F)c(F)c(F)c6F)c6nc(c(-c7c(F)c(F)c(F)c(F)c7F)c7ccc4[nH]7)C=C6)C=C5)cc3)CC2)cc1C
REMARK SMILES IDX 24 1 23 2 21 3 22 4 20 5 15 6 16 7 17 8 19 9 18 10 13 11
REMARK SMILES IDX 9 12 10 13 93 14 11 15 92 16 12 17 14 18 6 19 7 20 8 21 5 22
REMARK SMILES IDX 1 23 2 24 3 25 95 26 4 27 94 28 96 29 25 30 26 31 27 32
REMARK SMILES IDX 28 33 29 34 30 35 91 36 31 37 90 38 32 39 33 40 34 41 84 42
REMARK SMILES IDX 35 43 89 44 83 45 85 46 36 47 88 48 82 49 81 50 37 52 69 53
REMARK SMILES IDX 49 54 68 55 50 56 53 57 67 58 86 59 51 60 52 61 66 63 87 64
REMARK SMILES IDX 54 65 38 66 39 67 47 68 40 69 41 70 45 71 48 72 42 73 43 74
REMARK SMILES IDX 46 75 44 76 70 77 71 78 79 79 72 80 73 81 77 82 80 83 74 84
REMARK SMILES IDX 75 85 78 86 76 87 55 88 56 89 64 90 57 91 58 92 62 93 65 94
REMARK SMILES IDX 59 95 60 96 63 97 61 98
REMARK H PARENT 85 51 53 62
REMARK Flexibility Score: inf
ROOT
ATOM      1  C   UNL A   1      38.618  21.157  25.766  1.00  0.00     0.274 C 
ENDROOT
BRANCH   1   2
ATOM      2  O   UNL A   1      37.365  21.281  25.062  1.00  0.00    -0.462 OA
BRANCH   2   3
ATOM      3  C   UNL A   1      36.379  21.965  25.691  1.00  0.00     0.309 C 
ATOM      4  O   UNL A   1      36.510  23.092  26.161  1.00  0.00    -0.252 OA
BRANCH   3   5
ATOM      5  C   UNL A   1      35.031  21.251  25.698  1.00  0.00     0.111 C 
ATOM      6  C   UNL A   1      33.762  22.127  25.577  1.00  0.00     0.093 C 
ATOM      7  C   UNL A   1      32.522  21.224  25.722  1.00  0.00     0.014 C 
ATOM      8  C   UNL A   1      32.521  20.068  24.729  1.00  0.00     0.001 C 
ATOM      9  C   UNL A   1      35.052  20.052  24.738  1.00  0.00     0.016 C 
ATOM     10  C   UNL A   1      33.779  19.220  24.848  1.00  0.00     0.001 C 
BRANCH   6  11
ATOM     11  C   UNL A   1      33.742  22.939  24.278  1.00  0.00     0.226 C 
ATOM     12  N   UNL A   1      30.880  25.803  23.290  1.00  0.00    -0.194 NA
ATOM     13  C   UNL A   1      31.920  25.319  22.361  1.00  0.00     0.124 C 
ATOM     14  C   UNL A   1      30.648  24.962  24.490  1.00  0.00     0.124 C 
ATOM     15  C   UNL A   1      33.211  25.028  23.122  1.00  0.00     0.136 C 
ATOM     16  C   UNL A   1      31.961  24.523  25.183  1.00  0.00     0.136 C 
ATOM     17  N   UNL A   1      32.977  24.088  24.222  1.00  0.00    -0.340 N 
ATOM     18  O   UNL A   1      34.424  22.593  23.311  1.00  0.00    -0.275 OA
BRANCH  12  19
ATOM     19  S   UNL A   1      30.218  27.339  23.125  1.00  0.00     0.243 S 
ATOM     20  O   UNL A   1      28.841  27.294  23.560  1.00  0.00    -0.207 OA
ATOM     21  O   UNL A   1      30.580  27.818  21.805  1.00  0.00    -0.207 OA
BRANCH  19  22
ATOM     22  C   UNL A   1      31.086  28.362  24.295  1.00  0.00     0.082 A 
ATOM     23  C   UNL A   1      33.112  30.867  27.164  1.00  0.00     0.044 C 
ATOM     24  C   UNL A   1      32.435  29.960  26.174  1.00  0.00    -0.048 A 
ATOM     25  C   UNL A   1      31.345  30.464  25.454  1.00  0.00     0.005 A 
ATOM     26  C   UNL A   1      32.890  28.653  25.905  1.00  0.00    -0.047 A 
ATOM     27  C   UNL A   1      30.707  29.683  24.496  1.00  0.00     0.022 A 
ATOM     28  C   UNL A   1      32.179  27.847  24.993  1.00  0.00     0.025 A 
ATOM     29  C   UNL A   1      34.140  28.084  26.518  1.00  0.00     0.044 C 
ENDBRANCH  19  22
ENDBRANCH  12  19
ENDBRANCH   6  11
ENDBRANCH   3   5
ENDBRANCH   2   3
ENDBRANCH   1   2
BRANCH   1  30
ATOM     30  C   UNL A   1      39.340  19.868  25.369  1.00  0.00     0.275 C 
BRANCH  30  31
ATOM     31  O   UNL A   1      40.274  19.462  26.386  1.00  0.00    -0.458 OA
BRANCH  31  32
ATOM     32  C   UNL A   1      41.577  19.590  26.052  1.00  0.00     0.338 C 
ATOM     33  O   UNL A   1      42.268  18.823  25.401  1.00  0.00    -0.246 OA
BRANCH  32  34
ATOM     34  C   UNL A   1      42.042  20.915  26.476  1.00  0.00     0.060 A 
ATOM     35  C   UNL A   1      41.996  21.215  27.837  1.00  0.00     0.016 A 
ATOM     36  C   UNL A   1      42.467  21.869  25.554  1.00  0.00     0.016 A 
ATOM     37  C   UNL A   1      42.372  22.470  28.297  1.00  0.00     0.010 A 
ATOM     38  C   UNL A   1      42.869  23.125  26.017  1.00  0.00     0.010 A 
ATOM     39  C   UNL A   1      42.825  23.430  27.390  1.00  0.00    -0.014 A 
BRANCH  39  40
ATOM     40  C   UNL A   1      43.275  24.751  27.884  1.00  0.00     0.031 A 
ATOM     41  C   UNL A   1      42.271  25.801  28.242  1.00  0.00     0.074 A 
ATOM     42  C   UNL A   1      44.593  25.000  27.987  1.00  0.00     0.049 A 
ATOM     43  N   UNL A   1      42.461  27.060  28.542  1.00  0.00    -0.248 NA
ATOM     44  C   UNL A   1      40.863  25.380  28.260  1.00  0.00     0.031 C 
ATOM     45  C   UNL A   1      45.656  24.034  27.707  1.00  0.00     0.029 A 
ATOM     46  N   UNL A   1      45.262  26.145  28.334  1.00  0.00    -0.354 N 
ATOM     47  C   UNL A   1      41.197  27.591  28.753  1.00  0.00     0.074 A 
ATOM     48  C   UNL A   1      40.247  26.519  28.538  1.00  0.00     0.031 C 
ATOM     49  C   UNL A   1      46.844  24.632  27.872  1.00  0.00     0.029 A 
ATOM     50  C   UNL A   1      46.625  26.035  28.204  1.00  0.00     0.049 A 
ATOM     51  H   UNL A   1      44.812  26.963  28.643  1.00  0.00     0.167 HD
ATOM     52  C   UNL A   1      40.869  28.861  29.090  1.00  0.00     0.037 A 
ATOM     53  C   UNL A   1      47.585  26.974  28.287  1.00  0.00     0.037 A 
ATOM     54  C   UNL A   1      41.831  29.910  29.311  1.00  0.00     0.049 A 
ATOM     55  C   UNL A   1      47.193  28.392  28.592  1.00  0.00     0.074 A 
ATOM     56  C   UNL A   1      41.610  31.217  29.707  1.00  0.00     0.029 A 
ATOM     57  N   UNL A   1      43.203  29.770  29.141  1.00  0.00    -0.354 N 
ATOM     58  N   UNL A   1      45.999  28.890  28.805  1.00  0.00    -0.248 NA
ATOM     59  C   UNL A   1      48.279  29.379  28.659  1.00  0.00     0.031 C 
ATOM     60  C   UNL A   1      42.841  31.883  29.718  1.00  0.00     0.029 A 
ATOM     61  C   UNL A   1      43.836  30.979  29.381  1.00  0.00     0.049 A 
ATOM     62  H   UNL A   1      43.658  28.935  28.888  1.00  0.00     0.167 HD
ATOM     63  C   UNL A   1      46.185  30.246  29.029  1.00  0.00     0.074 A 
ATOM     64  C   UNL A   1      47.613  30.488  28.953  1.00  0.00     0.031 C 
ATOM     65  C   UNL A   1      45.257  31.204  29.275  1.00  0.00     0.037 A 
BRANCH  52  66
ATOM     66  C   UNL A   1      39.408  29.194  29.185  1.00  0.00     0.064 A 
ATOM     67  C   UNL A   1      38.720  29.189  30.409  1.00  0.00     0.173 A 
ATOM     68  C   UNL A   1      38.686  29.530  28.030  1.00  0.00     0.173 A 
ATOM     69  F   UNL A   1      39.359  28.862  31.542  1.00  0.00    -0.203 F 
ATOM     70  C   UNL A   1      37.357  29.469  30.464  1.00  0.00     0.198 A 
ATOM     71  C   UNL A   1      37.329  29.839  28.094  1.00  0.00     0.198 A 
ATOM     72  F   UNL A   1      39.295  29.555  26.835  1.00  0.00    -0.203 F 
ATOM     73  F   UNL A   1      36.708  29.398  31.635  1.00  0.00    -0.200 F 
ATOM     74  C   UNL A   1      36.664  29.797  29.309  1.00  0.00     0.200 A 
ATOM     75  F   UNL A   1      36.666  30.165  26.976  1.00  0.00    -0.200 F 
ATOM     76  F   UNL A   1      35.351  30.062  29.364  1.00  0.00    -0.200 F 
ENDBRANCH  52  66
BRANCH  53  77
ATOM     77  C   UNL A   1      48.994  26.595  28.015  1.00  0.00     0.064 A 
ATOM     78  C   UNL A   1      49.494  26.549  26.708  1.00  0.00     0.173 A 
ATOM     79  C   UNL A   1      49.884  26.319  29.066  1.00  0.00     0.173 A 
ATOM     80  F   UNL A   1      48.677  26.782  25.670  1.00  0.00    -0.203 F 
ATOM     81  C   UNL A   1      50.831  26.244  26.461  1.00  0.00     0.198 A 
ATOM     82  C   UNL A   1      51.225  26.041  28.821  1.00  0.00     0.198 A 
ATOM     83  F   UNL A   1      49.453  26.351  30.336  1.00  0.00    -0.203 F 
ATOM     84  F   UNL A   1      51.280  26.181  25.201  1.00  0.00    -0.200 F 
ATOM     85  C   UNL A   1      51.698  26.001  27.518  1.00  0.00     0.200 A 
ATOM     86  F   UNL A   1      52.061  25.824  29.845  1.00  0.00    -0.200 F 
ATOM     87  F   UNL A   1      52.987  25.727  27.280  1.00  0.00    -0.200 F 
ENDBRANCH  53  77
BRANCH  65  88
ATOM     88  C   UNL A   1      45.759  32.605  29.469  1.00  0.00     0.064 A 
ATOM     89  C   UNL A   1      45.838  33.506  28.397  1.00  0.00     0.173 A 
ATOM     90  C   UNL A   1      46.121  33.065  30.744  1.00  0.00     0.173 A 
ATOM     91  F   UNL A   1      45.520  33.108  27.156  1.00  0.00    -0.203 F 
ATOM     92  C   UNL A   1      46.277  34.813  28.592  1.00  0.00     0.198 A 
ATOM     93  C   UNL A   1      46.532  34.380  30.940  1.00  0.00     0.198 A 
ATOM     94  F   UNL A   1      46.059  32.242  31.801  1.00  0.00    -0.203 F 
ATOM     95  F   UNL A   1      46.382  35.646  27.547  1.00  0.00    -0.200 F 
ATOM     96  C   UNL A   1      46.614  35.251  29.864  1.00  0.00     0.200 A 
ATOM     97  F   UNL A   1      46.847  34.805  32.171  1.00  0.00    -0.200 F 
ATOM     98  F   UNL A   1      47.026  36.512  30.052  1.00  0.00    -0.200 F 
ENDBRANCH  65  88
ENDBRANCH  39  40
ENDBRANCH  32  34
ENDBRANCH  31  32
ENDBRANCH  30  31
ENDBRANCH   1  30
TORSDOF 14
ENDMDL
MODEL 2
REMARK VINA RESULT:     -13.0      5.180     10.527
REMARK SMILES Cc1ccc(S(=O)(=O)N2CCN(C(=O)[C@H]3CCCC[C@H]3C(=O)OCCOC(=O)c3ccc(-c4c5nc(c(-c6c(F)c(F)c(F)c(F)c6F)c6ccc([nH]6)c(-c6c(F)c(F)c(F)c(F)c6F)c6nc(c(-c7c(F)c(F)c(F)c(F)c7F)c7ccc4[nH]7)C=C6)C=C5)cc3)CC2)cc1C
REMARK SMILES IDX 24 1 23 2 21 3 22 4 20 5 15 6 16 7 17 8 19 9 18 10 13 11
REMARK SMILES IDX 9 12 10 13 93 14 11 15 92 16 12 17 14 18 6 19 7 20 8 21 5 22
REMARK SMILES IDX 1 23 2 24 3 25 95 26 4 27 94 28 96 29 25 30 26 31 27 32
REMARK SMILES IDX 28 33 29 34 30 35 91 36 31 37 90 38 32 39 33 40 34 41 84 42
REMARK SMILES IDX 35 43 89 44 83 45 85 46 36 47 88 48 82 49 81 50 37 52 69 53
REMARK SMILES IDX 49 54 68 55 50 56 53 57 67 58 86 59 51 60 52 61 66 63 87 64
REMARK SMILES IDX 54 65 38 66 39 67 47 68 40 69 41 70 45 71 48 72 42 73 43 74
REMARK SMILES IDX 46 75 44 76 70 77 71 78 79 79 72 80 73 81 77 82 80 83 74 84
REMARK SMILES IDX 75 85 78 86 76 87 55 88 56 89 64 90 57 91 58 92 62 93 65 94
REMARK SMILES IDX 59 95 60 96 63 97 61 98
REMARK H PARENT 85 51 53 62
REMARK Flexibility Score: inf
ROOT
ATOM      1  C   UNL A   1      33.054  31.156  27.247  1.00  0.00     0.274 C 
ENDROOT
BRANCH   1   2
ATOM      2  O   UNL A   1      32.286  30.110  26.617  1.00  0.00    -0.462 OA
BRANCH   2   3
ATOM      3  C   UNL A   1      32.905  29.405  25.640  1.00  0.00     0.309 C 
ATOM      4  O   UNL A   1      34.023  28.907  25.748  1.00  0.00    -0.252 OA
BRANCH   3   5
ATOM      5  C   UNL A   1      32.056  29.193  24.389  1.00  0.00     0.111 C 
ATOM      6  C   UNL A   1      32.061  27.780  23.759  1.00  0.00     0.093 C 
ATOM      7  C   UNL A   1      31.241  27.819  22.456  1.00  0.00     0.014 C 
ATOM      8  C   UNL A   1      29.828  28.350  22.668  1.00  0.00     0.001 C 
ATOM      9  C   UNL A   1      30.651  29.780  24.587  1.00  0.00     0.016 C 
ATOM     10  C   UNL A   1      29.835  29.734  23.300  1.00  0.00     0.001 C 
BRANCH   6  11
ATOM     11  C   UNL A   1      31.557  26.711  24.733  1.00  0.00     0.226 C 
ATOM     12  N   UNL A   1      31.792  22.598  24.101  1.00  0.00    -0.194 NA
ATOM     13  C   UNL A   1      31.063  23.222  25.224  1.00  0.00     0.124 C 
ATOM     14  C   UNL A   1      32.140  23.503  22.979  1.00  0.00     0.124 C 
ATOM     15  C   UNL A   1      31.796  24.475  25.695  1.00  0.00     0.136 C 
ATOM     16  C   UNL A   1      32.737  24.851  23.451  1.00  0.00     0.136 C 
ATOM     17  N   UNL A   1      32.007  25.413  24.588  1.00  0.00    -0.340 N 
ATOM     18  O   UNL A   1      30.790  27.009  25.651  1.00  0.00    -0.275 OA
BRANCH  12  19
ATOM     19  S   UNL A   1      32.418  21.044  24.233  1.00  0.00     0.243 S 
ATOM     20  O   UNL A   1      32.389  20.426  22.927  1.00  0.00    -0.207 OA
ATOM     21  O   UNL A   1      31.780  20.425  25.379  1.00  0.00    -0.207 OA
BRANCH  19  22
ATOM     22  C   UNL A   1      34.135  21.254  24.656  1.00  0.00     0.082 A 
ATOM     23  C   UNL A   1      38.316  21.711  25.615  1.00  0.00     0.044 C 
ATOM     24  C   UNL A   1      36.853  21.597  25.286  1.00  0.00    -0.048 A 
ATOM     25  C   UNL A   1      36.337  20.327  25.001  1.00  0.00     0.005 A 
ATOM     26  C   UNL A   1      35.980  22.703  25.310  1.00  0.00    -0.047 A 
ATOM     27  C   UNL A   1      34.983  20.156  24.731  1.00  0.00     0.022 A 
ATOM     28  C   UNL A   1      34.628  22.526  24.950  1.00  0.00     0.025 A 
ATOM     29  C   UNL A   1      36.413  24.074  25.752  1.00  0.00     0.044 C 
ENDBRANCH  19  22
ENDBRANCH  12  19
ENDBRANCH   6  11
ENDBRANCH   3   5
ENDBRANCH   2   3
ENDBRANCH   1   2
BRANCH   1  30
ATOM     30  C   UNL A   1      32.264  32.465  27.284  1.00  0.00     0.275 C 
BRANCH  30  31
ATOM     31  O   UNL A   1      33.144  33.603  27.248  1.00  0.00    -0.458 OA
BRANCH  31  32
ATOM     32  C   UNL A   1      33.295  34.250  28.425  1.00  0.00     0.338 C 
ATOM     33  O   UNL A   1      32.528  35.032  28.960  1.00  0.00    -0.246 OA
BRANCH  32  34
ATOM     34  C   UNL A   1      34.507  33.748  29.083  1.00  0.00     0.060 A 
ATOM     35  C   UNL A   1      34.350  32.843  30.132  1.00  0.00     0.016 A 
ATOM     36  C   UNL A   1      35.775  34.192  28.715  1.00  0.00     0.016 A 
ATOM     37  C   UNL A   1      35.453  32.371  30.830  1.00  0.00     0.010 A 
ATOM     38  C   UNL A   1      36.890  33.701  29.400  1.00  0.00     0.010 A 
ATOM     39  C   UNL A   1      36.734  32.787  30.458  1.00  0.00    -0.014 A 
BRANCH  39  40
ATOM     40  C   UNL A   1      37.915  32.245  31.167  1.00  0.00     0.031 A 
ATOM     41  C   UNL A   1      38.670  31.088  30.592  1.00  0.00     0.074 A 
ATOM     42  C   UNL A   1      38.287  32.791  32.339  1.00  0.00     0.049 A 
ATOM     43  N   UNL A   1      39.627  30.375  31.128  1.00  0.00    -0.248 NA
ATOM     44  C   UNL A   1      38.295  30.674  29.232  1.00  0.00     0.031 C 
ATOM     45  C   UNL A   1      37.649  33.948  32.967  1.00  0.00     0.029 A 
ATOM     46  N   UNL A   1      39.274  32.431  33.219  1.00  0.00    -0.354 N 
ATOM     47  C   UNL A   1      39.947  29.407  30.187  1.00  0.00     0.074 A 
ATOM     48  C   UNL A   1      39.077  29.619  29.049  1.00  0.00     0.031 C 
ATOM     49  C   UNL A   1      38.247  34.192  34.142  1.00  0.00     0.029 A 
ATOM     50  C   UNL A   1      39.262  33.171  34.376  1.00  0.00     0.049 A 
ATOM     51  H   UNL A   1      39.926  31.716  33.040  1.00  0.00     0.167 HD
ATOM     52  C   UNL A   1      40.881  28.431  30.277  1.00  0.00     0.037 A 
ATOM     53  C   UNL A   1      39.951  33.007  35.520  1.00  0.00     0.037 A 
ATOM     54  C   UNL A   1      41.746  28.245  31.413  1.00  0.00     0.049 A 
ATOM     55  C   UNL A   1      40.932  31.875  35.624  1.00  0.00     0.074 A 
ATOM     56  C   UNL A   1      42.762  27.321  31.586  1.00  0.00     0.029 A 
ATOM     57  N   UNL A   1      41.685  28.994  32.581  1.00  0.00    -0.354 N 
ATOM     58  N   UNL A   1      41.244  30.969  34.729  1.00  0.00    -0.248 NA
ATOM     59  C   UNL A   1      41.649  31.734  36.899  1.00  0.00     0.031 C 
ATOM     60  C   UNL A   1      43.273  27.472  32.879  1.00  0.00     0.029 A 
ATOM     61  C   UNL A   1      42.614  28.524  33.496  1.00  0.00     0.049 A 
ATOM     62  H   UNL A   1      41.071  29.748  32.736  1.00  0.00     0.167 HD
ATOM     63  C   UNL A   1      42.190  30.150  35.327  1.00  0.00     0.074 A 
ATOM     64  C   UNL A   1      42.421  30.684  36.656  1.00  0.00     0.031 C 
ATOM     65  C   UNL A   1      42.811  29.055  34.823  1.00  0.00     0.037 A 
BRANCH  52  66
ATOM     66  C   UNL A   1      40.976  27.460  29.135  1.00  0.00     0.064 A 
ATOM     67  C   UNL A   1      42.003  27.528  28.180  1.00  0.00     0.173 A 
ATOM     68  C   UNL A   1      40.022  26.439  28.999  1.00  0.00     0.173 A 
ATOM     69  F   UNL A   1      42.932  28.493  28.256  1.00  0.00    -0.203 F 
ATOM     70  C   UNL A   1      42.047  26.635  27.112  1.00  0.00     0.198 A 
ATOM     71  C   UNL A   1      40.088  25.530  27.946  1.00  0.00     0.198 A 
ATOM     72  F   UNL A   1      39.023  26.325  29.886  1.00  0.00    -0.203 F 
ATOM     73  F   UNL A   1      43.002  26.757  26.179  1.00  0.00    -0.200 F 
ATOM     74  C   UNL A   1      41.093  25.635  26.998  1.00  0.00     0.200 A 
ATOM     75  F   UNL A   1      39.170  24.558  27.845  1.00  0.00    -0.200 F 
ATOM     76  F   UNL A   1      41.136  24.780  25.967  1.00  0.00    -0.200 F 
ENDBRANCH  52  66
BRANCH  53  77
ATOM     77  C   UNL A   1      39.679  33.912  36.665  1.00  0.00     0.064 A 
ATOM     78  C   UNL A   1      38.844  33.519  37.718  1.00  0.00     0.173 A 
ATOM     79  C   UNL A   1      40.292  35.173  36.751  1.00  0.00     0.173 A 
ATOM     80  F   UNL A   1      38.218  32.335  37.669  1.00  0.00    -0.203 F 
ATOM     81  C   UNL A   1      38.633  34.352  38.816  1.00  0.00     0.198 A 
ATOM     82  C   UNL A   1      40.103  35.992  37.861  1.00  0.00     0.198 A 
ATOM     83  F   UNL A   1      41.102  35.594  35.768  1.00  0.00    -0.203 F 
ATOM     84  F   UNL A   1      37.811  33.965  39.799  1.00  0.00    -0.200 F 
ATOM     85  C   UNL A   1      39.272  35.582  38.891  1.00  0.00     0.200 A 
ATOM     86  F   UNL A   1      40.735  37.171  37.936  1.00  0.00    -0.200 F 
ATOM     87  F   UNL A   1      39.084  36.373  39.957  1.00  0.00    -0.200 F 
ENDBRANCH  53  77
BRANCH  65  88
ATOM     88  C   UNL A   1      43.792  28.355  35.716  1.00  0.00     0.064 A 
ATOM     89  C   UNL A   1      43.379  27.360  36.615  1.00  0.00     0.173 A 
ATOM     90  C   UNL A   1      45.161  28.648  35.643  1.00  0.00     0.173 A 
ATOM     91  F   UNL A   1      42.077  27.057  36.734  1.00  0.00    -0.203 F 
ATOM     92  C   UNL A   1      44.300  26.695  37.419  1.00  0.00     0.198 A 
ATOM     93  C   UNL A   1      46.083  27.962  36.428  1.00  0.00     0.198 A 
ATOM     94  F   UNL A   1      45.606  29.589  34.798  1.00  0.00    -0.203 F 
ATOM     95  F   UNL A   1      43.879  25.775  38.299  1.00  0.00    -0.200 F 
ATOM     96  C   UNL A   1      45.652  26.990  37.319  1.00  0.00     0.200 A 
ATOM     97  F   UNL A   1      47.390  28.240  36.322  1.00  0.00    -0.200 F 
ATOM     98  F   UNL A   1      46.539  26.342  38.086  1.00  0.00    -0.200 F 
ENDBRANCH  65  88
ENDBRANCH  39  40
ENDBRANCH  32  34
ENDBRANCH  31  32
ENDBRANCH  30  31
ENDBRANCH   1  30
TORSDOF 14
ENDMDL
MODEL 3
REMARK VINA RESULT:     -13.0      5.043     10.385
REMARK SMILES Cc1ccc(S(=O)(=O)N2CCN(C(=O)[C@H]3CCCC[C@H]3C(=O)OCCOC(=O)c3ccc(-c4c5nc(c(-c6c(F)c(F)c(F)c(F)c6F)c6ccc([nH]6)c(-c6c(F)c(F)c(F)c(F)c6F)c6nc(c(-c7c(F)c(F)c(F)c(F)c7F)c7ccc4[nH]7)C=C6)C=C5)cc3)CC2)cc1C
REMARK SMILES IDX 24 1 23 2 21 3 22 4 20 5 15 6 16 7 17 8 19 9 18 10 13 11
REMARK SMILES IDX 9 12 10 13 93 14 11 15 92 16 12 17 14 18 6 19 7 20 8 21 5 22
REMARK SMILES IDX 1 23 2 24 3 25 95 26 4 27 94 28 96 29 25 30 26 31 27 32
REMARK SMILES IDX 28 33 29 34 30 35 91 36 31 37 90 38 32 39 33 40 34 41 84 42
REMARK SMILES IDX 35 43 89 44 83 45 85 46 36 47 88 48 82 49 81 50 37 52 69 53
REMARK SMILES IDX 49 54 68 55 50 56 53 57 67 58 86 59 51 60 52 61 66 63 87 64
REMARK SMILES IDX 54 65 38 66 39 67 47 68 40 69 41 70 45 71 48 72 42 73 43 74
REMARK SMILES IDX 46 75 44 76 70 77 71 78 79 79 72 80 73 81 77 82 80 83 74 84
REMARK SMILES IDX 75 85 78 86 76 87 55 88 56 89 64 90 57 91 58 92 62 93 65 94
REMARK SMILES IDX 59 95 60 96 63 97 61 98
REMARK H PARENT 85 51 53 62
REMARK Flexibility Score: inf
ROOT
ATOM      1  C   UNL A   1      33.022  31.151  27.213  1.00  0.00     0.274 C 
ENDROOT
BRANCH   1   2
ATOM      2  O   UNL A   1      32.250  30.129  26.550  1.00  0.00    -0.462 OA
BRANCH   2   3
ATOM      3  C   UNL A   1      32.886  29.410  25.594  1.00  0.00     0.309 C 
ATOM      4  O   UNL A   1      33.998  28.908  25.731  1.00  0.00    -0.252 OA
BRANCH   3   5
ATOM      5  C   UNL A   1      32.063  29.188  24.328  1.00  0.00     0.111 C 
ATOM      6  C   UNL A   1      32.081  27.771  23.708  1.00  0.00     0.093 C 
ATOM      7  C   UNL A   1      31.287  27.800  22.388  1.00  0.00     0.014 C 
ATOM      8  C   UNL A   1      29.870  28.330  22.569  1.00  0.00     0.001 C 
ATOM      9  C   UNL A   1      30.653  29.775  24.494  1.00  0.00     0.016 C 
ATOM     10  C   UNL A   1      29.863  29.719  23.191  1.00  0.00     0.001 C 
BRANCH   6  11
ATOM     11  C   UNL A   1      31.560  26.708  24.679  1.00  0.00     0.226 C 
ATOM     12  N   UNL A   1      31.800  22.591  24.074  1.00  0.00    -0.194 NA
ATOM     13  C   UNL A   1      31.052  23.222  25.180  1.00  0.00     0.124 C 
ATOM     14  C   UNL A   1      32.168  23.489  22.953  1.00  0.00     0.124 C 
ATOM     15  C   UNL A   1      31.779  24.477  25.658  1.00  0.00     0.136 C 
ATOM     16  C   UNL A   1      32.759  24.839  23.427  1.00  0.00     0.136 C 
ATOM     17  N   UNL A   1      32.010  25.409  24.549  1.00  0.00    -0.340 N 
ATOM     18  O   UNL A   1      30.777  27.012  25.582  1.00  0.00    -0.275 OA
BRANCH  12  19
ATOM     19  S   UNL A   1      32.422  21.037  24.225  1.00  0.00     0.243 S 
ATOM     20  O   UNL A   1      32.395  20.405  22.926  1.00  0.00    -0.207 OA
ATOM     21  O   UNL A   1      31.778  20.432  25.376  1.00  0.00    -0.207 OA
BRANCH  19  22
ATOM     22  C   UNL A   1      34.137  21.247  24.652  1.00  0.00     0.082 A 
ATOM     23  C   UNL A   1      38.317  21.706  25.618  1.00  0.00     0.044 C 
ATOM     24  C   UNL A   1      36.854  21.591  25.286  1.00  0.00    -0.048 A 
ATOM     25  C   UNL A   1      36.339  20.321  25.001  1.00  0.00     0.005 A 
ATOM     26  C   UNL A   1      35.981  22.697  25.308  1.00  0.00    -0.047 A 
ATOM     27  C   UNL A   1      34.985  20.150  24.728  1.00  0.00     0.022 A 
ATOM     28  C   UNL A   1      34.630  22.519  24.946  1.00  0.00     0.025 A 
ATOM     29  C   UNL A   1      36.413  24.068  25.750  1.00  0.00     0.044 C 
ENDBRANCH  19  22
ENDBRANCH  12  19
ENDBRANCH   6  11
ENDBRANCH   3   5
ENDBRANCH   2   3
ENDBRANCH   1   2
BRANCH   1  30
ATOM     30  C   UNL A   1      32.237  32.462  27.289  1.00  0.00     0.275 C 
BRANCH  30  31
ATOM     31  O   UNL A   1      33.122  33.597  27.276  1.00  0.00    -0.458 OA
BRANCH  31  32
ATOM     32  C   UNL A   1      33.292  34.206  28.471  1.00  0.00     0.338 C 
ATOM     33  O   UNL A   1      32.528  34.963  29.046  1.00  0.00    -0.246 OA
BRANCH  32  34
ATOM     34  C   UNL A   1      34.522  33.694  29.087  1.00  0.00     0.060 A 
ATOM     35  C   UNL A   1      34.396  32.714  30.071  1.00  0.00     0.016 A 
ATOM     36  C   UNL A   1      35.774  34.200  28.746  1.00  0.00     0.016 A 
ATOM     37  C   UNL A   1      35.517  32.227  30.729  1.00  0.00     0.010 A 
ATOM     38  C   UNL A   1      36.906  33.694  29.390  1.00  0.00     0.010 A 
ATOM     39  C   UNL A   1      36.783  32.705  30.382  1.00  0.00    -0.014 A 
BRANCH  39  40
ATOM     40  C   UNL A   1      37.983  32.148  31.047  1.00  0.00     0.031 A 
ATOM     41  C   UNL A   1      38.746  31.031  30.406  1.00  0.00     0.074 A 
ATOM     42  C   UNL A   1      38.366  32.645  32.237  1.00  0.00     0.049 A 
ATOM     43  N   UNL A   1      39.722  30.310  30.894  1.00  0.00    -0.248 NA
ATOM     44  C   UNL A   1      38.356  30.676  29.035  1.00  0.00     0.031 C 
ATOM     45  C   UNL A   1      37.721  33.761  32.928  1.00  0.00     0.029 A 
ATOM     46  N   UNL A   1      39.373  32.261  33.084  1.00  0.00    -0.354 N 
ATOM     47  C   UNL A   1      40.042  29.392  29.904  1.00  0.00     0.074 A 
ATOM     48  C   UNL A   1      39.150  29.643  28.791  1.00  0.00     0.031 C 
ATOM     49  C   UNL A   1      38.334  33.960  34.104  1.00  0.00     0.029 A 
ATOM     50  C   UNL A   1      39.368  32.945  34.274  1.00  0.00     0.049 A 
ATOM     51  H   UNL A   1      40.032  31.565  32.862  1.00  0.00     0.167 HD
ATOM     52  C   UNL A   1      40.991  28.427  29.933  1.00  0.00     0.037 A 
ATOM     53  C   UNL A   1      40.078  32.740  35.399  1.00  0.00     0.037 A 
ATOM     54  C   UNL A   1      41.877  28.202  31.046  1.00  0.00     0.049 A 
ATOM     55  C   UNL A   1      41.078  31.619  35.434  1.00  0.00     0.074 A 
ATOM     56  C   UNL A   1      42.909  27.287  31.159  1.00  0.00     0.029 A 
ATOM     57  N   UNL A   1      41.823  28.895  32.248  1.00  0.00    -0.354 N 
ATOM     58  N   UNL A   1      41.388  30.761  34.493  1.00  0.00    -0.248 NA
ATOM     59  C   UNL A   1      41.817  31.430  36.690  1.00  0.00     0.031 C 
ATOM     60  C   UNL A   1      43.439  27.386  32.451  1.00  0.00     0.029 A 
ATOM     61  C   UNL A   1      42.775  28.398  33.126  1.00  0.00     0.049 A 
ATOM     62  H   UNL A   1      41.202  29.632  32.448  1.00  0.00     0.167 HD
ATOM     63  C   UNL A   1      42.356  29.930  35.037  1.00  0.00     0.074 A 
ATOM     64  C   UNL A   1      42.601  30.405  36.386  1.00  0.00     0.031 C 
ATOM     65  C   UNL A   1      42.985  28.869  34.473  1.00  0.00     0.037 A 
BRANCH  52  66
ATOM     66  C   UNL A   1      41.082  27.512  28.746  1.00  0.00     0.064 A 
ATOM     67  C   UNL A   1      40.217  26.419  28.578  1.00  0.00     0.173 A 
ATOM     68  C   UNL A   1      42.051  27.737  27.756  1.00  0.00     0.173 A 
ATOM     69  F   UNL A   1      39.281  26.151  29.501  1.00  0.00    -0.203 F 
ATOM     70  C   UNL A   1      40.345  25.567  27.484  1.00  0.00     0.198 A 
ATOM     71  C   UNL A   1      42.157  26.900  26.649  1.00  0.00     0.198 A 
ATOM     72  F   UNL A   1      42.901  28.770  27.865  1.00  0.00    -0.203 F 
ATOM     73  F   UNL A   1      39.547  24.495  27.376  1.00  0.00    -0.200 F 
ATOM     74  C   UNL A   1      41.311  25.809  26.519  1.00  0.00     0.200 A 
ATOM     75  F   UNL A   1      43.085  27.143  25.713  1.00  0.00    -0.200 F 
ATOM     76  F   UNL A   1      41.435  24.985  25.470  1.00  0.00    -0.200 F 
ENDBRANCH  52  66
BRANCH  53  77
ATOM     77  C   UNL A   1      39.811  33.586  36.588  1.00  0.00     0.064 A 
ATOM     78  C   UNL A   1      40.420  34.837  36.741  1.00  0.00     0.173 A 
ATOM     79  C   UNL A   1      38.898  33.178  37.575  1.00  0.00     0.173 A 
ATOM     80  F   UNL A   1      41.317  35.259  35.838  1.00  0.00    -0.203 F 
ATOM     81  C   UNL A   1      40.126  35.650  37.835  1.00  0.00     0.198 A 
ATOM     82  C   UNL A   1      38.584  34.002  38.652  1.00  0.00     0.198 A 
ATOM     83  F   UNL A   1      38.288  31.988  37.473  1.00  0.00    -0.203 F 
ATOM     84  F   UNL A   1      40.740  36.832  37.972  1.00  0.00    -0.200 F 
ATOM     85  C   UNL A   1      39.200  35.237  38.782  1.00  0.00     0.200 A 
ATOM     86  F   UNL A   1      37.677  33.605  39.554  1.00  0.00    -0.200 F 
ATOM     87  F   UNL A   1      38.903  36.028  39.822  1.00  0.00    -0.200 F 
ENDBRANCH  53  77
BRANCH  65  88
ATOM     88  C   UNL A   1      43.991  28.144  35.317  1.00  0.00     0.064 A 
ATOM     89  C   UNL A   1      43.624  27.038  36.099  1.00  0.00     0.173 A 
ATOM     90  C   UNL A   1      45.339  28.528  35.311  1.00  0.00     0.173 A 
ATOM     91  F   UNL A   1      42.343  26.644  36.152  1.00  0.00    -0.203 F 
ATOM     92  C   UNL A   1      44.570  26.353  36.857  1.00  0.00     0.198 A 
ATOM     93  C   UNL A   1      46.287  27.824  36.048  1.00  0.00     0.198 A 
ATOM     94  F   UNL A   1      45.739  29.577  34.578  1.00  0.00    -0.203 F 
ATOM     95  F   UNL A   1      44.192  25.323  37.627  1.00  0.00    -0.200 F 
ATOM     96  C   UNL A   1      45.902  26.741  36.823  1.00  0.00     0.200 A 
ATOM     97  F   UNL A   1      47.575  28.192  36.006  1.00  0.00    -0.200 F 
ATOM     98  F   UNL A   1      46.813  26.074  37.545  1.00  0.00    -0.200 F 
ENDBRANCH  65  88
ENDBRANCH  39  40
ENDBRANCH  32  34
ENDBRANCH  31  32
ENDBRANCH  30  31
ENDBRANCH   1  30
TORSDOF 14
ENDMDL
