MODEL 1
REMARK VINA RESULT:     -11.5      0.000      0.000
REMARK SMILES O=C(Cc1ccc(S(=O)(=O)C[C@H]2CCCO2)cc1)OCCOC(=O)c1ccc(-c2c3nc(c(-c4c(F)c(F)c(F)c(F)c4F)c4ccc([nH]4)c(-c4c(F)c(F)c(F)c(F)c4F)c4nc(c(-c5c(F)c(F)c(F)c(F)c5F)c5ccc2[nH]5)C=C4)C=C3)cc1
REMARK SMILES IDX 20 1 19 2 2 3 1 4 3 5 4 6 5 7 18 8 6 9 17 10 7 11 8 12 9 13
REMARK SMILES IDX 10 14 11 15 12 16 13 17 16 18 14 19 15 20 21 21 22 22 23 23
REMARK SMILES IDX 24 24 25 25 26 26 87 27 27 28 86 29 28 30 29 31 30 32 80 33
REMARK SMILES IDX 31 34 85 35 79 36 81 37 32 38 84 39 78 40 77 41 33 43 65 44
REMARK SMILES IDX 45 45 64 46 46 47 49 48 63 49 82 50 47 51 48 52 62 54 83 55
REMARK SMILES IDX 50 56 34 57 35 58 43 59 36 60 37 61 41 62 44 63 38 64 39 65
REMARK SMILES IDX 42 66 40 67 66 68 67 69 75 70 68 71 69 72 73 73 76 74 70 75
REMARK SMILES IDX 71 76 74 77 72 78 51 79 52 80 60 81 53 82 54 83 58 84 61 85
REMARK SMILES IDX 55 86 56 87 59 88 57 89
REMARK H PARENT 81 42 49 53
REMARK Flexibility Score: inf
ROOT
ATOM      1  C   UNL A   1      43.312  20.715  25.815  1.00  0.00     0.274 C 
ENDROOT
BRANCH   1   2
ATOM      2  O   UNL A   1      41.872  20.618  25.841  1.00  0.00    -0.462 OA
BRANCH   2   3
ATOM      3  C   UNL A   1      41.102  20.671  26.954  1.00  0.00     0.310 C 
ATOM      4  O   UNL A   1      40.931  19.661  27.634  1.00  0.00    -0.252 OA
BRANCH   3   5
ATOM      5  C   UNL A   1      40.393  21.960  27.294  1.00  0.00     0.158 C 
BRANCH   5   6
ATOM      6  C   UNL A   1      39.237  22.309  26.395  1.00  0.00    -0.037 A 
ATOM      7  C   UNL A   1      38.647  21.329  25.587  1.00  0.00     0.005 A 
ATOM      8  C   UNL A   1      38.697  23.604  26.408  1.00  0.00     0.005 A 
ATOM      9  C   UNL A   1      37.483  21.610  24.876  1.00  0.00     0.020 A 
ATOM     10  C   UNL A   1      37.535  23.893  25.694  1.00  0.00     0.020 A 
ATOM     11  C   UNL A   1      36.905  22.877  24.975  1.00  0.00     0.067 A 
BRANCH  11  12
ATOM     12  S   UNL A   1      35.336  23.168  24.211  1.00  0.00     0.180 S 
ATOM     13  O   UNL A   1      34.751  24.295  24.916  1.00  0.00    -0.224 OA
ATOM     14  O   UNL A   1      35.561  23.259  22.779  1.00  0.00    -0.224 OA
BRANCH  12  15
ATOM     15  C   UNL A   1      34.300  21.765  24.496  1.00  0.00     0.174 C 
BRANCH  15  16
ATOM     16  C   UNL A   1      32.813  21.862  24.193  1.00  0.00     0.133 C 
ATOM     17  C   UNL A   1      31.806  22.061  25.320  1.00  0.00     0.035 C 
ATOM     18  O   UNL A   1      32.548  22.864  23.194  1.00  0.00    -0.377 OA
ATOM     19  C   UNL A   1      31.047  23.310  24.930  1.00  0.00     0.031 C 
ATOM     20  C   UNL A   1      31.230  23.372  23.433  1.00  0.00     0.160 C 
ENDBRANCH  15  16
ENDBRANCH  12  15
ENDBRANCH  11  12
ENDBRANCH   5   6
ENDBRANCH   3   5
ENDBRANCH   2   3
ENDBRANCH   1   2
BRANCH   1  21
ATOM     21  C   UNL A   1      43.800  21.839  24.900  1.00  0.00     0.275 C 
BRANCH  21  22
ATOM     22  O   UNL A   1      43.054  23.049  25.138  1.00  0.00    -0.458 OA
BRANCH  22  23
ATOM     23  C   UNL A   1      43.793  24.187  25.166  1.00  0.00     0.338 C 
ATOM     24  O   UNL A   1      44.662  24.518  24.390  1.00  0.00    -0.246 OA
BRANCH  23  25
ATOM     25  C   UNL A   1      43.250  25.083  26.215  1.00  0.00     0.060 A 
ATOM     26  C   UNL A   1      43.763  26.385  26.292  1.00  0.00     0.016 A 
ATOM     27  C   UNL A   1      42.244  24.669  27.093  1.00  0.00     0.016 A 
ATOM     28  C   UNL A   1      43.271  27.274  27.249  1.00  0.00     0.010 A 
ATOM     29  C   UNL A   1      41.766  25.557  28.062  1.00  0.00     0.010 A 
ATOM     30  C   UNL A   1      42.284  26.860  28.152  1.00  0.00    -0.014 A 
BRANCH  30  31
ATOM     31  C   UNL A   1      41.846  27.751  29.251  1.00  0.00     0.031 A 
ATOM     32  C   UNL A   1      42.548  27.682  30.576  1.00  0.00     0.074 A 
ATOM     33  C   UNL A   1      40.804  28.586  29.081  1.00  0.00     0.049 A 
ATOM     34  N   UNL A   1      42.278  28.314  31.690  1.00  0.00    -0.248 NA
ATOM     35  C   UNL A   1      43.705  26.777  30.660  1.00  0.00     0.031 C 
ATOM     36  C   UNL A   1      40.054  28.760  27.838  1.00  0.00     0.029 A 
ATOM     37  N   UNL A   1      40.183  29.427  29.971  1.00  0.00    -0.354 N 
ATOM     38  C   UNL A   1      43.232  27.888  32.605  1.00  0.00     0.074 A 
ATOM     39  C   UNL A   1      44.074  26.927  31.924  1.00  0.00     0.031 C 
ATOM     40  C   UNL A   1      39.051  29.630  28.054  1.00  0.00     0.029 A 
ATOM     41  C   UNL A   1      39.076  30.053  29.454  1.00  0.00     0.049 A 
ATOM     42  H   UNL A   1      40.503  29.569  30.891  1.00  0.00     0.167 HD
ATOM     43  C   UNL A   1      43.391  28.269  33.893  1.00  0.00     0.037 A 
ATOM     44  C   UNL A   1      38.170  30.850  30.055  1.00  0.00     0.037 A 
ATOM     45  C   UNL A   1      42.560  29.226  34.572  1.00  0.00     0.049 A 
ATOM     46  C   UNL A   1      38.326  31.191  31.516  1.00  0.00     0.074 A 
ATOM     47  C   UNL A   1      42.693  29.725  35.856  1.00  0.00     0.029 A 
ATOM     48  N   UNL A   1      41.429  29.814  34.028  1.00  0.00    -0.354 N 
ATOM     49  N   UNL A   1      39.274  30.842  32.352  1.00  0.00    -0.248 NA
ATOM     50  C   UNL A   1      37.281  32.033  32.119  1.00  0.00     0.031 C 
ATOM     51  C   UNL A   1      41.611  30.575  36.108  1.00  0.00     0.029 A 
ATOM     52  C   UNL A   1      40.828  30.635  34.967  1.00  0.00     0.049 A 
ATOM     53  H   UNL A   1      41.103  29.669  33.110  1.00  0.00     0.167 HD
ATOM     54  C   UNL A   1      38.952  31.437  33.566  1.00  0.00     0.074 A 
ATOM     55  C   UNL A   1      37.728  32.180  33.358  1.00  0.00     0.031 C 
ATOM     56  C   UNL A   1      39.611  31.370  34.749  1.00  0.00     0.037 A 
BRANCH  43  57
ATOM     57  C   UNL A   1      44.504  27.641  34.672  1.00  0.00     0.064 A 
ATOM     58  C   UNL A   1      44.335  26.414  35.328  1.00  0.00     0.173 A 
ATOM     59  C   UNL A   1      45.773  28.236  34.697  1.00  0.00     0.173 A 
ATOM     60  F   UNL A   1      43.135  25.813  35.339  1.00  0.00    -0.203 F 
ATOM     61  C   UNL A   1      45.400  25.807  35.988  1.00  0.00     0.198 A 
ATOM     62  C   UNL A   1      46.839  27.618  35.342  1.00  0.00     0.198 A 
ATOM     63  F   UNL A   1      45.982  29.410  34.080  1.00  0.00    -0.203 F 
ATOM     64  F   UNL A   1      45.214  24.643  36.627  1.00  0.00    -0.200 F 
ATOM     65  C   UNL A   1      46.652  26.405  35.988  1.00  0.00     0.200 A 
ATOM     66  F   UNL A   1      48.050  28.192  35.335  1.00  0.00    -0.200 F 
ATOM     67  F   UNL A   1      47.679  25.812  36.613  1.00  0.00    -0.200 F 
ENDBRANCH  43  57
BRANCH  44  68
ATOM     68  C   UNL A   1      37.000  31.355  29.291  1.00  0.00     0.064 A 
ATOM     69  C   UNL A   1      36.903  32.704  28.924  1.00  0.00     0.173 A 
ATOM     70  C   UNL A   1      35.932  30.508  28.961  1.00  0.00     0.173 A 
ATOM     71  F   UNL A   1      37.886  33.557  29.243  1.00  0.00    -0.203 F 
ATOM     72  C   UNL A   1      35.768  33.193  28.280  1.00  0.00     0.198 A 
ATOM     73  C   UNL A   1      34.810  30.993  28.292  1.00  0.00     0.198 A 
ATOM     74  F   UNL A   1      35.973  29.210  29.294  1.00  0.00    -0.203 F 
ATOM     75  F   UNL A   1      35.674  34.498  27.992  1.00  0.00    -0.200 F 
ATOM     76  C   UNL A   1      34.723  32.337  27.963  1.00  0.00     0.200 A 
ATOM     77  F   UNL A   1      33.807  30.160  27.981  1.00  0.00    -0.200 F 
ATOM     78  F   UNL A   1      33.628  32.809  27.353  1.00  0.00    -0.200 F 
ENDBRANCH  44  68
BRANCH  56  79
ATOM     79  C   UNL A   1      39.035  32.126  35.910  1.00  0.00     0.064 A 
ATOM     80  C   UNL A   1      38.195  31.500  36.842  1.00  0.00     0.173 A 
ATOM     81  C   UNL A   1      39.373  33.470  36.127  1.00  0.00     0.173 A 
ATOM     82  F   UNL A   1      37.831  30.219  36.670  1.00  0.00    -0.203 F 
ATOM     83  C   UNL A   1      37.706  32.195  37.944  1.00  0.00     0.198 A 
ATOM     84  C   UNL A   1      38.902  34.156  37.243  1.00  0.00     0.198 A 
ATOM     85  F   UNL A   1      40.178  34.111  35.267  1.00  0.00    -0.203 F 
ATOM     86  F   UNL A   1      36.878  31.587  38.805  1.00  0.00    -0.200 F 
ATOM     87  C   UNL A   1      38.065  33.519  38.149  1.00  0.00     0.200 A 
ATOM     88  F   UNL A   1      39.260  35.431  37.445  1.00  0.00    -0.200 F 
ATOM     89  F   UNL A   1      37.603  34.184  39.216  1.00  0.00    -0.200 F 
ENDBRANCH  56  79
ENDBRANCH  30  31
ENDBRANCH  23  25
ENDBRANCH  22  23
ENDBRANCH  21  22
ENDBRANCH   1  21
TORSDOF 15
ENDMDL
MODEL 2
REMARK VINA RESULT:     -11.4      3.555      9.143
REMARK SMILES O=C(Cc1ccc(S(=O)(=O)C[C@H]2CCCO2)cc1)OCCOC(=O)c1ccc(-c2c3nc(c(-c4c(F)c(F)c(F)c(F)c4F)c4ccc([nH]4)c(-c4c(F)c(F)c(F)c(F)c4F)c4nc(c(-c5c(F)c(F)c(F)c(F)c5F)c5ccc2[nH]5)C=C4)C=C3)cc1
REMARK SMILES IDX 20 1 19 2 2 3 1 4 3 5 4 6 5 7 18 8 6 9 17 10 7 11 8 12 9 13
REMARK SMILES IDX 10 14 11 15 12 16 13 17 16 18 14 19 15 20 21 21 22 22 23 23
REMARK SMILES IDX 24 24 25 25 26 26 87 27 27 28 86 29 28 30 29 31 30 32 80 33
REMARK SMILES IDX 31 34 85 35 79 36 81 37 32 38 84 39 78 40 77 41 33 43 65 44
REMARK SMILES IDX 45 45 64 46 46 47 49 48 63 49 82 50 47 51 48 52 62 54 83 55
REMARK SMILES IDX 50 56 34 57 35 58 43 59 36 60 37 61 41 62 44 63 38 64 39 65
REMARK SMILES IDX 42 66 40 67 66 68 67 69 75 70 68 71 69 72 73 73 76 74 70 75
REMARK SMILES IDX 71 76 74 77 72 78 51 79 52 80 60 81 53 82 54 83 58 84 61 85
REMARK SMILES IDX 55 86 56 87 59 88 57 89
REMARK H PARENT 81 42 49 53
REMARK Flexibility Score: inf
ROOT
ATOM      1  C   UNL A   1      31.942  31.908  26.521  1.00  0.00     0.274 C 
ENDROOT
BRANCH   1   2
ATOM      2  O   UNL A   1      32.375  30.698  27.178  1.00  0.00    -0.462 OA
BRANCH   2   3
ATOM      3  C   UNL A   1      33.663  30.322  27.360  1.00  0.00     0.310 C 
ATOM      4  O   UNL A   1      34.561  31.162  27.333  1.00  0.00    -0.252 OA
BRANCH   3   5
ATOM      5  C   UNL A   1      33.983  28.853  27.510  1.00  0.00     0.158 C 
BRANCH   5   6
ATOM      6  C   UNL A   1      33.987  28.067  26.225  1.00  0.00    -0.037 A 
ATOM      7  C   UNL A   1      33.858  26.673  26.248  1.00  0.00     0.005 A 
ATOM      8  C   UNL A   1      34.054  28.731  24.991  1.00  0.00     0.005 A 
ATOM      9  C   UNL A   1      33.703  25.962  25.060  1.00  0.00     0.020 A 
ATOM     10  C   UNL A   1      33.906  28.024  23.798  1.00  0.00     0.020 A 
ATOM     11  C   UNL A   1      33.676  26.649  23.845  1.00  0.00     0.067 A 
BRANCH  11  12
ATOM     12  S   UNL A   1      33.304  25.758  22.362  1.00  0.00     0.180 S 
ATOM     13  O   UNL A   1      33.508  26.695  21.271  1.00  0.00    -0.224 OA
ATOM     14  O   UNL A   1      34.066  24.522  22.396  1.00  0.00    -0.224 OA
BRANCH  12  15
ATOM     15  C   UNL A   1      31.590  25.324  22.380  1.00  0.00     0.174 C 
BRANCH  15  16
ATOM     16  C   UNL A   1      30.551  26.406  22.631  1.00  0.00     0.133 C 
ATOM     17  C   UNL A   1      30.223  26.848  24.052  1.00  0.00     0.035 C 
ATOM     18  O   UNL A   1      30.834  27.590  21.864  1.00  0.00    -0.377 OA
ATOM     19  C   UNL A   1      30.459  28.342  24.046  1.00  0.00     0.031 C 
ATOM     20  C   UNL A   1      30.309  28.709  22.589  1.00  0.00     0.160 C 
ENDBRANCH  15  16
ENDBRANCH  12  15
ENDBRANCH  11  12
ENDBRANCH   5   6
ENDBRANCH   3   5
ENDBRANCH   2   3
ENDBRANCH   1   2
BRANCH   1  21
ATOM     21  C   UNL A   1      31.763  33.068  27.502  1.00  0.00     0.275 C 
BRANCH  21  22
ATOM     22  O   UNL A   1      32.798  34.054  27.319  1.00  0.00    -0.458 OA
BRANCH  22  23
ATOM     23  C   UNL A   1      33.046  34.838  28.399  1.00  0.00     0.338 C 
ATOM     24  O   UNL A   1      32.372  35.757  28.809  1.00  0.00    -0.246 OA
BRANCH  23  25
ATOM     25  C   UNL A   1      34.205  34.282  29.137  1.00  0.00     0.060 A 
ATOM     26  C   UNL A   1      35.476  34.425  28.562  1.00  0.00     0.016 A 
ATOM     27  C   UNL A   1      34.059  33.653  30.377  1.00  0.00     0.016 A 
ATOM     28  C   UNL A   1      36.602  33.937  29.226  1.00  0.00     0.010 A 
ATOM     29  C   UNL A   1      35.188  33.150  31.031  1.00  0.00     0.010 A 
ATOM     30  C   UNL A   1      36.463  33.280  30.455  1.00  0.00    -0.014 A 
BRANCH  30  31
ATOM     31  C   UNL A   1      37.633  32.647  31.108  1.00  0.00     0.031 A 
ATOM     32  C   UNL A   1      38.302  31.480  30.442  1.00  0.00     0.074 A 
ATOM     33  C   UNL A   1      38.068  33.083  32.304  1.00  0.00     0.049 A 
ATOM     34  N   UNL A   1      39.288  30.733  30.873  1.00  0.00    -0.248 NA
ATOM     35  C   UNL A   1      37.791  31.098  29.115  1.00  0.00     0.031 C 
ATOM     36  C   UNL A   1      37.517  34.218  33.041  1.00  0.00     0.029 A 
ATOM     37  N   UNL A   1      39.065  32.602  33.117  1.00  0.00    -0.354 N 
ATOM     38  C   UNL A   1      39.518  29.799  29.872  1.00  0.00     0.074 A 
ATOM     39  C   UNL A   1      38.556  30.056  28.821  1.00  0.00     0.031 C 
ATOM     40  C   UNL A   1      38.162  34.326  34.217  1.00  0.00     0.029 A 
ATOM     41  C   UNL A   1      39.152  33.254  34.322  1.00  0.00     0.049 A 
ATOM     42  H   UNL A   1      39.660  31.861  32.861  1.00  0.00     0.167 HD
ATOM     43  C   UNL A   1      40.450  28.819  29.833  1.00  0.00     0.037 A 
ATOM     44  C   UNL A   1      39.921  32.992  35.397  1.00  0.00     0.037 A 
ATOM     45  C   UNL A   1      41.410  28.562  30.873  1.00  0.00     0.049 A 
ATOM     46  C   UNL A   1      40.894  31.840  35.358  1.00  0.00     0.074 A 
ATOM     47  C   UNL A   1      42.438  27.636  30.886  1.00  0.00     0.029 A 
ATOM     48  N   UNL A   1      41.446  29.221  32.091  1.00  0.00    -0.354 N 
ATOM     49  N   UNL A   1      41.156  31.010  34.378  1.00  0.00    -0.248 NA
ATOM     50  C   UNL A   1      41.675  31.585  36.579  1.00  0.00     0.031 C 
ATOM     51  C   UNL A   1      43.064  27.697  32.135  1.00  0.00     0.029 A 
ATOM     52  C   UNL A   1      42.451  28.689  32.883  1.00  0.00     0.049 A 
ATOM     53  H   UNL A   1      40.848  29.958  32.354  1.00  0.00     0.167 HD
ATOM     54  C   UNL A   1      42.141  30.153  34.854  1.00  0.00     0.074 A 
ATOM     55  C   UNL A   1      42.442  30.570  36.206  1.00  0.00     0.031 C 
ATOM     56  C   UNL A   1      42.741  29.112  34.227  1.00  0.00     0.037 A 
BRANCH  43  57
ATOM     57  C   UNL A   1      40.477  27.931  28.629  1.00  0.00     0.064 A 
ATOM     58  C   UNL A   1      41.224  28.265  27.491  1.00  0.00     0.173 A 
ATOM     59  C   UNL A   1      39.809  26.699  28.645  1.00  0.00     0.173 A 
ATOM     60  F   UNL A   1      41.871  29.439  27.427  1.00  0.00    -0.203 F 
ATOM     61  C   UNL A   1      41.296  27.395  26.407  1.00  0.00     0.198 A 
ATOM     62  C   UNL A   1      39.899  25.824  27.567  1.00  0.00     0.198 A 
ATOM     63  F   UNL A   1      39.085  26.337  29.715  1.00  0.00    -0.203 F 
ATOM     64  F   UNL A   1      41.999  27.740  25.319  1.00  0.00    -0.200 F 
ATOM     65  C   UNL A   1      40.641  26.173  26.448  1.00  0.00     0.200 A 
ATOM     66  F   UNL A   1      39.272  24.640  27.612  1.00  0.00    -0.200 F 
ATOM     67  F   UNL A   1      40.724  25.331  25.409  1.00  0.00    -0.200 F 
ENDBRANCH  43  57
BRANCH  44  68
ATOM     68  C   UNL A   1      39.781  33.809  36.630  1.00  0.00     0.064 A 
ATOM     69  C   UNL A   1      38.933  33.409  37.672  1.00  0.00     0.173 A 
ATOM     70  C   UNL A   1      40.453  35.033  36.767  1.00  0.00     0.173 A 
ATOM     71  F   UNL A   1      38.248  32.261  37.573  1.00  0.00    -0.203 F 
ATOM     72  C   UNL A   1      38.740  34.216  38.792  1.00  0.00     0.198 A 
ATOM     73  C   UNL A   1      40.280  35.826  37.900  1.00  0.00     0.198 A 
ATOM     74  F   UNL A   1      41.273  35.464  35.797  1.00  0.00    -0.203 F 
ATOM     75  F   UNL A   1      37.879  33.839  39.746  1.00  0.00    -0.200 F 
ATOM     76  C   UNL A   1      39.415  35.423  38.906  1.00  0.00     0.200 A 
ATOM     77  F   UNL A   1      40.941  36.986  38.009  1.00  0.00    -0.200 F 
ATOM     78  F   UNL A   1      39.222  36.203  39.977  1.00  0.00    -0.200 F 
ENDBRANCH  44  68
BRANCH  56  79
ATOM     79  C   UNL A   1      43.790  28.354  34.986  1.00  0.00     0.064 A 
ATOM     80  C   UNL A   1      43.470  27.202  35.719  1.00  0.00     0.173 A 
ATOM     81  C   UNL A   1      45.137  28.745  34.929  1.00  0.00     0.173 A 
ATOM     82  F   UNL A   1      42.195  26.797  35.815  1.00  0.00    -0.203 F 
ATOM     83  C   UNL A   1      44.459  26.477  36.379  1.00  0.00     0.198 A 
ATOM     84  C   UNL A   1      46.125  28.004  35.569  1.00  0.00     0.198 A 
ATOM     85  F   UNL A   1      45.494  29.836  34.236  1.00  0.00    -0.203 F 
ATOM     86  F   UNL A   1      44.126  25.398  37.101  1.00  0.00    -0.200 F 
ATOM     87  C   UNL A   1      45.785  26.872  36.297  1.00  0.00     0.200 A 
ATOM     88  F   UNL A   1      47.408  28.381  35.479  1.00  0.00    -0.200 F 
ATOM     89  F   UNL A   1      46.737  26.166  36.922  1.00  0.00    -0.200 F 
ENDBRANCH  56  79
ENDBRANCH  30  31
ENDBRANCH  23  25
ENDBRANCH  22  23
ENDBRANCH  21  22
ENDBRANCH   1  21
TORSDOF 15
ENDMDL
MODEL 3
REMARK VINA RESULT:     -11.4      0.950      7.446
REMARK SMILES O=C(Cc1ccc(S(=O)(=O)C[C@H]2CCCO2)cc1)OCCOC(=O)c1ccc(-c2c3nc(c(-c4c(F)c(F)c(F)c(F)c4F)c4ccc([nH]4)c(-c4c(F)c(F)c(F)c(F)c4F)c4nc(c(-c5c(F)c(F)c(F)c(F)c5F)c5ccc2[nH]5)C=C4)C=C3)cc1
REMARK SMILES IDX 20 1 19 2 2 3 1 4 3 5 4 6 5 7 18 8 6 9 17 10 7 11 8 12 9 13
REMARK SMILES IDX 10 14 11 15 12 16 13 17 16 18 14 19 15 20 21 21 22 22 23 23
REMARK SMILES IDX 24 24 25 25 26 26 87 27 27 28 86 29 28 30 29 31 30 32 80 33
REMARK SMILES IDX 31 34 85 35 79 36 81 37 32 38 84 39 78 40 77 41 33 43 65 44
REMARK SMILES IDX 45 45 64 46 46 47 49 48 63 49 82 50 47 51 48 52 62 54 83 55
REMARK SMILES IDX 50 56 34 57 35 58 43 59 36 60 37 61 41 62 44 63 38 64 39 65
REMARK SMILES IDX 42 66 40 67 66 68 67 69 75 70 68 71 69 72 73 73 76 74 70 75
REMARK SMILES IDX 71 76 74 77 72 78 51 79 52 80 60 81 53 82 54 83 58 84 61 85
REMARK SMILES IDX 55 86 56 87 59 88 57 89
REMARK H PARENT 81 42 49 53
REMARK Flexibility Score: inf
ROOT
ATOM      1  C   UNL A   1      43.944  21.797  25.473  1.00  0.00     0.274 C 
ENDROOT
BRANCH   1   2
ATOM      2  O   UNL A   1      42.623  21.227  25.362  1.00  0.00    -0.462 OA
BRANCH   2   3
ATOM      3  C   UNL A   1      41.843  20.843  26.402  1.00  0.00     0.310 C 
ATOM      4  O   UNL A   1      41.714  19.648  26.666  1.00  0.00    -0.252 OA
BRANCH   3   5
ATOM      5  C   UNL A   1      41.075  21.892  27.169  1.00  0.00     0.158 C 
BRANCH   5   6
ATOM      6  C   UNL A   1      39.748  22.276  26.570  1.00  0.00    -0.037 A 
ATOM      7  C   UNL A   1      39.003  21.342  25.838  1.00  0.00     0.005 A 
ATOM      8  C   UNL A   1      39.215  23.555  26.795  1.00  0.00     0.005 A 
ATOM      9  C   UNL A   1      37.711  21.646  25.419  1.00  0.00     0.020 A 
ATOM     10  C   UNL A   1      37.923  23.867  26.372  1.00  0.00     0.020 A 
ATOM     11  C   UNL A   1      37.159  22.889  25.734  1.00  0.00     0.067 A 
BRANCH  11  12
ATOM     12  S   UNL A   1      35.459  23.198  25.351  1.00  0.00     0.180 S 
ATOM     13  O   UNL A   1      34.736  23.057  26.603  1.00  0.00    -0.224 OA
ATOM     14  O   UNL A   1      35.399  24.455  24.627  1.00  0.00    -0.224 OA
BRANCH  12  15
ATOM     15  C   UNL A   1      34.888  21.930  24.260  1.00  0.00     0.174 C 
BRANCH  15  16
ATOM     16  C   UNL A   1      34.065  20.780  24.820  1.00  0.00     0.133 C 
ATOM     17  C   UNL A   1      32.609  20.600  24.408  1.00  0.00     0.035 C 
ATOM     18  O   UNL A   1      34.730  19.518  24.624  1.00  0.00    -0.377 OA
ATOM     19  C   UNL A   1      32.543  19.191  23.864  1.00  0.00     0.031 C 
ATOM     20  C   UNL A   1      33.716  18.510  24.525  1.00  0.00     0.160 C 
ENDBRANCH  15  16
ENDBRANCH  12  15
ENDBRANCH  11  12
ENDBRANCH   5   6
ENDBRANCH   3   5
ENDBRANCH   2   3
ENDBRANCH   1   2
BRANCH   1  21
ATOM     21  C   UNL A   1      44.237  22.801  24.358  1.00  0.00     0.275 C 
BRANCH  21  22
ATOM     22  O   UNL A   1      43.589  24.060  24.623  1.00  0.00    -0.458 OA
BRANCH  22  23
ATOM     23  C   UNL A   1      44.399  25.037  25.104  1.00  0.00     0.338 C 
ATOM     24  O   UNL A   1      45.437  25.433  24.622  1.00  0.00    -0.246 OA
BRANCH  23  25
ATOM     25  C   UNL A   1      43.726  25.696  26.248  1.00  0.00     0.060 A 
ATOM     26  C   UNL A   1      44.107  27.007  26.564  1.00  0.00     0.016 A 
ATOM     27  C   UNL A   1      42.726  25.056  26.986  1.00  0.00     0.016 A 
ATOM     28  C   UNL A   1      43.490  27.679  27.620  1.00  0.00     0.010 A 
ATOM     29  C   UNL A   1      42.122  25.726  28.054  1.00  0.00     0.010 A 
ATOM     30  C   UNL A   1      42.507  27.037  28.384  1.00  0.00    -0.014 A 
BRANCH  30  31
ATOM     31  C   UNL A   1      41.936  27.692  29.583  1.00  0.00     0.031 A 
ATOM     32  C   UNL A   1      40.688  28.516  29.446  1.00  0.00     0.074 A 
ATOM     33  C   UNL A   1      42.548  27.586  30.777  1.00  0.00     0.049 A 
ATOM     34  N   UNL A   1      40.066  29.234  30.347  1.00  0.00    -0.248 NA
ATOM     35  C   UNL A   1      40.060  28.539  28.116  1.00  0.00     0.031 C 
ATOM     36  C   UNL A   1      43.750  26.800  31.044  1.00  0.00     0.029 A 
ATOM     37  N   UNL A   1      42.248  28.166  31.985  1.00  0.00    -0.354 N 
ATOM     38  C   UNL A   1      38.973  29.789  29.696  1.00  0.00     0.074 A 
ATOM     39  C   UNL A   1      39.027  29.345  28.319  1.00  0.00     0.031 C 
ATOM     40  C   UNL A   1      44.107  26.974  32.329  1.00  0.00     0.029 A 
ATOM     41  C   UNL A   1      43.171  27.901  32.965  1.00  0.00     0.049 A 
ATOM     42  H   UNL A   1      41.447  28.719  32.133  1.00  0.00     0.167 HD
ATOM     43  C   UNL A   1      38.010  30.593  30.204  1.00  0.00     0.037 A 
ATOM     44  C   UNL A   1      43.265  28.379  34.222  1.00  0.00     0.037 A 
ATOM     45  C   UNL A   1      37.950  31.033  31.571  1.00  0.00     0.049 A 
ATOM     46  C   UNL A   1      42.222  29.341  34.736  1.00  0.00     0.074 A 
ATOM     47  C   UNL A   1      36.971  31.790  32.190  1.00  0.00     0.029 A 
ATOM     48  N   UNL A   1      38.920  30.772  32.526  1.00  0.00    -0.354 N 
ATOM     49  N   UNL A   1      41.152  29.801  34.135  1.00  0.00    -0.248 NA
ATOM     50  C   UNL A   1      42.406  29.856  36.102  1.00  0.00     0.031 C 
ATOM     51  C   UNL A   1      37.375  32.033  33.507  1.00  0.00     0.029 A 
ATOM     52  C   UNL A   1      38.584  31.393  33.718  1.00  0.00     0.049 A 
ATOM     53  H   UNL A   1      39.726  30.226  32.379  1.00  0.00     0.167 HD
ATOM     54  C   UNL A   1      40.527  30.636  35.053  1.00  0.00     0.074 A 
ATOM     55  C   UNL A   1      41.328  30.612  36.257  1.00  0.00     0.031 C 
ATOM     56  C   UNL A   1      39.390  31.362  34.910  1.00  0.00     0.037 A 
BRANCH  43  57
ATOM     57  C   UNL A   1      36.938  31.068  29.274  1.00  0.00     0.064 A 
ATOM     58  C   UNL A   1      35.879  30.233  28.892  1.00  0.00     0.173 A 
ATOM     59  C   UNL A   1      36.932  32.395  28.823  1.00  0.00     0.173 A 
ATOM     60  F   UNL A   1      35.850  28.953  29.292  1.00  0.00    -0.203 F 
ATOM     61  C   UNL A   1      34.852  30.712  28.084  1.00  0.00     0.198 A 
ATOM     62  C   UNL A   1      35.894  32.875  28.031  1.00  0.00     0.198 A 
ATOM     63  F   UNL A   1      37.924  33.231  29.167  1.00  0.00    -0.203 F 
ATOM     64  F   UNL A   1      33.858  29.894  27.712  1.00  0.00    -0.200 F 
ATOM     65  C   UNL A   1      34.856  32.033  27.660  1.00  0.00     0.200 A 
ATOM     66  F   UNL A   1      35.895  34.154  27.629  1.00  0.00    -0.200 F 
ATOM     67  F   UNL A   1      33.858  32.496  26.894  1.00  0.00    -0.200 F 
ENDBRANCH  43  57
BRANCH  44  68
ATOM     68  C   UNL A   1      44.413  27.994  35.082  1.00  0.00     0.064 A 
ATOM     69  C   UNL A   1      44.335  26.889  35.942  1.00  0.00     0.173 A 
ATOM     70  C   UNL A   1      45.591  28.754  35.100  1.00  0.00     0.173 A 
ATOM     71  F   UNL A   1      43.218  26.149  35.981  1.00  0.00    -0.203 F 
ATOM     72  C   UNL A   1      45.382  26.577  36.808  1.00  0.00     0.198 A 
ATOM     73  C   UNL A   1      46.648  28.425  35.946  1.00  0.00     0.198 A 
ATOM     74  F   UNL A   1      45.715  29.824  34.300  1.00  0.00    -0.203 F 
ATOM     75  F   UNL A   1      45.259  25.552  37.661  1.00  0.00    -0.200 F 
ATOM     76  C   UNL A   1      46.538  27.344  36.807  1.00  0.00     0.200 A 
ATOM     77  F   UNL A   1      47.766  29.163  35.936  1.00  0.00    -0.200 F 
ATOM     78  F   UNL A   1      47.540  27.051  37.646  1.00  0.00    -0.200 F 
ENDBRANCH  44  68
BRANCH  56  79
ATOM     79  C   UNL A   1      38.935  32.181  36.081  1.00  0.00     0.064 A 
ATOM     80  C   UNL A   1      38.147  31.622  37.099  1.00  0.00     0.173 A 
ATOM     81  C   UNL A   1      39.341  33.516  36.221  1.00  0.00     0.173 A 
ATOM     82  F   UNL A   1      37.722  30.353  37.003  1.00  0.00    -0.203 F 
ATOM     83  C   UNL A   1      37.772  32.376  38.207  1.00  0.00     0.198 A 
ATOM     84  C   UNL A   1      38.984  34.259  37.343  1.00  0.00     0.198 A 
ATOM     85  F   UNL A   1      40.100  34.094  35.279  1.00  0.00    -0.203 F 
ATOM     86  F   UNL A   1      36.992  31.832  39.151  1.00  0.00    -0.200 F 
ATOM     87  C   UNL A   1      38.197  33.690  38.333  1.00  0.00     0.200 A 
ATOM     88  F   UNL A   1      39.406  35.525  37.469  1.00  0.00    -0.200 F 
ATOM     89  F   UNL A   1      37.845  34.409  39.407  1.00  0.00    -0.200 F 
ENDBRANCH  56  79
ENDBRANCH  30  31
ENDBRANCH  23  25
ENDBRANCH  22  23
ENDBRANCH  21  22
ENDBRANCH   1  21
TORSDOF 15
ENDMDL
