MODEL 1
REMARK VINA RESULT:     -11.8      0.000      0.000
REMARK SMILES O=C(OCCOC(=O)[C@@H]1CSCN1C(=O)c1cccc(Cl)c1)c1ccc(-c2c3nc(c(-c4c(F)c(F)c(F)c(F)c4F)c4ccc([nH]4)c(-c4c(F)c(F)c(F)c(F)c4F)c4nc(c(-c5c(F)c(F)c(F)c(F)c5F)c5ccc2[nH]5)C=C4)C=C3)cc1
REMARK SMILES IDX 4 1 3 2 2 3 1 4 23 5 24 6 85 7 25 8 84 9 26 10 27 11 28 12
REMARK SMILES IDX 78 13 29 14 83 15 77 16 79 17 30 18 82 19 76 20 75 21 31 23
REMARK SMILES IDX 63 24 43 25 62 26 44 27 47 28 61 29 80 30 45 31 46 32 60 34
REMARK SMILES IDX 81 35 48 36 32 37 33 38 41 39 34 40 35 41 39 42 42 43 36 44
REMARK SMILES IDX 37 45 40 46 38 47 64 48 65 49 73 50 66 51 67 52 71 53 74 54
REMARK SMILES IDX 68 55 69 56 72 57 70 58 49 59 50 60 58 61 51 62 52 63 56 64
REMARK SMILES IDX 59 65 53 66 54 67 57 68 55 69 5 70 6 71 7 72 8 73 9 74 10 75
REMARK SMILES IDX 13 76 11 77 12 78 14 79 15 80 16 81 17 82 22 83 18 84 20 85
REMARK SMILES IDX 19 86 21 87
REMARK H PARENT 79 22 47 33
REMARK Flexibility Score: inf
ROOT
ATOM      1  C   UNL A   1      31.785  30.606  25.833  1.00  0.00     0.275 C 
ENDROOT
BRANCH   1   2
ATOM      2  O   UNL A   1      32.314  30.929  27.142  1.00  0.00    -0.458 OA
BRANCH   2   3
ATOM      3  C   UNL A   1      33.209  31.854  27.573  1.00  0.00     0.338 C 
ATOM      4  O   UNL A   1      32.890  33.040  27.539  1.00  0.00    -0.246 OA
BRANCH   3   5
ATOM      5  C   UNL A   1      34.643  31.553  27.883  1.00  0.00     0.060 A 
ATOM      6  C   UNL A   1      35.672  32.478  27.925  1.00  0.00     0.016 A 
ATOM      7  C   UNL A   1      34.988  30.200  28.112  1.00  0.00     0.016 A 
ATOM      8  C   UNL A   1      36.952  32.092  28.370  1.00  0.00     0.010 A 
ATOM      9  C   UNL A   1      36.276  29.811  28.546  1.00  0.00     0.010 A 
ATOM     10  C   UNL A   1      37.259  30.773  28.763  1.00  0.00    -0.014 A 
BRANCH  10  11
ATOM     11  C   UNL A   1      38.637  30.504  29.305  1.00  0.00     0.031 A 
ATOM     12  C   UNL A   1      38.885  30.925  30.726  1.00  0.00     0.074 A 
ATOM     13  C   UNL A   1      39.556  29.726  28.685  1.00  0.00     0.049 A 
ATOM     14  N   UNL A   1      39.708  30.437  31.617  1.00  0.00    -0.248 NA
ATOM     15  C   UNL A   1      38.012  32.002  31.223  1.00  0.00     0.031 C 
ATOM     16  C   UNL A   1      39.429  29.167  27.340  1.00  0.00     0.029 A 
ATOM     17  N   UNL A   1      40.723  29.139  29.169  1.00  0.00    -0.354 N 
ATOM     18  C   UNL A   1      39.411  31.112  32.793  1.00  0.00     0.074 A 
ATOM     19  C   UNL A   1      38.315  32.014  32.510  1.00  0.00     0.031 C 
ATOM     20  C   UNL A   1      40.378  28.226  27.158  1.00  0.00     0.029 A 
ATOM     21  C   UNL A   1      41.195  28.104  28.372  1.00  0.00     0.049 A 
ATOM     22  H   UNL A   1      41.170  29.430  29.998  1.00  0.00     0.167 HD
ATOM     23  C   UNL A   1      40.014  31.025  33.999  1.00  0.00     0.037 A 
ATOM     24  C   UNL A   1      42.081  27.111  28.642  1.00  0.00     0.037 A 
ATOM     25  C   UNL A   1      41.179  30.238  34.272  1.00  0.00     0.049 A 
ATOM     26  C   UNL A   1      42.822  27.124  29.970  1.00  0.00     0.074 A 
ATOM     27  C   UNL A   1      41.947  30.204  35.421  1.00  0.00     0.029 A 
ATOM     28  N   UNL A   1      41.771  29.380  33.362  1.00  0.00    -0.354 N 
ATOM     29  N   UNL A   1      42.540  27.761  31.080  1.00  0.00    -0.248 NA
ATOM     30  C   UNL A   1      44.033  26.286  30.059  1.00  0.00     0.031 C 
ATOM     31  C   UNL A   1      43.041  29.365  35.185  1.00  0.00     0.029 A 
ATOM     32  C   UNL A   1      42.917  28.831  33.912  1.00  0.00     0.049 A 
ATOM     33  H   UNL A   1      41.428  29.189  32.459  1.00  0.00     0.167 HD
ATOM     34  C   UNL A   1      43.547  27.421  31.983  1.00  0.00     0.074 A 
ATOM     35  C   UNL A   1      44.396  26.455  31.323  1.00  0.00     0.031 C 
ATOM     36  C   UNL A   1      43.773  27.893  33.234  1.00  0.00     0.037 A 
BRANCH  23  37
ATOM     37  C   UNL A   1      39.483  31.926  35.067  1.00  0.00     0.064 A 
ATOM     38  C   UNL A   1      39.908  33.256  35.186  1.00  0.00     0.173 A 
ATOM     39  C   UNL A   1      38.591  31.421  36.021  1.00  0.00     0.173 A 
ATOM     40  F   UNL A   1      40.791  33.766  34.314  1.00  0.00    -0.203 F 
ATOM     41  C   UNL A   1      39.472  34.045  36.247  1.00  0.00     0.198 A 
ATOM     42  C   UNL A   1      38.144  32.217  37.069  1.00  0.00     0.198 A 
ATOM     43  F   UNL A   1      38.176  30.146  35.950  1.00  0.00    -0.203 F 
ATOM     44  F   UNL A   1      39.928  35.298  36.380  1.00  0.00    -0.200 F 
ATOM     45  C   UNL A   1      38.591  33.525  37.186  1.00  0.00     0.200 A 
ATOM     46  F   UNL A   1      37.302  31.711  37.979  1.00  0.00    -0.200 F 
ATOM     47  F   UNL A   1      38.187  34.279  38.217  1.00  0.00    -0.200 F 
ENDBRANCH  23  37
BRANCH  24  48
ATOM     48  C   UNL A   1      42.326  25.950  27.708  1.00  0.00     0.064 A 
ATOM     49  C   UNL A   1      43.310  26.031  26.699  1.00  0.00     0.173 A 
ATOM     50  C   UNL A   1      41.534  24.793  27.712  1.00  0.00     0.173 A 
ATOM     51  F   UNL A   1      44.094  27.116  26.611  1.00  0.00    -0.203 F 
ATOM     52  C   UNL A   1      43.454  25.038  25.725  1.00  0.00     0.198 A 
ATOM     53  C   UNL A   1      41.715  23.775  26.771  1.00  0.00     0.198 A 
ATOM     54  F   UNL A   1      40.556  24.652  28.618  1.00  0.00    -0.203 F 
ATOM     55  F   UNL A   1      44.336  25.198  24.729  1.00  0.00    -0.200 F 
ATOM     56  C   UNL A   1      42.661  23.906  25.767  1.00  0.00     0.200 A 
ATOM     57  F   UNL A   1      40.950  22.676  26.823  1.00  0.00    -0.200 F 
ATOM     58  F   UNL A   1      42.792  22.954  24.832  1.00  0.00    -0.200 F 
ENDBRANCH  24  48
BRANCH  36  59
ATOM     59  C   UNL A   1      45.017  27.445  33.953  1.00  0.00     0.064 A 
ATOM     60  C   UNL A   1      45.020  26.282  34.739  1.00  0.00     0.173 A 
ATOM     61  C   UNL A   1      46.240  28.112  33.771  1.00  0.00     0.173 A 
ATOM     62  F   UNL A   1      43.879  25.609  34.951  1.00  0.00    -0.203 F 
ATOM     63  C   UNL A   1      46.193  25.809  35.322  1.00  0.00     0.198 A 
ATOM     64  C   UNL A   1      47.417  27.619  34.330  1.00  0.00     0.198 A 
ATOM     65  F   UNL A   1      46.300  29.223  33.021  1.00  0.00    -0.203 F 
ATOM     66  F   UNL A   1      46.162  24.712  36.091  1.00  0.00    -0.200 F 
ATOM     67  C   UNL A   1      47.393  26.471  35.107  1.00  0.00     0.200 A 
ATOM     68  F   UNL A   1      48.579  28.246  34.103  1.00  0.00    -0.200 F 
ATOM     69  F   UNL A   1      48.525  25.999  35.647  1.00  0.00    -0.200 F 
ENDBRANCH  36  59
ENDBRANCH  10  11
ENDBRANCH   3   5
ENDBRANCH   2   3
ENDBRANCH   1   2
BRANCH   1  70
ATOM     70  C   UNL A   1      31.793  29.097  25.557  1.00  0.00     0.274 C 
BRANCH  70  71
ATOM     71  O   UNL A   1      32.821  28.728  24.624  1.00  0.00    -0.461 OA
BRANCH  71  72
ATOM     72  C   UNL A   1      33.570  27.639  24.938  1.00  0.00     0.329 C 
ATOM     73  O   UNL A   1      34.041  27.441  26.064  1.00  0.00    -0.250 OA
BRANCH  72  74
ATOM     74  C   UNL A   1      33.594  26.577  23.819  1.00  0.00     0.206 C 
ATOM     75  C   UNL A   1      33.278  27.227  22.475  1.00  0.00     0.108 C 
ATOM     76  N   UNL A   1      32.803  25.336  24.011  1.00  0.00    -0.315 N 
ATOM     77  S   UNL A   1      32.302  26.019  21.544  1.00  0.00    -0.138 SA
ATOM     78  C   UNL A   1      31.797  25.088  23.009  1.00  0.00     0.191 C 
BRANCH  76  79
ATOM     79  C   UNL A   1      33.262  24.442  24.943  1.00  0.00     0.255 C 
ATOM     80  O   UNL A   1      32.612  24.243  25.986  1.00  0.00    -0.269 OA
BRANCH  79  81
ATOM     81  C   UNL A   1      34.454  23.591  24.875  1.00  0.00     0.041 A 
ATOM     82  C   UNL A   1      34.818  23.051  23.642  1.00  0.00     0.014 A 
ATOM     83  C   UNL A   1      35.464  23.895  25.790  1.00  0.00     0.034 A 
ATOM     84  C   UNL A   1      36.156  22.845  23.290  1.00  0.00     0.002 A 
ATOM     85  C   UNL A   1      36.803  23.681  25.450  1.00  0.00     0.041 A 
ATOM     86  C   UNL A   1      37.154  23.171  24.200  1.00  0.00     0.020 A 
ATOM     87  Cl  UNL A   1      38.037  24.171  26.541  1.00  0.00    -0.084 Cl
ENDBRANCH  79  81
ENDBRANCH  76  79
ENDBRANCH  72  74
ENDBRANCH  71  72
ENDBRANCH  70  71
ENDBRANCH   1  70
TORSDOF 13
ENDMDL
MODEL 2
REMARK VINA RESULT:     -11.7      1.890      3.207
REMARK SMILES O=C(OCCOC(=O)[C@@H]1CSCN1C(=O)c1cccc(Cl)c1)c1ccc(-c2c3nc(c(-c4c(F)c(F)c(F)c(F)c4F)c4ccc([nH]4)c(-c4c(F)c(F)c(F)c(F)c4F)c4nc(c(-c5c(F)c(F)c(F)c(F)c5F)c5ccc2[nH]5)C=C4)C=C3)cc1
REMARK SMILES IDX 4 1 3 2 2 3 1 4 23 5 24 6 85 7 25 8 84 9 26 10 27 11 28 12
REMARK SMILES IDX 78 13 29 14 83 15 77 16 79 17 30 18 82 19 76 20 75 21 31 23
REMARK SMILES IDX 63 24 43 25 62 26 44 27 47 28 61 29 80 30 45 31 46 32 60 34
REMARK SMILES IDX 81 35 48 36 32 37 33 38 41 39 34 40 35 41 39 42 42 43 36 44
REMARK SMILES IDX 37 45 40 46 38 47 64 48 65 49 73 50 66 51 67 52 71 53 74 54
REMARK SMILES IDX 68 55 69 56 72 57 70 58 49 59 50 60 58 61 51 62 52 63 56 64
REMARK SMILES IDX 59 65 53 66 54 67 57 68 55 69 5 70 6 71 7 72 8 73 9 74 10 75
REMARK SMILES IDX 13 76 11 77 12 78 14 79 15 80 16 81 17 82 22 83 18 84 20 85
REMARK SMILES IDX 19 86 21 87
REMARK H PARENT 79 22 47 33
REMARK Flexibility Score: inf
ROOT
ATOM      1  C   UNL A   1      33.010  28.940  25.559  1.00  0.00     0.275 C 
ENDROOT
BRANCH   1   2
ATOM      2  O   UNL A   1      32.800  30.330  25.909  1.00  0.00    -0.458 OA
BRANCH   2   3
ATOM      3  C   UNL A   1      33.175  31.081  26.975  1.00  0.00     0.338 C 
ATOM      4  O   UNL A   1      32.518  32.082  27.250  1.00  0.00    -0.246 OA
BRANCH   3   5
ATOM      5  C   UNL A   1      34.465  30.902  27.714  1.00  0.00     0.060 A 
ATOM      6  C   UNL A   1      34.865  29.754  28.376  1.00  0.00     0.016 A 
ATOM      7  C   UNL A   1      35.337  32.015  27.779  1.00  0.00     0.016 A 
ATOM      8  C   UNL A   1      36.165  29.664  28.913  1.00  0.00     0.010 A 
ATOM      9  C   UNL A   1      36.637  31.928  28.328  1.00  0.00     0.010 A 
ATOM     10  C   UNL A   1      37.101  30.715  28.831  1.00  0.00    -0.014 A 
BRANCH  10  11
ATOM     11  C   UNL A   1      38.487  30.466  29.361  1.00  0.00     0.031 A 
ATOM     12  C   UNL A   1      38.741  30.890  30.781  1.00  0.00     0.074 A 
ATOM     13  C   UNL A   1      39.412  29.701  28.733  1.00  0.00     0.049 A 
ATOM     14  N   UNL A   1      39.578  30.413  31.664  1.00  0.00    -0.248 NA
ATOM     15  C   UNL A   1      37.857  31.954  31.285  1.00  0.00     0.031 C 
ATOM     16  C   UNL A   1      39.281  29.141  27.388  1.00  0.00     0.029 A 
ATOM     17  N   UNL A   1      40.591  29.131  29.207  1.00  0.00    -0.354 N 
ATOM     18  C   UNL A   1      39.281  31.083  32.843  1.00  0.00     0.074 A 
ATOM     19  C   UNL A   1      38.171  31.970  32.569  1.00  0.00     0.031 C 
ATOM     20  C   UNL A   1      40.243  28.214  27.198  1.00  0.00     0.029 A 
ATOM     21  C   UNL A   1      41.071  28.103  28.406  1.00  0.00     0.049 A 
ATOM     22  H   UNL A   1      41.041  29.428  30.032  1.00  0.00     0.167 HD
ATOM     23  C   UNL A   1      39.896  31.005  34.044  1.00  0.00     0.037 A 
ATOM     24  C   UNL A   1      41.974  27.122  28.667  1.00  0.00     0.037 A 
ATOM     25  C   UNL A   1      41.075  30.235  34.307  1.00  0.00     0.049 A 
ATOM     26  C   UNL A   1      42.725  27.146  29.989  1.00  0.00     0.074 A 
ATOM     27  C   UNL A   1      41.853  30.211  35.449  1.00  0.00     0.029 A 
ATOM     28  N   UNL A   1      41.671  29.385  33.391  1.00  0.00    -0.354 N 
ATOM     29  N   UNL A   1      42.444  27.778  31.102  1.00  0.00    -0.248 NA
ATOM     30  C   UNL A   1      43.949  26.326  30.067  1.00  0.00     0.031 C 
ATOM     31  C   UNL A   1      42.957  29.388  35.203  1.00  0.00     0.029 A 
ATOM     32  C   UNL A   1      42.829  28.852  33.931  1.00  0.00     0.049 A 
ATOM     33  H   UNL A   1      41.323  29.189  32.491  1.00  0.00     0.167 HD
ATOM     34  C   UNL A   1      43.463  27.452  31.996  1.00  0.00     0.074 A 
ATOM     35  C   UNL A   1      44.320  26.499  31.328  1.00  0.00     0.031 C 
ATOM     36  C   UNL A   1      43.693  27.927  33.246  1.00  0.00     0.037 A 
BRANCH  23  37
ATOM     37  C   UNL A   1      39.361  31.898  35.116  1.00  0.00     0.064 A 
ATOM     38  C   UNL A   1      39.735  33.245  35.207  1.00  0.00     0.173 A 
ATOM     39  C   UNL A   1      38.519  31.370  36.103  1.00  0.00     0.173 A 
ATOM     40  F   UNL A   1      40.570  33.778  34.302  1.00  0.00    -0.203 F 
ATOM     41  C   UNL A   1      39.299  34.029  36.270  1.00  0.00     0.198 A 
ATOM     42  C   UNL A   1      38.072  32.161  37.155  1.00  0.00     0.198 A 
ATOM     43  F   UNL A   1      38.155  30.079  36.060  1.00  0.00    -0.203 F 
ATOM     44  F   UNL A   1      39.708  35.302  36.375  1.00  0.00    -0.200 F 
ATOM     45  C   UNL A   1      38.469  33.487  37.242  1.00  0.00     0.200 A 
ATOM     46  F   UNL A   1      37.279  31.633  38.096  1.00  0.00    -0.200 F 
ATOM     47  F   UNL A   1      38.066  34.238  38.276  1.00  0.00    -0.200 F 
ENDBRANCH  23  37
BRANCH  24  48
ATOM     48  C   UNL A   1      42.228  25.966  27.731  1.00  0.00     0.064 A 
ATOM     49  C   UNL A   1      43.182  26.071  26.696  1.00  0.00     0.173 A 
ATOM     50  C   UNL A   1      41.470  24.787  27.759  1.00  0.00     0.173 A 
ATOM     51  F   UNL A   1      43.933  27.178  26.585  1.00  0.00    -0.203 F 
ATOM     52  C   UNL A   1      43.329  25.079  25.722  1.00  0.00     0.198 A 
ATOM     53  C   UNL A   1      41.655  23.771  26.816  1.00  0.00     0.198 A 
ATOM     54  F   UNL A   1      40.519  24.621  28.690  1.00  0.00    -0.203 F 
ATOM     55  F   UNL A   1      44.181  25.260  24.703  1.00  0.00    -0.200 F 
ATOM     56  C   UNL A   1      42.570  23.925  25.788  1.00  0.00     0.200 A 
ATOM     57  F   UNL A   1      40.923  22.650  26.892  1.00  0.00    -0.200 F 
ATOM     58  F   UNL A   1      42.704  22.973  24.853  1.00  0.00    -0.200 F 
ENDBRANCH  24  48
BRANCH  36  59
ATOM     59  C   UNL A   1      44.950  27.497  33.954  1.00  0.00     0.064 A 
ATOM     60  C   UNL A   1      44.976  26.332  34.736  1.00  0.00     0.173 A 
ATOM     61  C   UNL A   1      46.160  28.183  33.764  1.00  0.00     0.173 A 
ATOM     62  F   UNL A   1      43.848  25.640  34.955  1.00  0.00    -0.203 F 
ATOM     63  C   UNL A   1      46.161  25.876  35.310  1.00  0.00     0.198 A 
ATOM     64  C   UNL A   1      47.349  27.707  34.313  1.00  0.00     0.198 A 
ATOM     65  F   UNL A   1      46.197  29.297  33.017  1.00  0.00    -0.203 F 
ATOM     66  F   UNL A   1      46.153  24.777  36.075  1.00  0.00    -0.200 F 
ATOM     67  C   UNL A   1      47.348  26.557  35.087  1.00  0.00     0.200 A 
ATOM     68  F   UNL A   1      48.499  28.354  34.079  1.00  0.00    -0.200 F 
ATOM     69  F   UNL A   1      48.492  26.102  35.617  1.00  0.00    -0.200 F 
ENDBRANCH  36  59
ENDBRANCH  10  11
ENDBRANCH   3   5
ENDBRANCH   2   3
ENDBRANCH   1   2
BRANCH   1  70
ATOM     70  C   UNL A   1      32.155  27.990  26.408  1.00  0.00     0.274 C 
BRANCH  70  71
ATOM     71  O   UNL A   1      32.406  26.613  26.088  1.00  0.00    -0.461 OA
BRANCH  71  72
ATOM     72  C   UNL A   1      31.333  25.863  25.725  1.00  0.00     0.329 C 
ATOM     73  O   UNL A   1      30.436  25.538  26.512  1.00  0.00    -0.250 OA
BRANCH  72  74
ATOM     74  C   UNL A   1      31.235  25.643  24.201  1.00  0.00     0.206 C 
ATOM     75  C   UNL A   1      32.447  24.860  23.707  1.00  0.00     0.108 C 
ATOM     76  N   UNL A   1      30.970  26.820  23.337  1.00  0.00    -0.315 N 
ATOM     77  S   UNL A   1      32.852  25.529  22.074  1.00  0.00    -0.138 SA
ATOM     78  C   UNL A   1      31.976  27.088  22.340  1.00  0.00     0.191 C 
BRANCH  76  79
ATOM     79  C   UNL A   1      29.714  27.366  23.393  1.00  0.00     0.255 C 
ATOM     80  O   UNL A   1      28.772  26.708  23.873  1.00  0.00    -0.269 OA
BRANCH  79  81
ATOM     81  C   UNL A   1      29.290  28.711  22.993  1.00  0.00     0.041 A 
ATOM     82  C   UNL A   1      27.967  28.902  22.594  1.00  0.00     0.014 A 
ATOM     83  C   UNL A   1      29.948  29.764  23.631  1.00  0.00     0.034 A 
ATOM     84  C   UNL A   1      27.282  30.094  22.848  1.00  0.00     0.002 A 
ATOM     85  C   UNL A   1      29.273  30.963  23.877  1.00  0.00     0.041 A 
ATOM     86  C   UNL A   1      27.940  31.128  23.501  1.00  0.00     0.020 A 
ATOM     87  Cl  UNL A   1      30.061  32.205  24.767  1.00  0.00    -0.084 Cl
ENDBRANCH  79  81
ENDBRANCH  76  79
ENDBRANCH  72  74
ENDBRANCH  71  72
ENDBRANCH  70  71
ENDBRANCH   1  70
TORSDOF 13
ENDMDL
MODEL 3
REMARK VINA RESULT:     -11.6      1.908      3.493
REMARK SMILES O=C(OCCOC(=O)[C@@H]1CSCN1C(=O)c1cccc(Cl)c1)c1ccc(-c2c3nc(c(-c4c(F)c(F)c(F)c(F)c4F)c4ccc([nH]4)c(-c4c(F)c(F)c(F)c(F)c4F)c4nc(c(-c5c(F)c(F)c(F)c(F)c5F)c5ccc2[nH]5)C=C4)C=C3)cc1
REMARK SMILES IDX 4 1 3 2 2 3 1 4 23 5 24 6 85 7 25 8 84 9 26 10 27 11 28 12
REMARK SMILES IDX 78 13 29 14 83 15 77 16 79 17 30 18 82 19 76 20 75 21 31 23
REMARK SMILES IDX 63 24 43 25 62 26 44 27 47 28 61 29 80 30 45 31 46 32 60 34
REMARK SMILES IDX 81 35 48 36 32 37 33 38 41 39 34 40 35 41 39 42 42 43 36 44
REMARK SMILES IDX 37 45 40 46 38 47 64 48 65 49 73 50 66 51 67 52 71 53 74 54
REMARK SMILES IDX 68 55 69 56 72 57 70 58 49 59 50 60 58 61 51 62 52 63 56 64
REMARK SMILES IDX 59 65 53 66 54 67 57 68 55 69 5 70 6 71 7 72 8 73 9 74 10 75
REMARK SMILES IDX 13 76 11 77 12 78 14 79 15 80 16 81 17 82 22 83 18 84 20 85
REMARK SMILES IDX 19 86 21 87
REMARK H PARENT 79 22 47 33
REMARK Flexibility Score: inf
ROOT
ATOM      1  C   UNL A   1      32.106  30.490  26.150  1.00  0.00     0.275 C 
ENDROOT
BRANCH   1   2
ATOM      2  O   UNL A   1      32.431  31.152  27.397  1.00  0.00    -0.458 OA
BRANCH   2   3
ATOM      3  C   UNL A   1      33.386  32.051  27.744  1.00  0.00     0.338 C 
ATOM      4  O   UNL A   1      33.119  33.249  27.672  1.00  0.00    -0.246 OA
BRANCH   3   5
ATOM      5  C   UNL A   1      34.818  31.697  27.999  1.00  0.00     0.060 A 
ATOM      6  C   UNL A   1      35.876  32.589  28.044  1.00  0.00     0.016 A 
ATOM      7  C   UNL A   1      35.129  30.327  28.167  1.00  0.00     0.016 A 
ATOM      8  C   UNL A   1      37.156  32.149  28.436  1.00  0.00     0.010 A 
ATOM      9  C   UNL A   1      36.416  29.883  28.548  1.00  0.00     0.010 A 
ATOM     10  C   UNL A   1      37.434  30.808  28.770  1.00  0.00    -0.014 A 
BRANCH  10  11
ATOM     11  C   UNL A   1      38.818  30.478  29.260  1.00  0.00     0.031 A 
ATOM     12  C   UNL A   1      39.126  30.856  30.682  1.00  0.00     0.074 A 
ATOM     13  C   UNL A   1      39.688  29.683  28.593  1.00  0.00     0.049 A 
ATOM     14  N   UNL A   1      39.960  30.319  31.533  1.00  0.00    -0.248 NA
ATOM     15  C   UNL A   1      38.310  31.952  31.231  1.00  0.00     0.031 C 
ATOM     16  C   UNL A   1      39.498  29.161  27.241  1.00  0.00     0.029 A 
ATOM     17  N   UNL A   1      40.848  29.044  29.025  1.00  0.00    -0.354 N 
ATOM     18  C   UNL A   1      39.726  30.976  32.734  1.00  0.00     0.074 A 
ATOM     19  C   UNL A   1      38.654  31.923  32.507  1.00  0.00     0.031 C 
ATOM     20  C   UNL A   1      40.406  28.191  27.006  1.00  0.00     0.029 A 
ATOM     21  C   UNL A   1      41.257  28.013  28.190  1.00  0.00     0.049 A 
ATOM     22  H   UNL A   1      41.332  29.299  29.845  1.00  0.00     0.167 HD
ATOM     23  C   UNL A   1      40.364  30.840  33.917  1.00  0.00     0.037 A 
ATOM     24  C   UNL A   1      42.115  26.982  28.407  1.00  0.00     0.037 A 
ATOM     25  C   UNL A   1      41.509  30.007  34.133  1.00  0.00     0.049 A 
ATOM     26  C   UNL A   1      42.898  26.939  29.710  1.00  0.00     0.074 A 
ATOM     27  C   UNL A   1      42.312  29.918  35.255  1.00  0.00     0.029 A 
ATOM     28  N   UNL A   1      42.039  29.149  33.185  1.00  0.00    -0.354 N 
ATOM     29  N   UNL A   1      42.676  27.559  30.843  1.00  0.00    -0.248 NA
ATOM     30  C   UNL A   1      44.081  26.057  29.740  1.00  0.00     0.031 C 
ATOM     31  C   UNL A   1      43.367  29.047  34.964  1.00  0.00     0.029 A 
ATOM     32  C   UNL A   1      43.182  28.548  33.685  1.00  0.00     0.049 A 
ATOM     33  H   UNL A   1      41.661  28.992  32.290  1.00  0.00     0.167 HD
ATOM     34  C   UNL A   1      43.699  27.163  31.704  1.00  0.00     0.074 A 
ATOM     35  C   UNL A   1      44.491  26.183  30.995  1.00  0.00     0.031 C 
ATOM     36  C   UNL A   1      43.982  27.597  32.958  1.00  0.00     0.037 A 
BRANCH  23  37
ATOM     37  C   UNL A   1      39.901  31.733  35.021  1.00  0.00     0.064 A 
ATOM     38  C   UNL A   1      38.882  31.346  35.903  1.00  0.00     0.173 A 
ATOM     39  C   UNL A   1      40.440  33.020  35.147  1.00  0.00     0.173 A 
ATOM     40  F   UNL A   1      38.315  30.136  35.791  1.00  0.00    -0.203 F 
ATOM     41  C   UNL A   1      38.403  32.234  36.861  1.00  0.00     0.198 A 
ATOM     42  C   UNL A   1      39.969  33.898  36.116  1.00  0.00     0.198 A 
ATOM     43  F   UNL A   1      41.403  33.434  34.308  1.00  0.00    -0.203 F 
ATOM     44  F   UNL A   1      37.391  31.870  37.663  1.00  0.00    -0.200 F 
ATOM     45  C   UNL A   1      38.946  33.507  36.967  1.00  0.00     0.200 A 
ATOM     46  F   UNL A   1      40.488  35.129  36.210  1.00  0.00    -0.200 F 
ATOM     47  F   UNL A   1      38.469  34.366  37.877  1.00  0.00    -0.200 F 
ENDBRANCH  23  37
BRANCH  24  48
ATOM     48  C   UNL A   1      42.289  25.836  27.441  1.00  0.00     0.064 A 
ATOM     49  C   UNL A   1      41.534  24.652  27.582  1.00  0.00     0.173 A 
ATOM     50  C   UNL A   1      43.268  25.833  26.437  1.00  0.00     0.173 A 
ATOM     51  F   UNL A   1      40.593  24.565  28.535  1.00  0.00    -0.203 F 
ATOM     52  C   UNL A   1      41.782  23.519  26.801  1.00  0.00     0.198 A 
ATOM     53  C   UNL A   1      43.478  24.718  25.620  1.00  0.00     0.198 A 
ATOM     54  F   UNL A   1      44.050  26.906  26.258  1.00  0.00    -0.203 F 
ATOM     55  F   UNL A   1      41.106  22.384  27.031  1.00  0.00    -0.200 F 
ATOM     56  C   UNL A   1      42.750  23.556  25.813  1.00  0.00     0.200 A 
ATOM     57  F   UNL A   1      44.410  24.764  24.657  1.00  0.00    -0.200 F 
ATOM     58  F   UNL A   1      42.994  22.470  25.066  1.00  0.00    -0.200 F 
ENDBRANCH  24  48
BRANCH  36  59
ATOM     59  C   UNL A   1      45.232  27.089  33.625  1.00  0.00     0.064 A 
ATOM     60  C   UNL A   1      45.213  25.920  34.403  1.00  0.00     0.173 A 
ATOM     61  C   UNL A   1      46.475  27.703  33.399  1.00  0.00     0.173 A 
ATOM     62  F   UNL A   1      44.053  25.297  34.655  1.00  0.00    -0.203 F 
ATOM     63  C   UNL A   1      46.386  25.392  34.937  1.00  0.00     0.198 A 
ATOM     64  C   UNL A   1      47.650  27.153  33.909  1.00  0.00     0.198 A 
ATOM     65  F   UNL A   1      46.555  28.815  32.654  1.00  0.00    -0.203 F 
ATOM     66  F   UNL A   1      46.336  24.291  35.699  1.00  0.00    -0.200 F 
ATOM     67  C   UNL A   1      47.605  26.002  34.679  1.00  0.00     0.200 A 
ATOM     68  F   UNL A   1      48.829  27.731  33.641  1.00  0.00    -0.200 F 
ATOM     69  F   UNL A   1      48.735  25.476  35.172  1.00  0.00    -0.200 F 
ENDBRANCH  36  59
ENDBRANCH  10  11
ENDBRANCH   3   5
ENDBRANCH   2   3
ENDBRANCH   1   2
BRANCH   1  70
ATOM     70  C   UNL A   1      32.363  28.979  26.208  1.00  0.00     0.274 C 
BRANCH  70  71
ATOM     71  O   UNL A   1      33.494  28.597  25.408  1.00  0.00    -0.461 OA
BRANCH  71  72
ATOM     72  C   UNL A   1      33.265  28.384  24.087  1.00  0.00     0.329 C 
ATOM     73  O   UNL A   1      33.666  29.145  23.198  1.00  0.00    -0.250 OA
BRANCH  72  74
ATOM     74  C   UNL A   1      32.649  27.000  23.794  1.00  0.00     0.206 C 
ATOM     75  C   UNL A   1      33.725  26.046  23.285  1.00  0.00     0.108 C 
ATOM     76  N   UNL A   1      31.434  26.938  22.943  1.00  0.00    -0.315 N 
ATOM     77  S   UNL A   1      32.929  25.002  22.038  1.00  0.00    -0.138 SA
ATOM     78  C   UNL A   1      31.565  26.151  21.743  1.00  0.00     0.191 C 
BRANCH  76  79
ATOM     79  C   UNL A   1      30.266  27.402  23.490  1.00  0.00     0.255 C 
ATOM     80  O   UNL A   1      29.859  26.939  24.572  1.00  0.00    -0.269 OA
BRANCH  79  81
ATOM     81  C   UNL A   1      29.387  28.464  22.988  1.00  0.00     0.041 A 
ATOM     82  C   UNL A   1      28.017  28.215  22.914  1.00  0.00     0.014 A 
ATOM     83  C   UNL A   1      29.812  29.769  23.246  1.00  0.00     0.034 A 
ATOM     84  C   UNL A   1      27.071  29.222  23.126  1.00  0.00     0.002 A 
ATOM     85  C   UNL A   1      28.871  30.782  23.448  1.00  0.00     0.041 A 
ATOM     86  C   UNL A   1      27.503  30.512  23.403  1.00  0.00     0.020 A 
ATOM     87  Cl  UNL A   1      29.409  32.356  23.881  1.00  0.00    -0.084 Cl
ENDBRANCH  79  81
ENDBRANCH  76  79
ENDBRANCH  72  74
ENDBRANCH  71  72
ENDBRANCH  70  71
ENDBRANCH   1  70
TORSDOF 13
ENDMDL
