MODEL 1
REMARK VINA RESULT:      -9.7      0.000      0.000
REMARK SMILES Cc1cc(OCC(=O)OCCOC(=O)c2ccc(-c3c4nc(c(-c5c(F)c(F)c(F)c(F)c5F)c5ccc([nH]5)c(-c5c(F)c(F)c(F)c(F)c5F)c5nc(c(-c6c(F)c(F)c(F)c(F)c6F)c6ccc3[nH]6)C=C5)C=C4)cc2)nc(-n2nc(C)cc2C)n1
REMARK SMILES IDX 10 1 9 2 7 3 8 4 6 5 5 6 4 7 1 8 2 9 3 10 87 11 79 12 78 13
REMARK SMILES IDX 80 14 81 15 85 16 82 17 84 18 86 19 83 20 11 21 12 22 13 23
REMARK SMILES IDX 14 24 15 25 16 26 77 27 17 28 76 29 18 30 19 31 20 32 70 33
REMARK SMILES IDX 21 34 75 35 69 36 71 37 22 38 74 39 68 40 67 41 23 43 55 44
REMARK SMILES IDX 35 45 54 46 36 47 39 48 53 49 72 50 37 51 38 52 52 54 73 55
REMARK SMILES IDX 40 56 24 57 25 58 33 59 26 60 27 61 31 62 34 63 28 64 29 65
REMARK SMILES IDX 32 66 30 67 56 68 57 69 65 70 58 71 59 72 63 73 66 74 60 75
REMARK SMILES IDX 61 76 64 77 62 78 41 79 42 80 50 81 43 82 44 83 48 84 51 85
REMARK SMILES IDX 45 86 46 87 49 88 47 89
REMARK H PARENT 71 42 39 53
REMARK Flexibility Score: inf
ROOT
ATOM      1  C   UNL A   1      33.243  36.872  31.004  1.00  0.00     0.274 C 
ENDROOT
BRANCH   1   2
ATOM      2  O   UNL A   1      33.647  35.819  31.905  1.00  0.00    -0.460 OA
BRANCH   2   3
ATOM      3  C   UNL A   1      34.341  36.214  33.005  1.00  0.00     0.344 C 
ATOM      4  O   UNL A   1      34.036  37.159  33.727  1.00  0.00    -0.248 OA
BRANCH   3   5
ATOM      5  C   UNL A   1      35.569  35.349  33.283  1.00  0.00     0.353 C 
BRANCH   5   6
ATOM      6  O   UNL A   1      35.392  33.998  33.652  1.00  0.00    -0.466 OA
BRANCH   6   7
ATOM      7  C   UNL A   1      36.340  33.376  34.408  1.00  0.00     0.219 A 
ATOM      8  C   UNL A   1      38.069  33.165  37.727  1.00  0.00     0.067 C 
ATOM      9  C   UNL A   1      37.583  32.880  36.341  1.00  0.00     0.047 A 
ATOM     10  C   UNL A   1      36.662  33.692  35.709  1.00  0.00     0.092 A 
ATOM     11  N   UNL A   1      38.093  31.792  35.749  1.00  0.00    -0.216 NA
ATOM     12  C   UNL A   1      37.787  31.602  34.447  1.00  0.00     0.254 A 
ATOM     13  N   UNL A   1      36.940  32.377  33.744  1.00  0.00    -0.175 NA
BRANCH  12  14
ATOM     14  N   UNL A   1      38.482  30.542  33.781  1.00  0.00    -0.203 N 
ATOM     15  N   UNL A   1      39.767  30.216  34.106  1.00  0.00    -0.170 NA
ATOM     16  C   UNL A   1      37.937  29.622  32.895  1.00  0.00     0.045 A 
ATOM     17  C   UNL A   1      39.926  28.979  33.626  1.00  0.00     0.060 A 
ATOM     18  C   UNL A   1      38.841  28.586  32.816  1.00  0.00     0.049 A 
ATOM     19  C   UNL A   1      36.639  29.833  32.206  1.00  0.00     0.067 C 
ATOM     20  C   UNL A   1      41.127  28.185  33.979  1.00  0.00     0.069 C 
ENDBRANCH  12  14
ENDBRANCH   6   7
ENDBRANCH   5   6
ENDBRANCH   3   5
ENDBRANCH   2   3
ENDBRANCH   1   2
BRANCH   1  21
ATOM     21  C   UNL A   1      32.901  36.305  29.629  1.00  0.00     0.275 C 
BRANCH  21  22
ATOM     22  O   UNL A   1      32.630  34.898  29.745  1.00  0.00    -0.458 OA
BRANCH  22  23
ATOM     23  C   UNL A   1      33.197  34.119  28.802  1.00  0.00     0.338 C 
ATOM     24  O   UNL A   1      32.694  33.773  27.737  1.00  0.00    -0.246 OA
BRANCH  23  25
ATOM     25  C   UNL A   1      34.574  33.743  29.182  1.00  0.00     0.060 A 
ATOM     26  C   UNL A   1      35.685  34.161  28.440  1.00  0.00     0.016 A 
ATOM     27  C   UNL A   1      34.744  32.847  30.241  1.00  0.00     0.016 A 
ATOM     28  C   UNL A   1      36.947  33.625  28.709  1.00  0.00     0.010 A 
ATOM     29  C   UNL A   1      36.017  32.372  30.557  1.00  0.00     0.010 A 
ATOM     30  C   UNL A   1      37.127  32.738  29.780  1.00  0.00    -0.014 A 
BRANCH  30  31
ATOM     31  C   UNL A   1      38.472  32.223  30.139  1.00  0.00     0.031 A 
ATOM     32  C   UNL A   1      38.971  30.919  29.582  1.00  0.00     0.074 A 
ATOM     33  C   UNL A   1      39.219  32.902  31.028  1.00  0.00     0.049 A 
ATOM     34  N   UNL A   1      40.018  30.215  29.932  1.00  0.00    -0.248 NA
ATOM     35  C   UNL A   1      38.187  30.323  28.490  1.00  0.00     0.031 C 
ATOM     36  C   UNL A   1      38.857  34.188  31.627  1.00  0.00     0.029 A 
ATOM     37  N   UNL A   1      40.426  32.594  31.603  1.00  0.00    -0.354 N 
ATOM     38  C   UNL A   1      40.006  29.086  29.124  1.00  0.00     0.074 A 
ATOM     39  C   UNL A   1      38.844  29.193  28.268  1.00  0.00     0.031 C 
ATOM     40  C   UNL A   1      39.816  34.556  32.488  1.00  0.00     0.029 A 
ATOM     41  C   UNL A   1      40.824  33.503  32.552  1.00  0.00     0.049 A 
ATOM     42  H   UNL A   1      40.954  31.800  31.359  1.00  0.00     0.167 HD
ATOM     43  C   UNL A   1      40.885  28.056  29.103  1.00  0.00     0.037 A 
ATOM     44  C   UNL A   1      41.854  33.470  33.416  1.00  0.00     0.037 A 
ATOM     45  C   UNL A   1      42.052  27.964  29.943  1.00  0.00     0.049 A 
ATOM     46  C   UNL A   1      42.780  32.291  33.415  1.00  0.00     0.074 A 
ATOM     47  C   UNL A   1      43.021  26.975  29.971  1.00  0.00     0.029 A 
ATOM     48  N   UNL A   1      42.406  28.896  30.907  1.00  0.00    -0.354 N 
ATOM     49  N   UNL A   1      42.749  31.218  32.662  1.00  0.00    -0.248 NA
ATOM     50  C   UNL A   1      43.874  32.309  34.394  1.00  0.00     0.031 C 
ATOM     51  C   UNL A   1      43.944  27.294  30.973  1.00  0.00     0.029 A 
ATOM     52  C   UNL A   1      43.568  28.497  31.547  1.00  0.00     0.049 A 
ATOM     53  H   UNL A   1      41.906  29.720  31.105  1.00  0.00     0.167 HD
ATOM     54  C   UNL A   1      43.821  30.438  33.068  1.00  0.00     0.074 A 
ATOM     55  C   UNL A   1      44.491  31.167  34.127  1.00  0.00     0.031 C 
ATOM     56  C   UNL A   1      44.214  29.228  32.606  1.00  0.00     0.037 A 
BRANCH  43  57
ATOM     57  C   UNL A   1      40.620  26.928  28.153  1.00  0.00     0.064 A 
ATOM     58  C   UNL A   1      41.340  26.788  26.959  1.00  0.00     0.173 A 
ATOM     59  C   UNL A   1      39.680  25.937  28.476  1.00  0.00     0.173 A 
ATOM     60  F   UNL A   1      42.241  27.716  26.602  1.00  0.00    -0.203 F 
ATOM     61  C   UNL A   1      41.125  25.699  26.118  1.00  0.00     0.198 A 
ATOM     62  C   UNL A   1      39.480  24.841  27.640  1.00  0.00     0.198 A 
ATOM     63  F   UNL A   1      38.968  26.024  29.609  1.00  0.00    -0.203 F 
ATOM     64  F   UNL A   1      41.810  25.595  24.970  1.00  0.00    -0.200 F 
ATOM     65  C   UNL A   1      40.201  24.723  26.462  1.00  0.00     0.200 A 
ATOM     66  F   UNL A   1      38.593  23.894  27.980  1.00  0.00    -0.200 F 
ATOM     67  F   UNL A   1      40.004  23.670  25.657  1.00  0.00    -0.200 F 
ENDBRANCH  43  57
BRANCH  44  68
ATOM     68  C   UNL A   1      42.027  34.584  34.379  1.00  0.00     0.064 A 
ATOM     69  C   UNL A   1      42.640  35.781  33.989  1.00  0.00     0.173 A 
ATOM     70  C   UNL A   1      41.542  34.489  35.692  1.00  0.00     0.173 A 
ATOM     71  F   UNL A   1      43.136  35.906  32.750  1.00  0.00    -0.203 F 
ATOM     72  C   UNL A   1      42.761  36.845  34.879  1.00  0.00     0.198 A 
ATOM     73  C   UNL A   1      41.643  35.562  36.572  1.00  0.00     0.198 A 
ATOM     74  F   UNL A   1      40.943  33.363  36.106  1.00  0.00    -0.203 F 
ATOM     75  F   UNL A   1      43.370  37.974  34.490  1.00  0.00    -0.200 F 
ATOM     76  C   UNL A   1      42.255  36.738  36.166  1.00  0.00     0.200 A 
ATOM     77  F   UNL A   1      41.138  35.460  37.809  1.00  0.00    -0.200 F 
ATOM     78  F   UNL A   1      42.356  37.769  37.016  1.00  0.00    -0.200 F 
ENDBRANCH  44  68
BRANCH  56  79
ATOM     79  C   UNL A   1      45.431  28.625  33.234  1.00  0.00     0.064 A 
ATOM     80  C   UNL A   1      45.330  27.764  34.337  1.00  0.00     0.173 A 
ATOM     81  C   UNL A   1      46.707  28.896  32.720  1.00  0.00     0.173 A 
ATOM     82  F   UNL A   1      44.131  27.492  34.874  1.00  0.00    -0.203 F 
ATOM     83  C   UNL A   1      46.469  27.211  34.916  1.00  0.00     0.198 A 
ATOM     84  C   UNL A   1      47.841  28.325  33.289  1.00  0.00     0.198 A 
ATOM     85  F   UNL A   1      46.851  29.712  31.666  1.00  0.00    -0.203 F 
ATOM     86  F   UNL A   1      46.355  26.422  35.992  1.00  0.00    -0.200 F 
ATOM     87  C   UNL A   1      47.722  27.488  34.389  1.00  0.00     0.200 A 
ATOM     88  F   UNL A   1      49.051  28.590  32.776  1.00  0.00    -0.200 F 
ATOM     89  F   UNL A   1      48.817  26.956  34.949  1.00  0.00    -0.200 F 
ENDBRANCH  56  79
ENDBRANCH  30  31
ENDBRANCH  23  25
ENDBRANCH  22  23
ENDBRANCH  21  22
ENDBRANCH   1  21
TORSDOF 14
ENDMDL
MODEL 2
REMARK VINA RESULT:      -9.6      4.564      7.246
REMARK SMILES Cc1cc(OCC(=O)OCCOC(=O)c2ccc(-c3c4nc(c(-c5c(F)c(F)c(F)c(F)c5F)c5ccc([nH]5)c(-c5c(F)c(F)c(F)c(F)c5F)c5nc(c(-c6c(F)c(F)c(F)c(F)c6F)c6ccc3[nH]6)C=C5)C=C4)cc2)nc(-n2nc(C)cc2C)n1
REMARK SMILES IDX 10 1 9 2 7 3 8 4 6 5 5 6 4 7 1 8 2 9 3 10 87 11 79 12 78 13
REMARK SMILES IDX 80 14 81 15 85 16 82 17 84 18 86 19 83 20 11 21 12 22 13 23
REMARK SMILES IDX 14 24 15 25 16 26 77 27 17 28 76 29 18 30 19 31 20 32 70 33
REMARK SMILES IDX 21 34 75 35 69 36 71 37 22 38 74 39 68 40 67 41 23 43 55 44
REMARK SMILES IDX 35 45 54 46 36 47 39 48 53 49 72 50 37 51 38 52 52 54 73 55
REMARK SMILES IDX 40 56 24 57 25 58 33 59 26 60 27 61 31 62 34 63 28 64 29 65
REMARK SMILES IDX 32 66 30 67 56 68 57 69 65 70 58 71 59 72 63 73 66 74 60 75
REMARK SMILES IDX 61 76 64 77 62 78 41 79 42 80 50 81 43 82 44 83 48 84 51 85
REMARK SMILES IDX 45 86 46 87 49 88 47 89
REMARK H PARENT 71 42 39 53
REMARK Flexibility Score: inf
ROOT
ATOM      1  C   UNL A   1      31.768  31.154  26.513  1.00  0.00     0.274 C 
ENDROOT
BRANCH   1   2
ATOM      2  O   UNL A   1      33.032  30.568  26.888  1.00  0.00    -0.460 OA
BRANCH   2   3
ATOM      3  C   UNL A   1      33.106  29.213  26.803  1.00  0.00     0.344 C 
ATOM      4  O   UNL A   1      32.630  28.430  27.619  1.00  0.00    -0.248 OA
BRANCH   3   5
ATOM      5  C   UNL A   1      33.847  28.730  25.557  1.00  0.00     0.353 C 
BRANCH   5   6
ATOM      6  O   UNL A   1      33.588  27.434  25.060  1.00  0.00    -0.466 OA
BRANCH   6   7
ATOM      7  C   UNL A   1      32.891  27.285  23.898  1.00  0.00     0.219 A 
ATOM      8  C   UNL A   1      32.632  25.536  20.593  1.00  0.00     0.067 C 
ATOM      9  C   UNL A   1      32.341  26.358  21.809  1.00  0.00     0.047 A 
ATOM     10  C   UNL A   1      33.229  26.443  22.862  1.00  0.00     0.092 A 
ATOM     11  N   UNL A   1      31.168  27.006  21.816  1.00  0.00    -0.216 NA
ATOM     12  C   UNL A   1      30.953  27.872  22.830  1.00  0.00     0.254 A 
ATOM     13  N   UNL A   1      31.792  28.053  23.867  1.00  0.00    -0.175 NA
BRANCH  12  14
ATOM     14  N   UNL A   1      29.781  28.689  22.727  1.00  0.00    -0.203 N 
ATOM     15  N   UNL A   1      29.822  29.928  22.159  1.00  0.00    -0.170 NA
ATOM     16  C   UNL A   1      28.475  28.302  23.000  1.00  0.00     0.045 A 
ATOM     17  C   UNL A   1      28.548  30.195  21.854  1.00  0.00     0.060 A 
ATOM     18  C   UNL A   1      27.666  29.244  22.405  1.00  0.00     0.049 A 
ATOM     19  C   UNL A   1      28.137  27.102  23.807  1.00  0.00     0.067 C 
ATOM     20  C   UNL A   1      28.208  31.365  21.009  1.00  0.00     0.069 C 
ENDBRANCH  12  14
ENDBRANCH   6   7
ENDBRANCH   5   6
ENDBRANCH   3   5
ENDBRANCH   2   3
ENDBRANCH   1   2
BRANCH   1  21
ATOM     21  C   UNL A   1      31.685  32.605  26.980  1.00  0.00     0.275 C 
BRANCH  21  22
ATOM     22  O   UNL A   1      33.012  33.143  27.111  1.00  0.00    -0.458 OA
BRANCH  22  23
ATOM     23  C   UNL A   1      33.208  33.949  28.172  1.00  0.00     0.338 C 
ATOM     24  O   UNL A   1      32.481  34.868  28.540  1.00  0.00    -0.246 OA
BRANCH  23  25
ATOM     25  C   UNL A   1      34.428  33.565  28.912  1.00  0.00     0.060 A 
ATOM     26  C   UNL A   1      35.649  34.219  28.712  1.00  0.00     0.016 A 
ATOM     27  C   UNL A   1      34.370  32.439  29.738  1.00  0.00     0.016 A 
ATOM     28  C   UNL A   1      36.819  33.703  29.276  1.00  0.00     0.010 A 
ATOM     29  C   UNL A   1      35.527  31.970  30.362  1.00  0.00     0.010 A 
ATOM     30  C   UNL A   1      36.766  32.583  30.118  1.00  0.00    -0.014 A 
BRANCH  30  31
ATOM     31  C   UNL A   1      37.982  32.069  30.797  1.00  0.00     0.031 A 
ATOM     32  C   UNL A   1      38.811  30.982  30.172  1.00  0.00     0.074 A 
ATOM     33  C   UNL A   1      38.299  32.536  32.018  1.00  0.00     0.049 A 
ATOM     34  N   UNL A   1      39.777  30.272  30.696  1.00  0.00    -0.248 NA
ATOM     35  C   UNL A   1      38.513  30.646  28.772  1.00  0.00     0.031 C 
ATOM     36  C   UNL A   1      37.586  33.601  32.725  1.00  0.00     0.029 A 
ATOM     37  N   UNL A   1      39.286  32.157  32.892  1.00  0.00    -0.354 N 
ATOM     38  C   UNL A   1      40.184  29.390  29.705  1.00  0.00     0.074 A 
ATOM     39  C   UNL A   1      39.357  29.649  28.544  1.00  0.00     0.031 C 
ATOM     40  C   UNL A   1      38.155  33.787  33.925  1.00  0.00     0.029 A 
ATOM     41  C   UNL A   1      39.225  32.811  34.097  1.00  0.00     0.049 A 
ATOM     42  H   UNL A   1      39.970  31.484  32.676  1.00  0.00     0.167 HD
ATOM     43  C   UNL A   1      41.159  28.451  29.760  1.00  0.00     0.037 A 
ATOM     44  C   UNL A   1      39.916  32.614  35.234  1.00  0.00     0.037 A 
ATOM     45  C   UNL A   1      41.993  28.210  30.910  1.00  0.00     0.049 A 
ATOM     46  C   UNL A   1      40.948  31.528  35.292  1.00  0.00     0.074 A 
ATOM     47  C   UNL A   1      43.030  27.303  31.050  1.00  0.00     0.029 A 
ATOM     48  N   UNL A   1      41.883  28.880  32.119  1.00  0.00    -0.354 N 
ATOM     49  N   UNL A   1      41.312  30.687  34.356  1.00  0.00    -0.248 NA
ATOM     50  C   UNL A   1      41.654  31.354  36.568  1.00  0.00     0.031 C 
ATOM     51  C   UNL A   1      43.526  27.403  32.355  1.00  0.00     0.029 A 
ATOM     52  C   UNL A   1      42.820  28.395  33.016  1.00  0.00     0.049 A 
ATOM     53  H   UNL A   1      41.235  29.596  32.310  1.00  0.00     0.167 HD
ATOM     54  C   UNL A   1      42.294  29.889  34.923  1.00  0.00     0.074 A 
ATOM     55  C   UNL A   1      42.478  30.356  36.283  1.00  0.00     0.031 C 
ATOM     56  C   UNL A   1      42.981  28.862  34.368  1.00  0.00     0.037 A 
BRANCH  43  57
ATOM     57  C   UNL A   1      41.375  27.593  28.551  1.00  0.00     0.064 A 
ATOM     58  C   UNL A   1      40.583  26.463  28.302  1.00  0.00     0.173 A 
ATOM     59  C   UNL A   1      42.340  27.945  27.596  1.00  0.00     0.173 A 
ATOM     60  F   UNL A   1      39.654  26.080  29.191  1.00  0.00    -0.203 F 
ATOM     61  C   UNL A   1      40.755  25.712  27.141  1.00  0.00     0.198 A 
ATOM     62  C   UNL A   1      42.497  27.201  26.428  1.00  0.00     0.198 A 
ATOM     63  F   UNL A   1      43.120  29.019  27.787  1.00  0.00    -0.203 F 
ATOM     64  F   UNL A   1      40.001  24.623  26.932  1.00  0.00    -0.200 F 
ATOM     65  C   UNL A   1      41.706  26.086  26.203  1.00  0.00     0.200 A 
ATOM     66  F   UNL A   1      43.410  27.569  25.519  1.00  0.00    -0.200 F 
ATOM     67  F   UNL A   1      41.861  25.368  25.081  1.00  0.00    -0.200 F 
ENDBRANCH  43  57
BRANCH  44  68
ATOM     68  C   UNL A   1      39.611  33.450  36.421  1.00  0.00     0.064 A 
ATOM     69  C   UNL A   1      38.672  33.032  37.371  1.00  0.00     0.173 A 
ATOM     70  C   UNL A   1      40.286  34.660  36.648  1.00  0.00     0.173 A 
ATOM     71  F   UNL A   1      37.990  31.894  37.182  1.00  0.00    -0.203 F 
ATOM     72  C   UNL A   1      38.419  33.795  38.509  1.00  0.00     0.198 A 
ATOM     73  C   UNL A   1      40.048  35.408  37.797  1.00  0.00     0.198 A 
ATOM     74  F   UNL A   1      41.197  35.095  35.765  1.00  0.00    -0.203 F 
ATOM     75  F   UNL A   1      37.501  33.386  39.395  1.00  0.00    -0.200 F 
ATOM     76  C   UNL A   1      39.113  34.976  38.725  1.00  0.00     0.200 A 
ATOM     77  F   UNL A   1      40.732  36.540  38.009  1.00  0.00    -0.200 F 
ATOM     78  F   UNL A   1      38.881  35.700  39.829  1.00  0.00    -0.200 F 
ENDBRANCH  44  68
BRANCH  56  79
ATOM     79  C   UNL A   1      44.002  28.186  35.228  1.00  0.00     0.064 A 
ATOM     80  C   UNL A   1      45.323  28.651  35.290  1.00  0.00     0.173 A 
ATOM     81  C   UNL A   1      43.652  27.076  36.009  1.00  0.00     0.173 A 
ATOM     82  F   UNL A   1      45.707  29.699  34.545  1.00  0.00    -0.203 F 
ATOM     83  C   UNL A   1      46.266  28.013  36.092  1.00  0.00     0.198 A 
ATOM     84  C   UNL A   1      44.593  26.453  36.824  1.00  0.00     0.198 A 
ATOM     85  F   UNL A   1      42.400  26.597  35.982  1.00  0.00    -0.203 F 
ATOM     86  F   UNL A   1      47.533  28.448  36.109  1.00  0.00    -0.200 F 
ATOM     87  C   UNL A   1      45.899  26.918  36.861  1.00  0.00     0.200 A 
ATOM     88  F   UNL A   1      44.236  25.397  37.570  1.00  0.00    -0.200 F 
ATOM     89  F   UNL A   1      46.809  26.304  37.630  1.00  0.00    -0.200 F 
ENDBRANCH  56  79
ENDBRANCH  30  31
ENDBRANCH  23  25
ENDBRANCH  22  23
ENDBRANCH  21  22
ENDBRANCH   1  21
TORSDOF 14
ENDMDL
MODEL 3
REMARK VINA RESULT:      -9.5      5.960     11.466
REMARK SMILES Cc1cc(OCC(=O)OCCOC(=O)c2ccc(-c3c4nc(c(-c5c(F)c(F)c(F)c(F)c5F)c5ccc([nH]5)c(-c5c(F)c(F)c(F)c(F)c5F)c5nc(c(-c6c(F)c(F)c(F)c(F)c6F)c6ccc3[nH]6)C=C5)C=C4)cc2)nc(-n2nc(C)cc2C)n1
REMARK SMILES IDX 10 1 9 2 7 3 8 4 6 5 5 6 4 7 1 8 2 9 3 10 87 11 79 12 78 13
REMARK SMILES IDX 80 14 81 15 85 16 82 17 84 18 86 19 83 20 11 21 12 22 13 23
REMARK SMILES IDX 14 24 15 25 16 26 77 27 17 28 76 29 18 30 19 31 20 32 70 33
REMARK SMILES IDX 21 34 75 35 69 36 71 37 22 38 74 39 68 40 67 41 23 43 55 44
REMARK SMILES IDX 35 45 54 46 36 47 39 48 53 49 72 50 37 51 38 52 52 54 73 55
REMARK SMILES IDX 40 56 24 57 25 58 33 59 26 60 27 61 31 62 34 63 28 64 29 65
REMARK SMILES IDX 32 66 30 67 56 68 57 69 65 70 58 71 59 72 63 73 66 74 60 75
REMARK SMILES IDX 61 76 64 77 62 78 41 79 42 80 50 81 43 82 44 83 48 84 51 85
REMARK SMILES IDX 45 86 46 87 49 88 47 89
REMARK H PARENT 71 42 39 53
REMARK Flexibility Score: inf
ROOT
ATOM      1  C   UNL A   1      42.206  19.289  26.483  1.00  0.00     0.274 C 
ENDROOT
BRANCH   1   2
ATOM      2  O   UNL A   1      42.835  18.810  25.275  1.00  0.00    -0.460 OA
BRANCH   2   3
ATOM      3  C   UNL A   1      44.177  19.009  25.187  1.00  0.00     0.344 C 
ATOM      4  O   UNL A   1      45.007  18.126  24.995  1.00  0.00    -0.248 OA
BRANCH   3   5
ATOM      5  C   UNL A   1      44.578  20.475  25.341  1.00  0.00     0.353 C 
BRANCH   5   6
ATOM      6  O   UNL A   1      44.390  21.360  24.257  1.00  0.00    -0.466 OA
BRANCH   6   7
ATOM      7  C   UNL A   1      44.466  22.705  24.464  1.00  0.00     0.219 A 
ATOM      8  C   UNL A   1      42.607  25.887  25.145  1.00  0.00     0.067 C 
ATOM      9  C   UNL A   1      43.684  24.864  24.967  1.00  0.00     0.047 A 
ATOM     10  C   UNL A   1      43.396  23.545  24.678  1.00  0.00     0.092 A 
ATOM     11  N   UNL A   1      44.942  25.301  25.105  1.00  0.00    -0.216 NA
ATOM     12  C   UNL A   1      45.930  24.432  24.798  1.00  0.00     0.254 A 
ATOM     13  N   UNL A   1      45.732  23.146  24.456  1.00  0.00    -0.175 NA
BRANCH  12  14
ATOM     14  N   UNL A   1      47.259  24.967  24.774  1.00  0.00    -0.203 N 
ATOM     15  N   UNL A   1      47.840  25.384  23.613  1.00  0.00    -0.170 NA
ATOM     16  C   UNL A   1      48.039  25.296  25.876  1.00  0.00     0.045 A 
ATOM     17  C   UNL A   1      48.838  26.180  24.009  1.00  0.00     0.060 A 
ATOM     18  C   UNL A   1      49.041  26.113  25.402  1.00  0.00     0.049 A 
ATOM     19  C   UNL A   1      47.767  24.786  27.243  1.00  0.00     0.067 C 
ATOM     20  C   UNL A   1      49.571  27.011  23.025  1.00  0.00     0.069 C 
ENDBRANCH  12  14
ENDBRANCH   6   7
ENDBRANCH   5   6
ENDBRANCH   3   5
ENDBRANCH   2   3
ENDBRANCH   1   2
BRANCH   1  21
ATOM     21  C   UNL A   1      40.898  20.008  26.163  1.00  0.00     0.275 C 
BRANCH  21  22
ATOM     22  O   UNL A   1      40.671  21.044  27.135  1.00  0.00    -0.458 OA
BRANCH  22  23
ATOM     23  C   UNL A   1      39.808  22.009  26.762  1.00  0.00     0.338 C 
ATOM     24  O   UNL A   1      38.820  21.873  26.045  1.00  0.00    -0.246 OA
BRANCH  23  25
ATOM     25  C   UNL A   1      40.167  23.306  27.372  1.00  0.00     0.060 A 
ATOM     26  C   UNL A   1      39.470  24.482  27.069  1.00  0.00     0.016 A 
ATOM     27  C   UNL A   1      41.309  23.363  28.175  1.00  0.00     0.016 A 
ATOM     28  C   UNL A   1      39.959  25.716  27.506  1.00  0.00     0.010 A 
ATOM     29  C   UNL A   1      41.753  24.589  28.673  1.00  0.00     0.010 A 
ATOM     30  C   UNL A   1      41.096  25.779  28.324  1.00  0.00    -0.014 A 
BRANCH  30  31
ATOM     31  C   UNL A   1      41.584  27.070  28.871  1.00  0.00     0.031 A 
ATOM     32  C   UNL A   1      40.617  28.130  29.319  1.00  0.00     0.074 A 
ATOM     33  C   UNL A   1      42.907  27.314  28.897  1.00  0.00     0.049 A 
ATOM     34  N   UNL A   1      40.845  29.381  29.630  1.00  0.00    -0.248 NA
ATOM     35  C   UNL A   1      39.205  27.734  29.429  1.00  0.00     0.031 C 
ATOM     36  C   UNL A   1      43.948  26.362  28.507  1.00  0.00     0.029 A 
ATOM     37  N   UNL A   1      43.600  28.446  29.242  1.00  0.00    -0.354 N 
ATOM     38  C   UNL A   1      39.609  29.927  29.947  1.00  0.00     0.074 A 
ATOM     39  C   UNL A   1      38.629  28.873  29.787  1.00  0.00     0.031 C 
ATOM     40  C   UNL A   1      45.146  26.950  28.629  1.00  0.00     0.029 A 
ATOM     41  C   UNL A   1      44.954  28.337  29.039  1.00  0.00     0.049 A 
ATOM     42  H   UNL A   1      43.170  29.256  29.600  1.00  0.00     0.167 HD
ATOM     43  C   UNL A   1      39.321  31.193  30.335  1.00  0.00     0.037 A 
ATOM     44  C   UNL A   1      45.927  29.261  29.121  1.00  0.00     0.037 A 
ATOM     45  C   UNL A   1      40.301  32.232  30.513  1.00  0.00     0.049 A 
ATOM     46  C   UNL A   1      45.577  30.671  29.494  1.00  0.00     0.074 A 
ATOM     47  C   UNL A   1      40.111  33.537  30.936  1.00  0.00     0.029 A 
ATOM     48  N   UNL A   1      41.660  32.085  30.275  1.00  0.00    -0.354 N 
ATOM     49  N   UNL A   1      44.403  31.182  29.771  1.00  0.00    -0.248 NA
ATOM     50  C   UNL A   1      46.683  31.634  29.549  1.00  0.00     0.031 C 
ATOM     51  C   UNL A   1      41.350  34.188  30.924  1.00  0.00     0.029 A 
ATOM     52  C   UNL A   1      42.315  33.279  30.524  1.00  0.00     0.049 A 
ATOM     53  H   UNL A   1      42.093  31.255  29.974  1.00  0.00     0.167 HD
ATOM     54  C   UNL A   1      44.627  32.523  30.043  1.00  0.00     0.074 A 
ATOM     55  C   UNL A   1      46.054  32.744  29.908  1.00  0.00     0.031 C 
ATOM     56  C   UNL A   1      43.733  33.484  30.373  1.00  0.00     0.037 A 
BRANCH  43  57
ATOM     57  C   UNL A   1      37.884  31.540  30.581  1.00  0.00     0.064 A 
ATOM     58  C   UNL A   1      37.355  31.602  31.877  1.00  0.00     0.173 A 
ATOM     59  C   UNL A   1      37.045  31.882  29.509  1.00  0.00     0.173 A 
ATOM     60  F   UNL A   1      38.115  31.273  32.932  1.00  0.00    -0.203 F 
ATOM     61  C   UNL A   1      36.034  31.988  32.092  1.00  0.00     0.198 A 
ATOM     62  C   UNL A   1      35.730  32.284  29.730  1.00  0.00     0.198 A 
ATOM     63  F   UNL A   1      37.506  31.842  28.251  1.00  0.00    -0.203 F 
ATOM     64  F   UNL A   1      35.542  32.021  33.338  1.00  0.00    -0.200 F 
ATOM     65  C   UNL A   1      35.225  32.335  31.020  1.00  0.00     0.200 A 
ATOM     66  F   UNL A   1      34.953  32.628  28.693  1.00  0.00    -0.200 F 
ATOM     67  F   UNL A   1      33.958  32.718  31.230  1.00  0.00    -0.200 F 
ENDBRANCH  43  57
BRANCH  44  68
ATOM     68  C   UNL A   1      47.322  28.873  28.800  1.00  0.00     0.064 A 
ATOM     69  C   UNL A   1      47.893  29.205  27.566  1.00  0.00     0.173 A 
ATOM     70  C   UNL A   1      48.122  28.205  29.739  1.00  0.00     0.173 A 
ATOM     71  F   UNL A   1      47.157  29.826  26.633  1.00  0.00    -0.203 F 
ATOM     72  C   UNL A   1      49.218  28.883  27.282  1.00  0.00     0.198 A 
ATOM     73  C   UNL A   1      49.453  27.904  29.462  1.00  0.00     0.198 A 
ATOM     74  F   UNL A   1      47.617  27.872  30.936  1.00  0.00    -0.203 F 
ATOM     75  F   UNL A   1      49.738  29.191  26.086  1.00  0.00    -0.200 F 
ATOM     76  C   UNL A   1      49.999  28.241  28.233  1.00  0.00     0.200 A 
ATOM     77  F   UNL A   1      50.207  27.298  30.389  1.00  0.00    -0.200 F 
ATOM     78  F   UNL A   1      51.278  27.947  27.964  1.00  0.00    -0.200 F 
ENDBRANCH  44  68
BRANCH  56  79
ATOM     79  C   UNL A   1      44.275  34.857  30.624  1.00  0.00     0.064 A 
ATOM     80  C   UNL A   1      44.727  35.239  31.895  1.00  0.00     0.173 A 
ATOM     81  C   UNL A   1      44.358  35.791  29.582  1.00  0.00     0.173 A 
ATOM     82  F   UNL A   1      44.648  34.384  32.926  1.00  0.00    -0.203 F 
ATOM     83  C   UNL A   1      45.227  36.519  32.118  1.00  0.00     0.198 A 
ATOM     84  C   UNL A   1      44.876  37.063  29.805  1.00  0.00     0.198 A 
ATOM     85  F   UNL A   1      43.938  35.469  28.351  1.00  0.00    -0.203 F 
ATOM     86  F   UNL A   1      45.618  36.879  33.348  1.00  0.00    -0.200 F 
ATOM     87  C   UNL A   1      45.305  37.428  31.073  1.00  0.00     0.200 A 
ATOM     88  F   UNL A   1      44.956  37.939  28.793  1.00  0.00    -0.200 F 
ATOM     89  F   UNL A   1      45.785  38.661  31.290  1.00  0.00    -0.200 F 
ENDBRANCH  56  79
ENDBRANCH  30  31
ENDBRANCH  23  25
ENDBRANCH  22  23
ENDBRANCH  21  22
ENDBRANCH   1  21
TORSDOF 14
ENDMDL
