MODEL 1
REMARK VINA RESULT:     -10.6      0.000      0.000
REMARK SMILES C=CC[N@H+](CC(=O)OCCOC(=O)c1ccc(-c2c3nc(c(-c4c(F)c(F)c(F)c(F)c4F)c4ccc([nH]4)c(-c4c(F)c(F)c(F)c(F)c4F)c4nc(c(-c5c(F)c(F)c(F)c(F)c5F)c5ccc2[nH]5)C=C4)C=C3)cc1)Cc1ccccc1C#N
REMARK SMILES IDX 9 1 8 2 6 3 7 4 5 5 4 6 3 8 2 9 1 10 77 11 78 12 79 13 83 14
REMARK SMILES IDX 80 15 82 16 81 17 84 18 85 19 10 20 11 21 12 22 13 23 14 24
REMARK SMILES IDX 15 25 76 26 16 27 75 28 17 29 18 30 19 31 69 32 20 33 74 34
REMARK SMILES IDX 68 35 70 36 21 37 73 38 67 39 66 40 22 42 54 43 34 44 53 45
REMARK SMILES IDX 35 46 38 47 52 48 71 49 36 50 37 51 51 53 72 54 39 55 23 56
REMARK SMILES IDX 24 57 32 58 25 59 26 60 30 61 33 62 27 63 28 64 31 65 29 66
REMARK SMILES IDX 55 67 56 68 64 69 57 70 58 71 62 72 65 73 59 74 60 75 63 76
REMARK SMILES IDX 61 77 40 78 41 79 49 80 42 81 43 82 47 83 50 84 44 85 45 86
REMARK SMILES IDX 48 87 46 88
REMARK H PARENT 4 7 70 41 38 52
REMARK Flexibility Score: inf
ROOT
ATOM      1  C   UNL A   1      32.519  31.074  26.953  1.00  0.00     0.274 C 
ENDROOT
BRANCH   1   2
ATOM      2  O   UNL A   1      32.701  29.762  27.534  1.00  0.00    -0.458 OA
BRANCH   2   3
ATOM      3  C   UNL A   1      31.851  28.778  27.151  1.00  0.00     0.361 C 
ATOM      4  O   UNL A   1      31.420  27.916  27.919  1.00  0.00    -0.245 OA
BRANCH   3   5
ATOM      5  C   UNL A   1      31.448  28.787  25.668  1.00  0.00     0.387 C 
BRANCH   5   6
ATOM      6  N   UNL A   1      31.785  27.581  24.876  1.00  0.00    -0.319 N 
ATOM      7  H   UNL A   1      31.817  26.810  25.543  1.00  0.00     0.349 HD
BRANCH   6   8
ATOM      8  C   UNL A   1      30.713  27.185  23.963  1.00  0.00     0.291 C 
BRANCH   8   9
ATOM      9  C   UNL A   1      30.034  25.869  24.229  1.00  0.00     0.025 C 
ATOM     10  C   UNL A   1      30.296  24.707  23.617  1.00  0.00     0.010 C 
ENDBRANCH   8   9
ENDBRANCH   6   8
BRANCH   6  11
ATOM     11  C   UNL A   1      33.161  27.508  24.381  1.00  0.00     0.301 C 
BRANCH  11  12
ATOM     12  C   UNL A   1      33.784  26.106  24.348  1.00  0.00     0.024 A 
ATOM     13  C   UNL A   1      34.152  25.567  25.610  1.00  0.00     0.011 A 
ATOM     14  C   UNL A   1      33.815  25.241  23.232  1.00  0.00     0.061 A 
ATOM     15  C   UNL A   1      34.413  24.202  25.773  1.00  0.00     0.001 A 
ATOM     16  C   UNL A   1      34.128  23.880  23.409  1.00  0.00     0.020 A 
ATOM     17  C   UNL A   1      34.390  23.356  24.672  1.00  0.00     0.001 A 
BRANCH  14  18
ATOM     18  C   UNL A   1      33.456  25.609  21.892  1.00  0.00     0.100 C 
ATOM     19  N   UNL A   1      33.094  25.814  20.803  1.00  0.00    -0.192 NA
ENDBRANCH  14  18
ENDBRANCH  11  12
ENDBRANCH   6  11
ENDBRANCH   5   6
ENDBRANCH   3   5
ENDBRANCH   2   3
ENDBRANCH   1   2
BRANCH   1  20
ATOM     20  C   UNL A   1      33.442  32.147  27.565  1.00  0.00     0.275 C 
BRANCH  20  21
ATOM     21  O   UNL A   1      32.885  33.483  27.531  1.00  0.00    -0.458 OA
BRANCH  21  22
ATOM     22  C   UNL A   1      33.266  34.197  28.602  1.00  0.00     0.338 C 
ATOM     23  O   UNL A   1      32.614  35.062  29.143  1.00  0.00    -0.246 OA
BRANCH  22  24
ATOM     24  C   UNL A   1      34.502  33.848  29.257  1.00  0.00     0.060 A 
ATOM     25  C   UNL A   1      34.387  33.291  30.535  1.00  0.00     0.016 A 
ATOM     26  C   UNL A   1      35.714  34.344  28.783  1.00  0.00     0.016 A 
ATOM     27  C   UNL A   1      35.516  33.119  31.311  1.00  0.00     0.010 A 
ATOM     28  C   UNL A   1      36.861  34.104  29.528  1.00  0.00     0.010 A 
ATOM     29  C   UNL A   1      36.763  33.423  30.755  1.00  0.00    -0.014 A 
BRANCH  29  30
ATOM     30  C   UNL A   1      37.952  32.750  31.303  1.00  0.00     0.031 A 
ATOM     31  C   UNL A   1      38.553  31.562  30.644  1.00  0.00     0.074 A 
ATOM     32  C   UNL A   1      38.409  33.228  32.477  1.00  0.00     0.049 A 
ATOM     33  N   UNL A   1      39.500  30.779  31.086  1.00  0.00    -0.248 NA
ATOM     34  C   UNL A   1      38.017  31.190  29.327  1.00  0.00     0.031 C 
ATOM     35  C   UNL A   1      37.864  34.397  33.182  1.00  0.00     0.029 A 
ATOM     36  N   UNL A   1      39.415  32.795  33.295  1.00  0.00    -0.354 N 
ATOM     37  C   UNL A   1      39.672  29.812  30.111  1.00  0.00     0.074 A 
ATOM     38  C   UNL A   1      38.714  30.093  29.060  1.00  0.00     0.031 C 
ATOM     39  C   UNL A   1      38.550  34.596  34.312  1.00  0.00     0.029 A 
ATOM     40  C   UNL A   1      39.517  33.521  34.456  1.00  0.00     0.049 A 
ATOM     41  H   UNL A   1      40.007  32.039  33.074  1.00  0.00     0.167 HD
ATOM     42  C   UNL A   1      40.557  28.788  30.114  1.00  0.00     0.037 A 
ATOM     43  C   UNL A   1      40.270  33.311  35.548  1.00  0.00     0.037 A 
ATOM     44  C   UNL A   1      41.481  28.536  31.192  1.00  0.00     0.049 A 
ATOM     45  C   UNL A   1      41.179  32.119  35.549  1.00  0.00     0.074 A 
ATOM     46  C   UNL A   1      42.441  27.546  31.292  1.00  0.00     0.029 A 
ATOM     47  N   UNL A   1      41.547  29.276  32.368  1.00  0.00    -0.354 N 
ATOM     48  N   UNL A   1      41.371  31.228  34.606  1.00  0.00    -0.248 NA
ATOM     49  C   UNL A   1      41.969  31.899  36.763  1.00  0.00     0.031 C 
ATOM     50  C   UNL A   1      43.033  27.639  32.555  1.00  0.00     0.029 A 
ATOM     51  C   UNL A   1      42.500  28.733  33.218  1.00  0.00     0.049 A 
ATOM     52  H   UNL A   1      40.997  30.068  32.569  1.00  0.00     0.167 HD
ATOM     53  C   UNL A   1      42.317  30.348  35.104  1.00  0.00     0.074 A 
ATOM     54  C   UNL A   1      42.680  30.834  36.421  1.00  0.00     0.031 C 
ATOM     55  C   UNL A   1      42.834  29.235  34.529  1.00  0.00     0.037 A 
BRANCH  42  56
ATOM     56  C   UNL A   1      40.537  27.846  28.945  1.00  0.00     0.064 A 
ATOM     57  C   UNL A   1      41.349  28.043  27.819  1.00  0.00     0.173 A 
ATOM     58  C   UNL A   1      39.716  26.708  28.968  1.00  0.00     0.173 A 
ATOM     59  F   UNL A   1      42.144  29.121  27.739  1.00  0.00    -0.203 F 
ATOM     60  C   UNL A   1      41.318  27.154  26.747  1.00  0.00     0.198 A 
ATOM     61  C   UNL A   1      39.712  25.803  27.910  1.00  0.00     0.198 A 
ATOM     62  F   UNL A   1      38.920  26.468  30.021  1.00  0.00    -0.203 F 
ATOM     63  F   UNL A   1      42.063  27.393  25.659  1.00  0.00    -0.200 F 
ATOM     64  C   UNL A   1      40.506  26.031  26.797  1.00  0.00     0.200 A 
ATOM     65  F   UNL A   1      38.937  24.711  27.968  1.00  0.00    -0.200 F 
ATOM     66  F   UNL A   1      40.483  25.172  25.768  1.00  0.00    -0.200 F 
ENDBRANCH  42  56
BRANCH  43  67
ATOM     67  C   UNL A   1      40.163  34.223  36.713  1.00  0.00     0.064 A 
ATOM     68  C   UNL A   1      39.245  33.971  37.740  1.00  0.00     0.173 A 
ATOM     69  C   UNL A   1      40.983  35.357  36.835  1.00  0.00     0.173 A 
ATOM     70  F   UNL A   1      38.434  32.905  37.665  1.00  0.00    -0.203 F 
ATOM     71  C   UNL A   1      39.129  34.833  38.828  1.00  0.00     0.198 A 
ATOM     72  C   UNL A   1      40.893  36.197  37.942  1.00  0.00     0.198 A 
ATOM     73  F   UNL A   1      41.891  35.638  35.887  1.00  0.00    -0.203 F 
ATOM     74  F   UNL A   1      38.203  34.597  39.768  1.00  0.00    -0.200 F 
ATOM     75  C   UNL A   1      39.957  35.941  38.931  1.00  0.00     0.200 A 
ATOM     76  F   UNL A   1      41.712  37.252  38.049  1.00  0.00    -0.200 F 
ATOM     77  F   UNL A   1      39.846  36.767  39.981  1.00  0.00    -0.200 F 
ENDBRANCH  43  67
BRANCH  55  78
ATOM     78  C   UNL A   1      43.861  28.482  35.323  1.00  0.00     0.064 A 
ATOM     79  C   UNL A   1      45.231  28.748  35.189  1.00  0.00     0.173 A 
ATOM     80  C   UNL A   1      43.466  27.508  36.252  1.00  0.00     0.173 A 
ATOM     81  F   UNL A   1      45.661  29.655  34.298  1.00  0.00    -0.203 F 
ATOM     82  C   UNL A   1      46.171  28.045  35.938  1.00  0.00     0.198 A 
ATOM     83  C   UNL A   1      44.405  26.837  37.028  1.00  0.00     0.198 A 
ATOM     84  F   UNL A   1      42.167  27.219  36.419  1.00  0.00    -0.203 F 
ATOM     85  F   UNL A   1      47.478  28.275  35.752  1.00  0.00    -0.200 F 
ATOM     86  C   UNL A   1      45.757  27.100  36.864  1.00  0.00     0.200 A 
ATOM     87  F   UNL A   1      44.002  25.937  37.935  1.00  0.00    -0.200 F 
ATOM     88  F   UNL A   1      46.662  26.435  37.594  1.00  0.00    -0.200 F 
ENDBRANCH  55  78
ENDBRANCH  29  30
ENDBRANCH  22  24
ENDBRANCH  21  22
ENDBRANCH  20  21
ENDBRANCH   1  20
TORSDOF 17
ENDMDL
MODEL 2
REMARK VINA RESULT:     -10.6      1.622      2.787
REMARK SMILES C=CC[N@H+](CC(=O)OCCOC(=O)c1ccc(-c2c3nc(c(-c4c(F)c(F)c(F)c(F)c4F)c4ccc([nH]4)c(-c4c(F)c(F)c(F)c(F)c4F)c4nc(c(-c5c(F)c(F)c(F)c(F)c5F)c5ccc2[nH]5)C=C4)C=C3)cc1)Cc1ccccc1C#N
REMARK SMILES IDX 9 1 8 2 6 3 7 4 5 5 4 6 3 8 2 9 1 10 77 11 78 12 79 13 83 14
REMARK SMILES IDX 80 15 82 16 81 17 84 18 85 19 10 20 11 21 12 22 13 23 14 24
REMARK SMILES IDX 15 25 76 26 16 27 75 28 17 29 18 30 19 31 69 32 20 33 74 34
REMARK SMILES IDX 68 35 70 36 21 37 73 38 67 39 66 40 22 42 54 43 34 44 53 45
REMARK SMILES IDX 35 46 38 47 52 48 71 49 36 50 37 51 51 53 72 54 39 55 23 56
REMARK SMILES IDX 24 57 32 58 25 59 26 60 30 61 33 62 27 63 28 64 31 65 29 66
REMARK SMILES IDX 55 67 56 68 64 69 57 70 58 71 62 72 65 73 59 74 60 75 63 76
REMARK SMILES IDX 61 77 40 78 41 79 49 80 42 81 43 82 47 83 50 84 44 85 45 86
REMARK SMILES IDX 48 87 46 88
REMARK H PARENT 4 7 70 41 38 52
REMARK Flexibility Score: inf
ROOT
ATOM      1  C   UNL A   1      31.815  30.664  26.182  1.00  0.00     0.274 C 
ENDROOT
BRANCH   1   2
ATOM      2  O   UNL A   1      31.761  29.740  27.293  1.00  0.00    -0.458 OA
BRANCH   2   3
ATOM      3  C   UNL A   1      31.994  28.429  27.037  1.00  0.00     0.361 C 
ATOM      4  O   UNL A   1      31.423  27.511  27.627  1.00  0.00    -0.245 OA
BRANCH   3   5
ATOM      5  C   UNL A   1      33.041  28.140  25.950  1.00  0.00     0.387 C 
BRANCH   5   6
ATOM      6  N   UNL A   1      32.677  27.141  24.919  1.00  0.00    -0.319 N 
ATOM      7  H   UNL A   1      32.312  26.336  25.429  1.00  0.00     0.349 HD
BRANCH   6   8
ATOM      8  C   UNL A   1      31.538  27.559  24.101  1.00  0.00     0.291 C 
BRANCH   8   9
ATOM      9  C   UNL A   1      30.391  26.594  23.974  1.00  0.00     0.025 C 
ATOM     10  C   UNL A   1      29.910  25.807  24.943  1.00  0.00     0.010 C 
ENDBRANCH   8   9
ENDBRANCH   6   8
BRANCH   6  11
ATOM     11  C   UNL A   1      33.798  26.487  24.240  1.00  0.00     0.301 C 
BRANCH  11  12
ATOM     12  C   UNL A   1      33.630  24.987  23.970  1.00  0.00     0.024 A 
ATOM     13  C   UNL A   1      33.711  24.144  25.112  1.00  0.00     0.011 A 
ATOM     14  C   UNL A   1      33.193  24.408  22.758  1.00  0.00     0.061 A 
ATOM     15  C   UNL A   1      33.255  22.821  25.076  1.00  0.00     0.001 A 
ATOM     16  C   UNL A   1      32.784  23.061  22.733  1.00  0.00     0.020 A 
ATOM     17  C   UNL A   1      32.781  22.284  23.887  1.00  0.00     0.001 A 
BRANCH  14  18
ATOM     18  C   UNL A   1      33.032  25.112  21.518  1.00  0.00     0.100 C 
ATOM     19  N   UNL A   1      32.901  25.579  20.457  1.00  0.00    -0.192 NA
ENDBRANCH  14  18
ENDBRANCH  11  12
ENDBRANCH   6  11
ENDBRANCH   5   6
ENDBRANCH   3   5
ENDBRANCH   2   3
ENDBRANCH   1   2
BRANCH   1  20
ATOM     20  C   UNL A   1      32.093  32.119  26.609  1.00  0.00     0.275 C 
BRANCH  20  21
ATOM     21  O   UNL A   1      32.663  32.239  27.935  1.00  0.00    -0.458 OA
BRANCH  21  22
ATOM     22  C   UNL A   1      33.809  32.936  27.912  1.00  0.00     0.338 C 
ATOM     23  O   UNL A   1      33.919  34.107  27.625  1.00  0.00    -0.246 OA
BRANCH  22  24
ATOM     24  C   UNL A   1      35.014  32.294  28.377  1.00  0.00     0.060 A 
ATOM     25  C   UNL A   1      36.171  33.080  28.378  1.00  0.00     0.016 A 
ATOM     26  C   UNL A   1      35.073  30.908  28.490  1.00  0.00     0.016 A 
ATOM     27  C   UNL A   1      37.398  32.492  28.610  1.00  0.00     0.010 A 
ATOM     28  C   UNL A   1      36.295  30.323  28.799  1.00  0.00     0.010 A 
ATOM     29  C   UNL A   1      37.438  31.132  28.933  1.00  0.00    -0.014 A 
BRANCH  29  30
ATOM     30  C   UNL A   1      38.587  30.633  29.705  1.00  0.00     0.031 A 
ATOM     31  C   UNL A   1      39.512  29.606  29.158  1.00  0.00     0.074 A 
ATOM     32  C   UNL A   1      38.700  31.104  30.963  1.00  0.00     0.049 A 
ATOM     33  N   UNL A   1      40.470  28.965  29.771  1.00  0.00    -0.248 NA
ATOM     34  C   UNL A   1      39.334  29.236  27.747  1.00  0.00     0.031 C 
ATOM     35  C   UNL A   1      37.824  32.117  31.566  1.00  0.00     0.029 A 
ATOM     36  N   UNL A   1      39.576  30.793  31.965  1.00  0.00    -0.354 N 
ATOM     37  C   UNL A   1      41.007  28.105  28.830  1.00  0.00     0.074 A 
ATOM     38  C   UNL A   1      40.254  28.290  27.606  1.00  0.00     0.031 C 
ATOM     39  C   UNL A   1      38.215  32.355  32.822  1.00  0.00     0.029 A 
ATOM     40  C   UNL A   1      39.305  31.449  33.141  1.00  0.00     0.049 A 
ATOM     41  H   UNL A   1      40.324  30.162  31.856  1.00  0.00     0.167 HD
ATOM     42  C   UNL A   1      42.039  27.244  28.995  1.00  0.00     0.037 A 
ATOM     43  C   UNL A   1      39.841  31.297  34.362  1.00  0.00     0.037 A 
ATOM     44  C   UNL A   1      42.750  27.081  30.239  1.00  0.00     0.049 A 
ATOM     45  C   UNL A   1      40.925  30.276  34.526  1.00  0.00     0.074 A 
ATOM     46  C   UNL A   1      43.827  26.260  30.516  1.00  0.00     0.029 A 
ATOM     47  N   UNL A   1      42.439  27.744  31.422  1.00  0.00    -0.354 N 
ATOM     48  N   UNL A   1      41.462  29.492  33.623  1.00  0.00    -0.248 NA
ATOM     49  C   UNL A   1      41.474  30.113  35.875  1.00  0.00     0.031 C 
ATOM     50  C   UNL A   1      44.120  26.369  31.879  1.00  0.00     0.029 A 
ATOM     51  C   UNL A   1      43.276  27.315  32.441  1.00  0.00     0.049 A 
ATOM     52  H   UNL A   1      41.729  28.419  31.521  1.00  0.00     0.167 HD
ATOM     53  C   UNL A   1      42.425  28.752  34.288  1.00  0.00     0.074 A 
ATOM     54  C   UNL A   1      42.416  29.205  35.665  1.00  0.00     0.031 C 
ATOM     55  C   UNL A   1      43.238  27.779  33.807  1.00  0.00     0.037 A 
BRANCH  42  56
ATOM     56  C   UNL A   1      42.428  26.390  27.824  1.00  0.00     0.064 A 
ATOM     57  C   UNL A   1      41.791  25.171  27.550  1.00  0.00     0.173 A 
ATOM     58  C   UNL A   1      43.434  26.814  26.943  1.00  0.00     0.173 A 
ATOM     59  F   UNL A   1      40.830  24.712  28.366  1.00  0.00    -0.203 F 
ATOM     60  C   UNL A   1      42.165  24.396  26.455  1.00  0.00     0.198 A 
ATOM     61  C   UNL A   1      43.783  26.054  25.830  1.00  0.00     0.198 A 
ATOM     62  F   UNL A   1      44.077  27.972  27.155  1.00  0.00    -0.203 F 
ATOM     63  F   UNL A   1      41.578  23.210  26.243  1.00  0.00    -0.200 F 
ATOM     64  C   UNL A   1      43.155  24.841  25.591  1.00  0.00     0.200 A 
ATOM     65  F   UNL A   1      44.730  26.494  24.990  1.00  0.00    -0.200 F 
ATOM     66  F   UNL A   1      43.509  24.097  24.533  1.00  0.00    -0.200 F 
ENDBRANCH  42  56
BRANCH  43  67
ATOM     67  C   UNL A   1      39.336  32.102  35.502  1.00  0.00     0.064 A 
ATOM     68  C   UNL A   1      39.757  33.424  35.690  1.00  0.00     0.173 A 
ATOM     69  C   UNL A   1      38.413  31.574  36.421  1.00  0.00     0.173 A 
ATOM     70  F   UNL A   1      40.644  33.969  34.844  1.00  0.00    -0.203 F 
ATOM     71  C   UNL A   1      39.299  34.179  36.767  1.00  0.00     0.198 A 
ATOM     72  C   UNL A   1      37.927  32.342  37.476  1.00  0.00     0.198 A 
ATOM     73  F   UNL A   1      37.965  30.318  36.281  1.00  0.00    -0.203 F 
ATOM     74  F   UNL A   1      39.762  35.422  36.954  1.00  0.00    -0.200 F 
ATOM     75  C   UNL A   1      38.380  33.639  37.656  1.00  0.00     0.200 A 
ATOM     76  F   UNL A   1      37.021  31.825  38.316  1.00  0.00    -0.200 F 
ATOM     77  F   UNL A   1      37.939  34.368  38.690  1.00  0.00    -0.200 F 
ENDBRANCH  43  67
BRANCH  55  78
ATOM     78  C   UNL A   1      44.195  27.159  34.782  1.00  0.00     0.064 A 
ATOM     79  C   UNL A   1      45.439  27.741  35.061  1.00  0.00     0.173 A 
ATOM     80  C   UNL A   1      43.847  25.986  35.468  1.00  0.00     0.173 A 
ATOM     81  F   UNL A   1      45.827  28.851  34.414  1.00  0.00    -0.203 F 
ATOM     82  C   UNL A   1      46.313  27.156  35.974  1.00  0.00     0.198 A 
ATOM     83  C   UNL A   1      44.705  25.427  36.410  1.00  0.00     0.198 A 
ATOM     84  F   UNL A   1      42.667  25.391  35.239  1.00  0.00    -0.203 F 
ATOM     85  F   UNL A   1      47.520  27.699  36.182  1.00  0.00    -0.200 F 
ATOM     86  C   UNL A   1      45.941  26.008  36.655  1.00  0.00     0.200 A 
ATOM     87  F   UNL A   1      44.336  24.327  37.080  1.00  0.00    -0.200 F 
ATOM     88  F   UNL A   1      46.777  25.454  37.543  1.00  0.00    -0.200 F 
ENDBRANCH  55  78
ENDBRANCH  29  30
ENDBRANCH  22  24
ENDBRANCH  21  22
ENDBRANCH  20  21
ENDBRANCH   1  20
TORSDOF 17
ENDMDL
MODEL 3
REMARK VINA RESULT:     -10.5      5.295      9.571
REMARK SMILES C=CC[N@H+](CC(=O)OCCOC(=O)c1ccc(-c2c3nc(c(-c4c(F)c(F)c(F)c(F)c4F)c4ccc([nH]4)c(-c4c(F)c(F)c(F)c(F)c4F)c4nc(c(-c5c(F)c(F)c(F)c(F)c5F)c5ccc2[nH]5)C=C4)C=C3)cc1)Cc1ccccc1C#N
REMARK SMILES IDX 9 1 8 2 6 3 7 4 5 5 4 6 3 8 2 9 1 10 77 11 78 12 79 13 83 14
REMARK SMILES IDX 80 15 82 16 81 17 84 18 85 19 10 20 11 21 12 22 13 23 14 24
REMARK SMILES IDX 15 25 76 26 16 27 75 28 17 29 18 30 19 31 69 32 20 33 74 34
REMARK SMILES IDX 68 35 70 36 21 37 73 38 67 39 66 40 22 42 54 43 34 44 53 45
REMARK SMILES IDX 35 46 38 47 52 48 71 49 36 50 37 51 51 53 72 54 39 55 23 56
REMARK SMILES IDX 24 57 32 58 25 59 26 60 30 61 33 62 27 63 28 64 31 65 29 66
REMARK SMILES IDX 55 67 56 68 64 69 57 70 58 71 62 72 65 73 59 74 60 75 63 76
REMARK SMILES IDX 61 77 40 78 41 79 49 80 42 81 43 82 47 83 50 84 44 85 45 86
REMARK SMILES IDX 48 87 46 88
REMARK H PARENT 4 7 70 41 38 52
REMARK Flexibility Score: inf
ROOT
ATOM      1  C   UNL A   1      41.864  20.475  26.374  1.00  0.00     0.274 C 
ENDROOT
BRANCH   1   2
ATOM      2  O   UNL A   1      42.641  21.153  25.360  1.00  0.00    -0.458 OA
BRANCH   2   3
ATOM      3  C   UNL A   1      43.993  21.079  25.444  1.00  0.00     0.361 C 
ATOM      4  O   UNL A   1      44.644  20.110  25.052  1.00  0.00    -0.245 OA
BRANCH   3   5
ATOM      5  C   UNL A   1      44.687  22.295  26.077  1.00  0.00     0.387 C 
BRANCH   5   6
ATOM      6  N   UNL A   1      44.023  23.608  25.904  1.00  0.00    -0.319 N 
ATOM      7  H   UNL A   1      43.159  23.418  25.399  1.00  0.00     0.349 HD
BRANCH   6   8
ATOM      8  C   UNL A   1      43.552  24.176  27.167  1.00  0.00     0.291 C 
BRANCH   8   9
ATOM      9  C   UNL A   1      43.773  23.361  28.413  1.00  0.00     0.025 C 
ATOM     10  C   UNL A   1      42.829  22.962  29.274  1.00  0.00     0.010 C 
ENDBRANCH   8   9
ENDBRANCH   6   8
BRANCH   6  11
ATOM     11  C   UNL A   1      44.652  24.517  24.943  1.00  0.00     0.301 C 
BRANCH  11  12
ATOM     12  C   UNL A   1      45.399  25.713  25.548  1.00  0.00     0.024 A 
ATOM     13  C   UNL A   1      46.712  25.442  26.019  1.00  0.00     0.011 A 
ATOM     14  C   UNL A   1      44.995  27.064  25.475  1.00  0.00     0.061 A 
ATOM     15  C   UNL A   1      47.621  26.474  26.282  1.00  0.00     0.001 A 
ATOM     16  C   UNL A   1      45.910  28.087  25.790  1.00  0.00     0.020 A 
ATOM     17  C   UNL A   1      47.221  27.798  26.156  1.00  0.00     0.001 A 
BRANCH  14  18
ATOM     18  C   UNL A   1      43.718  27.519  25.005  1.00  0.00     0.100 C 
ATOM     19  N   UNL A   1      42.633  27.836  24.716  1.00  0.00    -0.192 NA
ENDBRANCH  14  18
ENDBRANCH  11  12
ENDBRANCH   6  11
ENDBRANCH   5   6
ENDBRANCH   3   5
ENDBRANCH   2   3
ENDBRANCH   1   2
BRANCH   1  20
ATOM     20  C   UNL A   1      40.395  20.939  26.431  1.00  0.00     0.275 C 
BRANCH  20  21
ATOM     21  O   UNL A   1      40.160  22.019  27.366  1.00  0.00    -0.458 OA
BRANCH  21  22
ATOM     22  C   UNL A   1      39.520  23.042  26.779  1.00  0.00     0.338 C 
ATOM     23  O   UNL A   1      38.626  22.946  25.968  1.00  0.00    -0.246 OA
BRANCH  22  24
ATOM     24  C   UNL A   1      39.821  24.383  27.217  1.00  0.00     0.060 A 
ATOM     25  C   UNL A   1      39.346  24.740  28.483  1.00  0.00     0.016 A 
ATOM     26  C   UNL A   1      40.255  25.340  26.303  1.00  0.00     0.016 A 
ATOM     27  C   UNL A   1      39.409  26.057  28.892  1.00  0.00     0.010 A 
ATOM     28  C   UNL A   1      40.391  26.653  26.738  1.00  0.00     0.010 A 
ATOM     29  C   UNL A   1      40.038  26.987  28.058  1.00  0.00    -0.014 A 
BRANCH  29  30
ATOM     30  C   UNL A   1      40.605  28.199  28.670  1.00  0.00     0.031 A 
ATOM     31  C   UNL A   1      42.031  28.275  29.081  1.00  0.00     0.074 A 
ATOM     32  C   UNL A   1      39.735  29.201  28.908  1.00  0.00     0.049 A 
ATOM     33  N   UNL A   1      42.632  29.212  29.764  1.00  0.00    -0.248 NA
ATOM     34  C   UNL A   1      42.896  27.152  28.691  1.00  0.00     0.031 C 
ATOM     35  C   UNL A   1      38.316  29.193  28.528  1.00  0.00     0.029 A 
ATOM     36  N   UNL A   1      39.899  30.406  29.531  1.00  0.00    -0.354 N 
ATOM     37  C   UNL A   1      43.944  28.793  29.900  1.00  0.00     0.074 A 
ATOM     38  C   UNL A   1      44.049  27.504  29.247  1.00  0.00     0.031 C 
ATOM     39  C   UNL A   1      37.745  30.340  28.910  1.00  0.00     0.029 A 
ATOM     40  C   UNL A   1      38.730  31.120  29.639  1.00  0.00     0.049 A 
ATOM     41  H   UNL A   1      40.765  30.729  29.869  1.00  0.00     0.167 HD
ATOM     42  C   UNL A   1      44.955  29.443  30.522  1.00  0.00     0.037 A 
ATOM     43  C   UNL A   1      38.467  32.257  30.304  1.00  0.00     0.037 A 
ATOM     44  C   UNL A   1      44.800  30.719  31.176  1.00  0.00     0.049 A 
ATOM     45  C   UNL A   1      39.593  32.906  31.049  1.00  0.00     0.074 A 
ATOM     46  C   UNL A   1      45.759  31.484  31.814  1.00  0.00     0.029 A 
ATOM     47  N   UNL A   1      43.598  31.411  31.289  1.00  0.00    -0.354 N 
ATOM     48  N   UNL A   1      40.846  32.529  31.141  1.00  0.00    -0.248 NA
ATOM     49  C   UNL A   1      39.271  34.131  31.787  1.00  0.00     0.031 C 
ATOM     50  C   UNL A   1      45.126  32.597  32.377  1.00  0.00     0.029 A 
ATOM     51  C   UNL A   1      43.785  32.570  32.028  1.00  0.00     0.049 A 
ATOM     52  H   UNL A   1      42.741  31.119  30.903  1.00  0.00     0.167 HD
ATOM     53  C   UNL A   1      41.469  33.479  31.934  1.00  0.00     0.074 A 
ATOM     54  C   UNL A   1      40.459  34.464  32.269  1.00  0.00     0.031 C 
ATOM     55  C   UNL A   1      42.757  33.529  32.353  1.00  0.00     0.037 A 
BRANCH  42  56
ATOM     56  C   UNL A   1      46.297  28.771  30.561  1.00  0.00     0.064 A 
ATOM     57  C   UNL A   1      47.292  29.043  29.612  1.00  0.00     0.173 A 
ATOM     58  C   UNL A   1      46.603  27.862  31.587  1.00  0.00     0.173 A 
ATOM     59  F   UNL A   1      47.050  29.895  28.603  1.00  0.00    -0.203 F 
ATOM     60  C   UNL A   1      48.532  28.411  29.669  1.00  0.00     0.198 A 
ATOM     61  C   UNL A   1      47.854  27.257  31.661  1.00  0.00     0.198 A 
ATOM     62  F   UNL A   1      45.689  27.565  32.523  1.00  0.00    -0.203 F 
ATOM     63  F   UNL A   1      49.448  28.647  28.720  1.00  0.00    -0.200 F 
ATOM     64  C   UNL A   1      48.815  27.524  30.698  1.00  0.00     0.200 A 
ATOM     65  F   UNL A   1      48.129  26.412  32.665  1.00  0.00    -0.200 F 
ATOM     66  F   UNL A   1      50.011  26.922  30.757  1.00  0.00    -0.200 F 
ENDBRANCH  42  56
BRANCH  43  67
ATOM     67  C   UNL A   1      37.091  32.813  30.311  1.00  0.00     0.064 A 
ATOM     68  C   UNL A   1      36.643  33.632  29.268  1.00  0.00     0.173 A 
ATOM     69  C   UNL A   1      36.191  32.529  31.351  1.00  0.00     0.173 A 
ATOM     70  F   UNL A   1      37.469  33.939  28.257  1.00  0.00    -0.203 F 
ATOM     71  C   UNL A   1      35.359  34.171  29.277  1.00  0.00     0.198 A 
ATOM     72  C   UNL A   1      34.894  33.037  31.340  1.00  0.00     0.198 A 
ATOM     73  F   UNL A   1      36.563  31.737  32.368  1.00  0.00    -0.203 F 
ATOM     74  F   UNL A   1      34.975  34.997  28.295  1.00  0.00    -0.200 F 
ATOM     75  C   UNL A   1      34.484  33.868  30.310  1.00  0.00     0.200 A 
ATOM     76  F   UNL A   1      34.045  32.720  32.327  1.00  0.00    -0.200 F 
ATOM     77  F   UNL A   1      33.247  34.384  30.316  1.00  0.00    -0.200 F 
ENDBRANCH  43  67
BRANCH  55  78
ATOM     78  C   UNL A   1      43.142  34.702  33.207  1.00  0.00     0.064 A 
ATOM     79  C   UNL A   1      43.149  34.620  34.606  1.00  0.00     0.173 A 
ATOM     80  C   UNL A   1      43.540  35.910  32.615  1.00  0.00     0.173 A 
ATOM     81  F   UNL A   1      42.755  33.493  35.220  1.00  0.00    -0.203 F 
ATOM     82  C   UNL A   1      43.515  35.715  35.384  1.00  0.00     0.198 A 
ATOM     83  C   UNL A   1      43.944  36.988  33.394  1.00  0.00     0.198 A 
ATOM     84  F   UNL A   1      43.553  36.038  31.280  1.00  0.00    -0.203 F 
ATOM     85  F   UNL A   1      43.458  35.632  36.720  1.00  0.00    -0.200 F 
ATOM     86  C   UNL A   1      43.923  36.893  34.778  1.00  0.00     0.200 A 
ATOM     87  F   UNL A   1      44.355  38.120  32.806  1.00  0.00    -0.200 F 
ATOM     88  F   UNL A   1      44.288  37.941  35.528  1.00  0.00    -0.200 F 
ENDBRANCH  55  78
ENDBRANCH  29  30
ENDBRANCH  22  24
ENDBRANCH  21  22
ENDBRANCH  20  21
ENDBRANCH   1  20
TORSDOF 17
ENDMDL
