MODEL 1
REMARK VINA RESULT:     -12.4      0.000      0.000
REMARK SMILES C[C@@H](C(=O)OCCOC(=O)c1ccc(-c2c3nc(c(-c4c(F)c(F)c(F)c(F)c4F)c4ccc([nH]4)c(-c4c(F)c(F)c(F)c(F)c4F)c4nc(c(-c5c(F)c(F)c(F)c(F)c5F)c5ccc2[nH]5)C=C4)C=C3)cc1)c1ccc(O[C@H]2CCCC2=O)cc1F
REMARK SMILES IDX 6 1 5 2 3 3 4 4 2 5 1 6 74 7 75 8 86 9 76 10 85 11 87 12
REMARK SMILES IDX 77 13 78 14 79 15 80 16 83 17 81 18 82 19 84 20 7 21 8 22
REMARK SMILES IDX 9 23 10 24 11 25 12 26 73 27 13 28 72 29 14 30 15 31 16 32
REMARK SMILES IDX 66 33 17 34 71 35 65 36 67 37 18 38 70 39 64 40 63 41 19 43
REMARK SMILES IDX 51 44 31 45 50 46 32 47 35 48 49 49 68 50 33 51 34 52 48 54
REMARK SMILES IDX 69 55 36 56 20 57 21 58 29 59 22 60 23 61 27 62 30 63 24 64
REMARK SMILES IDX 25 65 28 66 26 67 52 68 53 69 61 70 54 71 55 72 59 73 62 74
REMARK SMILES IDX 56 75 57 76 60 77 58 78 37 79 38 80 46 81 39 82 40 83 44 84
REMARK SMILES IDX 47 85 41 86 42 87 45 88 43 89
REMARK H PARENT 67 42 35 53
REMARK Flexibility Score: inf
ROOT
ATOM      1  C   UNL A   1      31.800  28.263  27.614  1.00  0.00     0.274 C 
ENDROOT
BRANCH   1   2
ATOM      2  O   UNL A   1      31.435  27.046  26.929  1.00  0.00    -0.462 OA
BRANCH   2   3
ATOM      3  C   UNL A   1      32.362  26.518  26.081  1.00  0.00     0.313 C 
ATOM      4  O   UNL A   1      33.570  26.553  26.284  1.00  0.00    -0.252 OA
BRANCH   3   5
ATOM      5  C   UNL A   1      31.724  25.902  24.825  1.00  0.00     0.129 C 
ATOM      6  C   UNL A   1      32.746  25.244  23.889  1.00  0.00     0.025 C 
BRANCH   5   7
ATOM      7  C   UNL A   1      30.834  26.915  24.113  1.00  0.00     0.002 A 
ATOM      8  C   UNL A   1      29.445  26.774  24.020  1.00  0.00     0.011 A 
ATOM      9  C   UNL A   1      31.418  27.997  23.440  1.00  0.00     0.130 A 
ATOM     10  C   UNL A   1      28.696  27.673  23.251  1.00  0.00     0.047 A 
ATOM     11  C   UNL A   1      30.672  28.889  22.660  1.00  0.00     0.086 A 
ATOM     12  F   UNL A   1      32.745  28.177  23.511  1.00  0.00    -0.207 F 
ATOM     13  C   UNL A   1      29.301  28.718  22.543  1.00  0.00     0.123 A 
BRANCH  13  14
ATOM     14  O   UNL A   1      28.442  29.375  21.722  1.00  0.00    -0.483 OA
BRANCH  14  15
ATOM     15  C   UNL A   1      27.853  30.619  22.006  1.00  0.00     0.239 C 
ATOM     16  C   UNL A   1      27.927  30.921  23.512  1.00  0.00     0.054 C 
ATOM     17  C   UNL A   1      28.209  31.974  21.385  1.00  0.00     0.173 C 
ATOM     18  C   UNL A   1      28.845  32.129  23.641  1.00  0.00     0.012 C 
ATOM     19  C   UNL A   1      28.518  33.004  22.441  1.00  0.00     0.080 C 
ATOM     20  O   UNL A   1      28.223  32.217  20.183  1.00  0.00    -0.296 OA
ENDBRANCH  14  15
ENDBRANCH  13  14
ENDBRANCH   5   7
ENDBRANCH   3   5
ENDBRANCH   2   3
ENDBRANCH   1   2
BRANCH   1  21
ATOM     21  C   UNL A   1      31.569  29.466  26.705  1.00  0.00     0.275 C 
BRANCH  21  22
ATOM     22  O   UNL A   1      32.843  30.006  26.316  1.00  0.00    -0.458 OA
BRANCH  22  23
ATOM     23  C   UNL A   1      33.275  31.089  27.002  1.00  0.00     0.338 C 
ATOM     24  O   UNL A   1      32.672  32.129  27.197  1.00  0.00    -0.246 OA
BRANCH  23  25
ATOM     25  C   UNL A   1      34.634  30.835  27.523  1.00  0.00     0.060 A 
ATOM     26  C   UNL A   1      35.096  29.533  27.694  1.00  0.00     0.016 A 
ATOM     27  C   UNL A   1      35.419  31.909  27.949  1.00  0.00     0.016 A 
ATOM     28  C   UNL A   1      36.291  29.304  28.376  1.00  0.00     0.010 A 
ATOM     29  C   UNL A   1      36.658  31.673  28.559  1.00  0.00     0.010 A 
ATOM     30  C   UNL A   1      37.089  30.362  28.832  1.00  0.00    -0.014 A 
BRANCH  30  31
ATOM     31  C   UNL A   1      38.313  30.104  29.654  1.00  0.00     0.031 A 
ATOM     32  C   UNL A   1      39.468  29.322  29.077  1.00  0.00     0.074 A 
ATOM     33  C   UNL A   1      38.440  30.596  30.904  1.00  0.00     0.049 A 
ATOM     34  N   UNL A   1      40.504  28.794  29.686  1.00  0.00    -0.248 NA
ATOM     35  C   UNL A   1      39.453  29.087  27.625  1.00  0.00     0.031 C 
ATOM     36  C   UNL A   1      37.460  31.432  31.594  1.00  0.00     0.029 A 
ATOM     37  N   UNL A   1      39.468  30.477  31.810  1.00  0.00    -0.354 N 
ATOM     38  C   UNL A   1      41.204  28.094  28.711  1.00  0.00     0.074 A 
ATOM     39  C   UNL A   1      40.495  28.283  27.464  1.00  0.00     0.031 C 
ATOM     40  C   UNL A   1      37.960  31.811  32.778  1.00  0.00     0.029 A 
ATOM     41  C   UNL A   1      39.245  31.153  32.984  1.00  0.00     0.049 A 
ATOM     42  H   UNL A   1      40.286  29.957  31.634  1.00  0.00     0.167 HD
ATOM     43  C   UNL A   1      42.330  27.352  28.848  1.00  0.00     0.037 A 
ATOM     44  C   UNL A   1      39.963  31.208  34.122  1.00  0.00     0.037 A 
ATOM     45  C   UNL A   1      43.095  27.239  30.063  1.00  0.00     0.049 A 
ATOM     46  C   UNL A   1      41.217  30.394  34.251  1.00  0.00     0.074 A 
ATOM     47  C   UNL A   1      44.250  26.509  30.293  1.00  0.00     0.029 A 
ATOM     48  N   UNL A   1      42.806  27.909  31.241  1.00  0.00    -0.354 N 
ATOM     49  N   UNL A   1      41.796  29.623  33.364  1.00  0.00    -0.248 NA
ATOM     50  C   UNL A   1      41.896  30.426  35.554  1.00  0.00     0.031 C 
ATOM     51  C   UNL A   1      44.654  26.730  31.615  1.00  0.00     0.029 A 
ATOM     52  C   UNL A   1      43.766  27.618  32.198  1.00  0.00     0.049 A 
ATOM     53  H   UNL A   1      42.033  28.503  31.378  1.00  0.00     0.167 HD
ATOM     54  C   UNL A   1      42.893  29.067  34.004  1.00  0.00     0.074 A 
ATOM     55  C   UNL A   1      42.925  29.617  35.343  1.00  0.00     0.031 C 
ATOM     56  C   UNL A   1      43.784  28.165  33.528  1.00  0.00     0.037 A 
BRANCH  43  57
ATOM     57  C   UNL A   1      42.796  26.567  27.659  1.00  0.00     0.064 A 
ATOM     58  C   UNL A   1      43.752  27.066  26.765  1.00  0.00     0.173 A 
ATOM     59  C   UNL A   1      42.316  25.263  27.451  1.00  0.00     0.173 A 
ATOM     60  F   UNL A   1      44.230  28.310  26.916  1.00  0.00    -0.203 F 
ATOM     61  C   UNL A   1      44.200  26.295  25.695  1.00  0.00     0.198 A 
ATOM     62  C   UNL A   1      42.784  24.486  26.394  1.00  0.00     0.198 A 
ATOM     63  F   UNL A   1      41.405  24.737  28.284  1.00  0.00    -0.203 F 
ATOM     64  F   UNL A   1      45.093  26.802  24.834  1.00  0.00    -0.200 F 
ATOM     65  C   UNL A   1      43.722  25.004  25.516  1.00  0.00     0.200 A 
ATOM     66  F   UNL A   1      42.329  23.237  26.229  1.00  0.00    -0.200 F 
ATOM     67  F   UNL A   1      44.166  24.261  24.492  1.00  0.00    -0.200 F 
ENDBRANCH  43  57
BRANCH  44  68
ATOM     68  C   UNL A   1      39.471  32.029  35.257  1.00  0.00     0.064 A 
ATOM     69  C   UNL A   1      38.627  31.478  36.228  1.00  0.00     0.173 A 
ATOM     70  C   UNL A   1      39.849  33.373  35.399  1.00  0.00     0.173 A 
ATOM     71  F   UNL A   1      38.209  30.209  36.111  1.00  0.00    -0.203 F 
ATOM     72  C   UNL A   1      38.179  32.242  37.304  1.00  0.00     0.198 A 
ATOM     73  C   UNL A   1      39.424  34.127  36.489  1.00  0.00     0.198 A 
ATOM     74  F   UNL A   1      40.646  33.947  34.486  1.00  0.00    -0.203 F 
ATOM     75  F   UNL A   1      37.342  31.705  38.202  1.00  0.00    -0.200 F 
ATOM     76  C   UNL A   1      38.587  33.562  37.439  1.00  0.00     0.200 A 
ATOM     77  F   UNL A   1      39.824  35.399  36.618  1.00  0.00    -0.200 F 
ATOM     78  F   UNL A   1      38.162  34.293  38.479  1.00  0.00    -0.200 F 
ENDBRANCH  44  68
BRANCH  56  79
ATOM     79  C   UNL A   1      44.869  27.719  34.459  1.00  0.00     0.064 A 
ATOM     80  C   UNL A   1      46.083  28.414  34.547  1.00  0.00     0.173 A 
ATOM     81  C   UNL A   1      44.683  26.604  35.289  1.00  0.00     0.173 A 
ATOM     82  F   UNL A   1      46.309  29.477  33.760  1.00  0.00    -0.203 F 
ATOM     83  C   UNL A   1      47.082  27.998  35.420  1.00  0.00     0.198 A 
ATOM     84  C   UNL A   1      45.678  26.201  36.174  1.00  0.00     0.198 A 
ATOM     85  F   UNL A   1      43.537  25.908  35.241  1.00  0.00    -0.203 F 
ATOM     86  F   UNL A   1      48.250  28.655  35.463  1.00  0.00    -0.200 F 
ATOM     87  C   UNL A   1      46.879  26.895  36.236  1.00  0.00     0.200 A 
ATOM     88  F   UNL A   1      45.479  25.138  36.965  1.00  0.00    -0.200 F 
ATOM     89  F   UNL A   1      47.843  26.494  37.076  1.00  0.00    -0.200 F 
ENDBRANCH  56  79
ENDBRANCH  30  31
ENDBRANCH  23  25
ENDBRANCH  22  23
ENDBRANCH  21  22
ENDBRANCH   1  21
TORSDOF 14
ENDMDL
MODEL 2
REMARK VINA RESULT:     -12.0      5.214     10.497
REMARK SMILES C[C@@H](C(=O)OCCOC(=O)c1ccc(-c2c3nc(c(-c4c(F)c(F)c(F)c(F)c4F)c4ccc([nH]4)c(-c4c(F)c(F)c(F)c(F)c4F)c4nc(c(-c5c(F)c(F)c(F)c(F)c5F)c5ccc2[nH]5)C=C4)C=C3)cc1)c1ccc(O[C@H]2CCCC2=O)cc1F
REMARK SMILES IDX 6 1 5 2 3 3 4 4 2 5 1 6 74 7 75 8 86 9 76 10 85 11 87 12
REMARK SMILES IDX 77 13 78 14 79 15 80 16 83 17 81 18 82 19 84 20 7 21 8 22
REMARK SMILES IDX 9 23 10 24 11 25 12 26 73 27 13 28 72 29 14 30 15 31 16 32
REMARK SMILES IDX 66 33 17 34 71 35 65 36 67 37 18 38 70 39 64 40 63 41 19 43
REMARK SMILES IDX 51 44 31 45 50 46 32 47 35 48 49 49 68 50 33 51 34 52 48 54
REMARK SMILES IDX 69 55 36 56 20 57 21 58 29 59 22 60 23 61 27 62 30 63 24 64
REMARK SMILES IDX 25 65 28 66 26 67 52 68 53 69 61 70 54 71 55 72 59 73 62 74
REMARK SMILES IDX 56 75 57 76 60 77 58 78 37 79 38 80 46 81 39 82 40 83 44 84
REMARK SMILES IDX 47 85 41 86 42 87 45 88 43 89
REMARK H PARENT 67 42 35 53
REMARK Flexibility Score: inf
ROOT
ATOM      1  C   UNL A   1      36.652  22.638  23.479  1.00  0.00     0.274 C 
ENDROOT
BRANCH   1   2
ATOM      2  O   UNL A   1      35.895  23.674  24.140  1.00  0.00    -0.462 OA
BRANCH   2   3
ATOM      3  C   UNL A   1      34.703  24.020  23.574  1.00  0.00     0.313 C 
ATOM      4  O   UNL A   1      34.571  24.322  22.394  1.00  0.00    -0.252 OA
BRANCH   3   5
ATOM      5  C   UNL A   1      33.550  24.018  24.590  1.00  0.00     0.129 C 
ATOM      6  C   UNL A   1      33.824  24.901  25.815  1.00  0.00     0.025 C 
BRANCH   5   7
ATOM      7  C   UNL A   1      33.154  22.593  24.963  1.00  0.00     0.002 A 
ATOM      8  C   UNL A   1      33.511  21.997  26.177  1.00  0.00     0.011 A 
ATOM      9  C   UNL A   1      32.477  21.796  24.029  1.00  0.00     0.130 A 
ATOM     10  C   UNL A   1      33.222  20.648  26.412  1.00  0.00     0.047 A 
ATOM     11  C   UNL A   1      32.199  20.443  24.257  1.00  0.00     0.086 A 
ATOM     12  F   UNL A   1      32.106  22.330  22.855  1.00  0.00    -0.207 F 
ATOM     13  C   UNL A   1      32.592  19.852  25.448  1.00  0.00     0.123 A 
BRANCH  13  14
ATOM     14  O   UNL A   1      32.551  18.537  25.784  1.00  0.00    -0.483 OA
BRANCH  14  15
ATOM     15  C   UNL A   1      32.981  17.484  24.957  1.00  0.00     0.239 C 
ATOM     16  C   UNL A   1      34.378  17.779  24.388  1.00  0.00     0.054 C 
ATOM     17  C   UNL A   1      33.088  16.001  25.330  1.00  0.00     0.173 C 
ATOM     18  C   UNL A   1      35.297  16.728  24.996  1.00  0.00     0.012 C 
ATOM     19  C   UNL A   1      34.464  15.457  25.045  1.00  0.00     0.080 C 
ATOM     20  O   UNL A   1      32.173  15.320  25.779  1.00  0.00    -0.296 OA
ENDBRANCH  14  15
ENDBRANCH  13  14
ENDBRANCH   5   7
ENDBRANCH   3   5
ENDBRANCH   2   3
ENDBRANCH   1   2
BRANCH   1  21
ATOM     21  C   UNL A   1      36.776  21.419  24.389  1.00  0.00     0.275 C 
BRANCH  21  22
ATOM     22  O   UNL A   1      37.254  21.846  25.676  1.00  0.00    -0.458 OA
BRANCH  22  23
ATOM     23  C   UNL A   1      38.551  21.586  25.955  1.00  0.00     0.338 C 
ATOM     24  O   UNL A   1      39.159  20.552  25.744  1.00  0.00    -0.246 OA
BRANCH  23  25
ATOM     25  C   UNL A   1      39.175  22.777  26.568  1.00  0.00     0.060 A 
ATOM     26  C   UNL A   1      38.657  24.048  26.333  1.00  0.00     0.016 A 
ATOM     27  C   UNL A   1      40.357  22.635  27.299  1.00  0.00     0.016 A 
ATOM     28  C   UNL A   1      39.370  25.175  26.743  1.00  0.00     0.010 A 
ATOM     29  C   UNL A   1      41.024  23.771  27.779  1.00  0.00     0.010 A 
ATOM     30  C   UNL A   1      40.569  25.062  27.460  1.00  0.00    -0.014 A 
BRANCH  30  31
ATOM     31  C   UNL A   1      41.378  26.275  27.800  1.00  0.00     0.031 A 
ATOM     32  C   UNL A   1      40.810  27.342  28.704  1.00  0.00     0.074 A 
ATOM     33  C   UNL A   1      42.642  26.428  27.354  1.00  0.00     0.049 A 
ATOM     34  N   UNL A   1      41.243  28.560  28.931  1.00  0.00    -0.248 NA
ATOM     35  C   UNL A   1      39.581  27.005  29.440  1.00  0.00     0.031 C 
ATOM     36  C   UNL A   1      43.378  25.467  26.535  1.00  0.00     0.029 A 
ATOM     37  N   UNL A   1      43.542  27.450  27.552  1.00  0.00    -0.354 N 
ATOM     38  C   UNL A   1      40.297  29.156  29.756  1.00  0.00     0.074 A 
ATOM     39  C   UNL A   1      39.277  28.161  30.014  1.00  0.00     0.031 C 
ATOM     40  C   UNL A   1      44.633  25.906  26.361  1.00  0.00     0.029 A 
ATOM     41  C   UNL A   1      44.760  27.231  26.956  1.00  0.00     0.049 A 
ATOM     42  H   UNL A   1      43.332  28.260  28.071  1.00  0.00     0.167 HD
ATOM     43  C   UNL A   1      40.276  30.419  30.243  1.00  0.00     0.037 A 
ATOM     44  C   UNL A   1      45.847  28.019  26.854  1.00  0.00     0.037 A 
ATOM     45  C   UNL A   1      41.334  31.382  30.072  1.00  0.00     0.049 A 
ATOM     46  C   UNL A   1      45.813  29.410  27.415  1.00  0.00     0.074 A 
ATOM     47  C   UNL A   1      41.398  32.688  30.531  1.00  0.00     0.029 A 
ATOM     48  N   UNL A   1      42.532  31.129  29.423  1.00  0.00    -0.354 N 
ATOM     49  N   UNL A   1      44.855  30.012  28.075  1.00  0.00    -0.248 NA
ATOM     50  C   UNL A   1      47.000  30.246  27.182  1.00  0.00     0.031 C 
ATOM     51  C   UNL A   1      42.632  33.228  30.152  1.00  0.00     0.029 A 
ATOM     52  C   UNL A   1      43.346  32.250  29.480  1.00  0.00     0.049 A 
ATOM     53  H   UNL A   1      42.769  30.280  28.987  1.00  0.00     0.167 HD
ATOM     54  C   UNL A   1      45.313  31.298  28.320  1.00  0.00     0.074 A 
ATOM     55  C   UNL A   1      46.651  31.381  27.773  1.00  0.00     0.031 C 
ATOM     56  C   UNL A   1      44.671  32.324  28.928  1.00  0.00     0.037 A 
BRANCH  43  57
ATOM     57  C   UNL A   1      39.051  30.859  30.987  1.00  0.00     0.064 A 
ATOM     58  C   UNL A   1      37.945  31.420  30.334  1.00  0.00     0.173 A 
ATOM     59  C   UNL A   1      38.964  30.655  32.374  1.00  0.00     0.173 A 
ATOM     60  F   UNL A   1      37.986  31.646  29.013  1.00  0.00    -0.203 F 
ATOM     61  C   UNL A   1      36.802  31.777  31.046  1.00  0.00     0.198 A 
ATOM     62  C   UNL A   1      37.810  30.990  33.078  1.00  0.00     0.198 A 
ATOM     63  F   UNL A   1      39.992  30.113  33.044  1.00  0.00    -0.203 F 
ATOM     64  F   UNL A   1      35.767  32.340  30.407  1.00  0.00    -0.200 F 
ATOM     65  C   UNL A   1      36.732  31.553  32.413  1.00  0.00     0.200 A 
ATOM     66  F   UNL A   1      37.741  30.764  34.396  1.00  0.00    -0.200 F 
ATOM     67  F   UNL A   1      35.624  31.886  33.092  1.00  0.00    -0.200 F 
ENDBRANCH  43  57
BRANCH  44  68
ATOM     68  C   UNL A   1      47.045  27.519  26.135  1.00  0.00     0.064 A 
ATOM     69  C   UNL A   1      47.146  27.632  24.743  1.00  0.00     0.173 A 
ATOM     70  C   UNL A   1      48.117  26.934  26.827  1.00  0.00     0.173 A 
ATOM     71  F   UNL A   1      46.129  28.149  24.038  1.00  0.00    -0.203 F 
ATOM     72  C   UNL A   1      48.279  27.181  24.068  1.00  0.00     0.198 A 
ATOM     73  C   UNL A   1      49.259  26.509  26.155  1.00  0.00     0.198 A 
ATOM     74  F   UNL A   1      48.059  26.793  28.159  1.00  0.00    -0.203 F 
ATOM     75  F   UNL A   1      48.338  27.265  22.733  1.00  0.00    -0.200 F 
ATOM     76  C   UNL A   1      49.338  26.630  24.776  1.00  0.00     0.200 A 
ATOM     77  F   UNL A   1      50.282  25.982  26.842  1.00  0.00    -0.200 F 
ATOM     78  F   UNL A   1      50.430  26.203  24.126  1.00  0.00    -0.200 F 
ENDBRANCH  44  68
BRANCH  56  79
ATOM     79  C   UNL A   1      45.409  33.623  29.035  1.00  0.00     0.064 A 
ATOM     80  C   UNL A   1      45.282  34.614  28.052  1.00  0.00     0.173 A 
ATOM     81  C   UNL A   1      46.228  33.889  30.141  1.00  0.00     0.173 A 
ATOM     82  F   UNL A   1      44.520  34.396  26.969  1.00  0.00    -0.203 F 
ATOM     83  C   UNL A   1      45.964  35.821  28.163  1.00  0.00     0.198 A 
ATOM     84  C   UNL A   1      46.895  35.104  30.258  1.00  0.00     0.198 A 
ATOM     85  F   UNL A   1      46.379  32.971  31.108  1.00  0.00    -0.203 F 
ATOM     86  F   UNL A   1      45.858  36.741  27.195  1.00  0.00    -0.200 F 
ATOM     87  C   UNL A   1      46.767  36.068  29.267  1.00  0.00     0.200 A 
ATOM     88  F   UNL A   1      47.668  35.343  31.327  1.00  0.00    -0.200 F 
ATOM     89  F   UNL A   1      47.426  37.230  29.372  1.00  0.00    -0.200 F 
ENDBRANCH  56  79
ENDBRANCH  30  31
ENDBRANCH  23  25
ENDBRANCH  22  23
ENDBRANCH  21  22
ENDBRANCH   1  21
TORSDOF 14
ENDMDL
MODEL 3
REMARK VINA RESULT:     -12.0      2.408      4.532
REMARK SMILES C[C@@H](C(=O)OCCOC(=O)c1ccc(-c2c3nc(c(-c4c(F)c(F)c(F)c(F)c4F)c4ccc([nH]4)c(-c4c(F)c(F)c(F)c(F)c4F)c4nc(c(-c5c(F)c(F)c(F)c(F)c5F)c5ccc2[nH]5)C=C4)C=C3)cc1)c1ccc(O[C@H]2CCCC2=O)cc1F
REMARK SMILES IDX 6 1 5 2 3 3 4 4 2 5 1 6 74 7 75 8 86 9 76 10 85 11 87 12
REMARK SMILES IDX 77 13 78 14 79 15 80 16 83 17 81 18 82 19 84 20 7 21 8 22
REMARK SMILES IDX 9 23 10 24 11 25 12 26 73 27 13 28 72 29 14 30 15 31 16 32
REMARK SMILES IDX 66 33 17 34 71 35 65 36 67 37 18 38 70 39 64 40 63 41 19 43
REMARK SMILES IDX 51 44 31 45 50 46 32 47 35 48 49 49 68 50 33 51 34 52 48 54
REMARK SMILES IDX 69 55 36 56 20 57 21 58 29 59 22 60 23 61 27 62 30 63 24 64
REMARK SMILES IDX 25 65 28 66 26 67 52 68 53 69 61 70 54 71 55 72 59 73 62 74
REMARK SMILES IDX 56 75 57 76 60 77 58 78 37 79 38 80 46 81 39 82 40 83 44 84
REMARK SMILES IDX 47 85 41 86 42 87 45 88 43 89
REMARK H PARENT 67 42 35 53
REMARK Flexibility Score: inf
ROOT
ATOM      1  C   UNL A   1      32.820  29.104  24.638  1.00  0.00     0.274 C 
ENDROOT
BRANCH   1   2
ATOM      2  O   UNL A   1      32.191  27.927  24.088  1.00  0.00    -0.462 OA
BRANCH   2   3
ATOM      3  C   UNL A   1      32.691  26.722  24.485  1.00  0.00     0.313 C 
ATOM      4  O   UNL A   1      32.540  26.258  25.609  1.00  0.00    -0.252 OA
BRANCH   3   5
ATOM      5  C   UNL A   1      33.494  26.026  23.374  1.00  0.00     0.129 C 
ATOM      6  C   UNL A   1      33.323  26.689  22.001  1.00  0.00     0.025 C 
BRANCH   5   7
ATOM      7  C   UNL A   1      33.208  24.528  23.351  1.00  0.00     0.002 A 
ATOM      8  C   UNL A   1      31.958  23.999  23.013  1.00  0.00     0.011 A 
ATOM      9  C   UNL A   1      34.198  23.627  23.766  1.00  0.00     0.130 A 
ATOM     10  C   UNL A   1      31.722  22.623  23.126  1.00  0.00     0.047 A 
ATOM     11  C   UNL A   1      33.959  22.253  23.893  1.00  0.00     0.086 A 
ATOM     12  F   UNL A   1      35.415  24.090  24.089  1.00  0.00    -0.207 F 
ATOM     13  C   UNL A   1      32.706  21.744  23.592  1.00  0.00     0.123 A 
BRANCH  13  14
ATOM     14  O   UNL A   1      32.243  20.484  23.798  1.00  0.00    -0.483 OA
BRANCH  14  15
ATOM     15  C   UNL A   1      33.053  19.343  23.935  1.00  0.00     0.239 C 
ATOM     16  C   UNL A   1      33.222  18.975  25.418  1.00  0.00     0.054 C 
ATOM     17  C   UNL A   1      32.839  17.973  23.281  1.00  0.00     0.173 C 
ATOM     18  C   UNL A   1      32.531  17.628  25.585  1.00  0.00     0.012 C 
ATOM     19  C   UNL A   1      32.836  16.867  24.305  1.00  0.00     0.080 C 
ATOM     20  O   UNL A   1      32.710  17.779  22.078  1.00  0.00    -0.296 OA
ENDBRANCH  14  15
ENDBRANCH  13  14
ENDBRANCH   5   7
ENDBRANCH   3   5
ENDBRANCH   2   3
ENDBRANCH   1   2
BRANCH   1  21
ATOM     21  C   UNL A   1      31.810  29.902  25.459  1.00  0.00     0.275 C 
BRANCH  21  22
ATOM     22  O   UNL A   1      32.305  30.037  26.802  1.00  0.00    -0.458 OA
BRANCH  22  23
ATOM     23  C   UNL A   1      32.938  31.194  27.099  1.00  0.00     0.338 C 
ATOM     24  O   UNL A   1      32.504  32.326  26.980  1.00  0.00    -0.246 OA
BRANCH  23  25
ATOM     25  C   UNL A   1      34.287  30.900  27.626  1.00  0.00     0.060 A 
ATOM     26  C   UNL A   1      34.692  29.585  27.843  1.00  0.00     0.016 A 
ATOM     27  C   UNL A   1      35.120  31.953  28.010  1.00  0.00     0.016 A 
ATOM     28  C   UNL A   1      35.878  29.329  28.530  1.00  0.00     0.010 A 
ATOM     29  C   UNL A   1      36.351  31.684  28.626  1.00  0.00     0.010 A 
ATOM     30  C   UNL A   1      36.724  30.367  28.945  1.00  0.00    -0.014 A 
BRANCH  30  31
ATOM     31  C   UNL A   1      37.939  30.085  29.773  1.00  0.00     0.031 A 
ATOM     32  C   UNL A   1      39.087  29.292  29.198  1.00  0.00     0.074 A 
ATOM     33  C   UNL A   1      38.064  30.564  31.028  1.00  0.00     0.049 A 
ATOM     34  N   UNL A   1      40.111  28.744  29.809  1.00  0.00    -0.248 NA
ATOM     35  C   UNL A   1      39.078  29.068  27.743  1.00  0.00     0.031 C 
ATOM     36  C   UNL A   1      37.091  31.409  31.718  1.00  0.00     0.029 A 
ATOM     37  N   UNL A   1      39.085  30.424  31.940  1.00  0.00    -0.354 N 
ATOM     38  C   UNL A   1      40.808  28.042  28.834  1.00  0.00     0.074 A 
ATOM     39  C   UNL A   1      40.110  28.251  27.584  1.00  0.00     0.031 C 
ATOM     40  C   UNL A   1      37.589  31.771  32.909  1.00  0.00     0.029 A 
ATOM     41  C   UNL A   1      38.862  31.094  33.118  1.00  0.00     0.049 A 
ATOM     42  H   UNL A   1      39.896  29.894  31.765  1.00  0.00     0.167 HD
ATOM     43  C   UNL A   1      41.923  27.284  28.972  1.00  0.00     0.037 A 
ATOM     44  C   UNL A   1      39.574  31.129  34.262  1.00  0.00     0.037 A 
ATOM     45  C   UNL A   1      42.678  27.150  30.191  1.00  0.00     0.049 A 
ATOM     46  C   UNL A   1      40.815  30.296  34.392  1.00  0.00     0.074 A 
ATOM     47  C   UNL A   1      43.821  26.402  30.423  1.00  0.00     0.029 A 
ATOM     48  N   UNL A   1      42.390  27.814  31.372  1.00  0.00    -0.354 N 
ATOM     49  N   UNL A   1      41.389  29.525  33.503  1.00  0.00    -0.248 NA
ATOM     50  C   UNL A   1      41.486  30.309  35.700  1.00  0.00     0.031 C 
ATOM     51  C   UNL A   1      44.219  26.607  31.749  1.00  0.00     0.029 A 
ATOM     52  C   UNL A   1      43.339  27.502  32.333  1.00  0.00     0.049 A 
ATOM     53  H   UNL A   1      41.625  28.418  31.509  1.00  0.00     0.167 HD
ATOM     54  C   UNL A   1      42.475  28.949  34.146  1.00  0.00     0.074 A 
ATOM     55  C   UNL A   1      42.505  29.487  35.489  1.00  0.00     0.031 C 
ATOM     56  C   UNL A   1      43.356  28.038  33.667  1.00  0.00     0.037 A 
BRANCH  43  57
ATOM     57  C   UNL A   1      42.385  26.502  27.779  1.00  0.00     0.064 A 
ATOM     58  C   UNL A   1      43.379  26.980  26.915  1.00  0.00     0.173 A 
ATOM     59  C   UNL A   1      41.862  25.220  27.538  1.00  0.00     0.173 A 
ATOM     60  F   UNL A   1      43.900  28.203  27.098  1.00  0.00    -0.203 F 
ATOM     61  C   UNL A   1      43.822  26.210  25.841  1.00  0.00     0.198 A 
ATOM     62  C   UNL A   1      42.324  24.445  26.478  1.00  0.00     0.198 A 
ATOM     63  F   UNL A   1      40.914  24.714  28.341  1.00  0.00    -0.203 F 
ATOM     64  F   UNL A   1      44.752  26.699  25.009  1.00  0.00    -0.200 F 
ATOM     65  C   UNL A   1      43.301  24.942  25.630  1.00  0.00     0.200 A 
ATOM     66  F   UNL A   1      41.828  23.216  26.281  1.00  0.00    -0.200 F 
ATOM     67  F   UNL A   1      43.740  24.200  24.603  1.00  0.00    -0.200 F 
ENDBRANCH  43  57
BRANCH  44  68
ATOM     68  C   UNL A   1      39.086  31.948  35.399  1.00  0.00     0.064 A 
ATOM     69  C   UNL A   1      38.310  31.375  36.415  1.00  0.00     0.173 A 
ATOM     70  C   UNL A   1      39.399  33.312  35.500  1.00  0.00     0.173 A 
ATOM     71  F   UNL A   1      37.955  30.084  36.339  1.00  0.00    -0.203 F 
ATOM     72  C   UNL A   1      37.867  32.138  37.494  1.00  0.00     0.198 A 
ATOM     73  C   UNL A   1      38.979  34.066  36.592  1.00  0.00     0.198 A 
ATOM     74  F   UNL A   1      40.128  33.906  34.545  1.00  0.00    -0.203 F 
ATOM     75  F   UNL A   1      37.096  31.578  38.435  1.00  0.00    -0.200 F 
ATOM     76  C   UNL A   1      38.211  33.479  37.587  1.00  0.00     0.200 A 
ATOM     77  F   UNL A   1      39.318  35.359  36.681  1.00  0.00    -0.200 F 
ATOM     78  F   UNL A   1      37.791  34.210  38.629  1.00  0.00    -0.200 F 
ENDBRANCH  44  68
BRANCH  56  79
ATOM     79  C   UNL A   1      44.428  27.569  34.602  1.00  0.00     0.064 A 
ATOM     80  C   UNL A   1      44.277  26.393  35.350  1.00  0.00     0.173 A 
ATOM     81  C   UNL A   1      45.625  28.287  34.733  1.00  0.00     0.173 A 
ATOM     82  F   UNL A   1      43.141  25.683  35.267  1.00  0.00    -0.203 F 
ATOM     83  C   UNL A   1      45.280  25.960  36.211  1.00  0.00     0.198 A 
ATOM     84  C   UNL A   1      46.634  27.841  35.582  1.00  0.00     0.198 A 
ATOM     85  F   UNL A   1      45.816  29.417  34.036  1.00  0.00    -0.203 F 
ATOM     86  F   UNL A   1      45.101  24.852  36.944  1.00  0.00    -0.200 F 
ATOM     87  C   UNL A   1      46.459  26.681  36.324  1.00  0.00     0.200 A 
ATOM     88  F   UNL A   1      47.775  28.537  35.687  1.00  0.00    -0.200 F 
ATOM     89  F   UNL A   1      47.425  26.265  37.155  1.00  0.00    -0.200 F 
ENDBRANCH  56  79
ENDBRANCH  30  31
ENDBRANCH  23  25
ENDBRANCH  22  23
ENDBRANCH  21  22
ENDBRANCH   1  21
TORSDOF 14
ENDMDL
