MODEL 1
REMARK VINA RESULT:     -12.0      0.000      0.000
REMARK SMILES O=C(OCCOC(=O)c1ccc(-c2c3nc(c(-c4c(F)c(F)c(F)c(F)c4F)c4ccc([nH]4)c(-c4c(F)c(F)c(F)c(F)c4F)c4nc(c(-c5c(F)c(F)c(F)c(F)c5F)c5ccc2[nH]5)C=C4)C=C3)cc1)c1ccc(N[C@H]2OC[C@@H](O)[C@@H](O)[C@H]2O)cc1
REMARK SMILES IDX 4 1 3 2 2 3 1 4 72 5 73 6 87 7 74 8 86 9 75 10 76 11 77 13
REMARK SMILES IDX 78 14 84 15 79 16 82 17 80 18 85 19 83 21 81 23 5 25 6 26
REMARK SMILES IDX 7 27 8 28 9 29 10 30 71 31 11 32 70 33 12 34 13 35 14 36
REMARK SMILES IDX 64 37 15 38 69 39 63 40 65 41 16 42 68 43 62 44 61 45 17 47
REMARK SMILES IDX 49 48 29 49 48 50 30 51 33 52 47 53 66 54 31 55 32 56 46 58
REMARK SMILES IDX 67 59 34 60 18 61 19 62 27 63 20 64 21 65 25 66 28 67 22 68
REMARK SMILES IDX 23 69 26 70 24 71 50 72 51 73 59 74 52 75 53 76 57 77 60 78
REMARK SMILES IDX 54 79 55 80 58 81 56 82 35 83 36 84 44 85 37 86 38 87 42 88
REMARK SMILES IDX 45 89 39 90 40 91 43 92 41 93
REMARK H PARENT 76 12 85 20 83 22 81 24 65 46 33 57
REMARK Flexibility Score: inf
ROOT
ATOM      1  C   UNL A   1      42.563  20.607  26.101  1.00  0.00     0.275 C 
ENDROOT
BRANCH   1   2
ATOM      2  O   UNL A   1      41.196  20.967  25.828  1.00  0.00    -0.458 OA
BRANCH   2   3
ATOM      3  C   UNL A   1      40.250  21.513  26.629  1.00  0.00     0.338 C 
ATOM      4  O   UNL A   1      40.393  21.405  27.848  1.00  0.00    -0.246 OA
BRANCH   3   5
ATOM      5  C   UNL A   1      38.968  22.127  26.141  1.00  0.00     0.060 A 
ATOM      6  C   UNL A   1      38.462  23.377  26.481  1.00  0.00     0.018 A 
ATOM      7  C   UNL A   1      38.231  21.388  25.200  1.00  0.00     0.018 A 
ATOM      8  C   UNL A   1      37.370  23.932  25.801  1.00  0.00     0.026 A 
ATOM      9  C   UNL A   1      37.107  21.932  24.557  1.00  0.00     0.026 A 
ATOM     10  C   UNL A   1      36.712  23.248  24.781  1.00  0.00     0.036 A 
BRANCH  10  11
ATOM     11  N   UNL A   1      35.730  23.825  23.994  1.00  0.00    -0.358 N 
ATOM     12  H   UNL A   1      35.994  24.488  23.316  1.00  0.00     0.163 HD
BRANCH  11  13
ATOM     13  C   UNL A   1      34.325  23.484  24.131  1.00  0.00     0.244 C 
ATOM     14  O   UNL A   1      33.568  24.685  24.317  1.00  0.00    -0.353 OA
ATOM     15  C   UNL A   1      33.786  22.769  22.874  1.00  0.00     0.195 C 
ATOM     16  C   UNL A   1      32.194  24.431  24.632  1.00  0.00     0.197 C 
ATOM     17  C   UNL A   1      32.335  22.367  23.190  1.00  0.00     0.178 C 
ATOM     18  C   UNL A   1      31.492  23.604  23.548  1.00  0.00     0.171 C 
BRANCH  15  19
ATOM     19  O   UNL A   1      33.782  23.650  21.727  1.00  0.00    -0.386 OA
ATOM     20  H   UNL A   1      34.529  23.431  21.147  1.00  0.00     0.211 HD
ENDBRANCH  15  19
BRANCH  17  21
ATOM     21  O   UNL A   1      31.756  21.674  22.085  1.00  0.00    -0.387 OA
ATOM     22  H   UNL A   1      31.907  20.721  22.185  1.00  0.00     0.211 HD
ENDBRANCH  17  21
BRANCH  18  23
ATOM     23  O   UNL A   1      31.286  24.418  22.383  1.00  0.00    -0.388 OA
ATOM     24  H   UNL A   1      32.062  24.357  21.804  1.00  0.00     0.211 HD
ENDBRANCH  18  23
ENDBRANCH  11  13
ENDBRANCH  10  11
ENDBRANCH   3   5
ENDBRANCH   2   3
ENDBRANCH   1   2
BRANCH   1  25
ATOM     25  C   UNL A   1      43.584  21.553  25.458  1.00  0.00     0.275 C 
BRANCH  25  26
ATOM     26  O   UNL A   1      42.973  22.723  24.888  1.00  0.00    -0.458 OA
BRANCH  26  27
ATOM     27  C   UNL A   1      43.725  23.856  24.951  1.00  0.00     0.338 C 
ATOM     28  O   UNL A   1      44.662  24.140  24.232  1.00  0.00    -0.246 OA
BRANCH  27  29
ATOM     29  C   UNL A   1      43.164  24.791  25.960  1.00  0.00     0.060 A 
ATOM     30  C   UNL A   1      43.708  26.080  26.043  1.00  0.00     0.016 A 
ATOM     31  C   UNL A   1      42.125  24.425  26.816  1.00  0.00     0.016 A 
ATOM     32  C   UNL A   1      43.231  26.995  26.990  1.00  0.00     0.010 A 
ATOM     33  C   UNL A   1      41.643  25.346  27.755  1.00  0.00     0.010 A 
ATOM     34  C   UNL A   1      42.200  26.633  27.866  1.00  0.00    -0.014 A 
BRANCH  34  35
ATOM     35  C   UNL A   1      41.757  27.526  28.972  1.00  0.00     0.031 A 
ATOM     36  C   UNL A   1      42.440  27.435  30.307  1.00  0.00     0.074 A 
ATOM     37  C   UNL A   1      40.723  28.377  28.833  1.00  0.00     0.049 A 
ATOM     38  N   UNL A   1      42.156  28.046  31.428  1.00  0.00    -0.248 NA
ATOM     39  C   UNL A   1      43.599  26.535  30.383  1.00  0.00     0.031 C 
ATOM     40  C   UNL A   1      39.999  28.627  27.595  1.00  0.00     0.029 A 
ATOM     41  N   UNL A   1      40.082  29.170  29.758  1.00  0.00    -0.354 N 
ATOM     42  C   UNL A   1      43.102  27.608  32.344  1.00  0.00     0.074 A 
ATOM     43  C   UNL A   1      43.933  26.638  31.660  1.00  0.00     0.031 C 
ATOM     44  C   UNL A   1      38.970  29.455  27.842  1.00  0.00     0.029 A 
ATOM     45  C   UNL A   1      38.970  29.805  29.262  1.00  0.00     0.049 A 
ATOM     46  H   UNL A   1      40.392  29.271  30.686  1.00  0.00     0.167 HD
ATOM     47  C   UNL A   1      43.284  27.994  33.629  1.00  0.00     0.037 A 
ATOM     48  C   UNL A   1      38.052  30.577  29.876  1.00  0.00     0.037 A 
ATOM     49  C   UNL A   1      42.470  28.958  34.320  1.00  0.00     0.049 A 
ATOM     50  C   UNL A   1      38.213  30.926  31.333  1.00  0.00     0.074 A 
ATOM     51  C   UNL A   1      42.620  29.446  35.607  1.00  0.00     0.029 A 
ATOM     52  N   UNL A   1      41.343  29.567  33.791  1.00  0.00    -0.354 N 
ATOM     53  N   UNL A   1      39.155  30.564  32.169  1.00  0.00    -0.248 NA
ATOM     54  C   UNL A   1      37.198  31.812  31.926  1.00  0.00     0.031 C 
ATOM     55  C   UNL A   1      41.548  30.304  35.878  1.00  0.00     0.029 A 
ATOM     56  C   UNL A   1      40.765  30.398  34.740  1.00  0.00     0.049 A 
ATOM     57  H   UNL A   1      41.003  29.430  32.877  1.00  0.00     0.167 HD
ATOM     58  C   UNL A   1      38.875  31.212  33.366  1.00  0.00     0.074 A 
ATOM     59  C   UNL A   1      37.669  31.983  33.154  1.00  0.00     0.031 C 
ATOM     60  C   UNL A   1      39.572  31.178  34.529  1.00  0.00     0.037 A 
BRANCH  47  61
ATOM     61  C   UNL A   1      44.409  27.344  34.377  1.00  0.00     0.064 A 
ATOM     62  C   UNL A   1      44.226  26.150  35.091  1.00  0.00     0.173 A 
ATOM     63  C   UNL A   1      45.684  27.927  34.384  1.00  0.00     0.173 A 
ATOM     64  F   UNL A   1      43.020  25.561  35.124  1.00  0.00    -0.203 F 
ATOM     65  C   UNL A   1      45.267  25.589  35.825  1.00  0.00     0.198 A 
ATOM     66  C   UNL A   1      46.732  27.345  35.092  1.00  0.00     0.198 A 
ATOM     67  F   UNL A   1      45.914  29.062  33.708  1.00  0.00    -0.203 F 
ATOM     68  F   UNL A   1      45.051  24.486  36.554  1.00  0.00    -0.200 F 
ATOM     69  C   UNL A   1      46.518  26.185  35.822  1.00  0.00     0.200 A 
ATOM     70  F   UNL A   1      47.945  27.914  35.078  1.00  0.00    -0.200 F 
ATOM     71  F   UNL A   1      47.519  25.647  36.533  1.00  0.00    -0.200 F 
ENDBRANCH  47  61
BRANCH  48  72
ATOM     72  C   UNL A   1      36.889  31.087  29.105  1.00  0.00     0.064 A 
ATOM     73  C   UNL A   1      36.814  32.427  28.704  1.00  0.00     0.173 A 
ATOM     74  C   UNL A   1      35.824  30.240  28.761  1.00  0.00     0.173 A 
ATOM     75  F   UNL A   1      37.798  33.278  29.030  1.00  0.00    -0.203 F 
ATOM     76  C   UNL A   1      35.710  32.906  28.001  1.00  0.00     0.198 A 
ATOM     77  C   UNL A   1      34.732  30.716  28.041  1.00  0.00     0.198 A 
ATOM     78  F   UNL A   1      35.854  28.947  29.117  1.00  0.00    -0.203 F 
ATOM     79  F   UNL A   1      35.646  34.201  27.660  1.00  0.00    -0.200 F 
ATOM     80  C   UNL A   1      34.672  32.050  27.666  1.00  0.00     0.200 A 
ATOM     81  F   UNL A   1      33.735  29.881  27.711  1.00  0.00    -0.200 F 
ATOM     82  F   UNL A   1      33.612  32.510  26.987  1.00  0.00    -0.200 F 
ENDBRANCH  48  72
BRANCH  60  83
ATOM     83  C   UNL A   1      39.091  32.035  35.666  1.00  0.00     0.064 A 
ATOM     84  C   UNL A   1      38.257  31.531  36.674  1.00  0.00     0.173 A 
ATOM     85  C   UNL A   1      39.537  33.362  35.788  1.00  0.00     0.173 A 
ATOM     86  F   UNL A   1      37.789  30.276  36.598  1.00  0.00    -0.203 F 
ATOM     87  C   UNL A   1      37.881  32.325  37.757  1.00  0.00     0.198 A 
ATOM     88  C   UNL A   1      39.182  34.142  36.885  1.00  0.00     0.198 A 
ATOM     89  F   UNL A   1      40.340  33.893  34.854  1.00  0.00    -0.203 F 
ATOM     90  F   UNL A   1      37.059  31.831  38.694  1.00  0.00    -0.200 F 
ATOM     91  C   UNL A   1      38.352  33.624  37.867  1.00  0.00     0.200 A 
ATOM     92  F   UNL A   1      39.651  35.393  36.997  1.00  0.00    -0.200 F 
ATOM     93  F   UNL A   1      38.005  34.379  38.919  1.00  0.00    -0.200 F 
ENDBRANCH  60  83
ENDBRANCH  34  35
ENDBRANCH  27  29
ENDBRANCH  26  27
ENDBRANCH  25  26
ENDBRANCH   1  25
TORSDOF 16
ENDMDL
MODEL 2
REMARK VINA RESULT:     -11.8      0.509      1.780
REMARK SMILES O=C(OCCOC(=O)c1ccc(-c2c3nc(c(-c4c(F)c(F)c(F)c(F)c4F)c4ccc([nH]4)c(-c4c(F)c(F)c(F)c(F)c4F)c4nc(c(-c5c(F)c(F)c(F)c(F)c5F)c5ccc2[nH]5)C=C4)C=C3)cc1)c1ccc(N[C@H]2OC[C@@H](O)[C@@H](O)[C@H]2O)cc1
REMARK SMILES IDX 4 1 3 2 2 3 1 4 72 5 73 6 87 7 74 8 86 9 75 10 76 11 77 13
REMARK SMILES IDX 78 14 84 15 79 16 82 17 80 18 85 19 83 21 81 23 5 25 6 26
REMARK SMILES IDX 7 27 8 28 9 29 10 30 71 31 11 32 70 33 12 34 13 35 14 36
REMARK SMILES IDX 64 37 15 38 69 39 63 40 65 41 16 42 68 43 62 44 61 45 17 47
REMARK SMILES IDX 49 48 29 49 48 50 30 51 33 52 47 53 66 54 31 55 32 56 46 58
REMARK SMILES IDX 67 59 34 60 18 61 19 62 27 63 20 64 21 65 25 66 28 67 22 68
REMARK SMILES IDX 23 69 26 70 24 71 50 72 51 73 59 74 52 75 53 76 57 77 60 78
REMARK SMILES IDX 54 79 55 80 58 81 56 82 35 83 36 84 44 85 37 86 38 87 42 88
REMARK SMILES IDX 45 89 39 90 40 91 43 92 41 93
REMARK H PARENT 76 12 85 20 83 22 81 24 65 46 33 57
REMARK Flexibility Score: inf
ROOT
ATOM      1  C   UNL A   1      42.689  20.474  26.169  1.00  0.00     0.275 C 
ENDROOT
BRANCH   1   2
ATOM      2  O   UNL A   1      41.292  20.704  25.907  1.00  0.00    -0.458 OA
BRANCH   2   3
ATOM      3  C   UNL A   1      40.347  21.327  26.650  1.00  0.00     0.338 C 
ATOM      4  O   UNL A   1      40.455  21.285  27.877  1.00  0.00    -0.246 OA
BRANCH   3   5
ATOM      5  C   UNL A   1      39.099  21.954  26.095  1.00  0.00     0.060 A 
ATOM      6  C   UNL A   1      38.162  21.350  25.263  1.00  0.00     0.018 A 
ATOM      7  C   UNL A   1      38.818  23.270  26.501  1.00  0.00     0.018 A 
ATOM      8  C   UNL A   1      36.932  21.960  24.984  1.00  0.00     0.026 A 
ATOM      9  C   UNL A   1      37.604  23.895  26.177  1.00  0.00     0.026 A 
ATOM     10  C   UNL A   1      36.601  23.216  25.488  1.00  0.00     0.036 A 
BRANCH  10  11
ATOM     11  N   UNL A   1      35.344  23.778  25.353  1.00  0.00    -0.358 N 
ATOM     12  H   UNL A   1      35.148  24.622  25.821  1.00  0.00     0.163 HD
BRANCH  11  13
ATOM     13  C   UNL A   1      34.304  23.169  24.544  1.00  0.00     0.244 C 
ATOM     14  O   UNL A   1      33.028  23.453  25.129  1.00  0.00    -0.353 OA
ATOM     15  C   UNL A   1      34.302  23.724  23.104  1.00  0.00     0.195 C 
ATOM     16  C   UNL A   1      31.956  22.747  24.493  1.00  0.00     0.197 C 
ATOM     17  C   UNL A   1      33.239  22.925  22.329  1.00  0.00     0.178 C 
ATOM     18  C   UNL A   1      31.859  23.065  22.996  1.00  0.00     0.171 C 
BRANCH  15  19
ATOM     19  O   UNL A   1      33.937  25.124  23.079  1.00  0.00    -0.386 OA
ATOM     20  H   UNL A   1      34.462  25.608  23.736  1.00  0.00     0.211 HD
ENDBRANCH  15  19
BRANCH  17  21
ATOM     21  O   UNL A   1      33.181  23.357  20.970  1.00  0.00    -0.387 OA
ATOM     22  H   UNL A   1      32.283  23.224  20.626  1.00  0.00     0.211 HD
ENDBRANCH  17  21
BRANCH  18  23
ATOM     23  O   UNL A   1      31.357  24.399  22.821  1.00  0.00    -0.388 OA
ATOM     24  H   UNL A   1      30.688  24.403  22.119  1.00  0.00     0.211 HD
ENDBRANCH  18  23
ENDBRANCH  11  13
ENDBRANCH  10  11
ENDBRANCH   3   5
ENDBRANCH   2   3
ENDBRANCH   1   2
BRANCH   1  25
ATOM     25  C   UNL A   1      43.620  21.399  25.376  1.00  0.00     0.275 C 
BRANCH  25  26
ATOM     26  O   UNL A   1      42.962  22.596  24.928  1.00  0.00    -0.458 OA
BRANCH  26  27
ATOM     27  C   UNL A   1      43.723  23.724  24.967  1.00  0.00     0.338 C 
ATOM     28  O   UNL A   1      44.645  23.997  24.223  1.00  0.00    -0.246 OA
BRANCH  27  29
ATOM     29  C   UNL A   1      43.195  24.667  25.986  1.00  0.00     0.060 A 
ATOM     30  C   UNL A   1      43.696  25.976  25.999  1.00  0.00     0.016 A 
ATOM     31  C   UNL A   1      42.229  24.290  26.919  1.00  0.00     0.016 A 
ATOM     32  C   UNL A   1      43.248  26.901  26.951  1.00  0.00     0.010 A 
ATOM     33  C   UNL A   1      41.776  25.219  27.863  1.00  0.00     0.010 A 
ATOM     34  C   UNL A   1      42.291  26.528  27.902  1.00  0.00    -0.014 A 
BRANCH  34  35
ATOM     35  C   UNL A   1      41.888  27.437  29.011  1.00  0.00     0.031 A 
ATOM     36  C   UNL A   1      42.598  27.342  30.332  1.00  0.00     0.074 A 
ATOM     37  C   UNL A   1      40.868  28.306  28.888  1.00  0.00     0.049 A 
ATOM     38  N   UNL A   1      42.350  27.966  31.455  1.00  0.00    -0.248 NA
ATOM     39  C   UNL A   1      43.741  26.420  30.390  1.00  0.00     0.031 C 
ATOM     40  C   UNL A   1      40.123  28.561  27.664  1.00  0.00     0.029 A 
ATOM     41  N   UNL A   1      40.262  29.117  29.820  1.00  0.00    -0.354 N 
ATOM     42  C   UNL A   1      43.307  27.516  32.353  1.00  0.00     0.074 A 
ATOM     43  C   UNL A   1      44.104  26.526  31.658  1.00  0.00     0.031 C 
ATOM     44  C   UNL A   1      39.114  29.410  27.927  1.00  0.00     0.029 A 
ATOM     45  C   UNL A   1      39.152  29.770  29.344  1.00  0.00     0.049 A 
ATOM     46  H   UNL A   1      40.594  29.219  30.741  1.00  0.00     0.167 HD
ATOM     47  C   UNL A   1      43.524  27.907  33.631  1.00  0.00     0.037 A 
ATOM     48  C   UNL A   1      38.261  30.563  29.972  1.00  0.00     0.037 A 
ATOM     49  C   UNL A   1      42.743  28.891  34.333  1.00  0.00     0.049 A 
ATOM     50  C   UNL A   1      38.460  30.919  31.422  1.00  0.00     0.074 A 
ATOM     51  C   UNL A   1      42.929  29.384  35.613  1.00  0.00     0.029 A 
ATOM     52  N   UNL A   1      41.616  29.518  33.823  1.00  0.00    -0.354 N 
ATOM     53  N   UNL A   1      39.413  30.545  32.241  1.00  0.00    -0.248 NA
ATOM     54  C   UNL A   1      37.475  31.828  32.031  1.00  0.00     0.031 C 
ATOM     55  C   UNL A   1      41.880  30.264  35.900  1.00  0.00     0.029 A 
ATOM     56  C   UNL A   1      41.074  30.365  34.778  1.00  0.00     0.049 A 
ATOM     57  H   UNL A   1      41.254  29.381  32.918  1.00  0.00     0.167 HD
ATOM     58  C   UNL A   1      39.171  31.206  33.439  1.00  0.00     0.074 A 
ATOM     59  C   UNL A   1      37.975  31.998  33.247  1.00  0.00     0.031 C 
ATOM     60  C   UNL A   1      39.891  31.167  34.587  1.00  0.00     0.037 A 
BRANCH  47  61
ATOM     61  C   UNL A   1      44.652  27.241  34.359  1.00  0.00     0.064 A 
ATOM     62  C   UNL A   1      45.952  27.771  34.347  1.00  0.00     0.173 A 
ATOM     63  C   UNL A   1      44.431  26.055  35.073  1.00  0.00     0.173 A 
ATOM     64  F   UNL A   1      46.215  28.898  33.668  1.00  0.00    -0.203 F 
ATOM     65  C   UNL A   1      46.998  27.111  34.983  1.00  0.00     0.198 A 
ATOM     66  C   UNL A   1      45.474  25.415  35.736  1.00  0.00     0.198 A 
ATOM     67  F   UNL A   1      43.204  25.514  35.125  1.00  0.00    -0.203 F 
ATOM     68  F   UNL A   1      48.243  27.598  34.901  1.00  0.00    -0.200 F 
ATOM     69  C   UNL A   1      46.758  25.936  35.679  1.00  0.00     0.200 A 
ATOM     70  F   UNL A   1      45.238  24.287  36.420  1.00  0.00    -0.200 F 
ATOM     71  F   UNL A   1      47.768  25.298  36.287  1.00  0.00    -0.200 F 
ENDBRANCH  47  61
BRANCH  48  72
ATOM     72  C   UNL A   1      37.092  31.090  29.222  1.00  0.00     0.064 A 
ATOM     73  C   UNL A   1      37.052  32.417  28.777  1.00  0.00     0.173 A 
ATOM     74  C   UNL A   1      35.986  30.272  28.944  1.00  0.00     0.173 A 
ATOM     75  F   UNL A   1      38.077  33.241  29.039  1.00  0.00    -0.203 F 
ATOM     76  C   UNL A   1      35.943  32.913  28.094  1.00  0.00     0.198 A 
ATOM     77  C   UNL A   1      34.887  30.763  28.244  1.00  0.00     0.198 A 
ATOM     78  F   UNL A   1      35.980  28.991  29.344  1.00  0.00    -0.203 F 
ATOM     79  F   UNL A   1      35.914  34.197  27.710  1.00  0.00    -0.200 F 
ATOM     80  C   UNL A   1      34.863  32.086  27.825  1.00  0.00     0.200 A 
ATOM     81  F   UNL A   1      33.850  29.957  27.977  1.00  0.00    -0.200 F 
ATOM     82  F   UNL A   1      33.798  32.562  27.165  1.00  0.00    -0.200 F 
ENDBRANCH  48  72
BRANCH  60  83
ATOM     83  C   UNL A   1      39.451  32.040  35.728  1.00  0.00     0.064 A 
ATOM     84  C   UNL A   1      39.908  33.358  35.873  1.00  0.00     0.173 A 
ATOM     85  C   UNL A   1      38.495  31.575  36.646  1.00  0.00     0.173 A 
ATOM     86  F   UNL A   1      40.834  33.848  35.033  1.00  0.00    -0.203 F 
ATOM     87  C   UNL A   1      39.432  34.173  36.898  1.00  0.00     0.198 A 
ATOM     88  C   UNL A   1      38.001  32.401  37.652  1.00  0.00     0.198 A 
ATOM     89  F   UNL A   1      38.020  30.324  36.551  1.00  0.00    -0.203 F 
ATOM     90  F   UNL A   1      39.906  35.420  37.036  1.00  0.00    -0.200 F 
ATOM     91  C   UNL A   1      38.473  33.699  37.779  1.00  0.00     0.200 A 
ATOM     92  F   UNL A   1      37.063  31.944  38.493  1.00  0.00    -0.200 F 
ATOM     93  F   UNL A   1      38.002  34.491  38.753  1.00  0.00    -0.200 F 
ENDBRANCH  60  83
ENDBRANCH  34  35
ENDBRANCH  27  29
ENDBRANCH  26  27
ENDBRANCH  25  26
ENDBRANCH   1  25
TORSDOF 16
ENDMDL
MODEL 3
REMARK VINA RESULT:     -11.4      3.873      6.611
REMARK SMILES O=C(OCCOC(=O)c1ccc(-c2c3nc(c(-c4c(F)c(F)c(F)c(F)c4F)c4ccc([nH]4)c(-c4c(F)c(F)c(F)c(F)c4F)c4nc(c(-c5c(F)c(F)c(F)c(F)c5F)c5ccc2[nH]5)C=C4)C=C3)cc1)c1ccc(N[C@H]2OC[C@@H](O)[C@@H](O)[C@H]2O)cc1
REMARK SMILES IDX 4 1 3 2 2 3 1 4 72 5 73 6 87 7 74 8 86 9 75 10 76 11 77 13
REMARK SMILES IDX 78 14 84 15 79 16 82 17 80 18 85 19 83 21 81 23 5 25 6 26
REMARK SMILES IDX 7 27 8 28 9 29 10 30 71 31 11 32 70 33 12 34 13 35 14 36
REMARK SMILES IDX 64 37 15 38 69 39 63 40 65 41 16 42 68 43 62 44 61 45 17 47
REMARK SMILES IDX 49 48 29 49 48 50 30 51 33 52 47 53 66 54 31 55 32 56 46 58
REMARK SMILES IDX 67 59 34 60 18 61 19 62 27 63 20 64 21 65 25 66 28 67 22 68
REMARK SMILES IDX 23 69 26 70 24 71 50 72 51 73 59 74 52 75 53 76 57 77 60 78
REMARK SMILES IDX 54 79 55 80 58 81 56 82 35 83 36 84 44 85 37 86 38 87 42 88
REMARK SMILES IDX 45 89 39 90 40 91 43 92 41 93
REMARK H PARENT 76 12 85 20 83 22 81 24 65 46 33 57
REMARK Flexibility Score: inf
ROOT
ATOM      1  C   UNL A   1      41.262  19.699  26.454  1.00  0.00     0.275 C 
ENDROOT
BRANCH   1   2
ATOM      2  O   UNL A   1      42.218  19.591  25.384  1.00  0.00    -0.458 OA
BRANCH   2   3
ATOM      3  C   UNL A   1      43.481  20.070  25.277  1.00  0.00     0.338 C 
ATOM      4  O   UNL A   1      44.401  19.256  25.174  1.00  0.00    -0.246 OA
BRANCH   3   5
ATOM      5  C   UNL A   1      43.859  21.518  25.408  1.00  0.00     0.060 A 
ATOM      6  C   UNL A   1      43.111  22.615  24.994  1.00  0.00     0.018 A 
ATOM      7  C   UNL A   1      45.069  21.798  26.067  1.00  0.00     0.018 A 
ATOM      8  C   UNL A   1      43.464  23.920  25.361  1.00  0.00     0.026 A 
ATOM      9  C   UNL A   1      45.442  23.113  26.388  1.00  0.00     0.026 A 
ATOM     10  C   UNL A   1      44.601  24.191  26.120  1.00  0.00     0.036 A 
BRANCH  10  11
ATOM     11  N   UNL A   1      44.895  25.447  26.622  1.00  0.00    -0.358 N 
ATOM     12  H   UNL A   1      44.365  25.793  27.376  1.00  0.00     0.163 HD
BRANCH  11  13
ATOM     13  C   UNL A   1      45.959  26.270  26.077  1.00  0.00     0.244 C 
ATOM     14  O   UNL A   1      46.371  25.730  24.817  1.00  0.00    -0.353 OA
ATOM     15  C   UNL A   1      45.495  27.723  25.844  1.00  0.00     0.195 C 
ATOM     16  C   UNL A   1      47.534  26.380  24.288  1.00  0.00     0.197 C 
ATOM     17  C   UNL A   1      46.733  28.508  25.377  1.00  0.00     0.178 C 
ATOM     18  C   UNL A   1      47.322  27.886  24.098  1.00  0.00     0.171 C 
BRANCH  15  19
ATOM     19  O   UNL A   1      44.485  27.795  24.810  1.00  0.00    -0.386 OA
ATOM     20  H   UNL A   1      43.738  27.222  25.046  1.00  0.00     0.211 HD
ENDBRANCH  15  19
BRANCH  17  21
ATOM     21  O   UNL A   1      46.402  29.879  25.156  1.00  0.00    -0.387 OA
ATOM     22  H   UNL A   1      47.110  30.305  24.647  1.00  0.00     0.211 HD
ENDBRANCH  17  21
BRANCH  18  23
ATOM     23  O   UNL A   1      46.441  28.110  22.986  1.00  0.00    -0.388 OA
ATOM     24  H   UNL A   1      46.939  28.037  22.158  1.00  0.00     0.211 HD
ENDBRANCH  18  23
ENDBRANCH  11  13
ENDBRANCH  10  11
ENDBRANCH   3   5
ENDBRANCH   2   3
ENDBRANCH   1   2
BRANCH   1  25
ATOM     25  C   UNL A   1      40.076  20.614  26.123  1.00  0.00     0.275 C 
BRANCH  25  26
ATOM     26  O   UNL A   1      40.237  21.942  26.650  1.00  0.00    -0.458 OA
BRANCH  26  27
ATOM     27  C   UNL A   1      39.237  22.812  26.339  1.00  0.00     0.338 C 
ATOM     28  O   UNL A   1      38.207  22.547  25.751  1.00  0.00    -0.246 OA
BRANCH  27  29
ATOM     29  C   UNL A   1      39.511  24.145  26.935  1.00  0.00     0.060 A 
ATOM     30  C   UNL A   1      40.156  25.104  26.143  1.00  0.00     0.016 A 
ATOM     31  C   UNL A   1      39.149  24.462  28.245  1.00  0.00     0.016 A 
ATOM     32  C   UNL A   1      40.457  26.371  26.661  1.00  0.00     0.010 A 
ATOM     33  C   UNL A   1      39.442  25.733  28.756  1.00  0.00     0.010 A 
ATOM     34  C   UNL A   1      40.113  26.694  27.979  1.00  0.00    -0.014 A 
BRANCH  34  35
ATOM     35  C   UNL A   1      40.533  27.977  28.609  1.00  0.00     0.031 A 
ATOM     36  C   UNL A   1      41.933  28.111  29.137  1.00  0.00     0.074 A 
ATOM     37  C   UNL A   1      39.681  29.005  28.774  1.00  0.00     0.049 A 
ATOM     38  N   UNL A   1      42.480  29.097  29.802  1.00  0.00    -0.248 NA
ATOM     39  C   UNL A   1      42.837  26.982  28.875  1.00  0.00     0.031 C 
ATOM     40  C   UNL A   1      38.316  29.056  28.269  1.00  0.00     0.029 A 
ATOM     41  N   UNL A   1      39.831  30.198  29.444  1.00  0.00    -0.354 N 
ATOM     42  C   UNL A   1      43.791  28.710  30.037  1.00  0.00     0.074 A 
ATOM     43  C   UNL A   1      43.941  27.377  29.490  1.00  0.00     0.031 C 
ATOM     44  C   UNL A   1      37.725  30.183  28.701  1.00  0.00     0.029 A 
ATOM     45  C   UNL A   1      38.679  30.943  29.508  1.00  0.00     0.049 A 
ATOM     46  H   UNL A   1      40.684  30.489  29.840  1.00  0.00     0.167 HD
ATOM     47  C   UNL A   1      44.790  29.407  30.628  1.00  0.00     0.037 A 
ATOM     48  C   UNL A   1      38.415  32.101  30.145  1.00  0.00     0.037 A 
ATOM     49  C   UNL A   1      44.658  30.732  31.172  1.00  0.00     0.049 A 
ATOM     50  C   UNL A   1      39.514  32.824  30.880  1.00  0.00     0.074 A 
ATOM     51  C   UNL A   1      45.635  31.531  31.740  1.00  0.00     0.029 A 
ATOM     52  N   UNL A   1      43.472  31.447  31.233  1.00  0.00    -0.354 N 
ATOM     53  N   UNL A   1      40.770  32.482  31.031  1.00  0.00    -0.248 NA
ATOM     54  C   UNL A   1      39.165  34.107  31.512  1.00  0.00     0.031 C 
ATOM     55  C   UNL A   1      45.028  32.705  32.201  1.00  0.00     0.029 A 
ATOM     56  C   UNL A   1      43.685  32.663  31.866  1.00  0.00     0.049 A 
ATOM     57  H   UNL A   1      42.606  31.138  30.881  1.00  0.00     0.167 HD
ATOM     58  C   UNL A   1      41.369  33.523  31.729  1.00  0.00     0.074 A 
ATOM     59  C   UNL A   1      40.339  34.507  31.983  1.00  0.00     0.031 C 
ATOM     60  C   UNL A   1      42.665  33.652  32.108  1.00  0.00     0.037 A 
BRANCH  47  61
ATOM     61  C   UNL A   1      46.120  28.724  30.733  1.00  0.00     0.064 A 
ATOM     62  C   UNL A   1      47.077  28.812  29.709  1.00  0.00     0.173 A 
ATOM     63  C   UNL A   1      46.439  27.966  31.868  1.00  0.00     0.173 A 
ATOM     64  F   UNL A   1      46.813  29.516  28.597  1.00  0.00    -0.203 F 
ATOM     65  C   UNL A   1      48.285  28.127  29.799  1.00  0.00     0.198 A 
ATOM     66  C   UNL A   1      47.662  27.309  31.969  1.00  0.00     0.198 A 
ATOM     67  F   UNL A   1      45.564  27.859  32.879  1.00  0.00    -0.203 F 
ATOM     68  F   UNL A   1      49.154  28.171  28.780  1.00  0.00    -0.200 F 
ATOM     69  C   UNL A   1      48.577  27.380  30.929  1.00  0.00     0.200 A 
ATOM     70  F   UNL A   1      47.950  26.597  33.067  1.00  0.00    -0.200 F 
ATOM     71  F   UNL A   1      49.738  26.715  31.012  1.00  0.00    -0.200 F 
ENDBRANCH  47  61
BRANCH  48  72
ATOM     72  C   UNL A   1      37.040  32.662  30.107  1.00  0.00     0.064 A 
ATOM     73  C   UNL A   1      36.602  33.440  29.028  1.00  0.00     0.173 A 
ATOM     74  C   UNL A   1      36.139  32.434  31.159  1.00  0.00     0.173 A 
ATOM     75  F   UNL A   1      37.436  33.702  28.011  1.00  0.00    -0.203 F 
ATOM     76  C   UNL A   1      35.319  33.983  29.009  1.00  0.00     0.198 A 
ATOM     77  C   UNL A   1      34.850  32.960  31.128  1.00  0.00     0.198 A 
ATOM     78  F   UNL A   1      36.510  31.688  32.211  1.00  0.00    -0.203 F 
ATOM     79  F   UNL A   1      34.936  34.754  27.981  1.00  0.00    -0.200 F 
ATOM     80  C   UNL A   1      34.443  33.740  30.056  1.00  0.00     0.200 A 
ATOM     81  F   UNL A   1      34.004  32.713  32.138  1.00  0.00    -0.200 F 
ATOM     82  F   UNL A   1      33.207  34.259  30.035  1.00  0.00    -0.200 F 
ENDBRANCH  48  72
BRANCH  60  83
ATOM     83  C   UNL A   1      43.077  34.922  32.797  1.00  0.00     0.064 A 
ATOM     84  C   UNL A   1      43.468  36.062  32.080  1.00  0.00     0.173 A 
ATOM     85  C   UNL A   1      43.003  35.023  34.196  1.00  0.00     0.173 A 
ATOM     86  F   UNL A   1      43.570  36.017  30.742  1.00  0.00    -0.203 F 
ATOM     87  C   UNL A   1      43.778  37.252  32.738  1.00  0.00     0.198 A 
ATOM     88  C   UNL A   1      43.287  36.221  34.848  1.00  0.00     0.198 A 
ATOM     89  F   UNL A   1      42.631  33.964  34.931  1.00  0.00    -0.203 F 
ATOM     90  F   UNL A   1      44.178  38.320  32.034  1.00  0.00    -0.200 F 
ATOM     91  C   UNL A   1      43.677  37.333  34.118  1.00  0.00     0.200 A 
ATOM     92  F   UNL A   1      43.174  36.300  36.181  1.00  0.00    -0.200 F 
ATOM     93  F   UNL A   1      43.957  38.483  34.747  1.00  0.00    -0.200 F 
ENDBRANCH  60  83
ENDBRANCH  34  35
ENDBRANCH  27  29
ENDBRANCH  26  27
ENDBRANCH  25  26
ENDBRANCH   1  25
TORSDOF 16
ENDMDL
