MODEL 1
REMARK VINA RESULT:     -12.4      0.000      0.000
REMARK SMILES O=C(OCCOC(=O)C1CCN(S(=O)(=O)c2ccc3nc(O)sc3c2)CC1)c1ccc(-c2c3nc(c(-c4c(F)c(F)c(F)c(F)c4F)c4ccc([nH]4)c(-c4c(F)c(F)c(F)c(F)c4F)c4nc(c(-c5c(F)c(F)c(F)c(F)c5F)c5ccc2[nH]5)C=C4)C=C3)cc1
REMARK SMILES IDX 5 1 4 2 3 3 2 4 1 5 28 6 29 7 90 8 30 9 89 10 31 11 32 12
REMARK SMILES IDX 33 13 83 14 34 15 88 16 82 17 84 18 35 19 87 20 81 21 80 22
REMARK SMILES IDX 36 24 68 25 48 26 67 27 49 28 52 29 66 30 85 31 50 32 51 33
REMARK SMILES IDX 65 35 86 36 53 37 37 38 38 39 46 40 39 41 40 42 44 43 47 44
REMARK SMILES IDX 41 45 42 46 45 47 43 48 69 49 70 50 78 51 71 52 72 53 76 54
REMARK SMILES IDX 79 55 73 56 74 57 77 58 75 59 54 60 55 61 63 62 56 63 57 64
REMARK SMILES IDX 61 65 64 66 58 67 59 68 62 69 60 70 6 71 7 72 8 73 9 74
REMARK SMILES IDX 10 75 27 76 11 77 26 78 12 79 13 80 14 81 15 82 16 83 17 84
REMARK SMILES IDX 25 85 18 86 24 87 19 88 23 89 20 90 21 91 22 92
REMARK H PARENT 84 23 52 34 22 93
REMARK Flexibility Score: inf
ROOT
ATOM      1  C   UNL A   1      44.439  28.916  26.674  1.00  0.00     0.274 C 
ENDROOT
BRANCH   1   2
ATOM      2  C   UNL A   1      44.494  30.371  27.158  1.00  0.00     0.275 C 
BRANCH   2   3
ATOM      3  O   UNL A   1      43.830  31.304  26.291  1.00  0.00    -0.458 OA
BRANCH   3   4
ATOM      4  C   UNL A   1      44.176  32.573  25.969  1.00  0.00     0.338 C 
ATOM      5  O   UNL A   1      44.817  32.760  24.936  1.00  0.00    -0.246 OA
BRANCH   4   6
ATOM      6  C   UNL A   1      44.000  33.749  26.887  1.00  0.00     0.060 A 
ATOM      7  C   UNL A   1      44.543  34.968  26.426  1.00  0.00     0.016 A 
ATOM      8  C   UNL A   1      43.528  33.712  28.201  1.00  0.00     0.016 A 
ATOM      9  C   UNL A   1      44.789  36.030  27.301  1.00  0.00     0.010 A 
ATOM     10  C   UNL A   1      43.811  34.753  29.091  1.00  0.00     0.010 A 
ATOM     11  C   UNL A   1      44.488  35.900  28.657  1.00  0.00    -0.014 A 
BRANCH  11  12
ATOM     12  C   UNL A   1      44.635  37.095  29.513  1.00  0.00     0.031 A 
ATOM     13  C   UNL A   1      46.079  37.476  29.516  1.00  0.00     0.074 A 
ATOM     14  C   UNL A   1      43.773  38.127  29.639  1.00  0.00     0.049 A 
ATOM     15  N   UNL A   1      46.596  38.162  28.537  1.00  0.00    -0.248 NA
ATOM     16  C   UNL A   1      47.046  36.718  30.306  1.00  0.00     0.031 C 
ATOM     17  C   UNL A   1      42.859  38.605  28.600  1.00  0.00     0.029 A 
ATOM     18  N   UNL A   1      43.732  39.111  30.613  1.00  0.00    -0.354 N 
ATOM     19  C   UNL A   1      47.917  37.784  28.463  1.00  0.00     0.074 A 
ATOM     20  C   UNL A   1      48.167  36.930  29.607  1.00  0.00     0.031 C 
ATOM     21  C   UNL A   1      42.498  39.872  28.898  1.00  0.00     0.029 A 
ATOM     22  C   UNL A   1      43.041  40.249  30.204  1.00  0.00     0.049 A 
ATOM     23  H   UNL A   1      44.149  39.017  31.499  1.00  0.00     0.167 HD
ATOM     24  C   UNL A   1      48.720  38.104  27.418  1.00  0.00     0.037 A 
ATOM     25  C   UNL A   1      43.362  41.521  30.576  1.00  0.00     0.037 A 
ATOM     26  C   UNL A   1      48.151  38.903  26.377  1.00  0.00     0.049 A 
ATOM     27  C   UNL A   1      44.539  41.809  29.680  1.00  0.00     0.074 A 
ATOM     28  C   UNL A   1      47.685  38.720  25.092  1.00  0.00     0.029 A 
ATOM     29  N   UNL A   1      47.947  40.237  26.636  1.00  0.00    -0.354 N 
ATOM     30  N   UNL A   1      44.499  42.204  28.435  1.00  0.00    -0.248 NA
ATOM     31  C   UNL A   1      45.844  41.313  30.122  1.00  0.00     0.031 C 
ATOM     32  C   UNL A   1      46.841  39.844  24.820  1.00  0.00     0.029 A 
ATOM     33  C   UNL A   1      46.807  40.620  25.976  1.00  0.00     0.049 A 
ATOM     34  H   UNL A   1      48.516  40.814  27.196  1.00  0.00     0.167 HD
ATOM     35  C   UNL A   1      45.693  41.741  27.873  1.00  0.00     0.074 A 
ATOM     36  C   UNL A   1      46.504  41.280  28.975  1.00  0.00     0.031 C 
ATOM     37  C   UNL A   1      45.862  41.559  26.533  1.00  0.00     0.037 A 
BRANCH  24  38
ATOM     38  C   UNL A   1      50.153  37.802  27.440  1.00  0.00     0.064 A 
ATOM     39  C   UNL A   1      50.559  36.590  26.870  1.00  0.00     0.173 A 
ATOM     40  C   UNL A   1      51.106  38.612  28.058  1.00  0.00     0.173 A 
ATOM     41  F   UNL A   1      49.655  35.800  26.265  1.00  0.00    -0.203 F 
ATOM     42  C   UNL A   1      51.880  36.181  26.937  1.00  0.00     0.198 A 
ATOM     43  C   UNL A   1      52.436  38.202  28.120  1.00  0.00     0.198 A 
ATOM     44  F   UNL A   1      50.750  39.784  28.607  1.00  0.00    -0.203 F 
ATOM     45  F   UNL A   1      52.238  35.008  26.400  1.00  0.00    -0.200 F 
ATOM     46  C   UNL A   1      52.818  36.985  27.567  1.00  0.00     0.200 A 
ATOM     47  F   UNL A   1      53.348  38.976  28.721  1.00  0.00    -0.200 F 
ATOM     48  F   UNL A   1      54.094  36.583  27.641  1.00  0.00    -0.200 F 
ENDBRANCH  24  38
BRANCH  25  49
ATOM     49  C   UNL A   1      43.345  41.831  32.043  1.00  0.00     0.064 A 
ATOM     50  C   UNL A   1      42.574  42.928  32.480  1.00  0.00     0.173 A 
ATOM     51  C   UNL A   1      44.045  41.141  33.046  1.00  0.00     0.173 A 
ATOM     52  F   UNL A   1      41.967  43.722  31.584  1.00  0.00    -0.203 F 
ATOM     53  C   UNL A   1      42.417  43.236  33.834  1.00  0.00     0.198 A 
ATOM     54  C   UNL A   1      43.860  41.424  34.403  1.00  0.00     0.198 A 
ATOM     55  F   UNL A   1      44.921  40.175  32.746  1.00  0.00    -0.203 F 
ATOM     56  F   UNL A   1      41.657  44.276  34.200  1.00  0.00    -0.200 F 
ATOM     57  C   UNL A   1      43.034  42.461  34.797  1.00  0.00     0.200 A 
ATOM     58  F   UNL A   1      44.476  40.673  35.327  1.00  0.00    -0.200 F 
ATOM     59  F   UNL A   1      42.843  42.714  36.099  1.00  0.00    -0.200 F 
ENDBRANCH  25  49
BRANCH  37  60
ATOM     60  C   UNL A   1      44.820  42.182  25.674  1.00  0.00     0.064 A 
ATOM     61  C   UNL A   1      45.002  43.491  25.208  1.00  0.00     0.173 A 
ATOM     62  C   UNL A   1      43.664  41.494  25.281  1.00  0.00     0.173 A 
ATOM     63  F   UNL A   1      46.097  44.187  25.556  1.00  0.00    -0.203 F 
ATOM     64  C   UNL A   1      44.074  44.082  24.357  1.00  0.00     0.198 A 
ATOM     65  C   UNL A   1      42.749  42.081  24.412  1.00  0.00     0.198 A 
ATOM     66  F   UNL A   1      43.425  40.247  25.717  1.00  0.00    -0.203 F 
ATOM     67  F   UNL A   1      44.272  45.331  23.914  1.00  0.00    -0.200 F 
ATOM     68  C   UNL A   1      42.955  43.371  23.949  1.00  0.00     0.200 A 
ATOM     69  F   UNL A   1      41.675  41.387  24.006  1.00  0.00    -0.200 F 
ATOM     70  F   UNL A   1      42.082  43.927  23.098  1.00  0.00    -0.200 F 
ENDBRANCH  37  60
ENDBRANCH  11  12
ENDBRANCH   4   6
ENDBRANCH   3   4
ENDBRANCH   2   3
ENDBRANCH   1   2
BRANCH   1  71
ATOM     71  O   UNL A   1      43.211  28.242  27.015  1.00  0.00    -0.462 OA
BRANCH  71  72
ATOM     72  C   UNL A   1      42.334  27.993  26.005  1.00  0.00     0.309 C 
ATOM     73  O   UNL A   1      42.515  28.327  24.840  1.00  0.00    -0.252 OA
BRANCH  72  74
ATOM     74  C   UNL A   1      41.020  27.365  26.500  1.00  0.00     0.102 C 
ATOM     75  C   UNL A   1      40.946  27.128  27.999  1.00  0.00     0.032 C 
ATOM     76  C   UNL A   1      40.743  26.050  25.798  1.00  0.00     0.032 C 
ATOM     77  C   UNL A   1      41.113  25.717  28.555  1.00  0.00     0.103 C 
ATOM     78  C   UNL A   1      41.776  25.019  26.215  1.00  0.00     0.103 C 
ATOM     79  N   UNL A   1      41.760  24.748  27.663  1.00  0.00    -0.198 NA
BRANCH  79  80
ATOM     80  S   UNL A   1      43.047  23.834  28.324  1.00  0.00     0.243 S 
ATOM     81  O   UNL A   1      44.234  24.660  28.341  1.00  0.00    -0.207 OA
ATOM     82  O   UNL A   1      42.564  23.157  29.509  1.00  0.00    -0.207 OA
BRANCH  80  83
ATOM     83  C   UNL A   1      43.279  22.592  27.066  1.00  0.00     0.084 A 
ATOM     84  C   UNL A   1      42.309  21.598  26.925  1.00  0.00     0.024 A 
ATOM     85  C   UNL A   1      44.452  22.589  26.302  1.00  0.00     0.043 A 
ATOM     86  C   UNL A   1      42.564  20.484  26.127  1.00  0.00     0.031 A 
ATOM     87  C   UNL A   1      44.676  21.473  25.480  1.00  0.00     0.059 A 
ATOM     88  C   UNL A   1      43.773  20.405  25.408  1.00  0.00     0.085 A 
ATOM     89  S   UNL A   1      46.019  21.126  24.453  1.00  0.00    -0.077 S 
ATOM     90  N   UNL A   1      44.172  19.337  24.625  1.00  0.00    -0.203 NA
ATOM     91  C   UNL A   1      45.333  19.615  24.101  1.00  0.00     0.271 A 
BRANCH  91  92
ATOM     92  O   UNL A   1      45.919  18.712  23.340  1.00  0.00    -0.486 OA
ATOM     93  H   UNL A   1      45.434  17.971  23.033  1.00  0.00     0.296 HD
ENDBRANCH  91  92
ENDBRANCH  80  83
ENDBRANCH  79  80
ENDBRANCH  72  74
ENDBRANCH  71  72
ENDBRANCH   1  71
TORSDOF 14
ENDMDL
MODEL 2
REMARK VINA RESULT:     -12.1      1.193      1.577
REMARK SMILES O=C(OCCOC(=O)C1CCN(S(=O)(=O)c2ccc3nc(O)sc3c2)CC1)c1ccc(-c2c3nc(c(-c4c(F)c(F)c(F)c(F)c4F)c4ccc([nH]4)c(-c4c(F)c(F)c(F)c(F)c4F)c4nc(c(-c5c(F)c(F)c(F)c(F)c5F)c5ccc2[nH]5)C=C4)C=C3)cc1
REMARK SMILES IDX 5 1 4 2 3 3 2 4 1 5 28 6 29 7 90 8 30 9 89 10 31 11 32 12
REMARK SMILES IDX 33 13 83 14 34 15 88 16 82 17 84 18 35 19 87 20 81 21 80 22
REMARK SMILES IDX 36 24 68 25 48 26 67 27 49 28 52 29 66 30 85 31 50 32 51 33
REMARK SMILES IDX 65 35 86 36 53 37 37 38 38 39 46 40 39 41 40 42 44 43 47 44
REMARK SMILES IDX 41 45 42 46 45 47 43 48 69 49 70 50 78 51 71 52 72 53 76 54
REMARK SMILES IDX 79 55 73 56 74 57 77 58 75 59 54 60 55 61 63 62 56 63 57 64
REMARK SMILES IDX 61 65 64 66 58 67 59 68 62 69 60 70 6 71 7 72 8 73 9 74
REMARK SMILES IDX 10 75 27 76 11 77 26 78 12 79 13 80 14 81 15 82 16 83 17 84
REMARK SMILES IDX 25 85 18 86 24 87 19 88 23 89 20 90 21 91 22 92
REMARK H PARENT 84 23 52 34 22 93
REMARK Flexibility Score: inf
ROOT
ATOM      1  C   UNL A   1      46.138  29.663  26.157  1.00  0.00     0.274 C 
ENDROOT
BRANCH   1   2
ATOM      2  C   UNL A   1      45.803  31.103  26.566  1.00  0.00     0.275 C 
BRANCH   2   3
ATOM      3  O   UNL A   1      44.518  31.558  26.113  1.00  0.00    -0.458 OA
BRANCH   3   4
ATOM      4  C   UNL A   1      44.132  32.799  25.730  1.00  0.00     0.338 C 
ATOM      5  O   UNL A   1      44.089  33.052  24.527  1.00  0.00    -0.246 OA
BRANCH   4   6
ATOM      6  C   UNL A   1      43.942  33.948  26.679  1.00  0.00     0.060 A 
ATOM      7  C   UNL A   1      44.401  35.200  26.218  1.00  0.00     0.016 A 
ATOM      8  C   UNL A   1      43.534  33.864  28.012  1.00  0.00     0.016 A 
ATOM      9  C   UNL A   1      44.635  36.259  27.102  1.00  0.00     0.010 A 
ATOM     10  C   UNL A   1      43.807  34.902  28.908  1.00  0.00     0.010 A 
ATOM     11  C   UNL A   1      44.405  36.089  28.467  1.00  0.00    -0.014 A 
BRANCH  11  12
ATOM     12  C   UNL A   1      44.532  37.275  29.339  1.00  0.00     0.031 A 
ATOM     13  C   UNL A   1      45.973  37.666  29.365  1.00  0.00     0.074 A 
ATOM     14  C   UNL A   1      43.661  38.299  29.467  1.00  0.00     0.049 A 
ATOM     15  N   UNL A   1      46.497  38.367  28.402  1.00  0.00    -0.248 NA
ATOM     16  C   UNL A   1      46.935  36.905  30.159  1.00  0.00     0.031 C 
ATOM     17  C   UNL A   1      42.757  38.784  28.421  1.00  0.00     0.029 A 
ATOM     18  N   UNL A   1      43.601  39.271  30.451  1.00  0.00    -0.354 N 
ATOM     19  C   UNL A   1      47.822  37.999  28.340  1.00  0.00     0.074 A 
ATOM     20  C   UNL A   1      48.064  37.134  29.477  1.00  0.00     0.031 C 
ATOM     21  C   UNL A   1      42.383  40.044  28.730  1.00  0.00     0.029 A 
ATOM     22  C   UNL A   1      42.907  40.409  30.047  1.00  0.00     0.049 A 
ATOM     23  H   UNL A   1      44.007  39.170  31.342  1.00  0.00     0.167 HD
ATOM     24  C   UNL A   1      48.636  38.338  27.309  1.00  0.00     0.037 A 
ATOM     25  C   UNL A   1      43.214  41.678  30.439  1.00  0.00     0.037 A 
ATOM     26  C   UNL A   1      48.075  39.145  26.271  1.00  0.00     0.049 A 
ATOM     27  C   UNL A   1      44.400  41.985  29.561  1.00  0.00     0.074 A 
ATOM     28  C   UNL A   1      47.626  38.974  24.978  1.00  0.00     0.029 A 
ATOM     29  N   UNL A   1      47.858  40.475  26.543  1.00  0.00    -0.354 N 
ATOM     30  N   UNL A   1      44.373  42.395  28.321  1.00  0.00    -0.248 NA
ATOM     31  C   UNL A   1      45.703  41.494  30.015  1.00  0.00     0.031 C 
ATOM     32  C   UNL A   1      46.778  40.096  24.709  1.00  0.00     0.029 A 
ATOM     33  C   UNL A   1      46.724  40.858  25.873  1.00  0.00     0.049 A 
ATOM     34  H   UNL A   1      48.416  41.049  27.117  1.00  0.00     0.167 HD
ATOM     35  C   UNL A   1      45.578  41.948  27.769  1.00  0.00     0.074 A 
ATOM     36  C   UNL A   1      46.378  41.479  28.876  1.00  0.00     0.031 C 
ATOM     37  C   UNL A   1      45.765  41.783  26.429  1.00  0.00     0.037 A 
BRANCH  24  38
ATOM     38  C   UNL A   1      50.071  38.046  27.346  1.00  0.00     0.064 A 
ATOM     39  C   UNL A   1      50.478  36.789  26.885  1.00  0.00     0.173 A 
ATOM     40  C   UNL A   1      51.024  38.913  27.880  1.00  0.00     0.173 A 
ATOM     41  F   UNL A   1      49.574  35.944  26.362  1.00  0.00    -0.203 F 
ATOM     42  C   UNL A   1      51.802  36.393  26.977  1.00  0.00     0.198 A 
ATOM     43  C   UNL A   1      52.357  38.516  27.967  1.00  0.00     0.198 A 
ATOM     44  F   UNL A   1      50.667  40.128  28.324  1.00  0.00    -0.203 F 
ATOM     45  F   UNL A   1      52.163  35.179  26.545  1.00  0.00    -0.200 F 
ATOM     46  C   UNL A   1      52.741  37.255  27.523  1.00  0.00     0.200 A 
ATOM     47  F   UNL A   1      53.270  39.345  28.489  1.00  0.00    -0.200 F 
ATOM     48  F   UNL A   1      54.020  36.868  27.623  1.00  0.00    -0.200 F 
ENDBRANCH  24  38
BRANCH  25  49
ATOM     49  C   UNL A   1      43.176  41.970  31.909  1.00  0.00     0.064 A 
ATOM     50  C   UNL A   1      42.452  43.101  32.342  1.00  0.00     0.173 A 
ATOM     51  C   UNL A   1      43.814  41.233  32.920  1.00  0.00     0.173 A 
ATOM     52  F   UNL A   1      41.908  43.936  31.442  1.00  0.00    -0.203 F 
ATOM     53  C   UNL A   1      42.276  43.400  33.696  1.00  0.00     0.198 A 
ATOM     54  C   UNL A   1      43.610  41.509  34.275  1.00  0.00     0.198 A 
ATOM     55  F   UNL A   1      44.647  40.228  32.628  1.00  0.00    -0.203 F 
ATOM     56  F   UNL A   1      41.561  44.473  34.058  1.00  0.00    -0.200 F 
ATOM     57  C   UNL A   1      42.829  42.581  34.663  1.00  0.00     0.200 A 
ATOM     58  F   UNL A   1      44.163  40.715  35.203  1.00  0.00    -0.200 F 
ATOM     59  F   UNL A   1      42.618  42.828  35.963  1.00  0.00    -0.200 F 
ENDBRANCH  25  49
BRANCH  37  60
ATOM     60  C   UNL A   1      44.730  42.409  25.564  1.00  0.00     0.064 A 
ATOM     61  C   UNL A   1      44.921  43.715  25.093  1.00  0.00     0.173 A 
ATOM     62  C   UNL A   1      43.571  41.727  25.170  1.00  0.00     0.173 A 
ATOM     63  F   UNL A   1      46.019  44.405  25.443  1.00  0.00    -0.203 F 
ATOM     64  C   UNL A   1      43.999  44.308  24.238  1.00  0.00     0.198 A 
ATOM     65  C   UNL A   1      42.662  42.316  24.296  1.00  0.00     0.198 A 
ATOM     66  F   UNL A   1      43.323  40.483  25.610  1.00  0.00    -0.203 F 
ATOM     67  F   UNL A   1      44.207  45.554  23.790  1.00  0.00    -0.200 F 
ATOM     68  C   UNL A   1      42.878  43.603  23.828  1.00  0.00     0.200 A 
ATOM     69  F   UNL A   1      41.585  41.627  23.889  1.00  0.00    -0.200 F 
ATOM     70  F   UNL A   1      42.011  44.161  22.972  1.00  0.00    -0.200 F 
ENDBRANCH  37  60
ENDBRANCH  11  12
ENDBRANCH   4   6
ENDBRANCH   3   4
ENDBRANCH   2   3
ENDBRANCH   1   2
BRANCH   1  71
ATOM     71  O   UNL A   1      44.987  28.796  26.107  1.00  0.00    -0.462 OA
BRANCH  71  72
ATOM     72  C   UNL A   1      45.139  27.529  26.577  1.00  0.00     0.309 C 
ATOM     73  O   UNL A   1      45.578  26.597  25.913  1.00  0.00    -0.252 OA
BRANCH  72  74
ATOM     74  C   UNL A   1      44.575  27.350  27.997  1.00  0.00     0.102 C 
ATOM     75  C   UNL A   1      44.335  25.910  28.418  1.00  0.00     0.032 C 
ATOM     76  C   UNL A   1      43.278  28.117  28.171  1.00  0.00     0.032 C 
ATOM     77  C   UNL A   1      42.915  25.353  28.447  1.00  0.00     0.103 C 
ATOM     78  C   UNL A   1      42.195  27.495  27.308  1.00  0.00     0.103 C 
ATOM     79  N   UNL A   1      41.919  26.092  27.662  1.00  0.00    -0.198 NA
BRANCH  79  80
ATOM     80  S   UNL A   1      40.939  25.173  26.601  1.00  0.00     0.243 S 
ATOM     81  O   UNL A   1      39.816  24.655  27.350  1.00  0.00    -0.207 OA
ATOM     82  O   UNL A   1      40.766  25.925  25.376  1.00  0.00    -0.207 OA
BRANCH  80  83
ATOM     83  C   UNL A   1      42.014  23.800  26.230  1.00  0.00     0.084 A 
ATOM     84  C   UNL A   1      43.131  24.027  25.425  1.00  0.00     0.024 A 
ATOM     85  C   UNL A   1      41.681  22.517  26.683  1.00  0.00     0.043 A 
ATOM     86  C   UNL A   1      43.854  22.949  24.918  1.00  0.00     0.031 A 
ATOM     87  C   UNL A   1      42.442  21.447  26.186  1.00  0.00     0.059 A 
ATOM     88  C   UNL A   1      43.496  21.637  25.284  1.00  0.00     0.085 A 
ATOM     89  S   UNL A   1      42.281  19.757  26.495  1.00  0.00    -0.077 S 
ATOM     90  N   UNL A   1      44.095  20.481  24.813  1.00  0.00    -0.203 NA
ATOM     91  C   UNL A   1      43.519  19.455  25.376  1.00  0.00     0.271 A 
BRANCH  91  92
ATOM     92  O   UNL A   1      43.916  18.242  25.042  1.00  0.00    -0.486 OA
ATOM     93  H   UNL A   1      43.590  17.498  25.508  1.00  0.00     0.296 HD
ENDBRANCH  91  92
ENDBRANCH  80  83
ENDBRANCH  79  80
ENDBRANCH  72  74
ENDBRANCH  71  72
ENDBRANCH   1  71
TORSDOF 14
ENDMDL
MODEL 3
REMARK VINA RESULT:     -12.1      1.472      2.303
REMARK SMILES O=C(OCCOC(=O)C1CCN(S(=O)(=O)c2ccc3nc(O)sc3c2)CC1)c1ccc(-c2c3nc(c(-c4c(F)c(F)c(F)c(F)c4F)c4ccc([nH]4)c(-c4c(F)c(F)c(F)c(F)c4F)c4nc(c(-c5c(F)c(F)c(F)c(F)c5F)c5ccc2[nH]5)C=C4)C=C3)cc1
REMARK SMILES IDX 5 1 4 2 3 3 2 4 1 5 28 6 29 7 90 8 30 9 89 10 31 11 32 12
REMARK SMILES IDX 33 13 83 14 34 15 88 16 82 17 84 18 35 19 87 20 81 21 80 22
REMARK SMILES IDX 36 24 68 25 48 26 67 27 49 28 52 29 66 30 85 31 50 32 51 33
REMARK SMILES IDX 65 35 86 36 53 37 37 38 38 39 46 40 39 41 40 42 44 43 47 44
REMARK SMILES IDX 41 45 42 46 45 47 43 48 69 49 70 50 78 51 71 52 72 53 76 54
REMARK SMILES IDX 79 55 73 56 74 57 77 58 75 59 54 60 55 61 63 62 56 63 57 64
REMARK SMILES IDX 61 65 64 66 58 67 59 68 62 69 60 70 6 71 7 72 8 73 9 74
REMARK SMILES IDX 10 75 27 76 11 77 26 78 12 79 13 80 14 81 15 82 16 83 17 84
REMARK SMILES IDX 25 85 18 86 24 87 19 88 23 89 20 90 21 91 22 92
REMARK H PARENT 84 23 52 34 22 93
REMARK Flexibility Score: inf
ROOT
ATOM      1  C   UNL A   1      46.408  29.815  26.183  1.00  0.00     0.274 C 
ENDROOT
BRANCH   1   2
ATOM      2  C   UNL A   1      45.743  31.046  26.812  1.00  0.00     0.275 C 
BRANCH   2   3
ATOM      3  O   UNL A   1      44.548  31.475  26.141  1.00  0.00    -0.458 OA
BRANCH   3   4
ATOM      4  C   UNL A   1      44.178  32.720  25.758  1.00  0.00     0.338 C 
ATOM      5  O   UNL A   1      44.153  32.980  24.556  1.00  0.00    -0.246 OA
BRANCH   4   6
ATOM      6  C   UNL A   1      43.983  33.867  26.709  1.00  0.00     0.060 A 
ATOM      7  C   UNL A   1      44.424  35.125  26.245  1.00  0.00     0.016 A 
ATOM      8  C   UNL A   1      43.589  33.778  28.046  1.00  0.00     0.016 A 
ATOM      9  C   UNL A   1      44.654  36.185  27.127  1.00  0.00     0.010 A 
ATOM     10  C   UNL A   1      43.859  34.819  28.941  1.00  0.00     0.010 A 
ATOM     11  C   UNL A   1      44.439  36.012  28.494  1.00  0.00    -0.014 A 
BRANCH  11  12
ATOM     12  C   UNL A   1      44.561  37.199  29.366  1.00  0.00     0.031 A 
ATOM     13  C   UNL A   1      46.002  37.592  29.398  1.00  0.00     0.074 A 
ATOM     14  C   UNL A   1      43.688  38.222  29.489  1.00  0.00     0.049 A 
ATOM     15  N   UNL A   1      46.529  38.293  28.436  1.00  0.00    -0.248 NA
ATOM     16  C   UNL A   1      46.961  36.833  30.196  1.00  0.00     0.031 C 
ATOM     17  C   UNL A   1      42.789  38.705  28.439  1.00  0.00     0.029 A 
ATOM     18  N   UNL A   1      43.623  39.195  30.472  1.00  0.00    -0.354 N 
ATOM     19  C   UNL A   1      47.855  37.926  28.380  1.00  0.00     0.074 A 
ATOM     20  C   UNL A   1      48.093  37.062  29.518  1.00  0.00     0.031 C 
ATOM     21  C   UNL A   1      42.412  39.965  28.745  1.00  0.00     0.029 A 
ATOM     22  C   UNL A   1      42.930  40.332  30.064  1.00  0.00     0.049 A 
ATOM     23  H   UNL A   1      44.026  39.095  31.364  1.00  0.00     0.167 HD
ATOM     24  C   UNL A   1      48.673  38.265  27.352  1.00  0.00     0.037 A 
ATOM     25  C   UNL A   1      43.234  41.602  30.456  1.00  0.00     0.037 A 
ATOM     26  C   UNL A   1      48.115  39.071  26.311  1.00  0.00     0.049 A 
ATOM     27  C   UNL A   1      44.423  41.909  29.583  1.00  0.00     0.074 A 
ATOM     28  C   UNL A   1      47.672  38.898  25.016  1.00  0.00     0.029 A 
ATOM     29  N   UNL A   1      47.895  40.400  26.581  1.00  0.00    -0.354 N 
ATOM     30  N   UNL A   1      44.401  42.318  28.343  1.00  0.00    -0.248 NA
ATOM     31  C   UNL A   1      45.725  41.420  30.043  1.00  0.00     0.031 C 
ATOM     32  C   UNL A   1      46.824  40.018  24.742  1.00  0.00     0.029 A 
ATOM     33  C   UNL A   1      46.763  40.781  25.906  1.00  0.00     0.049 A 
ATOM     34  H   UNL A   1      48.450  40.975  27.157  1.00  0.00     0.167 HD
ATOM     35  C   UNL A   1      45.608  41.872  27.795  1.00  0.00     0.074 A 
ATOM     36  C   UNL A   1      46.404  41.405  28.907  1.00  0.00     0.031 C 
ATOM     37  C   UNL A   1      45.801  41.706  26.456  1.00  0.00     0.037 A 
BRANCH  24  38
ATOM     38  C   UNL A   1      50.107  37.975  27.395  1.00  0.00     0.064 A 
ATOM     39  C   UNL A   1      50.933  38.926  28.007  1.00  0.00     0.173 A 
ATOM     40  C   UNL A   1      50.690  36.856  26.800  1.00  0.00     0.173 A 
ATOM     41  F   UNL A   1      50.387  40.007  28.590  1.00  0.00    -0.203 F 
ATOM     42  C   UNL A   1      52.310  38.779  28.004  1.00  0.00     0.198 A 
ATOM     43  C   UNL A   1      52.075  36.706  26.802  1.00  0.00     0.198 A 
ATOM     44  F   UNL A   1      49.927  35.922  26.212  1.00  0.00    -0.203 F 
ATOM     45  F   UNL A   1      53.077  39.712  28.579  1.00  0.00    -0.200 F 
ATOM     46  C   UNL A   1      52.881  37.671  27.396  1.00  0.00     0.200 A 
ATOM     47  F   UNL A   1      52.635  35.636  26.223  1.00  0.00    -0.200 F 
ATOM     48  F   UNL A   1      54.215  37.535  27.383  1.00  0.00    -0.200 F 
ENDBRANCH  24  38
BRANCH  25  49
ATOM     49  C   UNL A   1      43.189  41.895  31.926  1.00  0.00     0.064 A 
ATOM     50  C   UNL A   1      42.530  43.069  32.348  1.00  0.00     0.173 A 
ATOM     51  C   UNL A   1      43.763  41.119  32.946  1.00  0.00     0.173 A 
ATOM     52  F   UNL A   1      42.055  43.937  31.440  1.00  0.00    -0.203 F 
ATOM     53  C   UNL A   1      42.351  43.378  33.699  1.00  0.00     0.198 A 
ATOM     54  C   UNL A   1      43.553  41.406  34.298  1.00  0.00     0.198 A 
ATOM     55  F   UNL A   1      44.536  40.063  32.667  1.00  0.00    -0.203 F 
ATOM     56  F   UNL A   1      41.698  44.493  34.050  1.00  0.00    -0.200 F 
ATOM     57  C   UNL A   1      42.834  42.526  34.675  1.00  0.00     0.200 A 
ATOM     58  F   UNL A   1      44.039  40.579  35.234  1.00  0.00    -0.200 F 
ATOM     59  F   UNL A   1      42.618  42.785  35.971  1.00  0.00    -0.200 F 
ENDBRANCH  25  49
BRANCH  37  60
ATOM     60  C   UNL A   1      44.769  42.330  25.587  1.00  0.00     0.064 A 
ATOM     61  C   UNL A   1      44.967  43.631  25.106  1.00  0.00     0.173 A 
ATOM     62  C   UNL A   1      43.607  41.650  25.198  1.00  0.00     0.173 A 
ATOM     63  F   UNL A   1      46.068  44.319  25.450  1.00  0.00    -0.203 F 
ATOM     64  C   UNL A   1      44.048  44.222  24.246  1.00  0.00     0.198 A 
ATOM     65  C   UNL A   1      42.701  42.236  24.319  1.00  0.00     0.198 A 
ATOM     66  F   UNL A   1      43.353  40.411  25.649  1.00  0.00    -0.203 F 
ATOM     67  F   UNL A   1      44.261  45.464  23.788  1.00  0.00    -0.200 F 
ATOM     68  C   UNL A   1      42.923  43.519  23.842  1.00  0.00     0.200 A 
ATOM     69  F   UNL A   1      41.620  41.549  23.918  1.00  0.00    -0.200 F 
ATOM     70  F   UNL A   1      42.058  44.074  22.982  1.00  0.00    -0.200 F 
ENDBRANCH  37  60
ENDBRANCH  11  12
ENDBRANCH   4   6
ENDBRANCH   3   4
ENDBRANCH   2   3
ENDBRANCH   1   2
BRANCH   1  71
ATOM     71  O   UNL A   1      45.903  28.564  26.692  1.00  0.00    -0.462 OA
BRANCH  71  72
ATOM     72  C   UNL A   1      46.781  27.756  27.346  1.00  0.00     0.309 C 
ATOM     73  O   UNL A   1      47.337  28.053  28.397  1.00  0.00    -0.252 OA
BRANCH  72  74
ATOM     74  C   UNL A   1      47.110  26.476  26.559  1.00  0.00     0.102 C 
ATOM     75  C   UNL A   1      46.441  26.368  25.199  1.00  0.00     0.032 C 
ATOM     76  C   UNL A   1      46.762  25.236  27.358  1.00  0.00     0.032 C 
ATOM     77  C   UNL A   1      45.245  25.439  25.012  1.00  0.00     0.103 C 
ATOM     78  C   UNL A   1      45.257  25.139  27.524  1.00  0.00     0.103 C 
ATOM     79  N   UNL A   1      44.545  25.038  26.238  1.00  0.00    -0.198 NA
BRANCH  79  80
ATOM     80  S   UNL A   1      42.843  25.212  26.246  1.00  0.00     0.243 S 
ATOM     81  O   UNL A   1      42.439  25.706  27.543  1.00  0.00    -0.207 OA
ATOM     82  O   UNL A   1      42.446  25.866  25.016  1.00  0.00    -0.207 OA
BRANCH  80  83
ATOM     83  C   UNL A   1      42.315  23.513  26.133  1.00  0.00     0.084 A 
ATOM     84  C   UNL A   1      41.043  23.179  26.600  1.00  0.00     0.024 A 
ATOM     85  C   UNL A   1      43.202  22.541  25.654  1.00  0.00     0.043 A 
ATOM     86  C   UNL A   1      40.687  21.840  26.751  1.00  0.00     0.031 A 
ATOM     87  C   UNL A   1      42.812  21.199  25.786  1.00  0.00     0.059 A 
ATOM     88  C   UNL A   1      41.588  20.831  26.359  1.00  0.00     0.085 A 
ATOM     89  S   UNL A   1      43.667  19.766  25.349  1.00  0.00    -0.077 S 
ATOM     90  N   UNL A   1      41.382  19.470  26.503  1.00  0.00    -0.203 NA
ATOM     91  C   UNL A   1      42.415  18.839  26.020  1.00  0.00     0.271 A 
BRANCH  91  92
ATOM     92  O   UNL A   1      42.442  17.522  26.086  1.00  0.00    -0.486 OA
ATOM     93  H   UNL A   1      43.167  17.088  26.492  1.00  0.00     0.296 HD
ENDBRANCH  91  92
ENDBRANCH  80  83
ENDBRANCH  79  80
ENDBRANCH  72  74
ENDBRANCH  71  72
ENDBRANCH   1  71
TORSDOF 14
ENDMDL
