MODEL 1
REMARK VINA RESULT:     -11.8      0.000      0.000
REMARK SMILES CC[C@@H](Oc1cc(Cl)ccc1Cl)C(=O)NNC(=O)[C@@H]1[C@@H]2CC[C@@H](C2)[C@@H]1C(=O)OCCOC(=O)c1ccc(-c2c3nc(c(-c4c(F)c(F)c(F)c(F)c4F)c4ccc([nH]4)c(-c4c(F)c(F)c(F)c(F)c4F)c4nc(c(-c5c(F)c(F)c(F)c(F)c5F)c5ccc2[nH]5)C=C4)C=C3)cc1
REMARK SMILES IDX 28 1 26 2 27 3 25 4 19 5 20 6 21 7 24 8 23 9 22 10 17 11
REMARK SMILES IDX 16 12 18 14 15 15 13 16 14 17 3 19 2 20 1 21 4 22 5 23 6 24
REMARK SMILES IDX 11 25 7 26 10 27 12 28 8 29 9 30 29 31 30 32 31 33 32 34
REMARK SMILES IDX 33 35 34 36 35 37 96 38 36 39 95 40 37 41 38 42 39 43 89 44
REMARK SMILES IDX 40 45 94 46 88 47 90 48 41 49 93 50 87 51 86 52 42 54 74 55
REMARK SMILES IDX 54 56 73 57 55 58 58 59 72 60 91 61 56 62 57 63 71 65 92 66
REMARK SMILES IDX 59 67 43 68 44 69 52 70 45 71 46 72 50 73 53 74 47 75 48 76
REMARK SMILES IDX 51 77 49 78 75 79 76 80 84 81 77 82 78 83 82 84 85 85 79 86
REMARK SMILES IDX 80 87 83 88 81 89 60 90 61 91 69 92 62 93 63 94 67 95 70 96
REMARK SMILES IDX 64 97 65 98 68 99 66 100
REMARK H PARENT 16 13 15 18 90 53 58 64
REMARK Flexibility Score: inf
ROOT
ATOM      1  O   UNL A   1      35.847  22.998  24.407  1.00  0.00    -0.462 OA
ENDROOT
BRANCH   1   2
ATOM      2  C   UNL A   1      34.779  23.334  23.653  1.00  0.00     0.310 C 
ATOM      3  O   UNL A   1      34.761  24.246  22.831  1.00  0.00    -0.252 OA
BRANCH   2   4
ATOM      4  C   UNL A   1      33.536  22.511  23.934  1.00  0.00     0.115 C 
ATOM      5  C   UNL A   1      32.504  23.158  24.895  1.00  0.00     0.098 C 
ATOM      6  C   UNL A   1      32.054  21.953  25.761  1.00  0.00     0.003 C 
ATOM      7  C   UNL A   1      33.113  21.506  26.773  1.00  0.00     0.005 C 
ATOM      8  C   UNL A   1      32.156  20.796  24.751  1.00  0.00     0.009 C 
ATOM      9  C   UNL A   1      33.642  21.063  24.458  1.00  0.00     0.004 C 
ATOM     10  C   UNL A   1      34.229  20.955  25.878  1.00  0.00     0.005 C 
BRANCH   5  11
ATOM     11  C   UNL A   1      33.107  24.370  25.594  1.00  0.00     0.242 C 
ATOM     12  N   UNL A   1      32.855  25.603  25.059  1.00  0.00    -0.267 N 
ATOM     13  H   UNL A   1      33.596  26.250  25.037  1.00  0.00     0.191 HD
ATOM     14  O   UNL A   1      33.940  24.282  26.493  1.00  0.00    -0.273 OA
BRANCH  12  15
ATOM     15  N   UNL A   1      31.628  26.009  24.545  1.00  0.00    -0.264 N 
ATOM     16  C   UNL A   1      31.371  27.328  24.226  1.00  0.00     0.279 C 
ATOM     17  O   UNL A   1      30.256  27.643  23.803  1.00  0.00    -0.269 OA
ATOM     18  H   UNL A   1      30.924  25.337  24.404  1.00  0.00     0.191 HD
BRANCH  16  19
ATOM     19  C   UNL A   1      32.473  28.386  24.470  1.00  0.00     0.263 C 
BRANCH  19  20
ATOM     20  C   UNL A   1      32.955  28.952  23.121  1.00  0.00     0.052 C 
ATOM     21  C   UNL A   1      33.895  28.001  22.389  1.00  0.00     0.008 C 
ENDBRANCH  19  20
BRANCH  19  22
ATOM     22  O   UNL A   1      31.891  29.439  25.269  1.00  0.00    -0.479 OA
BRANCH  22  23
ATOM     23  C   UNL A   1      32.746  29.969  26.194  1.00  0.00     0.140 A 
ATOM     24  C   UNL A   1      33.951  29.299  26.410  1.00  0.00     0.068 A 
ATOM     25  C   UNL A   1      32.498  31.195  26.819  1.00  0.00     0.083 A 
ATOM     26  C   UNL A   1      34.871  29.814  27.319  1.00  0.00     0.044 A 
ATOM     27  C   UNL A   1      33.433  31.715  27.718  1.00  0.00     0.026 A 
ATOM     28  Cl  UNL A   1      31.072  32.105  26.486  1.00  0.00    -0.080 Cl
ATOM     29  Cl  UNL A   1      36.329  28.958  27.631  1.00  0.00    -0.084 Cl
ATOM     30  C   UNL A   1      34.615  31.016  27.979  1.00  0.00     0.022 A 
ENDBRANCH  22  23
ENDBRANCH  19  22
ENDBRANCH  16  19
ENDBRANCH  12  15
ENDBRANCH   5  11
ENDBRANCH   2   4
ENDBRANCH   1   2
BRANCH   1  31
ATOM     31  C   UNL A   1      36.921  22.308  23.745  1.00  0.00     0.274 C 
BRANCH  31  32
ATOM     32  C   UNL A   1      37.459  21.172  24.616  1.00  0.00     0.275 C 
BRANCH  32  33
ATOM     33  O   UNL A   1      37.834  21.645  25.922  1.00  0.00    -0.458 OA
BRANCH  33  34
ATOM     34  C   UNL A   1      39.124  21.412  26.263  1.00  0.00     0.338 C 
ATOM     35  O   UNL A   1      39.754  20.378  26.128  1.00  0.00    -0.246 OA
BRANCH  34  36
ATOM     36  C   UNL A   1      39.748  22.665  26.717  1.00  0.00     0.060 A 
ATOM     37  C   UNL A   1      39.295  23.862  26.153  1.00  0.00     0.016 A 
ATOM     38  C   UNL A   1      40.803  22.662  27.631  1.00  0.00     0.016 A 
ATOM     39  C   UNL A   1      39.900  25.067  26.496  1.00  0.00     0.010 A 
ATOM     40  C   UNL A   1      41.417  23.872  27.967  1.00  0.00     0.010 A 
ATOM     41  C   UNL A   1      40.977  25.075  27.390  1.00  0.00    -0.014 A 
BRANCH  41  42
ATOM     42  C   UNL A   1      41.697  26.340  27.660  1.00  0.00     0.031 A 
ATOM     43  C   UNL A   1      41.023  27.415  28.459  1.00  0.00     0.074 A 
ATOM     44  C   UNL A   1      42.950  26.510  27.204  1.00  0.00     0.049 A 
ATOM     45  N   UNL A   1      41.445  28.618  28.754  1.00  0.00    -0.248 NA
ATOM     46  C   UNL A   1      39.693  27.092  29.001  1.00  0.00     0.031 C 
ATOM     47  C   UNL A   1      43.718  25.516  26.456  1.00  0.00     0.029 A 
ATOM     48  N   UNL A   1      43.794  27.587  27.301  1.00  0.00    -0.354 N 
ATOM     49  C   UNL A   1      40.433  29.198  29.506  1.00  0.00     0.074 A 
ATOM     50  C   UNL A   1      39.366  28.223  29.606  1.00  0.00     0.031 C 
ATOM     51  C   UNL A   1      44.921  26.033  26.154  1.00  0.00     0.029 A 
ATOM     52  C   UNL A   1      44.991  27.404  26.655  1.00  0.00     0.049 A 
ATOM     53  H   UNL A   1      43.564  28.411  27.788  1.00  0.00     0.167 HD
ATOM     54  C   UNL A   1      40.402  30.429  30.068  1.00  0.00     0.037 A 
ATOM     55  C   UNL A   1      46.014  28.259  26.469  1.00  0.00     0.037 A 
ATOM     56  C   UNL A   1      41.467  31.393  29.965  1.00  0.00     0.049 A 
ATOM     57  C   UNL A   1      45.924  29.647  27.043  1.00  0.00     0.074 A 
ATOM     58  C   UNL A   1      41.534  32.668  30.498  1.00  0.00     0.029 A 
ATOM     59  N   UNL A   1      42.653  31.184  29.275  1.00  0.00    -0.354 N 
ATOM     60  N   UNL A   1      44.967  30.188  27.756  1.00  0.00    -0.248 NA
ATOM     61  C   UNL A   1      47.058  30.546  26.783  1.00  0.00     0.031 C 
ATOM     62  C   UNL A   1      42.744  33.245  30.098  1.00  0.00     0.029 A 
ATOM     63  C   UNL A   1      43.451  32.314  29.354  1.00  0.00     0.049 A 
ATOM     64  H   UNL A   1      42.892  30.355  28.802  1.00  0.00     0.167 HD
ATOM     65  C   UNL A   1      45.390  31.478  28.050  1.00  0.00     0.074 A 
ATOM     66  C   UNL A   1      46.699  31.634  27.449  1.00  0.00     0.031 C 
ATOM     67  C   UNL A   1      44.754  32.446  28.754  1.00  0.00     0.037 A 
BRANCH  54  68
ATOM     68  C   UNL A   1      39.165  30.812  30.823  1.00  0.00     0.064 A 
ATOM     69  C   UNL A   1      38.093  31.464  30.195  1.00  0.00     0.173 A 
ATOM     70  C   UNL A   1      39.037  30.497  32.184  1.00  0.00     0.173 A 
ATOM     71  F   UNL A   1      38.172  31.801  28.900  1.00  0.00    -0.203 F 
ATOM     72  C   UNL A   1      36.947  31.806  30.910  1.00  0.00     0.198 A 
ATOM     73  C   UNL A   1      37.880  30.819  32.889  1.00  0.00     0.198 A 
ATOM     74  F   UNL A   1      40.033  29.871  32.830  1.00  0.00    -0.203 F 
ATOM     75  F   UNL A   1      35.953  32.466  30.301  1.00  0.00    -0.200 F 
ATOM     76  C   UNL A   1      36.839  31.478  32.252  1.00  0.00     0.200 A 
ATOM     77  F   UNL A   1      37.773  30.493  34.184  1.00  0.00    -0.200 F 
ATOM     78  F   UNL A   1      35.734  31.804  32.937  1.00  0.00    -0.200 F 
ENDBRANCH  54  68
BRANCH  55  79
ATOM     79  C   UNL A   1      47.205  27.832  25.691  1.00  0.00     0.064 A 
ATOM     80  C   UNL A   1      48.384  27.434  26.337  1.00  0.00     0.173 A 
ATOM     81  C   UNL A   1      47.193  27.826  24.288  1.00  0.00     0.173 A 
ATOM     82  F   UNL A   1      48.451  27.449  27.676  1.00  0.00    -0.203 F 
ATOM     83  C   UNL A   1      49.511  27.061  25.608  1.00  0.00     0.198 A 
ATOM     84  C   UNL A   1      48.312  27.427  23.562  1.00  0.00     0.198 A 
ATOM     85  F   UNL A   1      46.091  28.203  23.625  1.00  0.00    -0.203 F 
ATOM     86  F   UNL A   1      50.640  26.729  26.248  1.00  0.00    -0.200 F 
ATOM     87  C   UNL A   1      49.473  27.053  24.221  1.00  0.00     0.200 A 
ATOM     88  F   UNL A   1      48.268  27.412  22.222  1.00  0.00    -0.200 F 
ATOM     89  F   UNL A   1      50.558  26.694  23.521  1.00  0.00    -0.200 F 
ENDBRANCH  55  79
BRANCH  67  90
ATOM     90  C   UNL A   1      45.477  33.746  28.940  1.00  0.00     0.064 A 
ATOM     91  C   UNL A   1      45.320  34.811  28.041  1.00  0.00     0.173 A 
ATOM     92  C   UNL A   1      46.310  33.942  30.053  1.00  0.00     0.173 A 
ATOM     93  F   UNL A   1      44.547  34.666  26.953  1.00  0.00    -0.203 F 
ATOM     94  C   UNL A   1      45.987  36.017  28.238  1.00  0.00     0.198 A 
ATOM     95  C   UNL A   1      46.953  35.158  30.261  1.00  0.00     0.198 A 
ATOM     96  F   UNL A   1      46.488  32.956  30.946  1.00  0.00    -0.203 F 
ATOM     97  F   UNL A   1      45.856  37.006  27.343  1.00  0.00    -0.200 F 
ATOM     98  C   UNL A   1      46.796  36.192  29.350  1.00  0.00     0.200 A 
ATOM     99  F   UNL A   1      47.727  35.330  31.342  1.00  0.00    -0.200 F 
ATOM    100  F   UNL A   1      47.433  37.356  29.540  1.00  0.00    -0.200 F 
ENDBRANCH  67  90
ENDBRANCH  41  42
ENDBRANCH  34  36
ENDBRANCH  33  34
ENDBRANCH  32  33
ENDBRANCH  31  32
ENDBRANCH   1  31
TORSDOF 17
ENDMDL
MODEL 2
REMARK VINA RESULT:     -11.7      4.343      7.724
REMARK SMILES CC[C@@H](Oc1cc(Cl)ccc1Cl)C(=O)NNC(=O)[C@@H]1[C@@H]2CC[C@@H](C2)[C@@H]1C(=O)OCCOC(=O)c1ccc(-c2c3nc(c(-c4c(F)c(F)c(F)c(F)c4F)c4ccc([nH]4)c(-c4c(F)c(F)c(F)c(F)c4F)c4nc(c(-c5c(F)c(F)c(F)c(F)c5F)c5ccc2[nH]5)C=C4)C=C3)cc1
REMARK SMILES IDX 28 1 26 2 27 3 25 4 19 5 20 6 21 7 24 8 23 9 22 10 17 11
REMARK SMILES IDX 16 12 18 14 15 15 13 16 14 17 3 19 2 20 1 21 4 22 5 23 6 24
REMARK SMILES IDX 11 25 7 26 10 27 12 28 8 29 9 30 29 31 30 32 31 33 32 34
REMARK SMILES IDX 33 35 34 36 35 37 96 38 36 39 95 40 37 41 38 42 39 43 89 44
REMARK SMILES IDX 40 45 94 46 88 47 90 48 41 49 93 50 87 51 86 52 42 54 74 55
REMARK SMILES IDX 54 56 73 57 55 58 58 59 72 60 91 61 56 62 57 63 71 65 92 66
REMARK SMILES IDX 59 67 43 68 44 69 52 70 45 71 46 72 50 73 53 74 47 75 48 76
REMARK SMILES IDX 51 77 49 78 75 79 76 80 84 81 77 82 78 83 82 84 85 85 79 86
REMARK SMILES IDX 80 87 83 88 81 89 60 90 61 91 69 92 62 93 63 94 67 95 70 96
REMARK SMILES IDX 64 97 65 98 68 99 66 100
REMARK H PARENT 16 13 15 18 90 53 58 64
REMARK Flexibility Score: inf
ROOT
ATOM      1  O   UNL A   1      31.666  30.311  26.409  1.00  0.00    -0.462 OA
ENDROOT
BRANCH   1   2
ATOM      2  C   UNL A   1      32.183  29.687  25.329  1.00  0.00     0.310 C 
ATOM      3  O   UNL A   1      33.360  29.745  24.984  1.00  0.00    -0.252 OA
BRANCH   2   4
ATOM      4  C   UNL A   1      31.165  28.920  24.507  1.00  0.00     0.115 C 
ATOM      5  C   UNL A   1      30.982  27.427  24.886  1.00  0.00     0.098 C 
ATOM      6  C   UNL A   1      30.853  26.745  23.500  1.00  0.00     0.003 C 
ATOM      7  C   UNL A   1      32.180  26.664  22.738  1.00  0.00     0.005 C 
ATOM      8  C   UNL A   1      30.152  27.845  22.682  1.00  0.00     0.009 C 
ATOM      9  C   UNL A   1      31.251  28.882  22.967  1.00  0.00     0.004 C 
ATOM     10  C   UNL A   1      32.486  28.134  22.429  1.00  0.00     0.005 C 
BRANCH   5  11
ATOM     11  C   UNL A   1      32.095  26.969  25.819  1.00  0.00     0.242 C 
ATOM     12  N   UNL A   1      31.753  26.165  26.872  1.00  0.00    -0.267 N 
ATOM     13  H   UNL A   1      32.190  26.337  27.737  1.00  0.00     0.191 HD
ATOM     14  O   UNL A   1      33.237  27.423  25.779  1.00  0.00    -0.273 OA
BRANCH  12  15
ATOM     15  N   UNL A   1      30.833  25.124  26.808  1.00  0.00    -0.264 N 
ATOM     16  C   UNL A   1      31.223  23.821  26.564  1.00  0.00     0.279 C 
ATOM     17  O   UNL A   1      30.366  22.938  26.485  1.00  0.00    -0.269 OA
ATOM     18  H   UNL A   1      29.879  25.321  26.941  1.00  0.00     0.191 HD
BRANCH  16  19
ATOM     19  C   UNL A   1      32.721  23.518  26.333  1.00  0.00     0.263 C 
BRANCH  19  20
ATOM     20  C   UNL A   1      32.930  21.997  26.217  1.00  0.00     0.052 C 
ATOM     21  C   UNL A   1      33.828  21.444  27.318  1.00  0.00     0.008 C 
ENDBRANCH  19  20
BRANCH  19  22
ATOM     22  O   UNL A   1      33.108  24.165  25.100  1.00  0.00    -0.479 OA
BRANCH  22  23
ATOM     23  C   UNL A   1      34.381  23.875  24.698  1.00  0.00     0.140 A 
ATOM     24  C   UNL A   1      35.406  24.078  25.622  1.00  0.00     0.068 A 
ATOM     25  C   UNL A   1      34.653  23.284  23.461  1.00  0.00     0.083 A 
ATOM     26  C   UNL A   1      36.718  23.768  25.275  1.00  0.00     0.044 A 
ATOM     27  C   UNL A   1      35.970  22.961  23.123  1.00  0.00     0.026 A 
ATOM     28  Cl  UNL A   1      33.395  22.913  22.342  1.00  0.00    -0.080 Cl
ATOM     29  Cl  UNL A   1      37.989  24.075  26.390  1.00  0.00    -0.084 Cl
ATOM     30  C   UNL A   1      37.006  23.216  24.026  1.00  0.00     0.022 A 
ENDBRANCH  22  23
ENDBRANCH  19  22
ENDBRANCH  16  19
ENDBRANCH  12  15
ENDBRANCH   5  11
ENDBRANCH   2   4
ENDBRANCH   1   2
BRANCH   1  31
ATOM     31  C   UNL A   1      31.015  31.573  26.183  1.00  0.00     0.274 C 
BRANCH  31  32
ATOM     32  C   UNL A   1      31.786  32.713  26.851  1.00  0.00     0.275 C 
BRANCH  32  33
ATOM     33  O   UNL A   1      33.192  32.419  26.927  1.00  0.00    -0.458 OA
BRANCH  33  34
ATOM     34  C   UNL A   1      33.914  33.284  27.679  1.00  0.00     0.338 C 
ATOM     35  O   UNL A   1      33.622  34.427  27.986  1.00  0.00    -0.246 OA
BRANCH  34  36
ATOM     36  C   UNL A   1      35.094  32.595  28.226  1.00  0.00     0.060 A 
ATOM     37  C   UNL A   1      34.938  31.274  28.657  1.00  0.00     0.016 A 
ATOM     38  C   UNL A   1      36.316  33.254  28.373  1.00  0.00     0.016 A 
ATOM     39  C   UNL A   1      36.005  30.603  29.246  1.00  0.00     0.010 A 
ATOM     40  C   UNL A   1      37.385  32.582  28.974  1.00  0.00     0.010 A 
ATOM     41  C   UNL A   1      37.228  31.260  29.425  1.00  0.00    -0.014 A 
BRANCH  41  42
ATOM     42  C   UNL A   1      38.322  30.587  30.160  1.00  0.00     0.031 A 
ATOM     43  C   UNL A   1      38.573  30.941  31.595  1.00  0.00     0.074 A 
ATOM     44  C   UNL A   1      39.070  29.654  29.545  1.00  0.00     0.049 A 
ATOM     45  N   UNL A   1      39.515  30.522  32.401  1.00  0.00    -0.248 NA
ATOM     46  C   UNL A   1      37.635  31.896  32.207  1.00  0.00     0.031 C 
ATOM     47  C   UNL A   1      38.886  29.200  28.168  1.00  0.00     0.029 A 
ATOM     48  N   UNL A   1      40.139  28.926  30.002  1.00  0.00    -0.354 N 
ATOM     49  C   UNL A   1      39.290  31.167  33.610  1.00  0.00     0.074 A 
ATOM     50  C   UNL A   1      38.135  32.022  33.427  1.00  0.00     0.031 C 
ATOM     51  C   UNL A   1      39.818  28.273  27.887  1.00  0.00     0.029 A 
ATOM     52  C   UNL A   1      40.684  28.099  29.052  1.00  0.00     0.049 A 
ATOM     53  H   UNL A   1      40.482  28.992  30.922  1.00  0.00     0.167 HD
ATOM     54  C   UNL A   1      39.982  31.049  34.768  1.00  0.00     0.037 A 
ATOM     55  C   UNL A   1      41.773  27.312  29.112  1.00  0.00     0.037 A 
ATOM     56  C   UNL A   1      41.129  30.196  34.941  1.00  0.00     0.049 A 
ATOM     57  C   UNL A   1      42.567  27.253  30.390  1.00  0.00     0.074 A 
ATOM     58  C   UNL A   1      41.900  30.006  36.074  1.00  0.00     0.029 A 
ATOM     59  N   UNL A   1      41.672  29.395  33.947  1.00  0.00    -0.354 N 
ATOM     60  N   UNL A   1      42.348  27.862  31.530  1.00  0.00    -0.248 NA
ATOM     61  C   UNL A   1      43.764  26.399  30.388  1.00  0.00     0.031 C 
ATOM     62  C   UNL A   1      42.933  29.117  35.755  1.00  0.00     0.029 A 
ATOM     63  C   UNL A   1      42.780  28.721  34.436  1.00  0.00     0.049 A 
ATOM     64  H   UNL A   1      41.321  29.317  33.031  1.00  0.00     0.167 HD
ATOM     65  C   UNL A   1      43.361  27.448  32.386  1.00  0.00     0.074 A 
ATOM     66  C   UNL A   1      44.188  26.525  31.637  1.00  0.00     0.031 C 
ATOM     67  C   UNL A   1      43.585  27.801  33.675  1.00  0.00     0.037 A 
BRANCH  54  68
ATOM     68  C   UNL A   1      39.530  31.882  35.929  1.00  0.00     0.064 A 
ATOM     69  C   UNL A   1      38.470  31.478  36.756  1.00  0.00     0.173 A 
ATOM     70  C   UNL A   1      40.183  33.084  36.238  1.00  0.00     0.173 A 
ATOM     71  F   UNL A   1      37.803  30.345  36.494  1.00  0.00    -0.203 F 
ATOM     72  C   UNL A   1      38.067  32.261  37.835  1.00  0.00     0.198 A 
ATOM     73  C   UNL A   1      39.793  33.851  37.332  1.00  0.00     0.198 A 
ATOM     74  F   UNL A   1      41.204  33.513  35.480  1.00  0.00    -0.203 F 
ATOM     75  F   UNL A   1      37.025  31.878  38.586  1.00  0.00    -0.200 F 
ATOM     76  C   UNL A   1      38.733  33.442  38.126  1.00  0.00     0.200 A 
ATOM     77  F   UNL A   1      40.443  34.988  37.618  1.00  0.00    -0.200 F 
ATOM     78  F   UNL A   1      38.346  34.191  39.168  1.00  0.00    -0.200 F 
ENDBRANCH  54  68
BRANCH  55  79
ATOM     79  C   UNL A   1      42.188  26.526  27.922  1.00  0.00     0.064 A 
ATOM     80  C   UNL A   1      41.634  25.266  27.660  1.00  0.00     0.173 A 
ATOM     81  C   UNL A   1      43.155  27.015  27.030  1.00  0.00     0.173 A 
ATOM     82  F   UNL A   1      40.727  24.746  28.499  1.00  0.00    -0.203 F 
ATOM     83  C   UNL A   1      42.044  24.516  26.560  1.00  0.00     0.198 A 
ATOM     84  C   UNL A   1      43.544  26.275  25.916  1.00  0.00     0.198 A 
ATOM     85  F   UNL A   1      43.718  28.213  27.240  1.00  0.00    -0.203 F 
ATOM     86  F   UNL A   1      41.533  23.294  26.357  1.00  0.00    -0.200 F 
ATOM     87  C   UNL A   1      42.994  25.023  25.685  1.00  0.00     0.200 A 
ATOM     88  F   UNL A   1      44.456  26.773  25.069  1.00  0.00    -0.200 F 
ATOM     89  F   UNL A   1      43.387  24.301  24.627  1.00  0.00    -0.200 F 
ENDBRANCH  55  79
BRANCH  67  90
ATOM     90  C   UNL A   1      44.752  27.161  34.367  1.00  0.00     0.064 A 
ATOM     91  C   UNL A   1      46.022  27.756  34.370  1.00  0.00     0.173 A 
ATOM     92  C   UNL A   1      44.588  25.956  35.068  1.00  0.00     0.173 A 
ATOM     93  F   UNL A   1      46.232  28.900  33.700  1.00  0.00    -0.203 F 
ATOM     94  C   UNL A   1      47.091  27.157  35.031  1.00  0.00     0.198 A 
ATOM     95  C   UNL A   1      45.652  25.375  35.750  1.00  0.00     0.198 A 
ATOM     96  F   UNL A   1      43.391  25.350  35.101  1.00  0.00    -0.203 F 
ATOM     97  F   UNL A   1      48.306  27.720  34.984  1.00  0.00    -0.200 F 
ATOM     98  C   UNL A   1      46.904  25.971  35.726  1.00  0.00     0.200 A 
ATOM     99  F   UNL A   1      45.468  24.234  36.430  1.00  0.00    -0.200 F 
ATOM    100  F   UNL A   1      47.933  25.399  36.365  1.00  0.00    -0.200 F 
ENDBRANCH  67  90
ENDBRANCH  41  42
ENDBRANCH  34  36
ENDBRANCH  33  34
ENDBRANCH  32  33
ENDBRANCH  31  32
ENDBRANCH   1  31
TORSDOF 17
ENDMDL
MODEL 3
REMARK VINA RESULT:     -11.6      4.610     10.158
REMARK SMILES CC[C@@H](Oc1cc(Cl)ccc1Cl)C(=O)NNC(=O)[C@@H]1[C@@H]2CC[C@@H](C2)[C@@H]1C(=O)OCCOC(=O)c1ccc(-c2c3nc(c(-c4c(F)c(F)c(F)c(F)c4F)c4ccc([nH]4)c(-c4c(F)c(F)c(F)c(F)c4F)c4nc(c(-c5c(F)c(F)c(F)c(F)c5F)c5ccc2[nH]5)C=C4)C=C3)cc1
REMARK SMILES IDX 28 1 26 2 27 3 25 4 19 5 20 6 21 7 24 8 23 9 22 10 17 11
REMARK SMILES IDX 16 12 18 14 15 15 13 16 14 17 3 19 2 20 1 21 4 22 5 23 6 24
REMARK SMILES IDX 11 25 7 26 10 27 12 28 8 29 9 30 29 31 30 32 31 33 32 34
REMARK SMILES IDX 33 35 34 36 35 37 96 38 36 39 95 40 37 41 38 42 39 43 89 44
REMARK SMILES IDX 40 45 94 46 88 47 90 48 41 49 93 50 87 51 86 52 42 54 74 55
REMARK SMILES IDX 54 56 73 57 55 58 58 59 72 60 91 61 56 62 57 63 71 65 92 66
REMARK SMILES IDX 59 67 43 68 44 69 52 70 45 71 46 72 50 73 53 74 47 75 48 76
REMARK SMILES IDX 51 77 49 78 75 79 76 80 84 81 77 82 78 83 82 84 85 85 79 86
REMARK SMILES IDX 80 87 83 88 81 89 60 90 61 91 69 92 62 93 63 94 67 95 70 96
REMARK SMILES IDX 64 97 65 98 68 99 66 100
REMARK H PARENT 16 13 15 18 90 53 58 64
REMARK Flexibility Score: inf
ROOT
ATOM      1  O   UNL A   1      32.610  30.252  26.022  1.00  0.00    -0.462 OA
ENDROOT
BRANCH   1   2
ATOM      2  C   UNL A   1      31.768  29.226  26.270  1.00  0.00     0.310 C 
ATOM      3  O   UNL A   1      31.611  28.699  27.368  1.00  0.00    -0.252 OA
BRANCH   2   4
ATOM      4  C   UNL A   1      31.037  28.711  25.045  1.00  0.00     0.115 C 
ATOM      5  C   UNL A   1      31.154  27.187  24.783  1.00  0.00     0.098 C 
ATOM      6  C   UNL A   1      31.323  27.125  23.243  1.00  0.00     0.003 C 
ATOM      7  C   UNL A   1      32.706  27.582  22.767  1.00  0.00     0.005 C 
ATOM      8  C   UNL A   1      30.483  28.334  22.794  1.00  0.00     0.009 C 
ATOM      9  C   UNL A   1      31.287  29.326  23.652  1.00  0.00     0.004 C 
ATOM     10  C   UNL A   1      32.707  29.077  23.106  1.00  0.00     0.005 C 
BRANCH   5  11
ATOM     11  C   UNL A   1      32.239  26.573  25.657  1.00  0.00     0.242 C 
ATOM     12  N   UNL A   1      31.846  25.915  26.791  1.00  0.00    -0.267 N 
ATOM     13  H   UNL A   1      32.384  26.046  27.604  1.00  0.00     0.191 HD
ATOM     14  O   UNL A   1      33.438  26.789  25.494  1.00  0.00    -0.273 OA
BRANCH  12  15
ATOM     15  N   UNL A   1      30.742  25.074  26.876  1.00  0.00    -0.264 N 
ATOM     16  C   UNL A   1      30.862  23.701  26.786  1.00  0.00     0.279 C 
ATOM     17  O   UNL A   1      29.848  22.999  26.836  1.00  0.00    -0.269 OA
ATOM     18  H   UNL A   1      29.850  25.469  27.006  1.00  0.00     0.191 HD
BRANCH  16  19
ATOM     19  C   UNL A   1      32.262  23.085  26.560  1.00  0.00     0.263 C 
BRANCH  19  20
ATOM     20  C   UNL A   1      32.645  22.211  27.770  1.00  0.00     0.052 C 
ATOM     21  C   UNL A   1      34.028  21.586  27.625  1.00  0.00     0.008 C 
ENDBRANCH  19  20
BRANCH  19  22
ATOM     22  O   UNL A   1      32.189  22.273  25.367  1.00  0.00    -0.479 OA
BRANCH  22  23
ATOM     23  C   UNL A   1      32.862  22.797  24.299  1.00  0.00     0.140 A 
ATOM     24  C   UNL A   1      34.231  22.541  24.217  1.00  0.00     0.068 A 
ATOM     25  C   UNL A   1      32.204  23.459  23.258  1.00  0.00     0.083 A 
ATOM     26  C   UNL A   1      34.959  23.024  23.133  1.00  0.00     0.044 A 
ATOM     27  C   UNL A   1      32.937  23.928  22.165  1.00  0.00     0.026 A 
ATOM     28  Cl  UNL A   1      30.496  23.688  23.273  1.00  0.00    -0.080 Cl
ATOM     29  Cl  UNL A   1      36.656  22.763  23.062  1.00  0.00    -0.084 Cl
ATOM     30  C   UNL A   1      34.318  23.722  22.109  1.00  0.00     0.022 A 
ENDBRANCH  22  23
ENDBRANCH  19  22
ENDBRANCH  16  19
ENDBRANCH  12  15
ENDBRANCH   5  11
ENDBRANCH   2   4
ENDBRANCH   1   2
BRANCH   1  31
ATOM     31  C   UNL A   1      33.061  31.013  27.155  1.00  0.00     0.274 C 
BRANCH  31  32
ATOM     32  C   UNL A   1      32.301  32.335  27.263  1.00  0.00     0.275 C 
BRANCH  32  33
ATOM     33  O   UNL A   1      33.192  33.461  27.171  1.00  0.00    -0.458 OA
BRANCH  33  34
ATOM     34  C   UNL A   1      33.288  34.206  28.298  1.00  0.00     0.338 C 
ATOM     35  O   UNL A   1      32.527  35.079  28.679  1.00  0.00    -0.246 OA
BRANCH  34  36
ATOM     36  C   UNL A   1      34.405  33.716  29.120  1.00  0.00     0.060 A 
ATOM     37  C   UNL A   1      35.701  34.094  28.754  1.00  0.00     0.016 A 
ATOM     38  C   UNL A   1      34.192  32.847  30.192  1.00  0.00     0.016 A 
ATOM     39  C   UNL A   1      36.795  33.601  29.456  1.00  0.00     0.010 A 
ATOM     40  C   UNL A   1      35.293  32.344  30.891  1.00  0.00     0.010 A 
ATOM     41  C   UNL A   1      36.598  32.707  30.516  1.00  0.00    -0.014 A 
BRANCH  41  42
ATOM     42  C   UNL A   1      37.766  32.090  31.183  1.00  0.00     0.031 A 
ATOM     43  C   UNL A   1      38.536  31.017  30.474  1.00  0.00     0.074 A 
ATOM     44  C   UNL A   1      38.138  32.504  32.407  1.00  0.00     0.049 A 
ATOM     45  N   UNL A   1      39.546  30.301  30.899  1.00  0.00    -0.248 NA
ATOM     46  C   UNL A   1      38.114  30.708  29.099  1.00  0.00     0.031 C 
ATOM     47  C   UNL A   1      37.489  33.570  33.169  1.00  0.00     0.029 A 
ATOM     48  N   UNL A   1      39.150  32.071  33.224  1.00  0.00    -0.354 N 
ATOM     49  C   UNL A   1      39.874  29.453  29.851  1.00  0.00     0.074 A 
ATOM     50  C   UNL A   1      38.943  29.726  28.775  1.00  0.00     0.031 C 
ATOM     51  C   UNL A   1      38.117  33.704  34.350  1.00  0.00     0.029 A 
ATOM     52  C   UNL A   1      39.184  32.709  34.439  1.00  0.00     0.049 A 
ATOM     53  H   UNL A   1      39.791  31.370  32.964  1.00  0.00     0.167 HD
ATOM     54  C   UNL A   1      40.867  28.534  29.791  1.00  0.00     0.037 A 
ATOM     55  C   UNL A   1      39.972  32.493  35.508  1.00  0.00     0.037 A 
ATOM     56  C   UNL A   1      41.789  28.268  30.864  1.00  0.00     0.049 A 
ATOM     57  C   UNL A   1      41.022  31.416  35.441  1.00  0.00     0.074 A 
ATOM     58  C   UNL A   1      42.830  27.357  30.904  1.00  0.00     0.029 A 
ATOM     59  N   UNL A   1      41.773  28.912  32.093  1.00  0.00    -0.354 N 
ATOM     60  N   UNL A   1      41.330  30.620  34.446  1.00  0.00    -0.248 NA
ATOM     61  C   UNL A   1      41.833  31.206  36.649  1.00  0.00     0.031 C 
ATOM     62  C   UNL A   1      43.421  27.424  32.170  1.00  0.00     0.029 A 
ATOM     63  C   UNL A   1      42.776  28.406  32.905  1.00  0.00     0.049 A 
ATOM     64  H   UNL A   1      41.144  29.623  32.349  1.00  0.00     0.167 HD
ATOM     65  C   UNL A   1      42.382  29.833  34.897  1.00  0.00     0.074 A 
ATOM     66  C   UNL A   1      42.669  30.258  36.251  1.00  0.00     0.031 C 
ATOM     67  C   UNL A   1      43.050  28.848  34.248  1.00  0.00     0.037 A 
BRANCH  54  68
ATOM     68  C   UNL A   1      40.990  27.732  28.530  1.00  0.00     0.064 A 
ATOM     69  C   UNL A   1      40.259  26.550  28.337  1.00  0.00     0.173 A 
ATOM     70  C   UNL A   1      41.824  28.167  27.490  1.00  0.00     0.173 A 
ATOM     71  F   UNL A   1      39.459  26.084  29.307  1.00  0.00    -0.203 F 
ATOM     72  C   UNL A   1      40.380  25.821  27.156  1.00  0.00     0.198 A 
ATOM     73  C   UNL A   1      41.923  27.449  26.302  1.00  0.00     0.198 A 
ATOM     74  F   UNL A   1      42.542  29.293  27.624  1.00  0.00    -0.203 F 
ATOM     75  F   UNL A   1      39.705  24.672  27.010  1.00  0.00    -0.200 F 
ATOM     76  C   UNL A   1      41.205  26.274  26.138  1.00  0.00     0.200 A 
ATOM     77  F   UNL A   1      42.714  27.892  25.315  1.00  0.00    -0.200 F 
ATOM     78  F   UNL A   1      41.315  25.572  25.001  1.00  0.00    -0.200 F 
ENDBRANCH  54  68
BRANCH  55  79
ATOM     79  C   UNL A   1      39.790  33.303  36.740  1.00  0.00     0.064 A 
ATOM     80  C   UNL A   1      40.568  34.443  36.976  1.00  0.00     0.173 A 
ATOM     81  C   UNL A   1      38.842  32.944  37.710  1.00  0.00     0.173 A 
ATOM     82  F   UNL A   1      41.505  34.809  36.090  1.00  0.00    -0.203 F 
ATOM     83  C   UNL A   1      40.418  35.186  38.145  1.00  0.00     0.198 A 
ATOM     84  C   UNL A   1      38.674  33.704  38.866  1.00  0.00     0.198 A 
ATOM     85  F   UNL A   1      38.076  31.859  37.532  1.00  0.00    -0.203 F 
ATOM     86  F   UNL A   1      41.206  36.246  38.368  1.00  0.00    -0.200 F 
ATOM     87  C   UNL A   1      39.467  34.820  39.086  1.00  0.00     0.200 A 
ATOM     88  F   UNL A   1      37.748  33.351  39.768  1.00  0.00    -0.200 F 
ATOM     89  F   UNL A   1      39.323  35.535  40.210  1.00  0.00    -0.200 F 
ENDBRANCH  55  79
BRANCH  67  90
ATOM     90  C   UNL A   1      44.177  28.186  34.982  1.00  0.00     0.064 A 
ATOM     91  C   UNL A   1      43.982  27.014  35.727  1.00  0.00     0.173 A 
ATOM     92  C   UNL A   1      45.477  28.711  34.909  1.00  0.00     0.173 A 
ATOM     93  F   UNL A   1      42.754  26.483  35.839  1.00  0.00    -0.203 F 
ATOM     94  C   UNL A   1      45.043  26.403  36.390  1.00  0.00     0.198 A 
ATOM     95  C   UNL A   1      46.540  28.082  35.551  1.00  0.00     0.198 A 
ATOM     96  F   UNL A   1      45.717  29.827  34.204  1.00  0.00    -0.203 F 
ATOM     97  F   UNL A   1      44.825  25.308  37.131  1.00  0.00    -0.200 F 
ATOM     98  C   UNL A   1      46.321  26.933  36.295  1.00  0.00     0.200 A 
ATOM     99  F   UNL A   1      47.777  28.589  35.450  1.00  0.00    -0.200 F 
ATOM    100  F   UNL A   1      47.342  26.340  36.930  1.00  0.00    -0.200 F 
ENDBRANCH  67  90
ENDBRANCH  41  42
ENDBRANCH  34  36
ENDBRANCH  33  34
ENDBRANCH  32  33
ENDBRANCH  31  32
ENDBRANCH   1  31
TORSDOF 17
ENDMDL
