MODEL 1
REMARK VINA RESULT:     -11.0      0.000      0.000
REMARK SMILES C[NH2+][C@]1(C(=O)OCCOC(=O)c2ccc(-c3c4nc(c(-c5c(F)c(F)c(F)c(F)c5F)c5ccc([nH]5)c(-c5c(F)c(F)c(F)c(F)c5F)c5nc(c(-c6c(F)c(F)c(F)c(F)c6F)c6ccc3[nH]6)C=C5)C=C4)cc2)CCC[C@@H]1CCOC[C@@H]1CCCO1
REMARK SMILES IDX 6 1 4 2 5 3 3 4 75 5 78 6 76 7 77 8 2 9 1 10 79 13 80 14
REMARK SMILES IDX 81 15 82 16 83 17 84 18 87 19 85 20 86 21 7 22 8 23 9 24
REMARK SMILES IDX 10 25 11 26 12 27 13 28 74 29 14 30 73 31 15 32 16 33 17 34
REMARK SMILES IDX 67 35 18 36 72 37 66 38 68 39 19 40 71 41 65 42 64 43 20 45
REMARK SMILES IDX 52 46 32 47 51 48 33 49 36 50 50 51 69 52 34 53 35 54 49 56
REMARK SMILES IDX 70 57 37 58 21 59 22 60 30 61 23 62 24 63 28 64 31 65 25 66
REMARK SMILES IDX 26 67 29 68 27 69 53 70 54 71 62 72 55 73 56 74 60 75 63 76
REMARK SMILES IDX 57 77 58 78 61 79 59 80 38 81 39 82 47 83 40 84 41 85 45 86
REMARK SMILES IDX 48 87 42 88 43 89 46 90 44 91
REMARK H PARENT 2 11 2 12 68 44 36 55
REMARK Flexibility Score: inf
ROOT
ATOM      1  O   UNL A   1      32.932  27.820  25.212  1.00  0.00    -0.457 OA
ENDROOT
BRANCH   1   2
ATOM      2  C   UNL A   1      33.121  26.912  24.213  1.00  0.00     0.368 C 
ATOM      3  O   UNL A   1      33.594  27.203  23.118  1.00  0.00    -0.245 OA
BRANCH   2   4
ATOM      4  C   UNL A   1      32.720  25.455  24.618  1.00  0.00     0.197 C 
ATOM      5  C   UNL A   1      33.327  24.994  25.963  1.00  0.00     0.081 C 
ATOM      6  C   UNL A   1      31.216  25.472  25.009  1.00  0.00     0.065 C 
ATOM      7  C   UNL A   1      32.375  23.927  26.501  1.00  0.00     0.008 C 
ATOM      8  C   UNL A   1      31.025  24.181  25.823  1.00  0.00     0.011 C 
BRANCH   4   9
ATOM      9  N   UNL A   1      33.202  24.563  23.538  1.00  0.00    -0.334 N 
ATOM     10  C   UNL A   1      34.509  23.952  23.586  1.00  0.00     0.331 C 
ATOM     11  H   UNL A   1      32.529  23.799  23.477  1.00  0.00     0.347 HD
ATOM     12  H   UNL A   1      33.290  25.204  22.751  1.00  0.00     0.347 HD
ENDBRANCH   4   9
BRANCH   6  13
ATOM     13  C   UNL A   1      30.203  25.677  23.872  1.00  0.00     0.039 C 
BRANCH  13  14
ATOM     14  C   UNL A   1      29.090  26.694  24.163  1.00  0.00     0.161 C 
BRANCH  14  15
ATOM     15  O   UNL A   1      28.895  27.642  23.130  1.00  0.00    -0.379 OA
BRANCH  15  16
ATOM     16  C   UNL A   1      29.921  28.559  22.755  1.00  0.00     0.192 C 
BRANCH  16  17
ATOM     17  C   UNL A   1      29.611  30.039  22.472  1.00  0.00     0.144 C 
ATOM     18  C   UNL A   1      28.744  30.739  23.501  1.00  0.00     0.037 C 
ATOM     19  O   UNL A   1      28.994  30.260  21.195  1.00  0.00    -0.376 OA
ATOM     20  C   UNL A   1      28.197  31.904  22.719  1.00  0.00     0.031 C 
ATOM     21  C   UNL A   1      28.030  31.314  21.333  1.00  0.00     0.160 C 
ENDBRANCH  16  17
ENDBRANCH  15  16
ENDBRANCH  14  15
ENDBRANCH  13  14
ENDBRANCH   6  13
ENDBRANCH   2   4
ENDBRANCH   1   2
BRANCH   1  22
ATOM     22  C   UNL A   1      32.871  29.198  24.790  1.00  0.00     0.274 C 
BRANCH  22  23
ATOM     23  C   UNL A   1      31.884  29.981  25.652  1.00  0.00     0.275 C 
BRANCH  23  24
ATOM     24  O   UNL A   1      32.400  30.118  26.988  1.00  0.00    -0.458 OA
BRANCH  24  25
ATOM     25  C   UNL A   1      33.082  31.254  27.247  1.00  0.00     0.338 C 
ATOM     26  O   UNL A   1      32.666  32.404  27.161  1.00  0.00    -0.246 OA
BRANCH  25  27
ATOM     27  C   UNL A   1      34.450  30.950  27.705  1.00  0.00     0.060 A 
ATOM     28  C   UNL A   1      34.822  29.639  27.984  1.00  0.00     0.016 A 
ATOM     29  C   UNL A   1      35.320  31.995  28.017  1.00  0.00     0.016 A 
ATOM     30  C   UNL A   1      35.989  29.380  28.703  1.00  0.00     0.010 A 
ATOM     31  C   UNL A   1      36.553  31.719  28.622  1.00  0.00     0.010 A 
ATOM     32  C   UNL A   1      36.883  30.412  29.022  1.00  0.00    -0.014 A 
BRANCH  32  33
ATOM     33  C   UNL A   1      38.121  30.139  29.811  1.00  0.00     0.031 A 
ATOM     34  C   UNL A   1      39.217  29.281  29.230  1.00  0.00     0.074 A 
ATOM     35  C   UNL A   1      38.292  30.664  31.041  1.00  0.00     0.049 A 
ATOM     36  N   UNL A   1      40.239  28.721  29.829  1.00  0.00    -0.248 NA
ATOM     37  C   UNL A   1      39.148  29.004  27.787  1.00  0.00     0.031 C 
ATOM     38  C   UNL A   1      37.361  31.564  31.721  1.00  0.00     0.029 A 
ATOM     39  N   UNL A   1      39.327  30.526  31.937  1.00  0.00    -0.354 N 
ATOM     40  C   UNL A   1      40.877  27.957  28.859  1.00  0.00     0.074 A 
ATOM     41  C   UNL A   1      40.146  28.145  27.625  1.00  0.00     0.031 C 
ATOM     42  C   UNL A   1      37.888  31.945  32.893  1.00  0.00     0.029 A 
ATOM     43  C   UNL A   1      39.142  31.231  33.101  1.00  0.00     0.049 A 
ATOM     44  H   UNL A   1      40.122  29.974  31.760  1.00  0.00     0.167 HD
ATOM     45  C   UNL A   1      41.964  27.160  28.994  1.00  0.00     0.037 A 
ATOM     46  C   UNL A   1      39.870  31.265  34.234  1.00  0.00     0.037 A 
ATOM     47  C   UNL A   1      42.742  27.042  30.199  1.00  0.00     0.049 A 
ATOM     48  C   UNL A   1      41.080  30.386  34.359  1.00  0.00     0.074 A 
ATOM     49  C   UNL A   1      43.859  26.257  30.436  1.00  0.00     0.029 A 
ATOM     50  N   UNL A   1      42.505  27.758  31.362  1.00  0.00    -0.354 N 
ATOM     51  N   UNL A   1      41.600  29.568  33.478  1.00  0.00    -0.248 NA
ATOM     52  C   UNL A   1      41.781  30.405  35.650  1.00  0.00     0.031 C 
ATOM     53  C   UNL A   1      44.288  26.489  31.749  1.00  0.00     0.029 A 
ATOM     54  C   UNL A   1      43.454  27.439  32.318  1.00  0.00     0.049 A 
ATOM     55  H   UNL A   1      41.769  28.399  31.490  1.00  0.00     0.167 HD
ATOM     56  C   UNL A   1      42.679  28.967  34.109  1.00  0.00     0.074 A 
ATOM     57  C   UNL A   1      42.761  29.538  35.437  1.00  0.00     0.031 C 
ATOM     58  C   UNL A   1      43.518  28.014  33.634  1.00  0.00     0.037 A 
BRANCH  45  59
ATOM     59  C   UNL A   1      42.358  26.314  27.819  1.00  0.00     0.064 A 
ATOM     60  C   UNL A   1      41.740  25.087  27.544  1.00  0.00     0.173 A 
ATOM     61  C   UNL A   1      43.346  26.768  26.931  1.00  0.00     0.173 A 
ATOM     62  F   UNL A   1      40.802  24.603  28.370  1.00  0.00    -0.203 F 
ATOM     63  C   UNL A   1      42.110  24.336  26.430  1.00  0.00     0.198 A 
ATOM     64  C   UNL A   1      43.697  26.026  25.807  1.00  0.00     0.198 A 
ATOM     65  F   UNL A   1      43.963  27.939  27.149  1.00  0.00    -0.203 F 
ATOM     66  F   UNL A   1      41.532  23.147  26.203  1.00  0.00    -0.200 F 
ATOM     67  C   UNL A   1      43.083  24.808  25.561  1.00  0.00     0.200 A 
ATOM     68  F   UNL A   1      44.630  26.489  24.964  1.00  0.00    -0.200 F 
ATOM     69  F   UNL A   1      43.432  24.087  24.487  1.00  0.00    -0.200 F 
ENDBRANCH  45  59
BRANCH  46  70
ATOM     70  C   UNL A   1      39.432  32.127  35.361  1.00  0.00     0.064 A 
ATOM     71  C   UNL A   1      39.847  33.462  35.447  1.00  0.00     0.173 A 
ATOM     72  C   UNL A   1      38.575  31.642  36.360  1.00  0.00     0.173 A 
ATOM     73  F   UNL A   1      40.691  33.961  34.532  1.00  0.00    -0.203 F 
ATOM     74  C   UNL A   1      39.418  34.281  36.489  1.00  0.00     0.198 A 
ATOM     75  C   UNL A   1      38.125  32.470  37.385  1.00  0.00     0.198 A 
ATOM     76  F   UNL A   1      38.155  30.369  36.325  1.00  0.00    -0.203 F 
ATOM     77  F   UNL A   1      39.852  35.547  36.566  1.00  0.00    -0.200 F 
ATOM     78  C   UNL A   1      38.549  33.788  37.452  1.00  0.00     0.200 A 
ATOM     79  F   UNL A   1      37.276  31.991  38.306  1.00  0.00    -0.200 F 
ATOM     80  F   UNL A   1      38.127  34.581  38.445  1.00  0.00    -0.200 F 
ENDBRANCH  46  70
BRANCH  58  81
ATOM     81  C   UNL A   1      44.596  27.540  34.558  1.00  0.00     0.064 A 
ATOM     82  C   UNL A   1      45.836  28.192  34.622  1.00  0.00     0.173 A 
ATOM     83  C   UNL A   1      44.380  26.442  35.402  1.00  0.00     0.173 A 
ATOM     84  F   UNL A   1      46.092  29.236  33.821  1.00  0.00    -0.203 F 
ATOM     85  C   UNL A   1      46.830  27.748  35.491  1.00  0.00     0.198 A 
ATOM     86  C   UNL A   1      45.369  26.012  36.281  1.00  0.00     0.198 A 
ATOM     87  F   UNL A   1      43.208  25.789  35.375  1.00  0.00    -0.203 F 
ATOM     88  F   UNL A   1      48.021  28.362  35.513  1.00  0.00    -0.200 F 
ATOM     89  C   UNL A   1      46.594  26.662  36.321  1.00  0.00     0.200 A 
ATOM     90  F   UNL A   1      45.140  24.966  37.086  1.00  0.00    -0.200 F 
ATOM     91  F   UNL A   1      47.553  26.236  37.155  1.00  0.00    -0.200 F 
ENDBRANCH  58  81
ENDBRANCH  32  33
ENDBRANCH  25  27
ENDBRANCH  24  25
ENDBRANCH  23  24
ENDBRANCH  22  23
ENDBRANCH   1  22
TORSDOF 17
ENDMDL
MODEL 2
REMARK VINA RESULT:     -10.9      4.812     10.079
REMARK SMILES C[NH2+][C@]1(C(=O)OCCOC(=O)c2ccc(-c3c4nc(c(-c5c(F)c(F)c(F)c(F)c5F)c5ccc([nH]5)c(-c5c(F)c(F)c(F)c(F)c5F)c5nc(c(-c6c(F)c(F)c(F)c(F)c6F)c6ccc3[nH]6)C=C5)C=C4)cc2)CCC[C@@H]1CCOC[C@@H]1CCCO1
REMARK SMILES IDX 6 1 4 2 5 3 3 4 75 5 78 6 76 7 77 8 2 9 1 10 79 13 80 14
REMARK SMILES IDX 81 15 82 16 83 17 84 18 87 19 85 20 86 21 7 22 8 23 9 24
REMARK SMILES IDX 10 25 11 26 12 27 13 28 74 29 14 30 73 31 15 32 16 33 17 34
REMARK SMILES IDX 67 35 18 36 72 37 66 38 68 39 19 40 71 41 65 42 64 43 20 45
REMARK SMILES IDX 52 46 32 47 51 48 33 49 36 50 50 51 69 52 34 53 35 54 49 56
REMARK SMILES IDX 70 57 37 58 21 59 22 60 30 61 23 62 24 63 28 64 31 65 25 66
REMARK SMILES IDX 26 67 29 68 27 69 53 70 54 71 62 72 55 73 56 74 60 75 63 76
REMARK SMILES IDX 57 77 58 78 61 79 59 80 38 81 39 82 47 83 40 84 41 85 45 86
REMARK SMILES IDX 48 87 42 88 43 89 46 90 44 91
REMARK H PARENT 2 11 2 12 68 44 36 55
REMARK Flexibility Score: inf
ROOT
ATOM      1  O   UNL A   1      35.045  23.104  26.098  1.00  0.00    -0.457 OA
ENDROOT
BRANCH   1   2
ATOM      2  C   UNL A   1      33.703  23.330  26.161  1.00  0.00     0.368 C 
ATOM      3  O   UNL A   1      32.992  22.925  27.077  1.00  0.00    -0.245 OA
BRANCH   2   4
ATOM      4  C   UNL A   1      33.166  24.200  24.976  1.00  0.00     0.197 C 
ATOM      5  C   UNL A   1      34.131  25.327  24.546  1.00  0.00     0.081 C 
ATOM      6  C   UNL A   1      33.210  23.323  23.692  1.00  0.00     0.065 C 
ATOM      7  C   UNL A   1      33.810  25.607  23.078  1.00  0.00     0.008 C 
ATOM      8  C   UNL A   1      33.137  24.340  22.541  1.00  0.00     0.011 C 
BRANCH   4   9
ATOM      9  N   UNL A   1      31.890  24.799  25.429  1.00  0.00    -0.334 N 
ATOM     10  C   UNL A   1      31.854  26.051  26.146  1.00  0.00     0.331 C 
ATOM     11  H   UNL A   1      31.323  24.931  24.591  1.00  0.00     0.347 HD
ATOM     12  H   UNL A   1      31.576  24.134  26.135  1.00  0.00     0.347 HD
ENDBRANCH   4   9
BRANCH   6  13
ATOM     13  C   UNL A   1      32.199  22.169  23.603  1.00  0.00     0.039 C 
BRANCH  13  14
ATOM     14  C   UNL A   1      32.815  20.765  23.527  1.00  0.00     0.161 C 
BRANCH  14  15
ATOM     15  O   UNL A   1      32.085  19.861  22.717  1.00  0.00    -0.379 OA
BRANCH  15  16
ATOM     16  C   UNL A   1      32.254  18.450  22.836  1.00  0.00     0.192 C 
BRANCH  16  17
ATOM     17  C   UNL A   1      32.988  17.827  24.036  1.00  0.00     0.144 C 
ATOM     18  C   UNL A   1      33.867  16.631  23.723  1.00  0.00     0.037 C 
ATOM     19  O   UNL A   1      32.110  17.426  25.097  1.00  0.00    -0.376 OA
ATOM     20  C   UNL A   1      33.983  15.959  25.065  1.00  0.00     0.031 C 
ATOM     21  C   UNL A   1      32.619  16.214  25.674  1.00  0.00     0.160 C 
ENDBRANCH  16  17
ENDBRANCH  15  16
ENDBRANCH  14  15
ENDBRANCH  13  14
ENDBRANCH   6  13
ENDBRANCH   2   4
ENDBRANCH   1   2
BRANCH   1  22
ATOM     22  C   UNL A   1      35.451  21.737  26.319  1.00  0.00     0.274 C 
BRANCH  22  23
ATOM     23  C   UNL A   1      36.187  21.192  25.098  1.00  0.00     0.275 C 
BRANCH  23  24
ATOM     24  O   UNL A   1      37.428  21.899  24.916  1.00  0.00    -0.458 OA
BRANCH  24  25
ATOM     25  C   UNL A   1      38.451  21.514  25.707  1.00  0.00     0.338 C 
ATOM     26  O   UNL A   1      38.896  20.379  25.844  1.00  0.00    -0.246 OA
BRANCH  25  27
ATOM     27  C   UNL A   1      39.038  22.673  26.405  1.00  0.00     0.060 A 
ATOM     28  C   UNL A   1      38.562  23.957  26.158  1.00  0.00     0.016 A 
ATOM     29  C   UNL A   1      40.179  22.500  27.190  1.00  0.00     0.016 A 
ATOM     30  C   UNL A   1      39.301  25.067  26.564  1.00  0.00     0.010 A 
ATOM     31  C   UNL A   1      40.845  23.616  27.708  1.00  0.00     0.010 A 
ATOM     32  C   UNL A   1      40.446  24.919  27.358  1.00  0.00    -0.014 A 
BRANCH  32  33
ATOM     33  C   UNL A   1      41.251  26.107  27.776  1.00  0.00     0.031 A 
ATOM     34  C   UNL A   1      40.638  27.166  28.658  1.00  0.00     0.074 A 
ATOM     35  C   UNL A   1      42.536  26.247  27.391  1.00  0.00     0.049 A 
ATOM     36  N   UNL A   1      41.066  28.376  28.923  1.00  0.00    -0.248 NA
ATOM     37  C   UNL A   1      39.369  26.825  29.321  1.00  0.00     0.031 C 
ATOM     38  C   UNL A   1      43.296  25.286  26.592  1.00  0.00     0.029 A 
ATOM     39  N   UNL A   1      43.438  27.256  27.636  1.00  0.00    -0.354 N 
ATOM     40  C   UNL A   1      40.079  28.967  29.702  1.00  0.00     0.074 A 
ATOM     41  C   UNL A   1      39.042  27.975  29.894  1.00  0.00     0.031 C 
ATOM     42  C   UNL A   1      44.559  25.717  26.465  1.00  0.00     0.029 A 
ATOM     43  C   UNL A   1      44.672  27.037  27.075  1.00  0.00     0.049 A 
ATOM     44  H   UNL A   1      43.219  28.058  28.163  1.00  0.00     0.167 HD
ATOM     45  C   UNL A   1      40.038  30.226  30.199  1.00  0.00     0.037 A 
ATOM     46  C   UNL A   1      45.761  27.825  27.010  1.00  0.00     0.037 A 
ATOM     47  C   UNL A   1      41.108  31.182  30.083  1.00  0.00     0.049 A 
ATOM     48  C   UNL A   1      45.702  29.213  27.579  1.00  0.00     0.074 A 
ATOM     49  C   UNL A   1      41.160  32.485  30.548  1.00  0.00     0.029 A 
ATOM     50  N   UNL A   1      42.332  30.923  29.485  1.00  0.00    -0.354 N 
ATOM     51  N   UNL A   1      44.715  29.807  28.201  1.00  0.00    -0.248 NA
ATOM     52  C   UNL A   1      46.894  30.053  27.400  1.00  0.00     0.031 C 
ATOM     53  C   UNL A   1      42.412  33.020  30.219  1.00  0.00     0.029 A 
ATOM     54  C   UNL A   1      43.148  32.039  29.574  1.00  0.00     0.049 A 
ATOM     55  H   UNL A   1      42.584  30.072  29.060  1.00  0.00     0.167 HD
ATOM     56  C   UNL A   1      45.160  31.092  28.479  1.00  0.00     0.074 A 
ATOM     57  C   UNL A   1      46.518  31.181  27.986  1.00  0.00     0.031 C 
ATOM     58  C   UNL A   1      44.495  32.111  29.075  1.00  0.00     0.037 A 
BRANCH  45  59
ATOM     59  C   UNL A   1      38.776  30.666  30.880  1.00  0.00     0.064 A 
ATOM     60  C   UNL A   1      37.657  31.108  30.163  1.00  0.00     0.173 A 
ATOM     61  C   UNL A   1      38.678  30.600  32.279  1.00  0.00     0.173 A 
ATOM     62  F   UNL A   1      37.706  31.203  28.826  1.00  0.00    -0.203 F 
ATOM     63  C   UNL A   1      36.489  31.486  30.823  1.00  0.00     0.198 A 
ATOM     64  C   UNL A   1      37.502  30.958  32.934  1.00  0.00     0.198 A 
ATOM     65  F   UNL A   1      39.720  30.179  33.010  1.00  0.00    -0.203 F 
ATOM     66  F   UNL A   1      35.441  31.940  30.120  1.00  0.00    -0.200 F 
ATOM     67  C   UNL A   1      36.411  31.405  32.205  1.00  0.00     0.200 A 
ATOM     68  F   UNL A   1      37.426  30.869  34.269  1.00  0.00    -0.200 F 
ATOM     69  F   UNL A   1      35.285  31.762  32.837  1.00  0.00    -0.200 F 
ENDBRANCH  45  59
BRANCH  46  70
ATOM     70  C   UNL A   1      46.985  27.332  26.327  1.00  0.00     0.064 A 
ATOM     71  C   UNL A   1      47.982  26.654  27.040  1.00  0.00     0.173 A 
ATOM     72  C   UNL A   1      47.171  27.507  24.947  1.00  0.00     0.173 A 
ATOM     73  F   UNL A   1      47.862  26.490  28.366  1.00  0.00    -0.203 F 
ATOM     74  C   UNL A   1      49.118  26.167  26.399  1.00  0.00     0.198 A 
ATOM     75  C   UNL A   1      48.293  26.995  24.303  1.00  0.00     0.198 A 
ATOM     76  F   UNL A   1      46.247  28.154  24.222  1.00  0.00    -0.203 F 
ATOM     77  F   UNL A   1      50.072  25.548  27.108  1.00  0.00    -0.200 F 
ATOM     78  C   UNL A   1      49.269  26.329  25.029  1.00  0.00     0.200 A 
ATOM     79  F   UNL A   1      48.428  27.143  22.977  1.00  0.00    -0.200 F 
ATOM     80  F   UNL A   1      50.356  25.847  24.411  1.00  0.00    -0.200 F 
ENDBRANCH  46  70
BRANCH  58  81
ATOM     81  C   UNL A   1      45.233  33.403  29.229  1.00  0.00     0.064 A 
ATOM     82  C   UNL A   1      46.031  33.654  30.355  1.00  0.00     0.173 A 
ATOM     83  C   UNL A   1      45.164  34.387  28.233  1.00  0.00     0.173 A 
ATOM     84  F   UNL A   1      46.113  32.747  31.339  1.00  0.00    -0.203 F 
ATOM     85  C   UNL A   1      46.721  34.856  30.485  1.00  0.00     0.198 A 
ATOM     86  C   UNL A   1      45.869  35.580  28.359  1.00  0.00     0.198 A 
ATOM     87  F   UNL A   1      44.415  34.190  27.138  1.00  0.00    -0.203 F 
ATOM     88  F   UNL A   1      47.450  35.092  31.585  1.00  0.00    -0.200 F 
ATOM     89  C   UNL A   1      46.643  35.815  29.486  1.00  0.00     0.200 A 
ATOM     90  F   UNL A   1      45.797  36.505  27.392  1.00  0.00    -0.200 F 
ATOM     91  F   UNL A   1      47.307  36.973  29.615  1.00  0.00    -0.200 F 
ENDBRANCH  58  81
ENDBRANCH  32  33
ENDBRANCH  25  27
ENDBRANCH  24  25
ENDBRANCH  23  24
ENDBRANCH  22  23
ENDBRANCH   1  22
TORSDOF 17
ENDMDL
MODEL 3
REMARK VINA RESULT:     -10.8      1.942      4.021
REMARK SMILES C[NH2+][C@]1(C(=O)OCCOC(=O)c2ccc(-c3c4nc(c(-c5c(F)c(F)c(F)c(F)c5F)c5ccc([nH]5)c(-c5c(F)c(F)c(F)c(F)c5F)c5nc(c(-c6c(F)c(F)c(F)c(F)c6F)c6ccc3[nH]6)C=C5)C=C4)cc2)CCC[C@@H]1CCOC[C@@H]1CCCO1
REMARK SMILES IDX 6 1 4 2 5 3 3 4 75 5 78 6 76 7 77 8 2 9 1 10 79 13 80 14
REMARK SMILES IDX 81 15 82 16 83 17 84 18 87 19 85 20 86 21 7 22 8 23 9 24
REMARK SMILES IDX 10 25 11 26 12 27 13 28 74 29 14 30 73 31 15 32 16 33 17 34
REMARK SMILES IDX 67 35 18 36 72 37 66 38 68 39 19 40 71 41 65 42 64 43 20 45
REMARK SMILES IDX 52 46 32 47 51 48 33 49 36 50 50 51 69 52 34 53 35 54 49 56
REMARK SMILES IDX 70 57 37 58 21 59 22 60 30 61 23 62 24 63 28 64 31 65 25 66
REMARK SMILES IDX 26 67 29 68 27 69 53 70 54 71 62 72 55 73 56 74 60 75 63 76
REMARK SMILES IDX 57 77 58 78 61 79 59 80 38 81 39 82 47 83 40 84 41 85 45 86
REMARK SMILES IDX 48 87 42 88 43 89 46 90 44 91
REMARK H PARENT 2 11 2 12 68 44 36 55
REMARK Flexibility Score: inf
ROOT
ATOM      1  O   UNL A   1      32.555  27.269  25.947  1.00  0.00    -0.457 OA
ENDROOT
BRANCH   1   2
ATOM      2  C   UNL A   1      32.196  25.954  25.979  1.00  0.00     0.368 C 
ATOM      3  O   UNL A   1      31.619  25.436  26.930  1.00  0.00    -0.245 OA
BRANCH   2   4
ATOM      4  C   UNL A   1      32.551  25.184  24.663  1.00  0.00     0.197 C 
ATOM      5  C   UNL A   1      32.718  26.102  23.431  1.00  0.00     0.081 C 
ATOM      6  C   UNL A   1      34.012  24.670  24.799  1.00  0.00     0.065 C 
ATOM      7  C   UNL A   1      33.655  25.353  22.483  1.00  0.00     0.008 C 
ATOM      8  C   UNL A   1      34.437  24.365  23.353  1.00  0.00     0.011 C 
BRANCH   4   9
ATOM      9  N   UNL A   1      31.443  24.234  24.413  1.00  0.00    -0.334 N 
ATOM     10  C   UNL A   1      30.547  24.392  23.292  1.00  0.00     0.331 C 
ATOM     11  H   UNL A   1      31.873  23.315  24.309  1.00  0.00     0.347 HD
ATOM     12  H   UNL A   1      30.828  24.402  25.208  1.00  0.00     0.347 HD
ENDBRANCH   4   9
BRANCH   6  13
ATOM     13  C   UNL A   1      34.258  23.531  25.801  1.00  0.00     0.039 C 
BRANCH  13  14
ATOM     14  C   UNL A   1      34.148  22.114  25.222  1.00  0.00     0.161 C 
BRANCH  14  15
ATOM     15  O   UNL A   1      32.817  21.652  25.086  1.00  0.00    -0.379 OA
BRANCH  15  16
ATOM     16  C   UNL A   1      32.516  20.260  25.000  1.00  0.00     0.192 C 
BRANCH  16  17
ATOM     17  C   UNL A   1      33.326  19.318  24.093  1.00  0.00     0.144 C 
ATOM     18  C   UNL A   1      32.527  18.253  23.367  1.00  0.00     0.037 C 
ATOM     19  O   UNL A   1      34.388  18.639  24.779  1.00  0.00    -0.376 OA
ATOM     20  C   UNL A   1      33.580  17.228  23.041  1.00  0.00     0.031 C 
ATOM     21  C   UNL A   1      34.495  17.309  24.247  1.00  0.00     0.160 C 
ENDBRANCH  16  17
ENDBRANCH  15  16
ENDBRANCH  14  15
ENDBRANCH  13  14
ENDBRANCH   6  13
ENDBRANCH   2   4
ENDBRANCH   1   2
BRANCH   1  22
ATOM     22  C   UNL A   1      31.656  28.170  26.623  1.00  0.00     0.274 C 
BRANCH  22  23
ATOM     23  C   UNL A   1      31.625  29.526  25.921  1.00  0.00     0.275 C 
BRANCH  23  24
ATOM     24  O   UNL A   1      32.952  30.079  25.861  1.00  0.00    -0.458 OA
BRANCH  24  25
ATOM     25  C   UNL A   1      33.264  30.978  26.817  1.00  0.00     0.338 C 
ATOM     26  O   UNL A   1      32.550  31.876  27.251  1.00  0.00    -0.246 OA
BRANCH  25  27
ATOM     27  C   UNL A   1      34.620  30.734  27.344  1.00  0.00     0.060 A 
ATOM     28  C   UNL A   1      35.066  29.434  27.558  1.00  0.00     0.016 A 
ATOM     29  C   UNL A   1      35.393  31.810  27.782  1.00  0.00     0.016 A 
ATOM     30  C   UNL A   1      36.201  29.203  28.334  1.00  0.00     0.010 A 
ATOM     31  C   UNL A   1      36.602  31.575  28.448  1.00  0.00     0.010 A 
ATOM     32  C   UNL A   1      36.998  30.267  28.780  1.00  0.00    -0.014 A 
BRANCH  32  33
ATOM     33  C   UNL A   1      38.202  30.022  29.630  1.00  0.00     0.031 A 
ATOM     34  C   UNL A   1      39.355  29.208  29.096  1.00  0.00     0.074 A 
ATOM     35  C   UNL A   1      38.291  30.532  30.875  1.00  0.00     0.049 A 
ATOM     36  N   UNL A   1      40.362  28.671  29.740  1.00  0.00    -0.248 NA
ATOM     37  C   UNL A   1      39.371  28.952  27.647  1.00  0.00     0.031 C 
ATOM     38  C   UNL A   1      37.296  31.391  31.517  1.00  0.00     0.029 A 
ATOM     39  N   UNL A   1      39.281  30.413  31.821  1.00  0.00    -0.354 N 
ATOM     40  C   UNL A   1      41.074  27.944  28.794  1.00  0.00     0.074 A 
ATOM     41  C   UNL A   1      40.403  28.128  27.526  1.00  0.00     0.031 C 
ATOM     42  C   UNL A   1      37.749  31.770  32.720  1.00  0.00     0.029 A 
ATOM     43  C   UNL A   1      39.013  31.093  32.984  1.00  0.00     0.049 A 
ATOM     44  H   UNL A   1      40.102  29.890  31.680  1.00  0.00     0.167 HD
ATOM     45  C   UNL A   1      42.179  27.180  28.975  1.00  0.00     0.037 A 
ATOM     46  C   UNL A   1      39.679  31.132  34.154  1.00  0.00     0.037 A 
ATOM     47  C   UNL A   1      42.896  27.068  30.218  1.00  0.00     0.049 A 
ATOM     48  C   UNL A   1      40.909  30.291  34.331  1.00  0.00     0.074 A 
ATOM     49  C   UNL A   1      44.023  26.316  30.503  1.00  0.00     0.029 A 
ATOM     50  N   UNL A   1      42.574  27.758  31.377  1.00  0.00    -0.354 N 
ATOM     51  N   UNL A   1      41.501  29.504  33.467  1.00  0.00    -0.248 NA
ATOM     52  C   UNL A   1      41.541  30.312  35.658  1.00  0.00     0.031 C 
ATOM     53  C   UNL A   1      44.376  26.541  31.839  1.00  0.00     0.029 A 
ATOM     54  C   UNL A   1      43.483  27.454  32.377  1.00  0.00     0.049 A 
ATOM     55  H   UNL A   1      41.812  28.373  31.475  1.00  0.00     0.167 HD
ATOM     56  C   UNL A   1      42.565  28.929  34.146  1.00  0.00     0.074 A 
ATOM     57  C   UNL A   1      42.558  29.481  35.484  1.00  0.00     0.031 C 
ATOM     58  C   UNL A   1      43.458  28.011  33.702  1.00  0.00     0.037 A 
BRANCH  45  59
ATOM     59  C   UNL A   1      42.661  26.366  27.811  1.00  0.00     0.064 A 
ATOM     60  C   UNL A   1      42.149  25.093  27.529  1.00  0.00     0.173 A 
ATOM     61  C   UNL A   1      43.626  26.896  26.940  1.00  0.00     0.173 A 
ATOM     62  F   UNL A   1      41.237  24.537  28.340  1.00  0.00    -0.203 F 
ATOM     63  C   UNL A   1      42.599  24.371  26.425  1.00  0.00     0.198 A 
ATOM     64  C   UNL A   1      44.056  26.182  25.825  1.00  0.00     0.198 A 
ATOM     65  F   UNL A   1      44.143  28.113  27.164  1.00  0.00    -0.203 F 
ATOM     66  F   UNL A   1      42.123  23.139  26.192  1.00  0.00    -0.200 F 
ATOM     67  C   UNL A   1      43.546  24.918  25.572  1.00  0.00     0.200 A 
ATOM     68  F   UNL A   1      44.965  26.717  24.998  1.00  0.00    -0.200 F 
ATOM     69  F   UNL A   1      43.973  24.225  24.508  1.00  0.00    -0.200 F 
ENDBRANCH  45  59
BRANCH  46  70
ATOM     70  C   UNL A   1      39.155  31.962  35.269  1.00  0.00     0.064 A 
ATOM     71  C   UNL A   1      38.395  31.388  36.296  1.00  0.00     0.173 A 
ATOM     72  C   UNL A   1      39.423  33.338  35.343  1.00  0.00     0.173 A 
ATOM     73  F   UNL A   1      38.088  30.083  36.252  1.00  0.00    -0.203 F 
ATOM     74  C   UNL A   1      37.923  32.158  37.357  1.00  0.00     0.198 A 
ATOM     75  C   UNL A   1      38.975  34.100  36.418  1.00  0.00     0.198 A 
ATOM     76  F   UNL A   1      40.141  33.934  34.381  1.00  0.00    -0.203 F 
ATOM     77  F   UNL A   1      37.173  31.592  38.312  1.00  0.00    -0.200 F 
ATOM     78  C   UNL A   1      38.222  33.512  37.423  1.00  0.00     0.200 A 
ATOM     79  F   UNL A   1      39.277  35.405  36.483  1.00  0.00    -0.200 F 
ATOM     80  F   UNL A   1      37.780  34.248  38.451  1.00  0.00    -0.200 F 
ENDBRANCH  46  70
BRANCH  58  81
ATOM     81  C   UNL A   1      44.501  27.556  34.675  1.00  0.00     0.064 A 
ATOM     82  C   UNL A   1      45.714  28.246  34.814  1.00  0.00     0.173 A 
ATOM     83  C   UNL A   1      44.277  26.440  35.493  1.00  0.00     0.173 A 
ATOM     84  F   UNL A   1      45.978  29.310  34.040  1.00  0.00    -0.203 F 
ATOM     85  C   UNL A   1      46.675  27.821  35.727  1.00  0.00     0.198 A 
ATOM     86  C   UNL A   1      45.232  26.028  36.416  1.00  0.00     0.198 A 
ATOM     87  F   UNL A   1      43.130  25.751  35.395  1.00  0.00    -0.203 F 
ATOM     88  F   UNL A   1      47.844  28.472  35.820  1.00  0.00    -0.200 F 
ATOM     89  C   UNL A   1      46.432  26.716  36.529  1.00  0.00     0.200 A 
ATOM     90  F   UNL A   1      44.996  24.963  37.194  1.00  0.00    -0.200 F 
ATOM     91  F   UNL A   1      47.360  26.307  37.407  1.00  0.00    -0.200 F 
ENDBRANCH  58  81
ENDBRANCH  32  33
ENDBRANCH  25  27
ENDBRANCH  24  25
ENDBRANCH  23  24
ENDBRANCH  22  23
ENDBRANCH   1  22
TORSDOF 17
ENDMDL
