MODEL 1
REMARK VINA RESULT:     -11.4      0.000      0.000
REMARK SMILES CCc1cc(OCCC(=O)OCCOC(=O)c2ccc(-c3c4nc(c(-c5c(F)c(F)c(F)c(F)c5F)c5ccc([nH]5)c(-c5c(F)c(F)c(F)c(F)c5F)c5nc(c(-c6c(F)c(F)c(F)c(F)c6F)c6ccc3[nH]6)C=C5)C=C4)cc2)nc(-c2cnccn2)n1
REMARK SMILES IDX 12 1 11 2 9 3 10 4 8 5 7 6 6 7 5 8 3 9 4 10 88 11 81 12
REMARK SMILES IDX 80 13 2 14 1 15 82 16 83 17 87 18 84 19 86 20 85 21 13 22
REMARK SMILES IDX 14 23 15 24 16 25 17 26 18 27 79 28 19 29 78 30 20 31 21 32
REMARK SMILES IDX 22 33 72 34 23 35 77 36 71 37 73 38 24 39 76 40 70 41 69 42
REMARK SMILES IDX 25 44 57 45 37 46 56 47 38 48 41 49 55 50 74 51 39 52 40 53
REMARK SMILES IDX 54 55 75 56 42 57 26 58 27 59 35 60 28 61 29 62 33 63 36 64
REMARK SMILES IDX 30 65 31 66 34 67 32 68 58 69 59 70 67 71 60 72 61 73 65 74
REMARK SMILES IDX 68 75 62 76 63 77 66 78 64 79 43 80 44 81 52 82 45 83 46 84
REMARK SMILES IDX 50 85 53 86 47 87 48 88 51 89 49 90
REMARK H PARENT 73 43 41 54
REMARK Flexibility Score: inf
ROOT
ATOM      1  C   UNL A   1      38.398  20.467  25.325  1.00  0.00     0.274 C 
ENDROOT
BRANCH   1   2
ATOM      2  O   UNL A   1      38.709  21.674  26.048  1.00  0.00    -0.462 OA
BRANCH   2   3
ATOM      3  C   UNL A   1      38.028  22.798  25.733  1.00  0.00     0.309 C 
ATOM      4  O   UNL A   1      38.044  23.830  26.394  1.00  0.00    -0.252 OA
BRANCH   3   5
ATOM      5  C   UNL A   1      37.199  22.634  24.483  1.00  0.00     0.164 C 
BRANCH   5   6
ATOM      6  C   UNL A   1      35.886  23.417  24.468  1.00  0.00     0.243 C 
BRANCH   6   7
ATOM      7  O   UNL A   1      34.843  22.748  23.758  1.00  0.00    -0.477 OA
BRANCH   7   8
ATOM      8  C   UNL A   1      33.802  22.135  24.393  1.00  0.00     0.217 A 
ATOM      9  C   UNL A   1      31.740  21.994  25.544  1.00  0.00     0.048 A 
ATOM     10  C   UNL A   1      32.846  22.745  25.183  1.00  0.00     0.092 A 
ATOM     11  N   UNL A   1      31.674  20.696  25.262  1.00  0.00    -0.231 NA
ATOM     12  C   UNL A   1      32.697  20.152  24.586  1.00  0.00     0.183 A 
ATOM     13  N   UNL A   1      33.769  20.817  24.130  1.00  0.00    -0.192 NA
BRANCH   9  14
ATOM     14  C   UNL A   1      30.473  22.547  26.134  1.00  0.00     0.053 C 
ATOM     15  C   UNL A   1      30.494  24.015  26.507  1.00  0.00     0.011 C 
ENDBRANCH   9  14
BRANCH  12  16
ATOM     16  C   UNL A   1      32.635  18.700  24.508  1.00  0.00     0.126 A 
ATOM     17  C   UNL A   1      33.043  18.048  23.350  1.00  0.00     0.143 A 
ATOM     18  N   UNL A   1      32.456  18.020  25.680  1.00  0.00    -0.250 NA
ATOM     19  N   UNL A   1      33.327  16.722  23.314  1.00  0.00    -0.261 NA
ATOM     20  C   UNL A   1      32.750  16.706  25.647  1.00  0.00     0.132 A 
ATOM     21  C   UNL A   1      33.192  16.077  24.496  1.00  0.00     0.131 A 
ENDBRANCH  12  16
ENDBRANCH   7   8
ENDBRANCH   6   7
ENDBRANCH   5   6
ENDBRANCH   3   5
ENDBRANCH   2   3
ENDBRANCH   1   2
BRANCH   1  22
ATOM     22  C   UNL A   1      39.363  19.345  25.698  1.00  0.00     0.275 C 
BRANCH  22  23
ATOM     23  O   UNL A   1      40.396  19.844  26.535  1.00  0.00    -0.458 OA
BRANCH  23  24
ATOM     24  C   UNL A   1      41.662  19.577  26.138  1.00  0.00     0.338 C 
ATOM     25  O   UNL A   1      42.147  18.579  25.668  1.00  0.00    -0.246 OA
BRANCH  24  26
ATOM     26  C   UNL A   1      42.353  20.828  26.364  1.00  0.00     0.060 A 
ATOM     27  C   UNL A   1      42.569  21.683  25.284  1.00  0.00     0.016 A 
ATOM     28  C   UNL A   1      42.578  21.187  27.692  1.00  0.00     0.016 A 
ATOM     29  C   UNL A   1      42.996  22.967  25.546  1.00  0.00     0.010 A 
ATOM     30  C   UNL A   1      42.975  22.476  27.953  1.00  0.00     0.010 A 
ATOM     31  C   UNL A   1      43.181  23.356  26.878  1.00  0.00    -0.014 A 
BRANCH  31  32
ATOM     32  C   UNL A   1      43.677  24.696  27.174  1.00  0.00     0.031 A 
ATOM     33  C   UNL A   1      42.705  25.672  27.741  1.00  0.00     0.074 A 
ATOM     34  C   UNL A   1      44.956  24.979  26.883  1.00  0.00     0.049 A 
ATOM     35  N   UNL A   1      42.871  26.934  28.014  1.00  0.00    -0.248 NA
ATOM     36  C   UNL A   1      41.349  25.162  28.016  1.00  0.00     0.031 C 
ATOM     37  C   UNL A   1      45.920  24.033  26.315  1.00  0.00     0.029 A 
ATOM     38  N   UNL A   1      45.659  26.139  27.016  1.00  0.00    -0.354 N 
ATOM     39  C   UNL A   1      41.639  27.371  28.479  1.00  0.00     0.074 A 
ATOM     40  C   UNL A   1      40.723  26.259  28.408  1.00  0.00     0.031 C 
ATOM     41  C   UNL A   1      47.101  24.653  26.160  1.00  0.00     0.029 A 
ATOM     42  C   UNL A   1      46.957  26.039  26.582  1.00  0.00     0.049 A 
ATOM     43  H   UNL A   1      45.275  26.965  27.387  1.00  0.00     0.167 HD
ATOM     44  C   UNL A   1      41.328  28.604  28.934  1.00  0.00     0.037 A 
ATOM     45  C   UNL A   1      47.904  26.992  26.533  1.00  0.00     0.037 A 
ATOM     46  C   UNL A   1      42.289  29.671  28.973  1.00  0.00     0.049 A 
ATOM     47  C   UNL A   1      47.525  28.357  27.041  1.00  0.00     0.074 A 
ATOM     48  C   UNL A   1      42.131  30.970  29.411  1.00  0.00     0.029 A 
ATOM     49  N   UNL A   1      43.608  29.545  28.542  1.00  0.00    -0.354 N 
ATOM     50  N   UNL A   1      46.370  28.770  27.512  1.00  0.00    -0.248 NA
ATOM     51  C   UNL A   1      48.570  29.382  27.022  1.00  0.00     0.031 C 
ATOM     52  C   UNL A   1      43.340  31.642  29.204  1.00  0.00     0.029 A 
ATOM     53  C   UNL A   1      44.273  30.749  28.689  1.00  0.00     0.049 A 
ATOM     54  H   UNL A   1      44.009  28.720  28.187  1.00  0.00     0.167 HD
ATOM     55  C   UNL A   1      46.549  30.099  27.861  1.00  0.00     0.074 A 
ATOM     56  C   UNL A   1      47.938  30.410  27.570  1.00  0.00     0.031 C 
ATOM     57  C   UNL A   1      45.659  30.988  28.370  1.00  0.00     0.037 A 
BRANCH  44  58
ATOM     58  C   UNL A   1      39.915  28.838  29.379  1.00  0.00     0.064 A 
ATOM     59  C   UNL A   1      39.503  28.591  30.699  1.00  0.00     0.173 A 
ATOM     60  C   UNL A   1      38.947  29.280  28.465  1.00  0.00     0.173 A 
ATOM     61  F   UNL A   1      40.379  28.135  31.607  1.00  0.00    -0.203 F 
ATOM     62  C   UNL A   1      38.171  28.748  31.077  1.00  0.00     0.198 A 
ATOM     63  C   UNL A   1      37.623  29.467  28.855  1.00  0.00     0.198 A 
ATOM     64  F   UNL A   1      39.281  29.516  27.188  1.00  0.00    -0.203 F 
ATOM     65  F   UNL A   1      37.790  28.443  32.326  1.00  0.00    -0.200 F 
ATOM     66  C   UNL A   1      37.234  29.193  30.158  1.00  0.00     0.200 A 
ATOM     67  F   UNL A   1      36.718  29.898  27.965  1.00  0.00    -0.200 F 
ATOM     68  F   UNL A   1      35.953  29.340  30.522  1.00  0.00    -0.200 F 
ENDBRANCH  44  58
BRANCH  45  69
ATOM     69  C   UNL A   1      49.261  26.671  26.021  1.00  0.00     0.064 A 
ATOM     70  C   UNL A   1      49.626  26.971  24.701  1.00  0.00     0.173 A 
ATOM     71  C   UNL A   1      50.237  26.094  26.848  1.00  0.00     0.173 A 
ATOM     72  F   UNL A   1      48.729  27.517  23.866  1.00  0.00    -0.203 F 
ATOM     73  C   UNL A   1      50.906  26.690  24.224  1.00  0.00     0.198 A 
ATOM     74  C   UNL A   1      51.526  25.841  26.379  1.00  0.00     0.198 A 
ATOM     75  F   UNL A   1      49.948  25.799  28.124  1.00  0.00    -0.203 F 
ATOM     76  F   UNL A   1      51.215  26.955  22.948  1.00  0.00    -0.200 F 
ATOM     77  C   UNL A   1      51.857  26.132  25.065  1.00  0.00     0.200 A 
ATOM     78  F   UNL A   1      52.446  25.321  27.201  1.00  0.00    -0.200 F 
ATOM     79  F   UNL A   1      53.090  25.874  24.609  1.00  0.00    -0.200 F 
ENDBRANCH  45  69
BRANCH  57  80
ATOM     80  C   UNL A   1      46.186  32.362  28.650  1.00  0.00     0.064 A 
ATOM     81  C   UNL A   1      46.764  32.686  29.887  1.00  0.00     0.173 A 
ATOM     82  C   UNL A   1      46.145  33.350  27.656  1.00  0.00     0.173 A 
ATOM     83  F   UNL A   1      46.811  31.774  30.870  1.00  0.00    -0.203 F 
ATOM     84  C   UNL A   1      47.251  33.964  30.128  1.00  0.00     0.198 A 
ATOM     85  C   UNL A   1      46.666  34.616  27.891  1.00  0.00     0.198 A 
ATOM     86  F   UNL A   1      45.610  33.080  26.456  1.00  0.00    -0.203 F 
ATOM     87  F   UNL A   1      47.749  34.271  31.335  1.00  0.00    -0.200 F 
ATOM     88  C   UNL A   1      47.209  34.925  29.129  1.00  0.00     0.200 A 
ATOM     89  F   UNL A   1      46.641  35.538  26.919  1.00  0.00    -0.200 F 
ATOM     90  F   UNL A   1      47.688  36.155  29.362  1.00  0.00    -0.200 F 
ENDBRANCH  57  80
ENDBRANCH  31  32
ENDBRANCH  24  26
ENDBRANCH  23  24
ENDBRANCH  22  23
ENDBRANCH   1  22
TORSDOF 16
ENDMDL
MODEL 2
REMARK VINA RESULT:     -11.3      0.830      2.169
REMARK SMILES CCc1cc(OCCC(=O)OCCOC(=O)c2ccc(-c3c4nc(c(-c5c(F)c(F)c(F)c(F)c5F)c5ccc([nH]5)c(-c5c(F)c(F)c(F)c(F)c5F)c5nc(c(-c6c(F)c(F)c(F)c(F)c6F)c6ccc3[nH]6)C=C5)C=C4)cc2)nc(-c2cnccn2)n1
REMARK SMILES IDX 12 1 11 2 9 3 10 4 8 5 7 6 6 7 5 8 3 9 4 10 88 11 81 12
REMARK SMILES IDX 80 13 2 14 1 15 82 16 83 17 87 18 84 19 86 20 85 21 13 22
REMARK SMILES IDX 14 23 15 24 16 25 17 26 18 27 79 28 19 29 78 30 20 31 21 32
REMARK SMILES IDX 22 33 72 34 23 35 77 36 71 37 73 38 24 39 76 40 70 41 69 42
REMARK SMILES IDX 25 44 57 45 37 46 56 47 38 48 41 49 55 50 74 51 39 52 40 53
REMARK SMILES IDX 54 55 75 56 42 57 26 58 27 59 35 60 28 61 29 62 33 63 36 64
REMARK SMILES IDX 30 65 31 66 34 67 32 68 58 69 59 70 67 71 60 72 61 73 65 74
REMARK SMILES IDX 68 75 62 76 63 77 66 78 64 79 43 80 44 81 52 82 45 83 46 84
REMARK SMILES IDX 50 85 53 86 47 87 48 88 51 89 49 90
REMARK H PARENT 73 43 41 54
REMARK Flexibility Score: inf
ROOT
ATOM      1  C   UNL A   1      37.979  20.099  25.022  1.00  0.00     0.274 C 
ENDROOT
BRANCH   1   2
ATOM      2  O   UNL A   1      38.319  21.499  25.037  1.00  0.00    -0.462 OA
BRANCH   2   3
ATOM      3  C   UNL A   1      37.382  22.386  24.634  1.00  0.00     0.309 C 
ATOM      4  O   UNL A   1      36.839  22.375  23.536  1.00  0.00    -0.252 OA
BRANCH   3   5
ATOM      5  C   UNL A   1      37.099  23.435  25.682  1.00  0.00     0.164 C 
BRANCH   5   6
ATOM      6  C   UNL A   1      35.685  23.406  26.263  1.00  0.00     0.243 C 
BRANCH   6   7
ATOM      7  O   UNL A   1      35.159  22.084  26.391  1.00  0.00    -0.477 OA
BRANCH   7   8
ATOM      8  C   UNL A   1      34.155  21.616  25.596  1.00  0.00     0.217 A 
ATOM      9  C   UNL A   1      32.423  21.735  23.988  1.00  0.00     0.048 A 
ATOM     10  C   UNL A   1      33.211  22.375  24.930  1.00  0.00     0.092 A 
ATOM     11  N   UNL A   1      32.476  20.414  23.838  1.00  0.00    -0.231 NA
ATOM     12  C   UNL A   1      33.342  19.733  24.602  1.00  0.00     0.183 A 
ATOM     13  N   UNL A   1      34.196  20.277  25.482  1.00  0.00    -0.192 NA
BRANCH   9  14
ATOM     14  C   UNL A   1      31.564  22.423  22.964  1.00  0.00     0.053 C 
ATOM     15  C   UNL A   1      30.867  23.689  23.419  1.00  0.00     0.011 C 
ENDBRANCH   9  14
BRANCH  12  16
ATOM     16  C   UNL A   1      33.182  18.290  24.519  1.00  0.00     0.126 A 
ATOM     17  C   UNL A   1      34.108  17.526  23.819  1.00  0.00     0.143 A 
ATOM     18  N   UNL A   1      32.289  17.711  25.378  1.00  0.00    -0.250 NA
ATOM     19  N   UNL A   1      34.217  16.182  23.969  1.00  0.00    -0.261 NA
ATOM     20  C   UNL A   1      32.406  16.378  25.536  1.00  0.00     0.132 A 
ATOM     21  C   UNL A   1      33.359  15.635  24.861  1.00  0.00     0.131 A 
ENDBRANCH  12  16
ENDBRANCH   7   8
ENDBRANCH   6   7
ENDBRANCH   5   6
ENDBRANCH   3   5
ENDBRANCH   2   3
ENDBRANCH   1   2
BRANCH   1  22
ATOM     22  C   UNL A   1      39.172  19.246  25.449  1.00  0.00     0.275 C 
BRANCH  22  23
ATOM     23  O   UNL A   1      40.058  20.007  26.255  1.00  0.00    -0.458 OA
BRANCH  23  24
ATOM     24  C   UNL A   1      41.364  19.662  26.189  1.00  0.00     0.338 C 
ATOM     25  O   UNL A   1      41.889  18.602  25.956  1.00  0.00    -0.246 OA
BRANCH  24  26
ATOM     26  C   UNL A   1      42.052  20.912  26.429  1.00  0.00     0.060 A 
ATOM     27  C   UNL A   1      42.205  21.809  25.372  1.00  0.00     0.016 A 
ATOM     28  C   UNL A   1      42.339  21.224  27.756  1.00  0.00     0.016 A 
ATOM     29  C   UNL A   1      42.631  23.088  25.661  1.00  0.00     0.010 A 
ATOM     30  C   UNL A   1      42.735  22.508  28.046  1.00  0.00     0.010 A 
ATOM     31  C   UNL A   1      42.877  23.429  26.996  1.00  0.00    -0.014 A 
BRANCH  31  32
ATOM     32  C   UNL A   1      43.374  24.764  27.318  1.00  0.00     0.031 A 
ATOM     33  C   UNL A   1      42.402  25.727  27.907  1.00  0.00     0.074 A 
ATOM     34  C   UNL A   1      44.651  25.054  27.029  1.00  0.00     0.049 A 
ATOM     35  N   UNL A   1      42.567  26.983  28.204  1.00  0.00    -0.248 NA
ATOM     36  C   UNL A   1      41.047  25.211  28.175  1.00  0.00     0.031 C 
ATOM     37  C   UNL A   1      45.615  24.120  26.440  1.00  0.00     0.029 A 
ATOM     38  N   UNL A   1      45.354  26.211  27.183  1.00  0.00    -0.354 N 
ATOM     39  C   UNL A   1      41.337  27.410  28.681  1.00  0.00     0.074 A 
ATOM     40  C   UNL A   1      40.421  26.299  28.591  1.00  0.00     0.031 C 
ATOM     41  C   UNL A   1      46.795  24.744  26.294  1.00  0.00     0.029 A 
ATOM     42  C   UNL A   1      46.650  26.122  26.745  1.00  0.00     0.049 A 
ATOM     43  H   UNL A   1      44.969  27.029  27.572  1.00  0.00     0.167 HD
ATOM     44  C   UNL A   1      41.026  28.633  29.162  1.00  0.00     0.037 A 
ATOM     45  C   UNL A   1      47.596  27.076  26.712  1.00  0.00     0.037 A 
ATOM     46  C   UNL A   1      41.986  29.701  29.220  1.00  0.00     0.049 A 
ATOM     47  C   UNL A   1      47.218  28.430  27.248  1.00  0.00     0.074 A 
ATOM     48  C   UNL A   1      41.828  30.990  29.684  1.00  0.00     0.029 A 
ATOM     49  N   UNL A   1      43.304  29.585  28.783  1.00  0.00    -0.354 N 
ATOM     50  N   UNL A   1      46.063  28.833  27.730  1.00  0.00    -0.248 NA
ATOM     51  C   UNL A   1      48.262  29.456  27.247  1.00  0.00     0.031 C 
ATOM     52  C   UNL A   1      43.036  31.667  29.487  1.00  0.00     0.029 A 
ATOM     53  C   UNL A   1      43.968  30.786  28.952  1.00  0.00     0.049 A 
ATOM     54  H   UNL A   1      43.705  28.767  28.410  1.00  0.00     0.167 HD
ATOM     55  C   UNL A   1      46.243  30.154  28.105  1.00  0.00     0.074 A 
ATOM     56  C   UNL A   1      47.631  30.472  27.817  1.00  0.00     0.031 C 
ATOM     57  C   UNL A   1      45.353  31.033  28.635  1.00  0.00     0.037 A 
BRANCH  44  58
ATOM     58  C   UNL A   1      39.613  28.857  29.614  1.00  0.00     0.064 A 
ATOM     59  C   UNL A   1      38.634  29.379  28.754  1.00  0.00     0.173 A 
ATOM     60  C   UNL A   1      39.238  28.580  30.937  1.00  0.00     0.173 A 
ATOM     61  F   UNL A   1      38.944  29.693  27.487  1.00  0.00    -0.203 F 
ATOM     62  C   UNL A   1      37.344  29.645  29.210  1.00  0.00     0.198 A 
ATOM     63  C   UNL A   1      37.940  28.817  31.381  1.00  0.00     0.198 A 
ATOM     64  F   UNL A   1      40.137  28.094  31.807  1.00  0.00    -0.203 F 
ATOM     65  F   UNL A   1      36.446  30.205  28.387  1.00  0.00    -0.200 F 
ATOM     66  C   UNL A   1      36.996  29.358  30.520  1.00  0.00     0.200 A 
ATOM     67  F   UNL A   1      37.604  28.537  32.648  1.00  0.00    -0.200 F 
ATOM     68  F   UNL A   1      35.757  29.616  30.959  1.00  0.00    -0.200 F 
ENDBRANCH  44  58
BRANCH  45  69
ATOM     69  C   UNL A   1      48.953  26.767  26.190  1.00  0.00     0.064 A 
ATOM     70  C   UNL A   1      49.921  26.162  27.003  1.00  0.00     0.173 A 
ATOM     71  C   UNL A   1      49.300  27.031  24.856  1.00  0.00     0.173 A 
ATOM     72  F   UNL A   1      49.643  25.895  28.288  1.00  0.00    -0.203 F 
ATOM     73  C   UNL A   1      51.188  25.852  26.510  1.00  0.00     0.198 A 
ATOM     74  C   UNL A   1      50.557  26.693  24.356  1.00  0.00     0.198 A 
ATOM     75  F   UNL A   1      48.409  27.596  24.028  1.00  0.00    -0.203 F 
ATOM     76  F   UNL A   1      52.105  25.307  27.321  1.00  0.00    -0.200 F 
ATOM     77  C   UNL A   1      51.503  26.111  25.185  1.00  0.00     0.200 A 
ATOM     78  F   UNL A   1      50.849  26.928  23.069  1.00  0.00    -0.200 F 
ATOM     79  F   UNL A   1      52.716  25.802  24.709  1.00  0.00    -0.200 F 
ENDBRANCH  45  69
BRANCH  57  80
ATOM     80  C   UNL A   1      45.880  32.401  28.941  1.00  0.00     0.064 A 
ATOM     81  C   UNL A   1      45.817  33.436  27.997  1.00  0.00     0.173 A 
ATOM     82  C   UNL A   1      46.417  32.684  30.204  1.00  0.00     0.173 A 
ATOM     83  F   UNL A   1      45.323  33.204  26.771  1.00  0.00    -0.203 F 
ATOM     84  C   UNL A   1      46.306  34.701  28.298  1.00  0.00     0.198 A 
ATOM     85  C   UNL A   1      46.872  33.960  30.514  1.00  0.00     0.198 A 
ATOM     86  F   UNL A   1      46.486  31.726  31.140  1.00  0.00    -0.203 F 
ATOM     87  F   UNL A   1      46.289  35.662  27.365  1.00  0.00    -0.200 F 
ATOM     88  C   UNL A   1      46.826  34.964  29.558  1.00  0.00     0.200 A 
ATOM     89  F   UNL A   1      47.356  34.217  31.736  1.00  0.00    -0.200 F 
ATOM     90  F   UNL A   1      47.290  36.187  29.849  1.00  0.00    -0.200 F 
ENDBRANCH  57  80
ENDBRANCH  31  32
ENDBRANCH  24  26
ENDBRANCH  23  24
ENDBRANCH  22  23
ENDBRANCH   1  22
TORSDOF 16
ENDMDL
MODEL 3
REMARK VINA RESULT:     -11.3      6.404     11.683
REMARK SMILES CCc1cc(OCCC(=O)OCCOC(=O)c2ccc(-c3c4nc(c(-c5c(F)c(F)c(F)c(F)c5F)c5ccc([nH]5)c(-c5c(F)c(F)c(F)c(F)c5F)c5nc(c(-c6c(F)c(F)c(F)c(F)c6F)c6ccc3[nH]6)C=C5)C=C4)cc2)nc(-c2cnccn2)n1
REMARK SMILES IDX 12 1 11 2 9 3 10 4 8 5 7 6 6 7 5 8 3 9 4 10 88 11 81 12
REMARK SMILES IDX 80 13 2 14 1 15 82 16 83 17 87 18 84 19 86 20 85 21 13 22
REMARK SMILES IDX 14 23 15 24 16 25 17 26 18 27 79 28 19 29 78 30 20 31 21 32
REMARK SMILES IDX 22 33 72 34 23 35 77 36 71 37 73 38 24 39 76 40 70 41 69 42
REMARK SMILES IDX 25 44 57 45 37 46 56 47 38 48 41 49 55 50 74 51 39 52 40 53
REMARK SMILES IDX 54 55 75 56 42 57 26 58 27 59 35 60 28 61 29 62 33 63 36 64
REMARK SMILES IDX 30 65 31 66 34 67 32 68 58 69 59 70 67 71 60 72 61 73 65 74
REMARK SMILES IDX 68 75 62 76 63 77 66 78 64 79 43 80 44 81 52 82 45 83 46 84
REMARK SMILES IDX 50 85 53 86 47 87 48 88 51 89 49 90
REMARK H PARENT 73 43 41 54
REMARK Flexibility Score: inf
ROOT
ATOM      1  C   UNL A   1      31.768  31.605  26.498  1.00  0.00     0.274 C 
ENDROOT
BRANCH   1   2
ATOM      2  O   UNL A   1      32.622  30.721  27.251  1.00  0.00    -0.462 OA
BRANCH   2   3
ATOM      3  C   UNL A   1      32.797  29.462  26.793  1.00  0.00     0.309 C 
ATOM      4  O   UNL A   1      33.620  29.137  25.945  1.00  0.00    -0.252 OA
BRANCH   3   5
ATOM      5  C   UNL A   1      31.829  28.486  27.416  1.00  0.00     0.164 C 
BRANCH   5   6
ATOM      6  C   UNL A   1      31.924  27.053  26.890  1.00  0.00     0.243 C 
BRANCH   6   7
ATOM      7  O   UNL A   1      30.883  26.724  25.970  1.00  0.00    -0.477 OA
BRANCH   7   8
ATOM      8  C   UNL A   1      30.967  27.008  24.638  1.00  0.00     0.217 A 
ATOM      9  C   UNL A   1      31.625  26.693  22.388  1.00  0.00     0.048 A 
ATOM     10  C   UNL A   1      31.851  26.453  23.733  1.00  0.00     0.092 A 
ATOM     11  N   UNL A   1      30.682  27.544  21.996  1.00  0.00    -0.231 NA
ATOM     12  C   UNL A   1      29.936  28.130  22.944  1.00  0.00     0.183 A 
ATOM     13  N   UNL A   1      30.032  27.898  24.262  1.00  0.00    -0.192 NA
BRANCH   9  14
ATOM     14  C   UNL A   1      32.277  25.953  21.254  1.00  0.00     0.053 C 
ATOM     15  C   UNL A   1      32.903  24.617  21.599  1.00  0.00     0.011 C 
ENDBRANCH   9  14
BRANCH  12  16
ATOM     16  C   UNL A   1      29.080  29.192  22.438  1.00  0.00     0.126 A 
ATOM     17  C   UNL A   1      27.932  29.552  23.134  1.00  0.00     0.143 A 
ATOM     18  N   UNL A   1      29.593  29.991  21.455  1.00  0.00    -0.250 NA
ATOM     19  N   UNL A   1      27.277  30.720  22.920  1.00  0.00    -0.261 NA
ATOM     20  C   UNL A   1      28.950  31.157  21.251  1.00  0.00     0.132 A 
ATOM     21  C   UNL A   1      27.830  31.520  21.978  1.00  0.00     0.131 A 
ENDBRANCH  12  16
ENDBRANCH   7   8
ENDBRANCH   6   7
ENDBRANCH   5   6
ENDBRANCH   3   5
ENDBRANCH   2   3
ENDBRANCH   1   2
BRANCH   1  22
ATOM     22  C   UNL A   1      31.778  33.010  27.095  1.00  0.00     0.275 C 
BRANCH  22  23
ATOM     23  O   UNL A   1      33.098  33.375  27.471  1.00  0.00    -0.458 OA
BRANCH  23  24
ATOM     24  C   UNL A   1      33.201  34.371  28.380  1.00  0.00     0.338 C 
ATOM     25  O   UNL A   1      32.559  35.382  28.518  1.00  0.00    -0.246 OA
BRANCH  24  26
ATOM     26  C   UNL A   1      34.280  33.931  29.237  1.00  0.00     0.060 A 
ATOM     27  C   UNL A   1      34.036  32.912  30.158  1.00  0.00     0.016 A 
ATOM     28  C   UNL A   1      35.552  34.418  28.942  1.00  0.00     0.016 A 
ATOM     29  C   UNL A   1      35.116  32.331  30.786  1.00  0.00     0.010 A 
ATOM     30  C   UNL A   1      36.630  33.817  29.547  1.00  0.00     0.010 A 
ATOM     31  C   UNL A   1      36.403  32.778  30.464  1.00  0.00    -0.014 A 
BRANCH  31  32
ATOM     32  C   UNL A   1      37.556  32.207  31.153  1.00  0.00     0.031 A 
ATOM     33  C   UNL A   1      38.317  31.143  30.439  1.00  0.00     0.074 A 
ATOM     34  C   UNL A   1      37.837  32.641  32.390  1.00  0.00     0.049 A 
ATOM     35  N   UNL A   1      39.320  30.428  30.858  1.00  0.00    -0.248 NA
ATOM     36  C   UNL A   1      37.869  30.822  29.071  1.00  0.00     0.031 C 
ATOM     37  C   UNL A   1      37.091  33.679  33.109  1.00  0.00     0.029 A 
ATOM     38  N   UNL A   1      38.812  32.261  33.263  1.00  0.00    -0.354 N 
ATOM     39  C   UNL A   1      39.614  29.565  29.813  1.00  0.00     0.074 A 
ATOM     40  C   UNL A   1      38.659  29.809  28.759  1.00  0.00     0.031 C 
ATOM     41  C   UNL A   1      37.650  33.862  34.316  1.00  0.00     0.029 A 
ATOM     42  C   UNL A   1      38.761  32.930  34.460  1.00  0.00     0.049 A 
ATOM     43  H   UNL A   1      39.487  31.576  33.055  1.00  0.00     0.167 HD
ATOM     44  C   UNL A   1      40.615  28.660  29.757  1.00  0.00     0.037 A 
ATOM     45  C   UNL A   1      39.538  32.775  35.545  1.00  0.00     0.037 A 
ATOM     46  C   UNL A   1      41.531  28.462  30.846  1.00  0.00     0.049 A 
ATOM     47  C   UNL A   1      40.639  31.754  35.455  1.00  0.00     0.074 A 
ATOM     48  C   UNL A   1      42.597  27.592  30.940  1.00  0.00     0.029 A 
ATOM     49  N   UNL A   1      41.471  29.163  32.048  1.00  0.00    -0.354 N 
ATOM     50  N   UNL A   1      40.943  30.955  34.457  1.00  0.00    -0.248 NA
ATOM     51  C   UNL A   1      41.508  31.615  36.626  1.00  0.00     0.031 C 
ATOM     52  C   UNL A   1      43.155  27.735  32.215  1.00  0.00     0.029 A 
ATOM     53  C   UNL A   1      42.474  28.735  32.899  1.00  0.00     0.049 A 
ATOM     54  H   UNL A   1      40.813  29.864  32.261  1.00  0.00     0.167 HD
ATOM     55  C   UNL A   1      42.048  30.227  34.869  1.00  0.00     0.074 A 
ATOM     56  C   UNL A   1      42.373  30.705  36.202  1.00  0.00     0.031 C 
ATOM     57  C   UNL A   1      42.734  29.253  34.220  1.00  0.00     0.037 A 
BRANCH  44  58
ATOM     58  C   UNL A   1      40.724  27.830  28.512  1.00  0.00     0.064 A 
ATOM     59  C   UNL A   1      41.486  28.247  27.408  1.00  0.00     0.173 A 
ATOM     60  C   UNL A   1      40.030  26.616  28.403  1.00  0.00     0.173 A 
ATOM     61  F   UNL A   1      42.145  29.416  27.444  1.00  0.00    -0.203 F 
ATOM     62  C   UNL A   1      41.522  27.497  26.234  1.00  0.00     0.198 A 
ATOM     63  C   UNL A   1      40.094  25.853  27.241  1.00  0.00     0.198 A 
ATOM     64  F   UNL A   1      39.275  26.176  29.421  1.00  0.00    -0.203 F 
ATOM     65  F   UNL A   1      42.203  27.950  25.172  1.00  0.00    -0.200 F 
ATOM     66  C   UNL A   1      40.832  26.298  26.153  1.00  0.00     0.200 A 
ATOM     67  F   UNL A   1      39.427  24.693  27.165  1.00  0.00    -0.200 F 
ATOM     68  F   UNL A   1      40.864  25.579  25.024  1.00  0.00    -0.200 F 
ENDBRANCH  44  58
BRANCH  45  69
ATOM     69  C   UNL A   1      39.310  33.610  36.753  1.00  0.00     0.064 A 
ATOM     70  C   UNL A   1      38.564  33.127  37.837  1.00  0.00     0.173 A 
ATOM     71  C   UNL A   1      39.865  34.894  36.870  1.00  0.00     0.173 A 
ATOM     72  F   UNL A   1      38.005  31.909  37.774  1.00  0.00    -0.203 F 
ATOM     73  C   UNL A   1      38.366  33.900  38.980  1.00  0.00     0.198 A 
ATOM     74  C   UNL A   1      39.692  35.654  38.026  1.00  0.00     0.198 A 
ATOM     75  F   UNL A   1      40.600  35.402  35.870  1.00  0.00    -0.203 F 
ATOM     76  F   UNL A   1      37.618  33.425  39.985  1.00  0.00    -0.200 F 
ATOM     77  C   UNL A   1      38.936  35.160  39.077  1.00  0.00     0.200 A 
ATOM     78  F   UNL A   1      40.261  36.863  38.121  1.00  0.00    -0.200 F 
ATOM     79  F   UNL A   1      38.755  35.898  40.181  1.00  0.00    -0.200 F 
ENDBRANCH  45  69
BRANCH  57  80
ATOM     80  C   UNL A   1      43.904  28.669  34.952  1.00  0.00     0.064 A 
ATOM     81  C   UNL A   1      45.185  29.230  34.848  1.00  0.00     0.173 A 
ATOM     82  C   UNL A   1      43.728  27.562  35.794  1.00  0.00     0.173 A 
ATOM     83  F   UNL A   1      45.399  30.282  34.043  1.00  0.00    -0.203 F 
ATOM     84  C   UNL A   1      46.258  28.679  35.537  1.00  0.00     0.198 A 
ATOM     85  C   UNL A   1      44.797  27.036  36.509  1.00  0.00     0.198 A 
ATOM     86  F   UNL A   1      42.518  27.001  35.930  1.00  0.00    -0.203 F 
ATOM     87  F   UNL A   1      47.485  29.194  35.382  1.00  0.00    -0.200 F 
ATOM     88  C   UNL A   1      46.062  27.588  36.372  1.00  0.00     0.200 A 
ATOM     89  F   UNL A   1      44.603  25.994  37.329  1.00  0.00    -0.200 F 
ATOM     90  F   UNL A   1      47.097  27.063  37.042  1.00  0.00    -0.200 F 
ENDBRANCH  57  80
ENDBRANCH  31  32
ENDBRANCH  24  26
ENDBRANCH  23  24
ENDBRANCH  22  23
ENDBRANCH   1  22
TORSDOF 16
ENDMDL
