MODEL 1
REMARK VINA RESULT:     -12.6      0.000      0.000
REMARK SMILES CCN(c1cccc(F)c1)c1cc(C)c(N)c(C(=O)OCCOC(=O)c2ccc(-c3c4nc(c(-c5c(F)c(F)c(F)c(F)c5F)c5ccc([nH]5)c(-c5c(F)c(F)c(F)c(F)c5F)c5nc(c(-c6c(F)c(F)c(F)c(F)c6F)c6ccc3[nH]6)C=C5)C=C4)cc2)c1
REMARK SMILES IDX 21 1 20 2 18 3 19 4 17 5 11 6 12 7 89 8 13 9 14 10 15 11
REMARK SMILES IDX 3 12 2 13 1 14 4 15 5 16 10 17 6 18 8 19 7 20 9 21 16 22
REMARK SMILES IDX 22 25 23 26 24 27 25 28 26 29 27 30 88 31 28 32 87 33 29 34
REMARK SMILES IDX 30 35 31 36 81 37 32 38 86 39 80 40 82 41 33 42 85 43 79 44
REMARK SMILES IDX 78 45 34 47 66 48 46 49 65 50 47 51 50 52 64 53 83 54 48 55
REMARK SMILES IDX 49 56 63 58 84 59 51 60 35 61 36 62 44 63 37 64 38 65 42 66
REMARK SMILES IDX 45 67 39 68 40 69 43 70 41 71 67 72 68 73 76 74 69 75 70 76
REMARK SMILES IDX 74 77 77 78 71 79 72 80 75 81 73 82 52 83 53 84 61 85 54 86
REMARK SMILES IDX 55 87 59 88 62 89 56 90 57 91 60 92 58 93
REMARK H PARENT 16 23 16 24 82 46 50 57
REMARK Flexibility Score: inf
ROOT
ATOM      1  C   UNL A   1      31.878  28.305  24.188  1.00  0.00     0.275 C 
ENDROOT
BRANCH   1   2
ATOM      2  O   UNL A   1      31.755  26.982  24.750  1.00  0.00    -0.458 OA
BRANCH   2   3
ATOM      3  C   UNL A   1      31.288  26.015  23.915  1.00  0.00     0.340 C 
ATOM      4  O   UNL A   1      30.940  26.167  22.757  1.00  0.00    -0.246 OA
BRANCH   3   5
ATOM      5  C   UNL A   1      31.339  24.686  24.587  1.00  0.00     0.085 A 
ATOM      6  C   UNL A   1      32.384  22.482  24.774  1.00  0.00     0.042 A 
ATOM      7  C   UNL A   1      31.448  22.170  25.763  1.00  0.00     0.031 A 
ATOM      8  C   UNL A   1      32.259  23.729  24.141  1.00  0.00     0.044 A 
ATOM      9  C   UNL A   1      30.498  23.106  26.211  1.00  0.00    -0.025 A 
ATOM     10  C   UNL A   1      29.496  22.682  27.252  1.00  0.00     0.047 C 
ATOM     11  C   UNL A   1      30.530  24.419  25.710  1.00  0.00     0.049 A 
BRANCH   6  12
ATOM     12  N   UNL A   1      33.500  21.665  24.481  1.00  0.00    -0.342 N 
BRANCH  12  13
ATOM     13  C   UNL A   1      34.858  22.219  24.660  1.00  0.00     0.119 C 
ATOM     14  C   UNL A   1      35.165  22.655  26.087  1.00  0.00     0.027 C 
ENDBRANCH  12  13
BRANCH  12  15
ATOM     15  C   UNL A   1      33.362  20.291  24.153  1.00  0.00     0.044 A 
ATOM     16  C   UNL A   1      32.368  19.804  23.290  1.00  0.00     0.026 A 
ATOM     17  C   UNL A   1      34.311  19.366  24.631  1.00  0.00     0.065 A 
ATOM     18  C   UNL A   1      32.326  18.453  22.914  1.00  0.00     0.005 A 
ATOM     19  C   UNL A   1      34.268  18.029  24.250  1.00  0.00     0.125 A 
ATOM     20  C   UNL A   1      33.283  17.563  23.393  1.00  0.00     0.039 A 
ATOM     21  F   UNL A   1      35.202  17.183  24.705  1.00  0.00    -0.207 F 
ENDBRANCH  12  15
ENDBRANCH   6  12
BRANCH  11  22
ATOM     22  N   UNL A   1      29.683  25.388  26.254  1.00  0.00    -0.398 N 
ATOM     23  H   UNL A   1      29.016  25.835  25.684  1.00  0.00     0.156 HD
ATOM     24  H   UNL A   1      29.752  25.624  27.208  1.00  0.00     0.156 HD
ENDBRANCH  11  22
ENDBRANCH   3   5
ENDBRANCH   2   3
ENDBRANCH   1   2
BRANCH   1  25
ATOM     25  C   UNL A   1      31.654  29.366  25.267  1.00  0.00     0.275 C 
BRANCH  25  26
ATOM     26  O   UNL A   1      32.882  30.082  25.477  1.00  0.00    -0.458 OA
BRANCH  26  27
ATOM     27  C   UNL A   1      32.953  30.843  26.592  1.00  0.00     0.338 C 
ATOM     28  O   UNL A   1      32.094  31.603  27.020  1.00  0.00    -0.246 OA
BRANCH  27  29
ATOM     29  C   UNL A   1      34.254  30.616  27.262  1.00  0.00     0.060 A 
ATOM     30  C   UNL A   1      34.667  29.321  27.559  1.00  0.00     0.016 A 
ATOM     31  C   UNL A   1      35.038  31.692  27.679  1.00  0.00     0.016 A 
ATOM     32  C   UNL A   1      35.818  29.094  28.312  1.00  0.00     0.010 A 
ATOM     33  C   UNL A   1      36.243  31.458  28.361  1.00  0.00     0.010 A 
ATOM     34  C   UNL A   1      36.639  30.155  28.713  1.00  0.00    -0.014 A 
BRANCH  34  35
ATOM     35  C   UNL A   1      37.852  29.901  29.554  1.00  0.00     0.031 A 
ATOM     36  C   UNL A   1      39.008  29.112  28.992  1.00  0.00     0.074 A 
ATOM     37  C   UNL A   1      37.967  30.407  30.800  1.00  0.00     0.049 A 
ATOM     38  N   UNL A   1      40.045  28.603  29.610  1.00  0.00    -0.248 NA
ATOM     39  C   UNL A   1      38.989  28.851  27.544  1.00  0.00     0.031 C 
ATOM     40  C   UNL A   1      36.980  31.252  31.470  1.00  0.00     0.029 A 
ATOM     41  N   UNL A   1      38.986  30.302  31.721  1.00  0.00    -0.354 N 
ATOM     42  C   UNL A   1      40.752  27.895  28.646  1.00  0.00     0.074 A 
ATOM     43  C   UNL A   1      40.037  28.052  27.397  1.00  0.00     0.031 C 
ATOM     44  C   UNL A   1      37.469  31.648  32.656  1.00  0.00     0.029 A 
ATOM     45  C   UNL A   1      38.756  30.997  32.884  1.00  0.00     0.049 A 
ATOM     46  H   UNL A   1      39.803  29.776  31.562  1.00  0.00     0.167 HD
ATOM     47  C   UNL A   1      41.889  27.172  28.792  1.00  0.00     0.037 A 
ATOM     48  C   UNL A   1      39.469  31.073  34.025  1.00  0.00     0.037 A 
ATOM     49  C   UNL A   1      42.652  27.088  30.010  1.00  0.00     0.049 A 
ATOM     50  C   UNL A   1      40.721  30.254  34.174  1.00  0.00     0.074 A 
ATOM     51  C   UNL A   1      43.818  26.381  30.249  1.00  0.00     0.029 A 
ATOM     52  N   UNL A   1      42.346  27.760  31.183  1.00  0.00    -0.354 N 
ATOM     53  N   UNL A   1      41.311  29.481  33.297  1.00  0.00    -0.248 NA
ATOM     54  C   UNL A   1      41.382  30.282  35.488  1.00  0.00     0.031 C 
ATOM     55  C   UNL A   1      44.205  26.605  31.575  1.00  0.00     0.029 A 
ATOM     56  C   UNL A   1      43.299  27.482  32.150  1.00  0.00     0.049 A 
ATOM     57  H   UNL A   1      41.567  28.349  31.311  1.00  0.00     0.167 HD
ATOM     58  C   UNL A   1      42.400  28.924  33.951  1.00  0.00     0.074 A 
ATOM     59  C   UNL A   1      42.412  29.471  35.290  1.00  0.00     0.031 C 
ATOM     60  C   UNL A   1      43.299  28.024  33.483  1.00  0.00     0.037 A 
BRANCH  47  61
ATOM     61  C   UNL A   1      42.368  26.376  27.615  1.00  0.00     0.064 A 
ATOM     62  C   UNL A   1      41.869  25.083  27.396  1.00  0.00     0.173 A 
ATOM     63  C   UNL A   1      43.360  26.852  26.746  1.00  0.00     0.173 A 
ATOM     64  F   UNL A   1      40.924  24.577  28.205  1.00  0.00    -0.203 F 
ATOM     65  C   UNL A   1      42.352  24.291  26.359  1.00  0.00     0.198 A 
ATOM     66  C   UNL A   1      43.822  26.068  25.692  1.00  0.00     0.198 A 
ATOM     67  F   UNL A   1      43.860  28.087  26.905  1.00  0.00    -0.203 F 
ATOM     68  F   UNL A   1      41.881  23.048  26.190  1.00  0.00    -0.200 F 
ATOM     69  C   UNL A   1      43.325  24.786  25.504  1.00  0.00     0.200 A 
ATOM     70  F   UNL A   1      44.745  26.555  24.852  1.00  0.00    -0.200 F 
ATOM     71  F   UNL A   1      43.783  24.028  24.499  1.00  0.00    -0.200 F 
ENDBRANCH  47  61
BRANCH  48  72
ATOM     72  C   UNL A   1      38.984  31.930  35.140  1.00  0.00     0.064 A 
ATOM     73  C   UNL A   1      39.263  33.305  35.181  1.00  0.00     0.173 A 
ATOM     74  C   UNL A   1      38.259  31.380  36.205  1.00  0.00     0.173 A 
ATOM     75  F   UNL A   1      39.944  33.882  34.182  1.00  0.00    -0.203 F 
ATOM     76  C   UNL A   1      38.874  34.087  36.267  1.00  0.00     0.198 A 
ATOM     77  C   UNL A   1      37.843  32.169  37.276  1.00  0.00     0.198 A 
ATOM     78  F   UNL A   1      37.936  30.078  36.195  1.00  0.00    -0.203 F 
ATOM     79  F   UNL A   1      39.198  35.386  36.304  1.00  0.00    -0.200 F 
ATOM     80  C   UNL A   1      38.163  33.519  37.312  1.00  0.00     0.200 A 
ATOM     81  F   UNL A   1      37.129  31.624  38.271  1.00  0.00    -0.200 F 
ATOM     82  F   UNL A   1      37.785  34.272  38.355  1.00  0.00    -0.200 F 
ENDBRANCH  48  72
BRANCH  60  83
ATOM     83  C   UNL A   1      44.376  27.568  34.421  1.00  0.00     0.064 A 
ATOM     84  C   UNL A   1      45.597  28.253  34.495  1.00  0.00     0.173 A 
ATOM     85  C   UNL A   1      44.221  26.410  35.197  1.00  0.00     0.173 A 
ATOM     86  F   UNL A   1      45.796  29.361  33.766  1.00  0.00    -0.203 F 
ATOM     87  C   UNL A   1      46.629  27.790  35.306  1.00  0.00     0.198 A 
ATOM     88  C   UNL A   1      45.248  25.962  36.025  1.00  0.00     0.198 A 
ATOM     89  F   UNL A   1      43.066  25.728  35.170  1.00  0.00    -0.203 F 
ATOM     90  F   UNL A   1      47.797  28.446  35.343  1.00  0.00    -0.200 F 
ATOM     91  C   UNL A   1      46.452  26.647  36.072  1.00  0.00     0.200 A 
ATOM     92  F   UNL A   1      45.069  24.869  36.780  1.00  0.00    -0.200 F 
ATOM     93  F   UNL A   1      47.444  26.207  36.860  1.00  0.00    -0.200 F 
ENDBRANCH  60  83
ENDBRANCH  34  35
ENDBRANCH  27  29
ENDBRANCH  26  27
ENDBRANCH  25  26
ENDBRANCH   1  25
TORSDOF 15
ENDMDL
MODEL 2
REMARK VINA RESULT:     -12.4      1.444      2.702
REMARK SMILES CCN(c1cccc(F)c1)c1cc(C)c(N)c(C(=O)OCCOC(=O)c2ccc(-c3c4nc(c(-c5c(F)c(F)c(F)c(F)c5F)c5ccc([nH]5)c(-c5c(F)c(F)c(F)c(F)c5F)c5nc(c(-c6c(F)c(F)c(F)c(F)c6F)c6ccc3[nH]6)C=C5)C=C4)cc2)c1
REMARK SMILES IDX 21 1 20 2 18 3 19 4 17 5 11 6 12 7 89 8 13 9 14 10 15 11
REMARK SMILES IDX 3 12 2 13 1 14 4 15 5 16 10 17 6 18 8 19 7 20 9 21 16 22
REMARK SMILES IDX 22 25 23 26 24 27 25 28 26 29 27 30 88 31 28 32 87 33 29 34
REMARK SMILES IDX 30 35 31 36 81 37 32 38 86 39 80 40 82 41 33 42 85 43 79 44
REMARK SMILES IDX 78 45 34 47 66 48 46 49 65 50 47 51 50 52 64 53 83 54 48 55
REMARK SMILES IDX 49 56 63 58 84 59 51 60 35 61 36 62 44 63 37 64 38 65 42 66
REMARK SMILES IDX 45 67 39 68 40 69 43 70 41 71 67 72 68 73 76 74 69 75 70 76
REMARK SMILES IDX 74 77 77 78 71 79 72 80 75 81 73 82 52 83 53 84 61 85 54 86
REMARK SMILES IDX 55 87 59 88 62 89 56 90 57 91 60 92 58 93
REMARK H PARENT 16 23 16 24 82 46 50 57
REMARK Flexibility Score: inf
ROOT
ATOM      1  C   UNL A   1      31.630  28.872  27.228  1.00  0.00     0.275 C 
ENDROOT
BRANCH   1   2
ATOM      2  O   UNL A   1      32.418  27.720  26.863  1.00  0.00    -0.458 OA
BRANCH   2   3
ATOM      3  C   UNL A   1      31.725  26.613  26.481  1.00  0.00     0.340 C 
ATOM      4  O   UNL A   1      30.620  26.281  26.876  1.00  0.00    -0.246 OA
BRANCH   3   5
ATOM      5  C   UNL A   1      32.469  25.879  25.420  1.00  0.00     0.085 A 
ATOM      6  C   UNL A   1      33.910  24.001  24.800  1.00  0.00     0.042 A 
ATOM      7  C   UNL A   1      33.924  24.499  23.494  1.00  0.00     0.031 A 
ATOM      8  C   UNL A   1      33.233  24.758  25.770  1.00  0.00     0.044 A 
ATOM      9  C   UNL A   1      33.183  25.636  23.123  1.00  0.00    -0.025 A 
ATOM     10  C   UNL A   1      33.281  26.136  21.706  1.00  0.00     0.047 C 
ATOM     11  C   UNL A   1      32.344  26.254  24.067  1.00  0.00     0.049 A 
BRANCH   6  12
ATOM     12  N   UNL A   1      34.430  22.734  25.149  1.00  0.00    -0.342 N 
BRANCH  12  13
ATOM     13  C   UNL A   1      33.512  21.579  25.219  1.00  0.00     0.119 C 
ATOM     14  C   UNL A   1      32.829  21.252  23.897  1.00  0.00     0.027 C 
ENDBRANCH  12  13
BRANCH  12  15
ATOM     15  C   UNL A   1      35.823  22.507  25.301  1.00  0.00     0.044 A 
ATOM     16  C   UNL A   1      36.696  23.446  25.873  1.00  0.00     0.026 A 
ATOM     17  C   UNL A   1      36.362  21.253  24.953  1.00  0.00     0.065 A 
ATOM     18  C   UNL A   1      38.048  23.145  26.094  1.00  0.00     0.005 A 
ATOM     19  C   UNL A   1      37.703  20.958  25.181  1.00  0.00     0.125 A 
ATOM     20  C   UNL A   1      38.552  21.894  25.750  1.00  0.00     0.039 A 
ATOM     21  F   UNL A   1      38.175  19.746  24.860  1.00  0.00    -0.207 F 
ENDBRANCH  12  15
ENDBRANCH   6  12
BRANCH  11  22
ATOM     22  N   UNL A   1      31.502  27.295  23.667  1.00  0.00    -0.398 N 
ATOM     23  H   UNL A   1      31.821  28.226  23.697  1.00  0.00     0.156 HD
ATOM     24  H   UNL A   1      30.589  27.097  23.353  1.00  0.00     0.156 HD
ENDBRANCH  11  22
ENDBRANCH   3   5
ENDBRANCH   2   3
ENDBRANCH   1   2
BRANCH   1  25
ATOM     25  C   UNL A   1      31.751  29.960  26.160  1.00  0.00     0.275 C 
BRANCH  25  26
ATOM     26  O   UNL A   1      33.113  30.417  26.115  1.00  0.00    -0.458 OA
BRANCH  26  27
ATOM     27  C   UNL A   1      33.455  31.383  26.997  1.00  0.00     0.338 C 
ATOM     28  O   UNL A   1      32.821  32.397  27.260  1.00  0.00    -0.246 OA
BRANCH  27  29
ATOM     29  C   UNL A   1      34.741  31.030  27.641  1.00  0.00     0.060 A 
ATOM     30  C   UNL A   1      35.018  29.705  27.961  1.00  0.00     0.016 A 
ATOM     31  C   UNL A   1      35.648  32.023  28.010  1.00  0.00     0.016 A 
ATOM     32  C   UNL A   1      36.158  29.370  28.692  1.00  0.00     0.010 A 
ATOM     33  C   UNL A   1      36.839  31.675  28.669  1.00  0.00     0.010 A 
ATOM     34  C   UNL A   1      37.100  30.344  29.045  1.00  0.00    -0.014 A 
BRANCH  34  35
ATOM     35  C   UNL A   1      38.301  29.979  29.862  1.00  0.00     0.031 A 
ATOM     36  C   UNL A   1      39.395  29.135  29.258  1.00  0.00     0.074 A 
ATOM     37  C   UNL A   1      38.461  30.430  31.124  1.00  0.00     0.049 A 
ATOM     38  N   UNL A   1      40.401  28.535  29.846  1.00  0.00    -0.248 NA
ATOM     39  C   UNL A   1      39.346  28.929  27.803  1.00  0.00     0.031 C 
ATOM     40  C   UNL A   1      37.540  31.314  31.835  1.00  0.00     0.029 A 
ATOM     41  N   UNL A   1      39.479  30.223  32.028  1.00  0.00    -0.354 N 
ATOM     42  C   UNL A   1      41.050  27.816  28.849  1.00  0.00     0.074 A 
ATOM     43  C   UNL A   1      40.336  28.068  27.615  1.00  0.00     0.031 C 
ATOM     44  C   UNL A   1      38.065  31.633  33.029  1.00  0.00     0.029 A 
ATOM     45  C   UNL A   1      39.307  30.889  33.219  1.00  0.00     0.049 A 
ATOM     46  H   UNL A   1      40.257  29.650  31.841  1.00  0.00     0.167 HD
ATOM     47  C   UNL A   1      42.136  27.014  28.957  1.00  0.00     0.037 A 
ATOM     48  C   UNL A   1      40.034  30.875  34.353  1.00  0.00     0.037 A 
ATOM     49  C   UNL A   1      42.903  26.835  30.162  1.00  0.00     0.049 A 
ATOM     50  C   UNL A   1      41.229  29.969  34.459  1.00  0.00     0.074 A 
ATOM     51  C   UNL A   1      44.021  26.043  30.362  1.00  0.00     0.029 A 
ATOM     52  N   UNL A   1      42.654  27.483  31.362  1.00  0.00    -0.354 N 
ATOM     53  N   UNL A   1      41.757  29.191  33.548  1.00  0.00    -0.248 NA
ATOM     54  C   UNL A   1      41.902  29.904  35.765  1.00  0.00     0.031 C 
ATOM     55  C   UNL A   1      44.433  26.191  31.690  1.00  0.00     0.029 A 
ATOM     56  C   UNL A   1      43.595  27.105  32.307  1.00  0.00     0.049 A 
ATOM     57  H   UNL A   1      41.917  28.117  31.519  1.00  0.00     0.167 HD
ATOM     58  C   UNL A   1      42.812  28.538  34.168  1.00  0.00     0.074 A 
ATOM     59  C   UNL A   1      42.873  29.034  35.527  1.00  0.00     0.031 C 
ATOM     60  C   UNL A   1      43.644  27.597  33.658  1.00  0.00     0.037 A 
BRANCH  47  61
ATOM     61  C   UNL A   1      42.550  26.231  27.746  1.00  0.00     0.064 A 
ATOM     62  C   UNL A   1      41.951  24.991  27.478  1.00  0.00     0.173 A 
ATOM     63  C   UNL A   1      43.574  26.663  26.892  1.00  0.00     0.173 A 
ATOM     64  F   UNL A   1      40.971  24.528  28.271  1.00  0.00    -0.203 F 
ATOM     65  C   UNL A   1      42.369  24.206  26.407  1.00  0.00     0.198 A 
ATOM     66  C   UNL A   1      43.972  25.889  25.805  1.00  0.00     0.198 A 
ATOM     67  F   UNL A   1      44.170  27.848  27.098  1.00  0.00    -0.203 F 
ATOM     68  F   UNL A   1      41.801  23.012  26.191  1.00  0.00    -0.200 F 
ATOM     69  C   UNL A   1      43.376  24.658  25.569  1.00  0.00     0.200 A 
ATOM     70  F   UNL A   1      44.930  26.336  24.981  1.00  0.00    -0.200 F 
ATOM     71  F   UNL A   1      43.772  23.908  24.531  1.00  0.00    -0.200 F 
ENDBRANCH  47  61
BRANCH  48  72
ATOM     72  C   UNL A   1      39.618  31.722  35.504  1.00  0.00     0.064 A 
ATOM     73  C   UNL A   1      38.637  31.292  36.411  1.00  0.00     0.173 A 
ATOM     74  C   UNL A   1      40.171  32.994  35.697  1.00  0.00     0.173 A 
ATOM     75  F   UNL A   1      38.084  30.079  36.277  1.00  0.00    -0.203 F 
ATOM     76  C   UNL A   1      38.195  32.120  37.440  1.00  0.00     0.198 A 
ATOM     77  C   UNL A   1      39.750  33.810  36.745  1.00  0.00     0.198 A 
ATOM     78  F   UNL A   1      41.137  33.436  34.878  1.00  0.00    -0.203 F 
ATOM     79  F   UNL A   1      37.221  31.704  38.261  1.00  0.00    -0.200 F 
ATOM     80  C   UNL A   1      38.753  33.378  37.607  1.00  0.00     0.200 A 
ATOM     81  F   UNL A   1      40.312  35.014  36.923  1.00  0.00    -0.200 F 
ATOM     82  F   UNL A   1      38.330  34.173  38.600  1.00  0.00    -0.200 F 
ENDBRANCH  48  72
BRANCH  60  83
ATOM     83  C   UNL A   1      44.695  27.035  34.567  1.00  0.00     0.064 A 
ATOM     84  C   UNL A   1      44.433  25.899  35.346  1.00  0.00     0.173 A 
ATOM     85  C   UNL A   1      45.940  27.664  34.714  1.00  0.00     0.173 A 
ATOM     86  F   UNL A   1      43.254  25.268  35.247  1.00  0.00    -0.203 F 
ATOM     87  C   UNL A   1      45.377  25.419  36.250  1.00  0.00     0.198 A 
ATOM     88  C   UNL A   1      46.891  27.166  35.603  1.00  0.00     0.198 A 
ATOM     89  F   UNL A   1      46.242  28.745  33.980  1.00  0.00    -0.203 F 
ATOM     90  F   UNL A   1      45.096  24.347  37.003  1.00  0.00    -0.200 F 
ATOM     91  C   UNL A   1      46.606  26.050  36.374  1.00  0.00     0.200 A 
ATOM     92  F   UNL A   1      48.086  27.765  35.707  1.00  0.00    -0.200 F 
ATOM     93  F   UNL A   1      47.517  25.581  37.238  1.00  0.00    -0.200 F 
ENDBRANCH  60  83
ENDBRANCH  34  35
ENDBRANCH  27  29
ENDBRANCH  26  27
ENDBRANCH  25  26
ENDBRANCH   1  25
TORSDOF 15
ENDMDL
MODEL 3
REMARK VINA RESULT:     -12.4      1.394      2.428
REMARK SMILES CCN(c1cccc(F)c1)c1cc(C)c(N)c(C(=O)OCCOC(=O)c2ccc(-c3c4nc(c(-c5c(F)c(F)c(F)c(F)c5F)c5ccc([nH]5)c(-c5c(F)c(F)c(F)c(F)c5F)c5nc(c(-c6c(F)c(F)c(F)c(F)c6F)c6ccc3[nH]6)C=C5)C=C4)cc2)c1
REMARK SMILES IDX 21 1 20 2 18 3 19 4 17 5 11 6 12 7 89 8 13 9 14 10 15 11
REMARK SMILES IDX 3 12 2 13 1 14 4 15 5 16 10 17 6 18 8 19 7 20 9 21 16 22
REMARK SMILES IDX 22 25 23 26 24 27 25 28 26 29 27 30 88 31 28 32 87 33 29 34
REMARK SMILES IDX 30 35 31 36 81 37 32 38 86 39 80 40 82 41 33 42 85 43 79 44
REMARK SMILES IDX 78 45 34 47 66 48 46 49 65 50 47 51 50 52 64 53 83 54 48 55
REMARK SMILES IDX 49 56 63 58 84 59 51 60 35 61 36 62 44 63 37 64 38 65 42 66
REMARK SMILES IDX 45 67 39 68 40 69 43 70 41 71 67 72 68 73 76 74 69 75 70 76
REMARK SMILES IDX 74 77 77 78 71 79 72 80 75 81 73 82 52 83 53 84 61 85 54 86
REMARK SMILES IDX 55 87 59 88 62 89 56 90 57 91 60 92 58 93
REMARK H PARENT 16 23 16 24 82 46 50 57
REMARK Flexibility Score: inf
ROOT
ATOM      1  C   UNL A   1      31.758  28.316  26.226  1.00  0.00     0.275 C 
ENDROOT
BRANCH   1   2
ATOM      2  O   UNL A   1      30.920  27.516  25.367  1.00  0.00    -0.458 OA
BRANCH   2   3
ATOM      3  C   UNL A   1      30.835  26.192  25.672  1.00  0.00     0.340 C 
ATOM      4  O   UNL A   1      30.088  25.687  26.493  1.00  0.00    -0.246 OA
BRANCH   3   5
ATOM      5  C   UNL A   1      31.735  25.401  24.788  1.00  0.00     0.085 A 
ATOM      6  C   UNL A   1      33.362  23.589  24.551  1.00  0.00     0.042 A 
ATOM      7  C   UNL A   1      33.474  23.924  23.199  1.00  0.00     0.031 A 
ATOM      8  C   UNL A   1      32.538  24.399  25.348  1.00  0.00     0.044 A 
ATOM      9  C   UNL A   1      32.696  24.942  22.618  1.00  0.00    -0.025 A 
ATOM     10  C   UNL A   1      32.902  25.272  21.163  1.00  0.00     0.047 C 
ATOM     11  C   UNL A   1      31.722  25.597  23.392  1.00  0.00     0.049 A 
BRANCH   6  12
ATOM     12  N   UNL A   1      33.934  22.422  25.107  1.00  0.00    -0.342 N 
BRANCH  12  13
ATOM     13  C   UNL A   1      33.067  21.253  25.362  1.00  0.00     0.119 C 
ATOM     14  C   UNL A   1      32.531  20.595  24.097  1.00  0.00     0.027 C 
ENDBRANCH  12  13
BRANCH  12  15
ATOM     15  C   UNL A   1      35.333  22.288  25.302  1.00  0.00     0.044 A 
ATOM     16  C   UNL A   1      36.041  21.112  25.002  1.00  0.00     0.026 A 
ATOM     17  C   UNL A   1      36.084  23.401  25.727  1.00  0.00     0.065 A 
ATOM     18  C   UNL A   1      37.437  21.053  25.116  1.00  0.00     0.005 A 
ATOM     19  C   UNL A   1      37.470  23.337  25.832  1.00  0.00     0.125 A 
ATOM     20  C   UNL A   1      38.155  22.172  25.529  1.00  0.00     0.039 A 
ATOM     21  F   UNL A   1      38.153  24.424  26.216  1.00  0.00    -0.207 F 
ENDBRANCH  12  15
ENDBRANCH   6  12
BRANCH  11  22
ATOM     22  N   UNL A   1      30.853  26.507  22.785  1.00  0.00    -0.398 N 
ATOM     23  H   UNL A   1      30.949  26.717  21.828  1.00  0.00     0.156 HD
ATOM     24  H   UNL A   1      30.142  26.938  23.314  1.00  0.00     0.156 HD
ENDBRANCH  11  22
ENDBRANCH   3   5
ENDBRANCH   2   3
ENDBRANCH   1   2
BRANCH   1  25
ATOM     25  C   UNL A   1      31.690  29.788  25.816  1.00  0.00     0.275 C 
BRANCH  25  26
ATOM     26  O   UNL A   1      33.009  30.354  25.894  1.00  0.00    -0.458 OA
BRANCH  26  27
ATOM     27  C   UNL A   1      33.230  31.235  26.894  1.00  0.00     0.338 C 
ATOM     28  O   UNL A   1      32.489  32.144  27.251  1.00  0.00    -0.246 OA
BRANCH  27  29
ATOM     29  C   UNL A   1      34.529  30.936  27.538  1.00  0.00     0.060 A 
ATOM     30  C   UNL A   1      34.875  29.620  27.827  1.00  0.00     0.016 A 
ATOM     31  C   UNL A   1      35.380  31.967  27.938  1.00  0.00     0.016 A 
ATOM     32  C   UNL A   1      36.028  29.329  28.556  1.00  0.00     0.010 A 
ATOM     33  C   UNL A   1      36.584  31.667  28.595  1.00  0.00     0.010 A 
ATOM     34  C   UNL A   1      36.914  30.343  28.940  1.00  0.00    -0.014 A 
BRANCH  34  35
ATOM     35  C   UNL A   1      38.128  30.021  29.755  1.00  0.00     0.031 A 
ATOM     36  C   UNL A   1      39.232  29.179  29.166  1.00  0.00     0.074 A 
ATOM     37  C   UNL A   1      38.293  30.512  31.002  1.00  0.00     0.049 A 
ATOM     38  N   UNL A   1      40.253  28.614  29.761  1.00  0.00    -0.248 NA
ATOM     39  C   UNL A   1      39.172  28.929  27.718  1.00  0.00     0.031 C 
ATOM     40  C   UNL A   1      37.363  31.402  31.696  1.00  0.00     0.029 A 
ATOM     41  N   UNL A   1      39.322  30.349  31.902  1.00  0.00    -0.354 N 
ATOM     42  C   UNL A   1      40.905  27.877  28.780  1.00  0.00     0.074 A 
ATOM     43  C   UNL A   1      40.175  28.080  27.546  1.00  0.00     0.031 C 
ATOM     44  C   UNL A   1      37.893  31.764  32.875  1.00  0.00     0.029 A 
ATOM     45  C   UNL A   1      39.149  31.047  33.074  1.00  0.00     0.049 A 
ATOM     46  H   UNL A   1      40.108  29.784  31.725  1.00  0.00     0.167 HD
ATOM     47  C   UNL A   1      42.006  27.097  28.900  1.00  0.00     0.037 A 
ATOM     48  C   UNL A   1      39.887  31.079  34.202  1.00  0.00     0.037 A 
ATOM     49  C   UNL A   1      42.787  26.966  30.103  1.00  0.00     0.049 A 
ATOM     50  C   UNL A   1      41.098  30.197  34.322  1.00  0.00     0.074 A 
ATOM     51  C   UNL A   1      43.920  26.199  30.315  1.00  0.00     0.029 A 
ATOM     52  N   UNL A   1      42.537  27.644  31.286  1.00  0.00    -0.354 N 
ATOM     53  N   UNL A   1      41.631  29.401  33.429  1.00  0.00    -0.248 NA
ATOM     54  C   UNL A   1      41.785  30.182  35.623  1.00  0.00     0.031 C 
ATOM     55  C   UNL A   1      44.342  26.393  31.634  1.00  0.00     0.029 A 
ATOM     56  C   UNL A   1      43.493  27.311  32.232  1.00  0.00     0.049 A 
ATOM     57  H   UNL A   1      41.791  28.271  31.432  1.00  0.00     0.167 HD
ATOM     58  C   UNL A   1      42.703  28.784  34.058  1.00  0.00     0.074 A 
ATOM     59  C   UNL A   1      42.768  29.321  35.401  1.00  0.00     0.031 C 
ATOM     60  C   UNL A   1      43.546  27.843  33.568  1.00  0.00     0.037 A 
BRANCH  47  61
ATOM     61  C   UNL A   1      42.422  26.285  27.709  1.00  0.00     0.064 A 
ATOM     62  C   UNL A   1      41.831  25.034  27.476  1.00  0.00     0.173 A 
ATOM     63  C   UNL A   1      43.440  26.703  26.841  1.00  0.00     0.173 A 
ATOM     64  F   UNL A   1      40.857  24.585  28.283  1.00  0.00    -0.203 F 
ATOM     65  C   UNL A   1      42.252  24.225  26.424  1.00  0.00     0.198 A 
ATOM     66  C   UNL A   1      43.840  25.904  25.773  1.00  0.00     0.198 A 
ATOM     67  F   UNL A   1      44.027  27.897  27.014  1.00  0.00    -0.203 F 
ATOM     68  F   UNL A   1      41.693  23.021  26.241  1.00  0.00    -0.200 F 
ATOM     69  C   UNL A   1      43.253  24.662  25.571  1.00  0.00     0.200 A 
ATOM     70  F   UNL A   1      44.791  26.336  24.934  1.00  0.00    -0.200 F 
ATOM     71  F   UNL A   1      43.652  23.888  24.552  1.00  0.00    -0.200 F 
ENDBRANCH  47  61
BRANCH  48  72
ATOM     72  C   UNL A   1      39.467  31.952  35.331  1.00  0.00     0.064 A 
ATOM     73  C   UNL A   1      38.597  31.488  36.329  1.00  0.00     0.173 A 
ATOM     74  C   UNL A   1      39.904  33.280  35.413  1.00  0.00     0.173 A 
ATOM     75  F   UNL A   1      38.158  30.222  36.302  1.00  0.00    -0.203 F 
ATOM     76  C   UNL A   1      38.144  32.333  37.340  1.00  0.00     0.198 A 
ATOM     77  C   UNL A   1      39.476  34.116  36.443  1.00  0.00     0.198 A 
ATOM     78  F   UNL A   1      40.765  33.761  34.503  1.00  0.00    -0.203 F 
ATOM     79  F   UNL A   1      37.274  31.878  38.251  1.00  0.00    -0.200 F 
ATOM     80  C   UNL A   1      38.585  33.646  37.397  1.00  0.00     0.200 A 
ATOM     81  F   UNL A   1      39.927  35.377  36.513  1.00  0.00    -0.200 F 
ATOM     82  F   UNL A   1      38.153  34.457  38.372  1.00  0.00    -0.200 F 
ENDBRANCH  48  72
BRANCH  60  83
ATOM     83  C   UNL A   1      44.615  27.326  34.482  1.00  0.00     0.064 A 
ATOM     84  C   UNL A   1      45.865  27.959  34.550  1.00  0.00     0.173 A 
ATOM     85  C   UNL A   1      44.423  26.163  35.241  1.00  0.00     0.173 A 
ATOM     86  F   UNL A   1      46.101  29.069  33.837  1.00  0.00    -0.203 F 
ATOM     87  C   UNL A   1      46.888  27.438  35.338  1.00  0.00     0.198 A 
ATOM     88  C   UNL A   1      45.442  25.658  36.046  1.00  0.00     0.198 A 
ATOM     89  F   UNL A   1      43.240  25.530  35.220  1.00  0.00    -0.203 F 
ATOM     90  F   UNL A   1      48.083  28.045  35.369  1.00  0.00    -0.200 F 
ATOM     91  C   UNL A   1      46.674  26.291  36.087  1.00  0.00     0.200 A 
ATOM     92  F   UNL A   1      45.227  24.560  36.786  1.00  0.00    -0.200 F 
ATOM     93  F   UNL A   1      47.658  25.797  36.853  1.00  0.00    -0.200 F 
ENDBRANCH  60  83
ENDBRANCH  34  35
ENDBRANCH  27  29
ENDBRANCH  26  27
ENDBRANCH  25  26
ENDBRANCH   1  25
TORSDOF 15
ENDMDL
