MODEL 1
REMARK VINA RESULT:     -13.1      0.000      0.000
REMARK SMILES O=C(Cc1c(C(=O)c2cc3c(cn2)CCCC3)[nH]c2cc(Cl)ccc12)OCCOC(=O)c1ccc(-c2c3nc(c(-c4c(F)c(F)c(F)c(F)c4F)c4ccc([nH]4)c(-c4c(F)c(F)c(F)c(F)c4F)c4nc(c(-c5c(F)c(F)c(F)c(F)c5F)c5ccc2[nH]5)C=C4)C=C3)cc1
REMARK SMILES IDX 27 1 26 2 2 3 1 4 3 5 4 6 5 7 25 8 18 9 19 10 24 11 20 13
REMARK SMILES IDX 23 14 21 15 22 16 6 17 7 18 8 19 9 20 13 21 10 22 12 23
REMARK SMILES IDX 11 24 17 25 14 26 16 27 15 28 28 29 29 30 30 31 31 32 32 33
REMARK SMILES IDX 33 34 94 35 34 36 93 37 35 38 36 39 37 40 87 41 38 42 92 43
REMARK SMILES IDX 86 44 88 45 39 46 91 47 85 48 84 49 40 51 72 52 52 53 71 54
REMARK SMILES IDX 53 55 56 56 70 57 89 58 54 59 55 60 69 62 90 63 57 64 41 65
REMARK SMILES IDX 42 66 50 67 43 68 44 69 48 70 51 71 45 72 46 73 49 74 47 75
REMARK SMILES IDX 73 76 74 77 82 78 75 79 76 80 80 81 83 82 77 83 78 84 81 85
REMARK SMILES IDX 79 86 58 87 59 88 67 89 60 90 61 91 65 92 68 93 62 94 63 95
REMARK SMILES IDX 66 96 64 97
REMARK H PARENT 18 12 88 50 56 61
REMARK Flexibility Score: inf
ROOT
ATOM      1  C   UNL A   1      31.573  28.956  25.930  1.00  0.00     0.274 C 
ENDROOT
BRANCH   1   2
ATOM      2  O   UNL A   1      32.641  28.129  26.441  1.00  0.00    -0.462 OA
BRANCH   2   3
ATOM      3  C   UNL A   1      32.693  26.782  26.297  1.00  0.00     0.310 C 
ATOM      4  O   UNL A   1      31.802  26.074  26.763  1.00  0.00    -0.252 OA
BRANCH   3   5
ATOM      5  C   UNL A   1      33.895  26.193  25.618  1.00  0.00     0.161 C 
BRANCH   5   6
ATOM      6  C   UNL A   1      33.656  25.042  24.687  1.00  0.00     0.000 A 
ATOM      7  C   UNL A   1      33.331  25.221  23.347  1.00  0.00     0.093 A 
ATOM      8  C   UNL A   1      33.510  23.638  24.951  1.00  0.00     0.004 A 
ATOM      9  N   UNL A   1      33.286  23.980  22.765  1.00  0.00    -0.351 N 
ATOM     10  C   UNL A   1      33.211  23.020  23.736  1.00  0.00     0.048 A 
ATOM     11  C   UNL A   1      33.538  22.829  26.105  1.00  0.00     0.012 A 
ATOM     12  H   UNL A   1      33.305  23.807  21.796  1.00  0.00     0.167 HD
ATOM     13  C   UNL A   1      32.892  21.664  23.609  1.00  0.00     0.047 A 
ATOM     14  C   UNL A   1      33.194  21.472  26.008  1.00  0.00     0.021 A 
ATOM     15  C   UNL A   1      32.865  20.910  24.778  1.00  0.00     0.043 A 
ATOM     16  Cl  UNL A   1      32.401  19.254  24.692  1.00  0.00    -0.084 Cl
BRANCH   7  17
ATOM     17  C   UNL A   1      33.019  26.454  22.657  1.00  0.00     0.227 C 
ATOM     18  O   UNL A   1      33.858  27.182  22.138  1.00  0.00    -0.285 OA
BRANCH  17  19
ATOM     19  C   UNL A   1      31.622  26.916  22.736  1.00  0.00     0.113 A 
ATOM     20  C   UNL A   1      31.319  28.177  22.249  1.00  0.00     0.036 A 
ATOM     21  N   UNL A   1      30.767  26.116  23.414  1.00  0.00    -0.252 NA
ATOM     22  C   UNL A   1      30.032  28.661  22.463  1.00  0.00    -0.041 A 
ATOM     23  C   UNL A   1      29.524  26.595  23.586  1.00  0.00     0.115 A 
ATOM     24  C   UNL A   1      29.114  27.854  23.153  1.00  0.00    -0.026 A 
ATOM     25  C   UNL A   1      29.673  30.054  22.018  1.00  0.00     0.036 C 
ATOM     26  C   UNL A   1      27.684  28.266  23.342  1.00  0.00     0.037 C 
ATOM     27  C   UNL A   1      28.172  30.212  21.806  1.00  0.00     0.005 C 
ATOM     28  C   UNL A   1      27.408  29.735  23.037  1.00  0.00     0.005 C 
ENDBRANCH  17  19
ENDBRANCH   7  17
ENDBRANCH   5   6
ENDBRANCH   3   5
ENDBRANCH   2   3
ENDBRANCH   1   2
BRANCH   1  29
ATOM     29  C   UNL A   1      31.797  30.438  26.241  1.00  0.00     0.275 C 
BRANCH  29  30
ATOM     30  O   UNL A   1      33.202  30.761  26.283  1.00  0.00    -0.458 OA
BRANCH  30  31
ATOM     31  C   UNL A   1      33.581  31.679  27.214  1.00  0.00     0.338 C 
ATOM     32  O   UNL A   1      32.929  32.627  27.590  1.00  0.00    -0.246 OA
BRANCH  31  33
ATOM     33  C   UNL A   1      34.878  31.273  27.827  1.00  0.00     0.060 A 
ATOM     34  C   UNL A   1      35.911  32.184  28.065  1.00  0.00     0.016 A 
ATOM     35  C   UNL A   1      35.053  29.926  28.171  1.00  0.00     0.016 A 
ATOM     36  C   UNL A   1      37.112  31.748  28.645  1.00  0.00     0.010 A 
ATOM     37  C   UNL A   1      36.253  29.491  28.750  1.00  0.00     0.010 A 
ATOM     38  C   UNL A   1      37.294  30.398  29.001  1.00  0.00    -0.014 A 
BRANCH  38  39
ATOM     39  C   UNL A   1      38.499  29.977  29.768  1.00  0.00     0.031 A 
ATOM     40  C   UNL A   1      38.824  30.498  31.141  1.00  0.00     0.074 A 
ATOM     41  C   UNL A   1      39.331  29.082  29.204  1.00  0.00     0.049 A 
ATOM     42  N   UNL A   1      39.810  30.177  31.946  1.00  0.00    -0.248 NA
ATOM     43  C   UNL A   1      37.915  31.500  31.696  1.00  0.00     0.031 C 
ATOM     44  C   UNL A   1      39.146  28.479  27.886  1.00  0.00     0.029 A 
ATOM     45  N   UNL A   1      40.492  28.523  29.675  1.00  0.00    -0.354 N 
ATOM     46  C   UNL A   1      39.621  30.926  33.103  1.00  0.00     0.074 A 
ATOM     47  C   UNL A   1      38.430  31.712  32.901  1.00  0.00     0.031 C 
ATOM     48  C   UNL A   1      40.153  27.620  27.658  1.00  0.00     0.029 A 
ATOM     49  C   UNL A   1      41.067  27.638  28.799  1.00  0.00     0.049 A 
ATOM     50  H   UNL A   1      40.875  28.735  30.557  1.00  0.00     0.167 HD
ATOM     51  C   UNL A   1      40.381  30.965  34.221  1.00  0.00     0.037 A 
ATOM     52  C   UNL A   1      42.204  26.925  28.900  1.00  0.00     0.037 A 
ATOM     53  C   UNL A   1      41.613  30.249  34.400  1.00  0.00     0.049 A 
ATOM     54  C   UNL A   1      43.040  27.006  30.147  1.00  0.00     0.074 A 
ATOM     55  C   UNL A   1      42.504  30.333  35.459  1.00  0.00     0.029 A 
ATOM     56  N   UNL A   1      42.124  29.328  33.509  1.00  0.00    -0.354 N 
ATOM     57  N   UNL A   1      42.823  27.682  31.246  1.00  0.00    -0.248 NA
ATOM     58  C   UNL A   1      44.277  26.209  30.173  1.00  0.00     0.031 C 
ATOM     59  C   UNL A   1      43.557  29.456  35.211  1.00  0.00     0.029 A 
ATOM     60  C   UNL A   1      43.311  28.821  34.006  1.00  0.00     0.049 A 
ATOM     61  H   UNL A   1      41.711  29.072  32.653  1.00  0.00     0.167 HD
ATOM     62  C   UNL A   1      43.870  27.364  32.102  1.00  0.00     0.074 A 
ATOM     63  C   UNL A   1      44.718  26.426  31.405  1.00  0.00     0.031 C 
ATOM     64  C   UNL A   1      44.106  27.825  33.351  1.00  0.00     0.037 A 
BRANCH  51  65
ATOM     65  C   UNL A   1      39.984  31.822  35.383  1.00  0.00     0.064 A 
ATOM     66  C   UNL A   1      40.399  33.162  35.425  1.00  0.00     0.173 A 
ATOM     67  C   UNL A   1      38.964  31.416  36.254  1.00  0.00     0.173 A 
ATOM     68  F   UNL A   1      41.369  33.594  34.606  1.00  0.00    -0.203 F 
ATOM     69  C   UNL A   1      39.779  34.075  36.273  1.00  0.00     0.198 A 
ATOM     70  C   UNL A   1      38.355  32.329  37.111  1.00  0.00     0.198 A 
ATOM     71  F   UNL A   1      38.519  30.151  36.229  1.00  0.00    -0.203 F 
ATOM     72  F   UNL A   1      40.181  35.353  36.292  1.00  0.00    -0.200 F 
ATOM     73  C   UNL A   1      38.751  33.661  37.109  1.00  0.00     0.200 A 
ATOM     74  F   UNL A   1      37.368  31.929  37.924  1.00  0.00    -0.200 F 
ATOM     75  F   UNL A   1      38.160  34.539  37.930  1.00  0.00    -0.200 F 
ENDBRANCH  51  65
BRANCH  52  76
ATOM     76  C   UNL A   1      42.600  26.035  27.783  1.00  0.00     0.064 A 
ATOM     77  C   UNL A   1      42.110  24.725  27.704  1.00  0.00     0.173 A 
ATOM     78  C   UNL A   1      43.466  26.476  26.773  1.00  0.00     0.173 A 
ATOM     79  F   UNL A   1      41.291  24.258  28.660  1.00  0.00    -0.203 F 
ATOM     80  C   UNL A   1      42.487  23.881  26.664  1.00  0.00     0.198 A 
ATOM     81  C   UNL A   1      43.818  25.641  25.717  1.00  0.00     0.198 A 
ATOM     82  F   UNL A   1      43.955  27.725  26.804  1.00  0.00    -0.203 F 
ATOM     83  F   UNL A   1      42.041  22.618  26.635  1.00  0.00    -0.200 F 
ATOM     84  C   UNL A   1      43.336  24.342  25.668  1.00  0.00     0.200 A 
ATOM     85  F   UNL A   1      44.625  26.094  24.748  1.00  0.00    -0.200 F 
ATOM     86  F   UNL A   1      43.694  23.530  24.665  1.00  0.00    -0.200 F 
ENDBRANCH  52  76
BRANCH  64  87
ATOM     87  C   UNL A   1      45.283  27.301  34.112  1.00  0.00     0.064 A 
ATOM     88  C   UNL A   1      46.515  27.967  34.099  1.00  0.00     0.173 A 
ATOM     89  C   UNL A   1      45.124  26.219  34.993  1.00  0.00     0.173 A 
ATOM     90  F   UNL A   1      46.706  29.014  33.282  1.00  0.00    -0.203 F 
ATOM     91  C   UNL A   1      47.550  27.566  34.938  1.00  0.00     0.198 A 
ATOM     92  C   UNL A   1      46.153  25.836  35.847  1.00  0.00     0.198 A 
ATOM     93  F   UNL A   1      43.953  25.569  35.061  1.00  0.00    -0.203 F 
ATOM     94  F   UNL A   1      48.723  28.213  34.906  1.00  0.00    -0.200 F 
ATOM     95  C   UNL A   1      47.365  26.511  35.818  1.00  0.00     0.200 A 
ATOM     96  F   UNL A   1      45.964  24.834  36.716  1.00  0.00    -0.200 F 
ATOM     97  F   UNL A   1      48.352  26.148  36.648  1.00  0.00    -0.200 F 
ENDBRANCH  64  87
ENDBRANCH  38  39
ENDBRANCH  31  33
ENDBRANCH  30  31
ENDBRANCH  29  30
ENDBRANCH   1  29
TORSDOF 14
ENDMDL
MODEL 2
REMARK VINA RESULT:     -13.0      2.319      4.379
REMARK SMILES O=C(Cc1c(C(=O)c2cc3c(cn2)CCCC3)[nH]c2cc(Cl)ccc12)OCCOC(=O)c1ccc(-c2c3nc(c(-c4c(F)c(F)c(F)c(F)c4F)c4ccc([nH]4)c(-c4c(F)c(F)c(F)c(F)c4F)c4nc(c(-c5c(F)c(F)c(F)c(F)c5F)c5ccc2[nH]5)C=C4)C=C3)cc1
REMARK SMILES IDX 27 1 26 2 2 3 1 4 3 5 4 6 5 7 25 8 18 9 19 10 24 11 20 13
REMARK SMILES IDX 23 14 21 15 22 16 6 17 7 18 8 19 9 20 13 21 10 22 12 23
REMARK SMILES IDX 11 24 17 25 14 26 16 27 15 28 28 29 29 30 30 31 31 32 32 33
REMARK SMILES IDX 33 34 94 35 34 36 93 37 35 38 36 39 37 40 87 41 38 42 92 43
REMARK SMILES IDX 86 44 88 45 39 46 91 47 85 48 84 49 40 51 72 52 52 53 71 54
REMARK SMILES IDX 53 55 56 56 70 57 89 58 54 59 55 60 69 62 90 63 57 64 41 65
REMARK SMILES IDX 42 66 50 67 43 68 44 69 48 70 51 71 45 72 46 73 49 74 47 75
REMARK SMILES IDX 73 76 74 77 82 78 75 79 76 80 80 81 83 82 77 83 78 84 81 85
REMARK SMILES IDX 79 86 58 87 59 88 67 89 60 90 61 91 65 92 68 93 62 94 63 95
REMARK SMILES IDX 66 96 64 97
REMARK H PARENT 18 12 88 50 56 61
REMARK Flexibility Score: inf
ROOT
ATOM      1  C   UNL A   1      31.695  32.540  26.640  1.00  0.00     0.274 C 
ENDROOT
BRANCH   1   2
ATOM      2  O   UNL A   1      31.492  31.131  26.878  1.00  0.00    -0.462 OA
BRANCH   2   3
ATOM      3  C   UNL A   1      32.198  30.148  26.268  1.00  0.00     0.310 C 
ATOM      4  O   UNL A   1      33.422  30.223  26.187  1.00  0.00    -0.252 OA
BRANCH   3   5
ATOM      5  C   UNL A   1      31.434  29.016  25.644  1.00  0.00     0.161 C 
BRANCH   5   6
ATOM      6  C   UNL A   1      31.061  29.161  24.198  1.00  0.00     0.000 A 
ATOM      7  C   UNL A   1      31.835  28.631  23.172  1.00  0.00     0.093 A 
ATOM      8  C   UNL A   1      30.052  29.963  23.567  1.00  0.00     0.004 A 
ATOM      9  N   UNL A   1      31.163  28.848  21.996  1.00  0.00    -0.351 N 
ATOM     10  C   UNL A   1      30.194  29.793  22.189  1.00  0.00     0.048 A 
ATOM     11  C   UNL A   1      29.067  30.867  24.015  1.00  0.00     0.012 A 
ATOM     12  H   UNL A   1      31.351  28.393  21.144  1.00  0.00     0.167 HD
ATOM     13  C   UNL A   1      29.455  30.501  21.236  1.00  0.00     0.047 A 
ATOM     14  C   UNL A   1      28.332  31.610  23.078  1.00  0.00     0.021 A 
ATOM     15  C   UNL A   1      28.537  31.433  21.713  1.00  0.00     0.043 A 
ATOM     16  Cl  UNL A   1      27.657  32.390  20.585  1.00  0.00    -0.084 Cl
BRANCH   7  17
ATOM     17  C   UNL A   1      33.143  28.018  23.259  1.00  0.00     0.227 C 
ATOM     18  O   UNL A   1      34.195  28.613  23.051  1.00  0.00    -0.285 OA
BRANCH  17  19
ATOM     19  C   UNL A   1      33.173  26.559  23.454  1.00  0.00     0.113 A 
ATOM     20  C   UNL A   1      33.999  26.045  24.441  1.00  0.00     0.036 A 
ATOM     21  N   UNL A   1      32.491  25.821  22.548  1.00  0.00    -0.252 NA
ATOM     22  C   UNL A   1      34.133  24.662  24.518  1.00  0.00    -0.041 A 
ATOM     23  C   UNL A   1      32.616  24.489  22.658  1.00  0.00     0.115 A 
ATOM     24  C   UNL A   1      33.430  23.864  23.601  1.00  0.00    -0.026 A 
ATOM     25  C   UNL A   1      35.073  24.055  25.525  1.00  0.00     0.036 C 
ATOM     26  C   UNL A   1      33.450  22.366  23.677  1.00  0.00     0.037 C 
ATOM     27  C   UNL A   1      34.694  22.618  25.862  1.00  0.00     0.005 C 
ATOM     28  C   UNL A   1      34.535  21.798  24.586  1.00  0.00     0.005 C 
ENDBRANCH  17  19
ENDBRANCH   7  17
ENDBRANCH   5   6
ENDBRANCH   3   5
ENDBRANCH   2   3
ENDBRANCH   1   2
BRANCH   1  29
ATOM     29  C   UNL A   1      32.683  33.154  27.635  1.00  0.00     0.275 C 
BRANCH  29  30
ATOM     30  O   UNL A   1      32.484  34.576  27.765  1.00  0.00    -0.458 OA
BRANCH  30  31
ATOM     31  C   UNL A   1      33.001  35.156  28.884  1.00  0.00     0.338 C 
ATOM     32  O   UNL A   1      32.517  36.078  29.500  1.00  0.00    -0.246 OA
BRANCH  31  33
ATOM     33  C   UNL A   1      34.197  34.392  29.343  1.00  0.00     0.060 A 
ATOM     34  C   UNL A   1      35.472  34.613  28.814  1.00  0.00     0.016 A 
ATOM     35  C   UNL A   1      34.020  33.423  30.339  1.00  0.00     0.016 A 
ATOM     36  C   UNL A   1      36.564  33.865  29.283  1.00  0.00     0.010 A 
ATOM     37  C   UNL A   1      35.112  32.677  30.805  1.00  0.00     0.010 A 
ATOM     38  C   UNL A   1      36.397  32.895  30.288  1.00  0.00    -0.014 A 
BRANCH  38  39
ATOM     39  C   UNL A   1      37.583  32.229  30.897  1.00  0.00     0.031 A 
ATOM     40  C   UNL A   1      38.116  32.582  32.258  1.00  0.00     0.074 A 
ATOM     41  C   UNL A   1      38.199  31.261  30.194  1.00  0.00     0.049 A 
ATOM     42  N   UNL A   1      39.106  32.048  32.933  1.00  0.00    -0.248 NA
ATOM     43  C   UNL A   1      37.441  33.668  32.967  1.00  0.00     0.031 C 
ATOM     44  C   UNL A   1      37.795  30.800  28.867  1.00  0.00     0.029 A 
ATOM     45  N   UNL A   1      39.291  30.490  30.505  1.00  0.00    -0.354 N 
ATOM     46  C   UNL A   1      39.153  32.724  34.148  1.00  0.00     0.074 A 
ATOM     47  C   UNL A   1      38.094  33.701  34.122  1.00  0.00     0.031 C 
ATOM     48  C   UNL A   1      38.621  29.814  28.482  1.00  0.00     0.029 A 
ATOM     49  C   UNL A   1      39.627  29.597  29.520  1.00  0.00     0.049 A 
ATOM     50  H   UNL A   1      39.784  30.569  31.353  1.00  0.00     0.167 HD
ATOM     51  C   UNL A   1      40.010  32.554  35.181  1.00  0.00     0.037 A 
ATOM     52  C   UNL A   1      40.635  28.708  29.456  1.00  0.00     0.037 A 
ATOM     53  C   UNL A   1      41.117  31.640  35.185  1.00  0.00     0.049 A 
ATOM     54  C   UNL A   1      41.586  28.557  30.612  1.00  0.00     0.074 A 
ATOM     55  C   UNL A   1      42.105  31.498  36.147  1.00  0.00     0.029 A 
ATOM     56  N   UNL A   1      41.384  30.723  34.190  1.00  0.00    -0.354 N 
ATOM     57  N   UNL A   1      41.588  29.171  31.767  1.00  0.00    -0.248 NA
ATOM     58  C   UNL A   1      42.671  27.574  30.458  1.00  0.00     0.031 C 
ATOM     59  C   UNL A   1      42.971  30.488  35.736  1.00  0.00     0.029 A 
ATOM     60  C   UNL A   1      42.511  29.997  34.526  1.00  0.00     0.049 A 
ATOM     61  H   UNL A   1      40.856  30.604  33.367  1.00  0.00     0.167 HD
ATOM     62  C   UNL A   1      42.642  28.624  32.487  1.00  0.00     0.074 A 
ATOM     63  C   UNL A   1      43.255  27.622  31.648  1.00  0.00     0.031 C 
ATOM     64  C   UNL A   1      43.067  28.942  33.731  1.00  0.00     0.037 A 
BRANCH  51  65
ATOM     65  C   UNL A   1      39.870  33.369  36.430  1.00  0.00     0.064 A 
ATOM     66  C   UNL A   1      40.414  34.661  36.473  1.00  0.00     0.173 A 
ATOM     67  C   UNL A   1      38.952  33.001  37.423  1.00  0.00     0.173 A 
ATOM     68  F   UNL A   1      41.293  35.056  35.540  1.00  0.00    -0.203 F 
ATOM     69  C   UNL A   1      40.015  35.571  37.448  1.00  0.00     0.198 A 
ATOM     70  C   UNL A   1      38.565  33.910  38.404  1.00  0.00     0.198 A 
ATOM     71  F   UNL A   1      38.388  31.784  37.403  1.00  0.00    -0.203 F 
ATOM     72  F   UNL A   1      40.537  36.805  37.468  1.00  0.00    -0.200 F 
ATOM     73  C   UNL A   1      39.084  35.198  38.408  1.00  0.00     0.200 A 
ATOM     74  F   UNL A   1      37.672  33.549  39.336  1.00  0.00    -0.200 F 
ATOM     75  F   UNL A   1      38.706  36.073  39.349  1.00  0.00    -0.200 F 
ENDBRANCH  51  65
BRANCH  52  76
ATOM     76  C   UNL A   1      40.773  27.857  28.250  1.00  0.00     0.064 A 
ATOM     77  C   UNL A   1      40.152  26.603  28.185  1.00  0.00     0.173 A 
ATOM     78  C   UNL A   1      41.517  28.281  27.141  1.00  0.00     0.173 A 
ATOM     79  F   UNL A   1      39.443  26.152  29.232  1.00  0.00    -0.203 F 
ATOM     80  C   UNL A   1      40.287  25.795  27.061  1.00  0.00     0.198 A 
ATOM     81  C   UNL A   1      41.627  27.485  26.005  1.00  0.00     0.198 A 
ATOM     82  F   UNL A   1      42.124  29.478  27.156  1.00  0.00    -0.203 F 
ATOM     83  F   UNL A   1      39.721  24.581  27.040  1.00  0.00    -0.200 F 
ATOM     84  C   UNL A   1      41.019  26.239  25.969  1.00  0.00     0.200 A 
ATOM     85  F   UNL A   1      42.320  27.924  24.946  1.00  0.00    -0.200 F 
ATOM     86  F   UNL A   1      41.143  25.463  24.885  1.00  0.00    -0.200 F 
ENDBRANCH  52  76
BRANCH  64  87
ATOM     87  C   UNL A   1      44.207  28.180  34.330  1.00  0.00     0.064 A 
ATOM     88  C   UNL A   1      45.515  28.678  34.292  1.00  0.00     0.173 A 
ATOM     89  C   UNL A   1      43.957  27.029  35.094  1.00  0.00     0.173 A 
ATOM     90  F   UNL A   1      45.796  29.783  33.586  1.00  0.00    -0.203 F 
ATOM     91  C   UNL A   1      46.538  28.046  34.993  1.00  0.00     0.198 A 
ATOM     92  C   UNL A   1      44.977  26.414  35.813  1.00  0.00     0.198 A 
ATOM     93  F   UNL A   1      42.714  26.533  35.183  1.00  0.00    -0.203 F 
ATOM     94  F   UNL A   1      47.784  28.534  34.939  1.00  0.00    -0.200 F 
ATOM     95  C   UNL A   1      46.266  26.923  35.762  1.00  0.00     0.200 A 
ATOM     96  F   UNL A   1      44.707  25.346  36.576  1.00  0.00    -0.200 F 
ATOM     97  F   UNL A   1      47.245  26.337  36.462  1.00  0.00    -0.200 F 
ENDBRANCH  64  87
ENDBRANCH  38  39
ENDBRANCH  31  33
ENDBRANCH  30  31
ENDBRANCH  29  30
ENDBRANCH   1  29
TORSDOF 14
ENDMDL
MODEL 3
REMARK VINA RESULT:     -12.9      1.649      3.793
REMARK SMILES O=C(Cc1c(C(=O)c2cc3c(cn2)CCCC3)[nH]c2cc(Cl)ccc12)OCCOC(=O)c1ccc(-c2c3nc(c(-c4c(F)c(F)c(F)c(F)c4F)c4ccc([nH]4)c(-c4c(F)c(F)c(F)c(F)c4F)c4nc(c(-c5c(F)c(F)c(F)c(F)c5F)c5ccc2[nH]5)C=C4)C=C3)cc1
REMARK SMILES IDX 27 1 26 2 2 3 1 4 3 5 4 6 5 7 25 8 18 9 19 10 24 11 20 13
REMARK SMILES IDX 23 14 21 15 22 16 6 17 7 18 8 19 9 20 13 21 10 22 12 23
REMARK SMILES IDX 11 24 17 25 14 26 16 27 15 28 28 29 29 30 30 31 31 32 32 33
REMARK SMILES IDX 33 34 94 35 34 36 93 37 35 38 36 39 37 40 87 41 38 42 92 43
REMARK SMILES IDX 86 44 88 45 39 46 91 47 85 48 84 49 40 51 72 52 52 53 71 54
REMARK SMILES IDX 53 55 56 56 70 57 89 58 54 59 55 60 69 62 90 63 57 64 41 65
REMARK SMILES IDX 42 66 50 67 43 68 44 69 48 70 51 71 45 72 46 73 49 74 47 75
REMARK SMILES IDX 73 76 74 77 82 78 75 79 76 80 80 81 83 82 77 83 78 84 81 85
REMARK SMILES IDX 79 86 58 87 59 88 67 89 60 90 61 91 65 92 68 93 62 94 63 95
REMARK SMILES IDX 66 96 64 97
REMARK H PARENT 18 12 88 50 56 61
REMARK Flexibility Score: inf
ROOT
ATOM      1  C   UNL A   1      31.807  28.653  27.201  1.00  0.00     0.274 C 
ENDROOT
BRANCH   1   2
ATOM      2  O   UNL A   1      30.753  27.836  26.649  1.00  0.00    -0.462 OA
BRANCH   2   3
ATOM      3  C   UNL A   1      30.926  26.560  26.223  1.00  0.00     0.310 C 
ATOM      4  O   UNL A   1      31.458  25.729  26.955  1.00  0.00    -0.252 OA
BRANCH   3   5
ATOM      5  C   UNL A   1      30.509  26.225  24.820  1.00  0.00     0.161 C 
BRANCH   5   6
ATOM      6  C   UNL A   1      30.717  27.282  23.776  1.00  0.00     0.000 A 
ATOM      7  C   UNL A   1      31.982  27.712  23.392  1.00  0.00     0.093 A 
ATOM      8  C   UNL A   1      29.782  28.164  23.139  1.00  0.00     0.004 A 
ATOM      9  N   UNL A   1      31.818  28.597  22.357  1.00  0.00    -0.351 N 
ATOM     10  C   UNL A   1      30.517  29.015  22.312  1.00  0.00     0.048 A 
ATOM     11  C   UNL A   1      28.390  28.375  23.219  1.00  0.00     0.012 A 
ATOM     12  H   UNL A   1      32.529  28.886  21.741  1.00  0.00     0.167 HD
ATOM     13  C   UNL A   1      29.962  30.086  21.605  1.00  0.00     0.047 A 
ATOM     14  C   UNL A   1      27.814  29.461  22.541  1.00  0.00     0.021 A 
ATOM     15  C   UNL A   1      28.596  30.305  21.759  1.00  0.00     0.043 A 
ATOM     16  Cl  UNL A   1      27.874  31.658  20.975  1.00  0.00    -0.084 Cl
BRANCH   7  17
ATOM     17  C   UNL A   1      33.261  27.378  23.980  1.00  0.00     0.227 C 
ATOM     18  O   UNL A   1      34.083  28.209  24.353  1.00  0.00    -0.285 OA
BRANCH  17  19
ATOM     19  C   UNL A   1      33.637  25.954  23.972  1.00  0.00     0.113 A 
ATOM     20  C   UNL A   1      34.311  25.447  25.072  1.00  0.00     0.036 A 
ATOM     21  N   UNL A   1      33.414  25.285  22.818  1.00  0.00    -0.252 NA
ATOM     22  C   UNL A   1      34.790  24.143  24.991  1.00  0.00    -0.041 A 
ATOM     23  C   UNL A   1      33.864  24.020  22.774  1.00  0.00     0.115 A 
ATOM     24  C   UNL A   1      34.568  23.413  23.812  1.00  0.00    -0.026 A 
ATOM     25  C   UNL A   1      35.592  23.569  26.128  1.00  0.00     0.036 C 
ATOM     26  C   UNL A   1      34.972  21.975  23.683  1.00  0.00     0.037 C 
ATOM     27  C   UNL A   1      35.546  22.045  26.143  1.00  0.00     0.005 C 
ATOM     28  C   UNL A   1      35.922  21.489  24.773  1.00  0.00     0.005 C 
ENDBRANCH  17  19
ENDBRANCH   7  17
ENDBRANCH   5   6
ENDBRANCH   3   5
ENDBRANCH   2   3
ENDBRANCH   1   2
BRANCH   1  29
ATOM     29  C   UNL A   1      31.812  30.063  26.604  1.00  0.00     0.275 C 
BRANCH  29  30
ATOM     30  O   UNL A   1      33.156  30.541  26.394  1.00  0.00    -0.458 OA
BRANCH  30  31
ATOM     31  C   UNL A   1      33.582  31.526  27.232  1.00  0.00     0.338 C 
ATOM     32  O   UNL A   1      32.962  32.517  27.543  1.00  0.00    -0.246 OA
BRANCH  31  33
ATOM     33  C   UNL A   1      34.888  31.143  27.842  1.00  0.00     0.060 A 
ATOM     34  C   UNL A   1      35.926  32.061  28.024  1.00  0.00     0.016 A 
ATOM     35  C   UNL A   1      35.065  29.811  28.241  1.00  0.00     0.016 A 
ATOM     36  C   UNL A   1      37.135  31.647  28.603  1.00  0.00     0.010 A 
ATOM     37  C   UNL A   1      36.275  29.399  28.819  1.00  0.00     0.010 A 
ATOM     38  C   UNL A   1      37.320  30.313  29.013  1.00  0.00    -0.014 A 
BRANCH  38  39
ATOM     39  C   UNL A   1      38.537  29.923  29.779  1.00  0.00     0.031 A 
ATOM     40  C   UNL A   1      38.857  30.461  31.146  1.00  0.00     0.074 A 
ATOM     41  C   UNL A   1      39.384  29.040  29.218  1.00  0.00     0.049 A 
ATOM     42  N   UNL A   1      39.853  30.167  31.949  1.00  0.00    -0.248 NA
ATOM     43  C   UNL A   1      37.931  31.449  31.697  1.00  0.00     0.031 C 
ATOM     44  C   UNL A   1      39.206  28.422  27.906  1.00  0.00     0.029 A 
ATOM     45  N   UNL A   1      40.558  28.508  29.689  1.00  0.00    -0.354 N 
ATOM     46  C   UNL A   1      39.654  30.921  33.101  1.00  0.00     0.074 A 
ATOM     47  C   UNL A   1      38.447  31.682  32.898  1.00  0.00     0.031 C 
ATOM     48  C   UNL A   1      40.229  27.582  27.681  1.00  0.00     0.029 A 
ATOM     49  C   UNL A   1      41.147  27.628  28.818  1.00  0.00     0.049 A 
ATOM     50  H   UNL A   1      40.940  28.735  30.567  1.00  0.00     0.167 HD
ATOM     51  C   UNL A   1      40.418  30.985  34.216  1.00  0.00     0.037 A 
ATOM     52  C   UNL A   1      42.298  26.938  28.919  1.00  0.00     0.037 A 
ATOM     53  C   UNL A   1      41.664  30.294  34.394  1.00  0.00     0.049 A 
ATOM     54  C   UNL A   1      43.138  27.045  30.162  1.00  0.00     0.074 A 
ATOM     55  C   UNL A   1      42.558  30.405  35.448  1.00  0.00     0.029 A 
ATOM     56  N   UNL A   1      42.190  29.377  33.509  1.00  0.00    -0.354 N 
ATOM     57  N   UNL A   1      42.913  27.727  31.256  1.00  0.00    -0.248 NA
ATOM     58  C   UNL A   1      44.390  26.273  30.189  1.00  0.00     0.031 C 
ATOM     59  C   UNL A   1      43.627  29.547  35.203  1.00  0.00     0.029 A 
ATOM     60  C   UNL A   1      43.388  28.898  34.005  1.00  0.00     0.049 A 
ATOM     61  H   UNL A   1      41.778  29.105  32.657  1.00  0.00     0.167 HD
ATOM     62  C   UNL A   1      43.969  27.436  32.110  1.00  0.00     0.074 A 
ATOM     63  C   UNL A   1      44.832  26.509  31.417  1.00  0.00     0.031 C 
ATOM     64  C   UNL A   1      44.201  27.912  33.354  1.00  0.00     0.037 A 
BRANCH  51  65
ATOM     65  C   UNL A   1      40.009  31.843  35.372  1.00  0.00     0.064 A 
ATOM     66  C   UNL A   1      40.403  33.189  35.405  1.00  0.00     0.173 A 
ATOM     67  C   UNL A   1      38.995  31.427  36.247  1.00  0.00     0.173 A 
ATOM     68  F   UNL A   1      41.367  33.631  34.582  1.00  0.00    -0.203 F 
ATOM     69  C   UNL A   1      39.770  34.098  36.248  1.00  0.00     0.198 A 
ATOM     70  C   UNL A   1      38.374  32.337  37.098  1.00  0.00     0.198 A 
ATOM     71  F   UNL A   1      38.570  30.155  36.230  1.00  0.00    -0.203 F 
ATOM     72  F   UNL A   1      40.153  35.382  36.258  1.00  0.00    -0.200 F 
ATOM     73  C   UNL A   1      38.749  33.674  37.087  1.00  0.00     0.200 A 
ATOM     74  F   UNL A   1      37.393  31.927  37.915  1.00  0.00    -0.200 F 
ATOM     75  F   UNL A   1      38.146  34.549  37.902  1.00  0.00    -0.200 F 
ENDBRANCH  51  65
BRANCH  52  76
ATOM     76  C   UNL A   1      42.707  26.047  27.807  1.00  0.00     0.064 A 
ATOM     77  C   UNL A   1      42.237  24.729  27.737  1.00  0.00     0.173 A 
ATOM     78  C   UNL A   1      43.566  26.494  26.794  1.00  0.00     0.173 A 
ATOM     79  F   UNL A   1      41.426  24.256  28.697  1.00  0.00    -0.203 F 
ATOM     80  C   UNL A   1      42.627  23.884  26.703  1.00  0.00     0.198 A 
ATOM     81  C   UNL A   1      43.930  25.658  25.743  1.00  0.00     0.198 A 
ATOM     82  F   UNL A   1      44.035  27.751  26.817  1.00  0.00    -0.203 F 
ATOM     83  F   UNL A   1      42.200  22.615  26.682  1.00  0.00    -0.200 F 
ATOM     84  C   UNL A   1      43.468  24.352  25.704  1.00  0.00     0.200 A 
ATOM     85  F   UNL A   1      44.729  26.117  24.771  1.00  0.00    -0.200 F 
ATOM     86  F   UNL A   1      43.838  23.539  24.705  1.00  0.00    -0.200 F 
ENDBRANCH  52  76
BRANCH  64  87
ATOM     87  C   UNL A   1      45.391  27.417  34.115  1.00  0.00     0.064 A 
ATOM     88  C   UNL A   1      46.613  28.100  34.079  1.00  0.00     0.173 A 
ATOM     89  C   UNL A   1      45.254  26.350  35.016  1.00  0.00     0.173 A 
ATOM     90  F   UNL A   1      46.784  29.135  33.242  1.00  0.00    -0.203 F 
ATOM     91  C   UNL A   1      47.661  27.728  34.916  1.00  0.00     0.198 A 
ATOM     92  C   UNL A   1      46.296  25.996  35.868  1.00  0.00     0.198 A 
ATOM     93  F   UNL A   1      44.093  25.685  35.106  1.00  0.00    -0.203 F 
ATOM     94  F   UNL A   1      48.825  28.391  34.862  1.00  0.00    -0.200 F 
ATOM     95  C   UNL A   1      47.498  26.686  35.817  1.00  0.00     0.200 A 
ATOM     96  F   UNL A   1      46.127  25.007  36.756  1.00  0.00    -0.200 F 
ATOM     97  F   UNL A   1      48.497  26.352  36.644  1.00  0.00    -0.200 F 
ENDBRANCH  64  87
ENDBRANCH  38  39
ENDBRANCH  31  33
ENDBRANCH  30  31
ENDBRANCH  29  30
ENDBRANCH   1  29
TORSDOF 14
ENDMDL
