MODEL 1
REMARK VINA RESULT:     -13.0      0.000      0.000
REMARK SMILES CC[C@H](NC(=O)Cc1c(C)c2cc(Cl)c(OC)cc2oc1=O)C(=O)OCCOC(=O)c1ccc(-c2c3nc(c(-c4c(F)c(F)c(F)c(F)c4F)c4ccc([nH]4)c(-c4c(F)c(F)c(F)c(F)c4F)c4nc(c(-c5c(F)c(F)c(F)c(F)c5F)c5ccc2[nH]5)C=C4)C=C3)cc1
REMARK SMILES IDX 26 1 25 2 23 3 24 4 3 5 2 6 1 7 4 8 5 9 6 11 7 12 8 13 9 14
REMARK SMILES IDX 21 15 10 16 11 17 20 18 22 19 12 20 19 21 13 22 18 23 14 24
REMARK SMILES IDX 15 25 16 26 17 27 27 28 28 29 29 30 30 31 31 32 32 33 93 34
REMARK SMILES IDX 33 35 92 36 34 37 35 38 36 39 86 40 37 41 91 42 85 43 87 44
REMARK SMILES IDX 38 45 90 46 84 47 83 48 39 50 71 51 51 52 70 53 52 54 55 55
REMARK SMILES IDX 69 56 88 57 53 58 54 59 68 61 89 62 56 63 40 64 41 65 49 66
REMARK SMILES IDX 42 67 43 68 47 69 50 70 44 71 45 72 48 73 46 74 72 75 73 76
REMARK SMILES IDX 81 77 74 78 75 79 79 80 82 81 76 82 77 83 80 84 78 85 57 86
REMARK SMILES IDX 58 87 66 88 59 89 60 90 64 91 67 92 61 93 62 94 65 95 63 96
REMARK H PARENT 4 10 87 49 55 60
REMARK Flexibility Score: inf
ROOT
ATOM      1  C   UNL A   1      32.107  30.472  26.781  1.00  0.00     0.274 C 
ENDROOT
BRANCH   1   2
ATOM      2  O   UNL A   1      31.911  29.362  25.805  1.00  0.00    -0.461 OA
BRANCH   2   3
ATOM      3  C   UNL A   1      32.750  28.866  24.834  1.00  0.00     0.328 C 
ATOM      4  O   UNL A   1      33.971  28.962  24.893  1.00  0.00    -0.250 OA
BRANCH   3   5
ATOM      5  C   UNL A   1      31.988  27.791  23.898  1.00  0.00     0.192 C 
BRANCH   5   6
ATOM      6  C   UNL A   1      32.328  27.893  22.400  1.00  0.00     0.033 C 
ATOM      7  C   UNL A   1      33.455  26.960  22.003  1.00  0.00     0.007 C 
ENDBRANCH   5   6
BRANCH   5   8
ATOM      8  N   UNL A   1      30.553  27.550  24.004  1.00  0.00    -0.342 N 
ATOM      9  C   UNL A   1      29.915  26.583  24.695  1.00  0.00     0.225 C 
ATOM     10  H   UNL A   1      29.976  28.175  23.508  1.00  0.00     0.164 HD
ATOM     11  O   UNL A   1      28.781  26.263  24.340  1.00  0.00    -0.275 OA
BRANCH   9  12
ATOM     12  C   UNL A   1      30.540  26.062  25.942  1.00  0.00     0.143 C 
BRANCH  12  13
ATOM     13  C   UNL A   1      31.646  25.009  25.806  1.00  0.00     0.051 A 
ATOM     14  C   UNL A   1      33.260  24.770  25.451  1.00  0.00    -0.029 A 
ATOM     15  C   UNL A   1      30.534  23.482  26.483  1.00  0.00     0.340 A 
ATOM     16  C   UNL A   1      34.540  25.596  25.442  1.00  0.00     0.046 C 
ATOM     17  C   UNL A   1      34.031  23.022  25.483  1.00  0.00     0.023 A 
ATOM     18  O   UNL A   1      31.405  21.926  26.375  1.00  0.00    -0.422 OA
ATOM     19  O   UNL A   1      29.435  23.533  26.985  1.00  0.00    -0.246 OA
ATOM     20  C   UNL A   1      35.297  22.740  25.012  1.00  0.00     0.036 A 
ATOM     21  C   UNL A   1      33.121  21.643  25.938  1.00  0.00     0.142 A 
ATOM     22  C   UNL A   1      35.628  21.373  24.839  1.00  0.00     0.083 A 
ATOM     23  C   UNL A   1      33.474  20.338  25.712  1.00  0.00     0.095 A 
ATOM     24  Cl  UNL A   1      37.234  21.062  24.236  1.00  0.00    -0.080 Cl
ATOM     25  C   UNL A   1      34.729  20.248  25.083  1.00  0.00     0.141 A 
BRANCH  25  26
ATOM     26  O   UNL A   1      35.086  18.989  24.629  1.00  0.00    -0.495 OA
ATOM     27  C   UNL A   1      33.919  18.187  24.382  1.00  0.00     0.278 C 
ENDBRANCH  25  26
ENDBRANCH  12  13
ENDBRANCH   9  12
ENDBRANCH   5   8
ENDBRANCH   3   5
ENDBRANCH   2   3
ENDBRANCH   1   2
BRANCH   1  28
ATOM     28  C   UNL A   1      31.277  31.912  26.553  1.00  0.00     0.275 C 
BRANCH  28  29
ATOM     29  O   UNL A   1      31.804  33.470  27.178  1.00  0.00    -0.458 OA
BRANCH  29  30
ATOM     30  C   UNL A   1      32.834  34.453  28.405  1.00  0.00     0.338 C 
ATOM     31  O   UNL A   1      32.588  35.638  28.757  1.00  0.00    -0.246 OA
BRANCH  30  32
ATOM     32  C   UNL A   1      34.015  34.102  29.279  1.00  0.00     0.060 A 
ATOM     33  C   UNL A   1      34.020  32.848  29.891  1.00  0.00     0.016 A 
ATOM     34  C   UNL A   1      35.244  34.756  29.058  1.00  0.00     0.016 A 
ATOM     35  C   UNL A   1      35.189  32.345  30.443  1.00  0.00     0.010 A 
ATOM     36  C   UNL A   1      36.437  34.189  29.511  1.00  0.00     0.010 A 
ATOM     37  C   UNL A   1      36.416  32.997  30.245  1.00  0.00    -0.014 A 
BRANCH  37  38
ATOM     38  C   UNL A   1      37.650  32.397  30.820  1.00  0.00     0.031 A 
ATOM     39  C   UNL A   1      38.039  32.694  32.240  1.00  0.00     0.074 A 
ATOM     40  C   UNL A   1      38.355  31.513  30.085  1.00  0.00     0.049 A 
ATOM     41  N   UNL A   1      39.000  32.172  32.959  1.00  0.00    -0.248 NA
ATOM     42  C   UNL A   1      37.268  33.730  32.945  1.00  0.00     0.031 C 
ATOM     43  C   UNL A   1      38.094  31.193  28.679  1.00  0.00     0.029 A 
ATOM     44  N   UNL A   1      39.383  30.671  30.428  1.00  0.00    -0.354 N 
ATOM     45  C   UNL A   1      38.962  32.835  34.178  1.00  0.00     0.074 A 
ATOM     46  C   UNL A   1      37.925  33.835  34.088  1.00  0.00     0.031 C 
ATOM     47  C   UNL A   1      38.845  30.142  28.319  1.00  0.00     0.029 A 
ATOM     48  C   UNL A   1      39.686  29.755  29.447  1.00  0.00     0.049 A 
ATOM     49  H   UNL A   1      39.856  30.717  31.290  1.00  0.00     0.167 HD
ATOM     50  C   UNL A   1      39.706  32.608  35.286  1.00  0.00     0.037 A 
ATOM     51  C   UNL A   1      40.528  28.704  29.467  1.00  0.00     0.037 A 
ATOM     52  C   UNL A   1      40.701  31.574  35.377  1.00  0.00     0.049 A 
ATOM     53  C   UNL A   1      41.314  28.441  30.721  1.00  0.00     0.074 A 
ATOM     54  C   UNL A   1      41.503  31.237  36.451  1.00  0.00     0.029 A 
ATOM     55  N   UNL A   1      41.013  30.695  34.348  1.00  0.00    -0.354 N 
ATOM     56  N   UNL A   1      41.263  29.070  31.872  1.00  0.00    -0.248 NA
ATOM     57  C   UNL A   1      42.282  27.339  30.679  1.00  0.00     0.031 C 
ATOM     58  C   UNL A   1      42.322  30.171  36.062  1.00  0.00     0.029 A 
ATOM     59  C   UNL A   1      42.003  29.819  34.760  1.00  0.00     0.049 A 
ATOM     60  H   UNL A   1      40.593  30.695  33.458  1.00  0.00     0.167 HD
ATOM     61  C   UNL A   1      42.198  28.451  32.687  1.00  0.00     0.074 A 
ATOM     62  C   UNL A   1      42.775  27.371  31.911  1.00  0.00     0.031 C 
ATOM     63  C   UNL A   1      42.560  28.760  33.956  1.00  0.00     0.037 A 
BRANCH  50  64
ATOM     64  C   UNL A   1      39.463  33.492  36.474  1.00  0.00     0.064 A 
ATOM     65  C   UNL A   1      40.076  34.750  36.595  1.00  0.00     0.173 A 
ATOM     66  C   UNL A   1      38.618  33.075  37.514  1.00  0.00     0.173 A 
ATOM     67  F   UNL A   1      40.911  35.186  35.640  1.00  0.00    -0.203 F 
ATOM     68  C   UNL A   1      39.881  35.538  37.726  1.00  0.00     0.198 A 
ATOM     69  C   UNL A   1      38.400  33.881  38.629  1.00  0.00     0.198 A 
ATOM     70  F   UNL A   1      38.006  31.883  37.451  1.00  0.00    -0.203 F 
ATOM     71  F   UNL A   1      40.530  36.705  37.847  1.00  0.00    -0.200 F 
ATOM     72  C   UNL A   1      39.040  35.106  38.739  1.00  0.00     0.200 A 
ATOM     73  F   UNL A   1      37.581  33.465  39.605  1.00  0.00    -0.200 F 
ATOM     74  F   UNL A   1      38.858  35.864  39.830  1.00  0.00    -0.200 F 
ENDBRANCH  50  64
BRANCH  51  75
ATOM     75  C   UNL A   1      40.617  27.807  28.283  1.00  0.00     0.064 A 
ATOM     76  C   UNL A   1      41.394  28.161  27.170  1.00  0.00     0.173 A 
ATOM     77  C   UNL A   1      39.989  26.552  28.263  1.00  0.00     0.173 A 
ATOM     78  F   UNL A   1      41.999  29.356  27.129  1.00  0.00    -0.203 F 
ATOM     79  C   UNL A   1      41.545  27.293  26.089  1.00  0.00     0.198 A 
ATOM     80  C   UNL A   1      40.164  25.674  27.195  1.00  0.00     0.198 A 
ATOM     81  F   UNL A   1      39.237  26.163  29.303  1.00  0.00    -0.203 F 
ATOM     82  F   UNL A   1      42.280  27.663  25.032  1.00  0.00    -0.200 F 
ATOM     83  C   UNL A   1      40.941  26.045  26.108  1.00  0.00     0.200 A 
ATOM     84  F   UNL A   1      39.591  24.463  27.226  1.00  0.00    -0.200 F 
ATOM     85  F   UNL A   1      41.109  25.200  25.082  1.00  0.00    -0.200 F 
ENDBRANCH  51  75
BRANCH  63  86
ATOM     86  C   UNL A   1      43.642  27.932  34.578  1.00  0.00     0.064 A 
ATOM     87  C   UNL A   1      43.346  26.722  35.222  1.00  0.00     0.173 A 
ATOM     88  C   UNL A   1      44.988  28.306  34.455  1.00  0.00     0.173 A 
ATOM     89  F   UNL A   1      42.072  26.331  35.371  1.00  0.00    -0.203 F 
ATOM     90  C   UNL A   1      44.362  25.918  35.729  1.00  0.00     0.198 A 
ATOM     91  C   UNL A   1      46.002  27.487  34.941  1.00  0.00     0.198 A 
ATOM     92  F   UNL A   1      45.318  29.450  33.838  1.00  0.00    -0.203 F 
ATOM     93  F   UNL A   1      44.057  24.778  36.364  1.00  0.00    -0.200 F 
ATOM     94  C   UNL A   1      45.688  26.296  35.580  1.00  0.00     0.200 A 
ATOM     95  F   UNL A   1      47.284  27.846  34.783  1.00  0.00    -0.200 F 
ATOM     96  F   UNL A   1      46.666  25.512  36.053  1.00  0.00    -0.200 F 
ENDBRANCH  63  86
ENDBRANCH  37  38
ENDBRANCH  30  32
ENDBRANCH  29  30
ENDBRANCH  28  29
ENDBRANCH   1  28
TORSDOF 16
ENDMDL
MODEL 2
REMARK VINA RESULT:     -12.6      1.298      2.578
REMARK SMILES CC[C@H](NC(=O)Cc1c(C)c2cc(Cl)c(OC)cc2oc1=O)C(=O)OCCOC(=O)c1ccc(-c2c3nc(c(-c4c(F)c(F)c(F)c(F)c4F)c4ccc([nH]4)c(-c4c(F)c(F)c(F)c(F)c4F)c4nc(c(-c5c(F)c(F)c(F)c(F)c5F)c5ccc2[nH]5)C=C4)C=C3)cc1
REMARK SMILES IDX 26 1 25 2 23 3 24 4 3 5 2 6 1 7 4 8 5 9 6 11 7 12 8 13 9 14
REMARK SMILES IDX 21 15 10 16 11 17 20 18 22 19 12 20 19 21 13 22 18 23 14 24
REMARK SMILES IDX 15 25 16 26 17 27 27 28 28 29 29 30 30 31 31 32 32 33 93 34
REMARK SMILES IDX 33 35 92 36 34 37 35 38 36 39 86 40 37 41 91 42 85 43 87 44
REMARK SMILES IDX 38 45 90 46 84 47 83 48 39 50 71 51 51 52 70 53 52 54 55 55
REMARK SMILES IDX 69 56 88 57 53 58 54 59 68 61 89 62 56 63 40 64 41 65 49 66
REMARK SMILES IDX 42 67 43 68 47 69 50 70 44 71 45 72 48 73 46 74 72 75 73 76
REMARK SMILES IDX 81 77 74 78 75 79 79 80 82 81 76 82 77 83 80 84 78 85 57 86
REMARK SMILES IDX 58 87 66 88 59 89 60 90 64 91 67 92 61 93 62 94 65 95 63 96
REMARK H PARENT 4 10 87 49 55 60
REMARK Flexibility Score: inf
ROOT
ATOM      1  C   UNL A   1      32.589  30.203  26.575  1.00  0.00     0.274 C 
ENDROOT
BRANCH   1   2
ATOM      2  O   UNL A   1      33.325  29.582  25.437  1.00  0.00    -0.461 OA
BRANCH   2   3
ATOM      3  C   UNL A   1      32.866  29.092  24.235  1.00  0.00     0.328 C 
ATOM      4  O   UNL A   1      33.460  29.259  23.176  1.00  0.00    -0.250 OA
BRANCH   3   5
ATOM      5  C   UNL A   1      31.758  27.938  24.459  1.00  0.00     0.192 C 
BRANCH   5   6
ATOM      6  C   UNL A   1      30.354  28.290  23.937  1.00  0.00     0.033 C 
ATOM      7  C   UNL A   1      29.513  27.054  23.676  1.00  0.00     0.007 C 
ENDBRANCH   5   6
BRANCH   5   8
ATOM      8  N   UNL A   1      31.590  27.264  25.742  1.00  0.00    -0.342 N 
ATOM      9  C   UNL A   1      31.826  25.970  26.046  1.00  0.00     0.225 C 
ATOM     10  H   UNL A   1      31.263  27.825  26.482  1.00  0.00     0.164 HD
ATOM     11  O   UNL A   1      31.241  25.481  27.010  1.00  0.00    -0.275 OA
BRANCH   9  12
ATOM     12  C   UNL A   1      32.895  25.244  25.306  1.00  0.00     0.143 C 
BRANCH  12  13
ATOM     13  C   UNL A   1      32.795  23.718  25.212  1.00  0.00     0.051 A 
ATOM     14  C   UNL A   1      32.924  22.291  26.071  1.00  0.00    -0.029 A 
ATOM     15  C   UNL A   1      32.126  23.689  23.321  1.00  0.00     0.340 A 
ATOM     16  C   UNL A   1      32.848  21.849  27.527  1.00  0.00     0.046 C 
ATOM     17  C   UNL A   1      32.637  20.600  25.229  1.00  0.00     0.023 A 
ATOM     18  O   UNL A   1      31.984  22.024  22.690  1.00  0.00    -0.422 OA
ATOM     19  O   UNL A   1      31.772  24.629  22.648  1.00  0.00    -0.246 OA
ATOM     20  C   UNL A   1      32.919  19.392  25.831  1.00  0.00     0.036 A 
ATOM     21  C   UNL A   1      32.175  20.480  23.582  1.00  0.00     0.142 A 
ATOM     22  C   UNL A   1      32.924  18.245  24.999  1.00  0.00     0.083 A 
ATOM     23  C   UNL A   1      32.236  19.347  22.812  1.00  0.00     0.095 A 
ATOM     24  Cl  UNL A   1      33.292  16.740  25.801  1.00  0.00    -0.080 Cl
ATOM     25  C   UNL A   1      32.693  18.246  23.557  1.00  0.00     0.141 A 
BRANCH  25  26
ATOM     26  O   UNL A   1      32.983  17.104  22.828  1.00  0.00    -0.495 OA
ATOM     27  C   UNL A   1      34.389  16.808  22.883  1.00  0.00     0.278 C 
ENDBRANCH  25  26
ENDBRANCH  12  13
ENDBRANCH   9  12
ENDBRANCH   5   8
ENDBRANCH   3   5
ENDBRANCH   2   3
ENDBRANCH   1   2
BRANCH   1  28
ATOM     28  C   UNL A   1      31.763  31.641  26.320  1.00  0.00     0.275 C 
BRANCH  28  29
ATOM     29  O   UNL A   1      31.864  33.044  27.377  1.00  0.00    -0.458 OA
BRANCH  29  30
ATOM     30  C   UNL A   1      32.892  34.153  28.494  1.00  0.00     0.338 C 
ATOM     31  O   UNL A   1      32.580  35.332  28.813  1.00  0.00    -0.246 OA
BRANCH  30  32
ATOM     32  C   UNL A   1      34.147  33.929  29.303  1.00  0.00     0.060 A 
ATOM     33  C   UNL A   1      34.153  32.870  30.212  1.00  0.00     0.016 A 
ATOM     34  C   UNL A   1      35.376  34.399  28.798  1.00  0.00     0.016 A 
ATOM     35  C   UNL A   1      35.349  32.419  30.752  1.00  0.00     0.010 A 
ATOM     36  C   UNL A   1      36.580  33.860  29.256  1.00  0.00     0.010 A 
ATOM     37  C   UNL A   1      36.579  32.893  30.269  1.00  0.00    -0.014 A 
BRANCH  37  38
ATOM     38  C   UNL A   1      37.836  32.350  30.849  1.00  0.00     0.031 A 
ATOM     39  C   UNL A   1      38.233  32.707  32.252  1.00  0.00     0.074 A 
ATOM     40  C   UNL A   1      38.558  31.461  30.136  1.00  0.00     0.049 A 
ATOM     41  N   UNL A   1      39.218  32.239  32.978  1.00  0.00    -0.248 NA
ATOM     42  C   UNL A   1      37.440  33.745  32.930  1.00  0.00     0.031 C 
ATOM     43  C   UNL A   1      38.290  31.084  28.746  1.00  0.00     0.029 A 
ATOM     44  N   UNL A   1      39.614  30.662  30.496  1.00  0.00    -0.354 N 
ATOM     45  C   UNL A   1      39.175  32.944  34.172  1.00  0.00     0.074 A 
ATOM     46  C   UNL A   1      38.108  33.910  34.061  1.00  0.00     0.031 C 
ATOM     47  C   UNL A   1      39.067  30.043  28.414  1.00  0.00     0.029 A 
ATOM     48  C   UNL A   1      39.933  29.720  29.543  1.00  0.00     0.049 A 
ATOM     49  H   UNL A   1      40.095  30.752  31.350  1.00  0.00     0.167 HD
ATOM     50  C   UNL A   1      39.938  32.777  35.278  1.00  0.00     0.037 A 
ATOM     51  C   UNL A   1      40.804  28.695  29.589  1.00  0.00     0.037 A 
ATOM     52  C   UNL A   1      40.963  31.776  35.393  1.00  0.00     0.049 A 
ATOM     53  C   UNL A   1      41.612  28.499  30.842  1.00  0.00     0.074 A 
ATOM     54  C   UNL A   1      41.787  31.500  36.468  1.00  0.00     0.029 A 
ATOM     55  N   UNL A   1      41.288  30.870  34.392  1.00  0.00    -0.354 N 
ATOM     56  N   UNL A   1      41.556  29.166  31.970  1.00  0.00    -0.248 NA
ATOM     57  C   UNL A   1      42.612  27.425  30.826  1.00  0.00     0.031 C 
ATOM     58  C   UNL A   1      42.632  30.445  36.106  1.00  0.00     0.029 A 
ATOM     59  C   UNL A   1      42.308  30.038  34.821  1.00  0.00     0.049 A 
ATOM     60  H   UNL A   1      40.858  30.827  33.508  1.00  0.00     0.167 HD
ATOM     61  C   UNL A   1      42.519  28.604  32.795  1.00  0.00     0.074 A 
ATOM     62  C   UNL A   1      43.118  27.514  32.050  1.00  0.00     0.031 C 
ATOM     63  C   UNL A   1      42.887  28.968  34.048  1.00  0.00     0.037 A 
BRANCH  50  64
ATOM     64  C   UNL A   1      39.683  33.696  36.438  1.00  0.00     0.064 A 
ATOM     65  C   UNL A   1      38.858  33.319  37.510  1.00  0.00     0.173 A 
ATOM     66  C   UNL A   1      40.259  34.974  36.476  1.00  0.00     0.173 A 
ATOM     67  F   UNL A   1      38.264  32.116  37.512  1.00  0.00    -0.203 F 
ATOM     68  C   UNL A   1      38.590  34.200  38.554  1.00  0.00     0.198 A 
ATOM     69  C   UNL A   1      40.015  35.840  37.539  1.00  0.00     0.198 A 
ATOM     70  F   UNL A   1      41.056  35.387  35.479  1.00  0.00    -0.203 F 
ATOM     71  F   UNL A   1      37.746  33.840  39.532  1.00  0.00    -0.200 F 
ATOM     72  C   UNL A   1      39.172  35.457  38.571  1.00  0.00     0.200 A 
ATOM     73  F   UNL A   1      40.584  37.055  37.558  1.00  0.00    -0.200 F 
ATOM     74  F   UNL A   1      38.909  36.306  39.575  1.00  0.00    -0.200 F 
ENDBRANCH  50  64
BRANCH  51  75
ATOM     75  C   UNL A   1      40.906  27.760  28.437  1.00  0.00     0.064 A 
ATOM     76  C   UNL A   1      40.139  26.586  28.393  1.00  0.00     0.173 A 
ATOM     77  C   UNL A   1      41.715  28.047  27.327  1.00  0.00     0.173 A 
ATOM     78  F   UNL A   1      39.365  26.254  29.435  1.00  0.00    -0.203 F 
ATOM     79  C   UNL A   1      40.172  25.743  27.283  1.00  0.00     0.198 A 
ATOM     80  C   UNL A   1      41.725  27.220  26.206  1.00  0.00     0.198 A 
ATOM     81  F   UNL A   1      42.467  29.158  27.316  1.00  0.00    -0.203 F 
ATOM     82  F   UNL A   1      39.441  24.620  27.274  1.00  0.00    -0.200 F 
ATOM     83  C   UNL A   1      40.955  26.067  26.185  1.00  0.00     0.200 A 
ATOM     84  F   UNL A   1      42.471  27.546  25.141  1.00  0.00    -0.200 F 
ATOM     85  F   UNL A   1      40.964  25.272  25.107  1.00  0.00    -0.200 F 
ENDBRANCH  51  75
BRANCH  63  86
ATOM     86  C   UNL A   1      43.999  28.193  34.685  1.00  0.00     0.064 A 
ATOM     87  C   UNL A   1      45.337  28.575  34.515  1.00  0.00     0.173 A 
ATOM     88  C   UNL A   1      43.719  27.116  35.538  1.00  0.00     0.173 A 
ATOM     89  F   UNL A   1      45.649  29.594  33.700  1.00  0.00    -0.203 F 
ATOM     90  C   UNL A   1      46.359  27.900  35.172  1.00  0.00     0.198 A 
ATOM     91  C   UNL A   1      44.743  26.458  36.213  1.00  0.00     0.198 A 
ATOM     92  F   UNL A   1      42.453  26.721  35.738  1.00  0.00    -0.203 F 
ATOM     93  F   UNL A   1      47.634  28.263  34.977  1.00  0.00    -0.200 F 
ATOM     94  C   UNL A   1      46.062  26.848  36.028  1.00  0.00     0.200 A 
ATOM     95  F   UNL A   1      44.453  25.453  37.050  1.00  0.00    -0.200 F 
ATOM     96  F   UNL A   1      47.046  26.210  36.673  1.00  0.00    -0.200 F 
ENDBRANCH  63  86
ENDBRANCH  37  38
ENDBRANCH  30  32
ENDBRANCH  29  30
ENDBRANCH  28  29
ENDBRANCH   1  28
TORSDOF 16
ENDMDL
MODEL 3
REMARK VINA RESULT:     -12.3      7.470     14.981
REMARK SMILES CC[C@H](NC(=O)Cc1c(C)c2cc(Cl)c(OC)cc2oc1=O)C(=O)OCCOC(=O)c1ccc(-c2c3nc(c(-c4c(F)c(F)c(F)c(F)c4F)c4ccc([nH]4)c(-c4c(F)c(F)c(F)c(F)c4F)c4nc(c(-c5c(F)c(F)c(F)c(F)c5F)c5ccc2[nH]5)C=C4)C=C3)cc1
REMARK SMILES IDX 26 1 25 2 23 3 24 4 3 5 2 6 1 7 4 8 5 9 6 11 7 12 8 13 9 14
REMARK SMILES IDX 21 15 10 16 11 17 20 18 22 19 12 20 19 21 13 22 18 23 14 24
REMARK SMILES IDX 15 25 16 26 17 27 27 28 28 29 29 30 30 31 31 32 32 33 93 34
REMARK SMILES IDX 33 35 92 36 34 37 35 38 36 39 86 40 37 41 91 42 85 43 87 44
REMARK SMILES IDX 38 45 90 46 84 47 83 48 39 50 71 51 51 52 70 53 52 54 55 55
REMARK SMILES IDX 69 56 88 57 53 58 54 59 68 61 89 62 56 63 40 64 41 65 49 66
REMARK SMILES IDX 42 67 43 68 47 69 50 70 44 71 45 72 48 73 46 74 72 75 73 76
REMARK SMILES IDX 81 77 74 78 75 79 79 80 82 81 76 82 77 83 80 84 78 85 57 86
REMARK SMILES IDX 58 87 66 88 59 89 60 90 64 91 67 92 61 93 62 94 65 95 63 96
REMARK H PARENT 4 10 87 49 55 60
REMARK Flexibility Score: inf
ROOT
ATOM      1  C   UNL A   1      50.692  22.605  35.836  1.00  0.00     0.274 C 
ENDROOT
BRANCH   1   2
ATOM      2  O   UNL A   1      49.666  21.559  36.108  1.00  0.00    -0.461 OA
BRANCH   2   3
ATOM      3  C   UNL A   1      48.863  20.847  35.246  1.00  0.00     0.328 C 
ATOM      4  O   UNL A   1      49.306  20.183  34.315  1.00  0.00    -0.250 OA
BRANCH   3   5
ATOM      5  C   UNL A   1      47.386  20.632  35.866  1.00  0.00     0.192 C 
BRANCH   5   6
ATOM      6  C   UNL A   1      46.237  20.817  34.859  1.00  0.00     0.033 C 
ATOM      7  C   UNL A   1      45.247  21.874  35.309  1.00  0.00     0.007 C 
ENDBRANCH   5   6
BRANCH   5   8
ATOM      8  N   UNL A   1      46.974  21.255  37.118  1.00  0.00    -0.342 N 
ATOM      9  C   UNL A   1      46.450  20.667  38.215  1.00  0.00     0.225 C 
ATOM     10  H   UNL A   1      47.093  22.232  37.171  1.00  0.00     0.164 HD
ATOM     11  O   UNL A   1      45.776  21.355  38.980  1.00  0.00    -0.275 OA
BRANCH   9  12
ATOM     12  C   UNL A   1      46.841  19.266  38.530  1.00  0.00     0.143 C 
BRANCH  12  13
ATOM     13  C   UNL A   1      45.887  18.430  39.391  1.00  0.00     0.051 A 
ATOM     14  C   UNL A   1      45.408  18.092  40.955  1.00  0.00    -0.029 A 
ATOM     15  C   UNL A   1      44.866  17.659  37.845  1.00  0.00     0.340 A 
ATOM     16  C   UNL A   1      45.467  18.774  42.316  1.00  0.00     0.046 C 
ATOM     17  C   UNL A   1      44.026  16.823  41.314  1.00  0.00     0.023 A 
ATOM     18  O   UNL A   1      43.666  16.448  38.377  1.00  0.00    -0.422 OA
ATOM     19  O   UNL A   1      44.941  17.973  36.680  1.00  0.00    -0.246 OA
ATOM     20  C   UNL A   1      43.727  16.361  42.579  1.00  0.00     0.036 A 
ATOM     21  C   UNL A   1      43.180  16.029  40.052  1.00  0.00     0.142 A 
ATOM     22  C   UNL A   1      42.881  15.227  42.666  1.00  0.00     0.083 A 
ATOM     23  C   UNL A   1      42.403  14.908  40.188  1.00  0.00     0.095 A 
ATOM     24  Cl  UNL A   1      42.534  14.674  44.283  1.00  0.00    -0.080 Cl
ATOM     25  C   UNL A   1      42.337  14.490  41.529  1.00  0.00     0.141 A 
BRANCH  25  26
ATOM     26  O   UNL A   1      41.746  13.256  41.746  1.00  0.00    -0.495 OA
ATOM     27  C   UNL A   1      41.039  12.816  40.574  1.00  0.00     0.278 C 
ENDBRANCH  25  26
ENDBRANCH  12  13
ENDBRANCH   9  12
ENDBRANCH   5   8
ENDBRANCH   3   5
ENDBRANCH   2   3
ENDBRANCH   1   2
BRANCH   1  28
ATOM     28  C   UNL A   1      50.355  24.199  36.238  1.00  0.00     0.275 C 
BRANCH  28  29
ATOM     29  O   UNL A   1      48.807  24.986  35.956  1.00  0.00    -0.458 OA
BRANCH  29  30
ATOM     30  C   UNL A   1      46.983  25.160  36.378  1.00  0.00     0.338 C 
ATOM     31  O   UNL A   1      46.393  24.509  37.281  1.00  0.00    -0.246 OA
BRANCH  30  32
ATOM     32  C   UNL A   1      45.894  26.087  35.893  1.00  0.00     0.060 A 
ATOM     33  C   UNL A   1      46.279  27.235  35.200  1.00  0.00     0.016 A 
ATOM     34  C   UNL A   1      44.601  25.568  35.684  1.00  0.00     0.016 A 
ATOM     35  C   UNL A   1      45.345  27.956  34.469  1.00  0.00     0.010 A 
ATOM     36  C   UNL A   1      43.699  26.233  34.851  1.00  0.00     0.010 A 
ATOM     37  C   UNL A   1      44.049  27.457  34.269  1.00  0.00    -0.014 A 
BRANCH  37  38
ATOM     38  C   UNL A   1      43.095  28.245  33.443  1.00  0.00     0.031 A 
ATOM     39  C   UNL A   1      42.862  27.876  32.006  1.00  0.00     0.074 A 
ATOM     40  C   UNL A   1      42.376  29.226  34.026  1.00  0.00     0.049 A 
ATOM     41  N   UNL A   1      41.983  28.355  31.162  1.00  0.00    -0.248 NA
ATOM     42  C   UNL A   1      43.744  26.852  31.425  1.00  0.00     0.031 C 
ATOM     43  C   UNL A   1      42.560  29.699  35.400  1.00  0.00     0.029 A 
ATOM     44  N   UNL A   1      41.303  29.951  33.570  1.00  0.00    -0.354 N 
ATOM     45  C   UNL A   1      42.229  27.714  29.956  1.00  0.00     0.074 A 
ATOM     46  C   UNL A   1      43.372  26.855  30.155  1.00  0.00     0.031 C 
ATOM     47  C   UNL A   1      41.560  30.534  35.717  1.00  0.00     0.029 A 
ATOM     48  C   UNL A   1      40.701  30.706  34.550  1.00  0.00     0.049 A 
ATOM     49  H   UNL A   1      40.996  29.933  32.635  1.00  0.00     0.167 HD
ATOM     50  C   UNL A   1      41.542  27.810  28.794  1.00  0.00     0.037 A 
ATOM     51  C   UNL A   1      39.566  31.430  34.518  1.00  0.00     0.037 A 
ATOM     52  C   UNL A   1      40.375  28.633  28.626  1.00  0.00     0.049 A 
ATOM     53  C   UNL A   1      38.793  31.490  33.230  1.00  0.00     0.074 A 
ATOM     54  C   UNL A   1      39.587  28.797  27.503  1.00  0.00     0.029 A 
ATOM     55  N   UNL A   1      39.821  29.418  29.627  1.00  0.00    -0.354 N 
ATOM     56  N   UNL A   1      39.031  30.872  32.097  1.00  0.00    -0.248 NA
ATOM     57  C   UNL A   1      37.609  32.357  33.206  1.00  0.00     0.031 C 
ATOM     58  C   UNL A   1      38.569  29.705  27.817  1.00  0.00     0.029 A 
ATOM     59  C   UNL A   1      38.702  30.077  29.146  1.00  0.00     0.049 A 
ATOM     60  H   UNL A   1      40.171  29.496  30.544  1.00  0.00     0.167 HD
ATOM     61  C   UNL A   1      38.036  31.281  31.223  1.00  0.00     0.074 A 
ATOM     62  C   UNL A   1      37.168  32.173  31.968  1.00  0.00     0.031 C 
ATOM     63  C   UNL A   1      37.867  30.964  29.915  1.00  0.00     0.037 A 
BRANCH  50  64
ATOM     64  C   UNL A   1      42.040  27.005  27.628  1.00  0.00     0.064 A 
ATOM     65  C   UNL A   1      41.643  25.673  27.428  1.00  0.00     0.173 A 
ATOM     66  C   UNL A   1      42.937  27.565  26.705  1.00  0.00     0.173 A 
ATOM     67  F   UNL A   1      40.806  25.084  28.295  1.00  0.00    -0.203 F 
ATOM     68  C   UNL A   1      42.152  24.923  26.372  1.00  0.00     0.198 A 
ATOM     69  C   UNL A   1      43.418  26.821  25.630  1.00  0.00     0.198 A 
ATOM     70  F   UNL A   1      43.350  28.833  26.846  1.00  0.00    -0.203 F 
ATOM     71  F   UNL A   1      41.808  23.634  26.242  1.00  0.00    -0.200 F 
ATOM     72  C   UNL A   1      43.035  25.498  25.472  1.00  0.00     0.200 A 
ATOM     73  F   UNL A   1      44.267  27.380  24.756  1.00  0.00    -0.200 F 
ATOM     74  F   UNL A   1      43.528  24.772  24.458  1.00  0.00    -0.200 F 
ENDBRANCH  50  64
BRANCH  51  75
ATOM     75  C   UNL A   1      39.082  32.100  35.755  1.00  0.00     0.064 A 
ATOM     76  C   UNL A   1      38.304  31.403  36.692  1.00  0.00     0.173 A 
ATOM     77  C   UNL A   1      39.438  33.422  36.062  1.00  0.00     0.173 A 
ATOM     78  F   UNL A   1      37.919  30.145  36.439  1.00  0.00    -0.203 F 
ATOM     79  C   UNL A   1      37.911  32.000  37.889  1.00  0.00     0.198 A 
ATOM     80  C   UNL A   1      39.068  34.008  37.271  1.00  0.00     0.198 A 
ATOM     81  F   UNL A   1      40.182  34.132  35.201  1.00  0.00    -0.203 F 
ATOM     82  F   UNL A   1      37.155  31.318  38.760  1.00  0.00    -0.200 F 
ATOM     83  C   UNL A   1      38.304  33.297  38.184  1.00  0.00     0.200 A 
ATOM     84  F   UNL A   1      39.464  35.256  37.558  1.00  0.00    -0.200 F 
ATOM     85  F   UNL A   1      37.948  33.860  39.347  1.00  0.00    -0.200 F 
ENDBRANCH  51  75
BRANCH  63  86
ATOM     86  C   UNL A   1      36.711  31.597  29.204  1.00  0.00     0.064 A 
ATOM     87  C   UNL A   1      35.578  30.848  28.854  1.00  0.00     0.173 A 
ATOM     88  C   UNL A   1      36.699  32.976  28.948  1.00  0.00     0.173 A 
ATOM     89  F   UNL A   1      35.552  29.525  29.072  1.00  0.00    -0.203 F 
ATOM     90  C   UNL A   1      34.476  31.457  28.265  1.00  0.00     0.198 A 
ATOM     91  C   UNL A   1      35.584  33.585  28.381  1.00  0.00     0.198 A 
ATOM     92  F   UNL A   1      37.756  33.734  29.275  1.00  0.00    -0.203 F 
ATOM     93  F   UNL A   1      33.413  30.719  27.914  1.00  0.00    -0.200 F 
ATOM     94  C   UNL A   1      34.475  32.825  28.037  1.00  0.00     0.200 A 
ATOM     95  F   UNL A   1      35.579  34.909  28.175  1.00  0.00    -0.200 F 
ATOM     96  F   UNL A   1      33.405  33.413  27.485  1.00  0.00    -0.200 F 
ENDBRANCH  63  86
ENDBRANCH  37  38
ENDBRANCH  30  32
ENDBRANCH  29  30
ENDBRANCH  28  29
ENDBRANCH   1  28
TORSDOF 16
ENDMDL
