MODEL 1
REMARK VINA RESULT:     -10.3      0.000      0.000
REMARK SMILES Cc1ccnc(NC2(CC(=O)OCCOC(=O)c3ccc(-c4c5nc(c(-c6c(F)c(F)c(F)c(F)c6F)c6ccc([nH]6)c(-c6c(F)c(F)c(F)c(F)c6F)c6nc(c(-c7c(F)c(F)c(F)c(F)c7F)c7ccc4[nH]7)C=C6)C=C5)cc3)CCC2)n1
REMARK SMILES IDX 13 1 12 2 10 3 11 4 9 5 8 6 81 7 83 8 82 9 7 10 6 12 1 13
REMARK SMILES IDX 2 14 3 15 84 16 4 17 5 18 14 19 15 20 16 21 17 22 18 23
REMARK SMILES IDX 19 24 80 25 20 26 79 27 21 28 22 29 23 30 73 31 24 32 78 33
REMARK SMILES IDX 72 34 74 35 25 36 77 37 71 38 70 39 26 41 58 42 38 43 57 44
REMARK SMILES IDX 39 45 42 46 56 47 75 48 40 49 41 50 55 52 76 53 43 54 27 55
REMARK SMILES IDX 28 56 36 57 29 58 30 59 34 60 37 61 31 62 32 63 35 64 33 65
REMARK SMILES IDX 59 66 60 67 68 68 61 69 62 70 66 71 69 72 63 73 64 74 67 75
REMARK SMILES IDX 65 76 44 77 45 78 53 79 46 80 47 81 51 82 54 83 48 84 49 85
REMARK SMILES IDX 52 86 50 87
REMARK H PARENT 7 11 74 40 42 51
REMARK Flexibility Score: inf
ROOT
ATOM      1  C   UNL A   1      40.563  19.973  26.698  1.00  0.00     0.274 C 
ENDROOT
BRANCH   1   2
ATOM      2  O   UNL A   1      41.493  19.260  25.857  1.00  0.00    -0.462 OA
BRANCH   2   3
ATOM      3  C   UNL A   1      42.598  18.782  26.478  1.00  0.00     0.308 C 
ATOM      4  O   UNL A   1      42.675  18.538  27.679  1.00  0.00    -0.252 OA
BRANCH   3   5
ATOM      5  C   UNL A   1      43.779  18.598  25.566  1.00  0.00     0.151 C 
BRANCH   5   6
ATOM      6  C   UNL A   1      44.435  19.830  24.926  1.00  0.00     0.051 C 
ATOM      7  C   UNL A   1      45.037  19.455  23.535  1.00  0.00     0.029 C 
ATOM      8  C   UNL A   1      45.877  20.177  25.383  1.00  0.00     0.029 C 
ATOM      9  C   UNL A   1      46.407  19.310  24.223  1.00  0.00     0.005 C 
BRANCH   6  10
ATOM     10  N   UNL A   1      43.538  20.940  24.856  1.00  0.00    -0.348 N 
ATOM     11  H   UNL A   1      42.751  20.785  24.284  1.00  0.00     0.164 HD
BRANCH  10  12
ATOM     12  C   UNL A   1      43.568  22.201  25.448  1.00  0.00     0.223 A 
ATOM     13  C   UNL A   1      42.835  23.793  28.655  1.00  0.00     0.067 C 
ATOM     14  C   UNL A   1      43.234  23.633  27.221  1.00  0.00     0.043 A 
ATOM     15  C   UNL A   1      43.526  24.727  26.436  1.00  0.00     0.044 A 
ATOM     16  N   UNL A   1      43.263  22.374  26.740  1.00  0.00    -0.218 NA
ATOM     17  C   UNL A   1      43.853  24.450  25.132  1.00  0.00     0.117 A 
ATOM     18  N   UNL A   1      43.885  23.207  24.622  1.00  0.00    -0.222 NA
ENDBRANCH  10  12
ENDBRANCH   6  10
ENDBRANCH   5   6
ENDBRANCH   3   5
ENDBRANCH   2   3
ENDBRANCH   1   2
BRANCH   1  19
ATOM     19  C   UNL A   1      39.936  21.146  25.952  1.00  0.00     0.275 C 
BRANCH  19  20
ATOM     20  O   UNL A   1      39.884  22.302  26.808  1.00  0.00    -0.458 OA
BRANCH  20  21
ATOM     21  C   UNL A   1      38.996  23.252  26.438  1.00  0.00     0.338 C 
ATOM     22  O   UNL A   1      38.019  23.118  25.725  1.00  0.00    -0.246 OA
BRANCH  21  23
ATOM     23  C   UNL A   1      39.379  24.539  27.033  1.00  0.00     0.060 A 
ATOM     24  C   UNL A   1      40.058  25.496  26.274  1.00  0.00     0.016 A 
ATOM     25  C   UNL A   1      39.134  24.751  28.389  1.00  0.00     0.016 A 
ATOM     26  C   UNL A   1      40.513  26.667  26.880  1.00  0.00     0.010 A 
ATOM     27  C   UNL A   1      39.544  25.946  28.982  1.00  0.00     0.010 A 
ATOM     28  C   UNL A   1      40.244  26.908  28.234  1.00  0.00    -0.014 A 
BRANCH  28  29
ATOM     29  C   UNL A   1      40.671  28.174  28.877  1.00  0.00     0.031 A 
ATOM     30  C   UNL A   1      42.080  28.339  29.363  1.00  0.00     0.074 A 
ATOM     31  C   UNL A   1      39.772  29.159  29.056  1.00  0.00     0.049 A 
ATOM     32  N   UNL A   1      42.595  29.293  30.097  1.00  0.00    -0.248 NA
ATOM     33  C   UNL A   1      43.037  27.291  28.977  1.00  0.00     0.031 C 
ATOM     34  C   UNL A   1      38.384  29.127  28.600  1.00  0.00     0.029 A 
ATOM     35  N   UNL A   1      39.892  30.372  29.686  1.00  0.00    -0.354 N 
ATOM     36  C   UNL A   1      43.925  28.948  30.286  1.00  0.00     0.074 A 
ATOM     37  C   UNL A   1      44.139  27.694  29.594  1.00  0.00     0.031 C 
ATOM     38  C   UNL A   1      37.777  30.267  28.967  1.00  0.00     0.029 A 
ATOM     39  C   UNL A   1      38.717  31.080  29.731  1.00  0.00     0.049 A 
ATOM     40  H   UNL A   1      40.737  30.701  30.070  1.00  0.00     0.167 HD
ATOM     41  C   UNL A   1      44.874  29.618  30.980  1.00  0.00     0.037 A 
ATOM     42  C   UNL A   1      38.421  32.237  30.352  1.00  0.00     0.037 A 
ATOM     43  C   UNL A   1      44.664  30.878  31.644  1.00  0.00     0.049 A 
ATOM     44  C   UNL A   1      39.482  32.938  31.150  1.00  0.00     0.074 A 
ATOM     45  C   UNL A   1      45.574  31.647  32.348  1.00  0.00     0.029 A 
ATOM     46  N   UNL A   1      43.455  31.555  31.681  1.00  0.00    -0.354 N 
ATOM     47  N   UNL A   1      40.731  32.593  31.345  1.00  0.00    -0.248 NA
ATOM     48  C   UNL A   1      39.087  34.181  31.827  1.00  0.00     0.031 C 
ATOM     49  C   UNL A   1      44.908  32.777  32.837  1.00  0.00     0.029 A 
ATOM     50  C   UNL A   1      43.590  32.725  32.411  1.00  0.00     0.049 A 
ATOM     51  H   UNL A   1      42.623  31.250  31.252  1.00  0.00     0.167 HD
ATOM     52  C   UNL A   1      41.275  33.577  32.158  1.00  0.00     0.074 A 
ATOM     53  C   UNL A   1      40.223  34.541  32.410  1.00  0.00     0.031 C 
ATOM     54  C   UNL A   1      42.531  33.669  32.655  1.00  0.00     0.037 A 
BRANCH  41  55
ATOM     55  C   UNL A   1      46.232  28.990  31.079  1.00  0.00     0.064 A 
ATOM     56  C   UNL A   1      47.240  29.267  30.145  1.00  0.00     0.173 A 
ATOM     57  C   UNL A   1      46.539  28.139  32.150  1.00  0.00     0.173 A 
ATOM     58  F   UNL A   1      46.989  30.066  29.098  1.00  0.00    -0.203 F 
ATOM     59  C   UNL A   1      48.506  28.701  30.273  1.00  0.00     0.198 A 
ATOM     60  C   UNL A   1      47.811  27.590  32.285  1.00  0.00     0.198 A 
ATOM     61  F   UNL A   1      45.608  27.847  33.071  1.00  0.00    -0.203 F 
ATOM     62  F   UNL A   1      49.448  28.954  29.353  1.00  0.00    -0.200 F 
ATOM     63  C   UNL A   1      48.792  27.868  31.345  1.00  0.00     0.200 A 
ATOM     64  F   UNL A   1      48.089  26.791  33.326  1.00  0.00    -0.200 F 
ATOM     65  F   UNL A   1      50.013  27.329  31.469  1.00  0.00    -0.200 F 
ENDBRANCH  41  55
BRANCH  42  66
ATOM     66  C   UNL A   1      37.044  32.780  30.267  1.00  0.00     0.064 A 
ATOM     67  C   UNL A   1      36.104  32.519  31.271  1.00  0.00     0.173 A 
ATOM     68  C   UNL A   1      36.648  33.587  29.189  1.00  0.00     0.173 A 
ATOM     69  F   UNL A   1      36.433  31.732  32.306  1.00  0.00    -0.203 F 
ATOM     70  C   UNL A   1      34.815  33.042  31.200  1.00  0.00     0.198 A 
ATOM     71  C   UNL A   1      35.366  34.127  29.131  1.00  0.00     0.198 A 
ATOM     72  F   UNL A   1      37.513  33.863  28.203  1.00  0.00    -0.203 F 
ATOM     73  F   UNL A   1      33.924  32.753  32.159  1.00  0.00    -0.200 F 
ATOM     74  C   UNL A   1      34.449  33.850  30.134  1.00  0.00     0.200 A 
ATOM     75  F   UNL A   1      35.019  34.915  28.104  1.00  0.00    -0.200 F 
ATOM     76  F   UNL A   1      33.211  34.359  30.071  1.00  0.00    -0.200 F 
ENDBRANCH  42  66
BRANCH  54  77
ATOM     77  C   UNL A   1      42.838  34.861  33.508  1.00  0.00     0.064 A 
ATOM     78  C   UNL A   1      43.290  36.062  32.944  1.00  0.00     0.173 A 
ATOM     79  C   UNL A   1      42.651  34.811  34.897  1.00  0.00     0.173 A 
ATOM     80  F   UNL A   1      43.501  36.150  31.622  1.00  0.00    -0.203 F 
ATOM     81  C   UNL A   1      43.559  37.170  33.744  1.00  0.00     0.198 A 
ATOM     82  C   UNL A   1      42.903  35.925  35.691  1.00  0.00     0.198 A 
ATOM     83  F   UNL A   1      42.219  33.683  35.480  1.00  0.00    -0.203 F 
ATOM     84  F   UNL A   1      44.022  38.298  33.190  1.00  0.00    -0.200 F 
ATOM     85  C   UNL A   1      43.360  37.101  35.115  1.00  0.00     0.200 A 
ATOM     86  F   UNL A   1      42.705  35.861  37.015  1.00  0.00    -0.200 F 
ATOM     87  F   UNL A   1      43.618  38.168  35.884  1.00  0.00    -0.200 F 
ENDBRANCH  54  77
ENDBRANCH  28  29
ENDBRANCH  21  23
ENDBRANCH  20  21
ENDBRANCH  19  20
ENDBRANCH   1  19
TORSDOF 14
ENDMDL
MODEL 2
REMARK VINA RESULT:     -10.1      4.064     11.653
REMARK SMILES Cc1ccnc(NC2(CC(=O)OCCOC(=O)c3ccc(-c4c5nc(c(-c6c(F)c(F)c(F)c(F)c6F)c6ccc([nH]6)c(-c6c(F)c(F)c(F)c(F)c6F)c6nc(c(-c7c(F)c(F)c(F)c(F)c7F)c7ccc4[nH]7)C=C6)C=C5)cc3)CCC2)n1
REMARK SMILES IDX 13 1 12 2 10 3 11 4 9 5 8 6 81 7 83 8 82 9 7 10 6 12 1 13
REMARK SMILES IDX 2 14 3 15 84 16 4 17 5 18 14 19 15 20 16 21 17 22 18 23
REMARK SMILES IDX 19 24 80 25 20 26 79 27 21 28 22 29 23 30 73 31 24 32 78 33
REMARK SMILES IDX 72 34 74 35 25 36 77 37 71 38 70 39 26 41 58 42 38 43 57 44
REMARK SMILES IDX 39 45 42 46 56 47 75 48 40 49 41 50 55 52 76 53 43 54 27 55
REMARK SMILES IDX 28 56 36 57 29 58 30 59 34 60 37 61 31 62 32 63 35 64 33 65
REMARK SMILES IDX 59 66 60 67 68 68 61 69 62 70 66 71 69 72 63 73 64 74 67 75
REMARK SMILES IDX 65 76 44 77 45 78 53 79 46 80 47 81 51 82 54 83 48 84 49 85
REMARK SMILES IDX 52 86 50 87
REMARK H PARENT 7 11 74 40 42 51
REMARK Flexibility Score: inf
ROOT
ATOM      1  C   UNL A   1      34.005  33.809  28.148  1.00  0.00     0.274 C 
ENDROOT
BRANCH   1   2
ATOM      2  O   UNL A   1      32.896  34.239  28.963  1.00  0.00    -0.462 OA
BRANCH   2   3
ATOM      3  C   UNL A   1      32.883  35.552  29.292  1.00  0.00     0.308 C 
ATOM      4  O   UNL A   1      32.170  36.399  28.761  1.00  0.00    -0.252 OA
BRANCH   3   5
ATOM      5  C   UNL A   1      33.868  35.922  30.367  1.00  0.00     0.151 C 
BRANCH   5   6
ATOM      6  C   UNL A   1      33.631  35.436  31.804  1.00  0.00     0.051 C 
ATOM      7  C   UNL A   1      32.171  35.766  32.248  1.00  0.00     0.029 C 
ATOM      8  C   UNL A   1      34.119  36.363  32.950  1.00  0.00     0.029 C 
ATOM      9  C   UNL A   1      32.722  37.018  32.956  1.00  0.00     0.005 C 
BRANCH   6  10
ATOM     10  N   UNL A   1      33.955  34.054  31.965  1.00  0.00    -0.348 N 
ATOM     11  H   UNL A   1      33.173  33.472  32.106  1.00  0.00     0.164 HD
BRANCH  10  12
ATOM     12  C   UNL A   1      35.171  33.375  31.957  1.00  0.00     0.223 A 
ATOM     13  C   UNL A   1      38.150  33.015  29.871  1.00  0.00     0.067 C 
ATOM     14  C   UNL A   1      37.191  32.813  31.002  1.00  0.00     0.043 A 
ATOM     15  C   UNL A   1      37.436  31.880  31.986  1.00  0.00     0.044 A 
ATOM     16  N   UNL A   1      36.073  33.567  30.986  1.00  0.00    -0.218 NA
ATOM     17  C   UNL A   1      36.468  31.773  32.954  1.00  0.00     0.117 A 
ATOM     18  N   UNL A   1      35.341  32.506  32.963  1.00  0.00    -0.222 NA
ENDBRANCH  10  12
ENDBRANCH   6  10
ENDBRANCH   5   6
ENDBRANCH   3   5
ENDBRANCH   2   3
ENDBRANCH   1   2
BRANCH   1  19
ATOM     19  C   UNL A   1      33.871  32.338  27.769  1.00  0.00     0.275 C 
BRANCH  19  20
ATOM     20  O   UNL A   1      34.681  31.529  28.641  1.00  0.00    -0.458 OA
BRANCH  20  21
ATOM     21  C   UNL A   1      34.943  30.282  28.190  1.00  0.00     0.338 C 
ATOM     22  O   UNL A   1      34.189  29.531  27.601  1.00  0.00    -0.246 OA
BRANCH  21  23
ATOM     23  C   UNL A   1      36.329  29.924  28.520  1.00  0.00     0.060 A 
ATOM     24  C   UNL A   1      37.356  30.138  27.598  1.00  0.00     0.016 A 
ATOM     25  C   UNL A   1      36.586  29.286  29.733  1.00  0.00     0.016 A 
ATOM     26  C   UNL A   1      38.647  29.694  27.880  1.00  0.00     0.010 A 
ATOM     27  C   UNL A   1      37.889  28.888  30.037  1.00  0.00     0.010 A 
ATOM     28  C   UNL A   1      38.927  29.082  29.109  1.00  0.00    -0.014 A 
BRANCH  28  29
ATOM     29  C   UNL A   1      40.306  28.656  29.446  1.00  0.00     0.031 A 
ATOM     30  C   UNL A   1      41.203  29.554  30.244  1.00  0.00     0.074 A 
ATOM     31  C   UNL A   1      40.759  27.472  28.995  1.00  0.00     0.049 A 
ATOM     32  N   UNL A   1      42.483  29.437  30.490  1.00  0.00    -0.248 NA
ATOM     33  C   UNL A   1      40.581  30.746  30.839  1.00  0.00     0.031 C 
ATOM     34  C   UNL A   1      39.973  26.500  28.238  1.00  0.00     0.029 A 
ATOM     35  N   UNL A   1      42.000  26.894  29.097  1.00  0.00    -0.354 N 
ATOM     36  C   UNL A   1      42.828  30.550  31.243  1.00  0.00     0.074 A 
ATOM     37  C   UNL A   1      41.622  31.335  31.411  1.00  0.00     0.031 C 
ATOM     38  C   UNL A   1      40.749  25.446  27.940  1.00  0.00     0.029 A 
ATOM     39  C   UNL A   1      42.098  25.695  28.436  1.00  0.00     0.049 A 
ATOM     40  H   UNL A   1      42.747  27.300  29.595  1.00  0.00     0.167 HD
ATOM     41  C   UNL A   1      44.041  30.883  31.741  1.00  0.00     0.037 A 
ATOM     42  C   UNL A   1      43.166  24.906  28.219  1.00  0.00     0.037 A 
ATOM     43  C   UNL A   1      45.231  30.086  31.596  1.00  0.00     0.049 A 
ATOM     44  C   UNL A   1      44.509  25.320  28.747  1.00  0.00     0.074 A 
ATOM     45  C   UNL A   1      46.500  30.327  32.090  1.00  0.00     0.029 A 
ATOM     46  N   UNL A   1      45.293  28.885  30.903  1.00  0.00    -0.354 N 
ATOM     47  N   UNL A   1      44.831  26.386  29.437  1.00  0.00    -0.248 NA
ATOM     48  C   UNL A   1      45.639  24.428  28.453  1.00  0.00     0.031 C 
ATOM     49  C   UNL A   1      47.339  29.288  31.673  1.00  0.00     0.029 A 
ATOM     50  C   UNL A   1      46.584  28.383  30.943  1.00  0.00     0.049 A 
ATOM     51  H   UNL A   1      44.533  28.454  30.450  1.00  0.00     0.167 HD
ATOM     52  C   UNL A   1      46.196  26.293  29.667  1.00  0.00     0.074 A 
ATOM     53  C   UNL A   1      46.640  25.056  29.054  1.00  0.00     0.031 C 
ATOM     54  C   UNL A   1      47.008  27.155  30.323  1.00  0.00     0.037 A 
BRANCH  41  55
ATOM     55  C   UNL A   1      44.154  32.184  32.478  1.00  0.00     0.064 A 
ATOM     56  C   UNL A   1      44.444  33.383  31.812  1.00  0.00     0.173 A 
ATOM     57  C   UNL A   1      43.919  32.235  33.860  1.00  0.00     0.173 A 
ATOM     58  F   UNL A   1      44.687  33.381  30.493  1.00  0.00    -0.203 F 
ATOM     59  C   UNL A   1      44.511  34.587  32.509  1.00  0.00     0.198 A 
ATOM     60  C   UNL A   1      43.968  33.443  34.549  1.00  0.00     0.198 A 
ATOM     61  F   UNL A   1      43.634  31.114  34.540  1.00  0.00    -0.203 F 
ATOM     62  F   UNL A   1      44.819  35.719  31.860  1.00  0.00    -0.200 F 
ATOM     63  C   UNL A   1      44.268  34.617  33.874  1.00  0.00     0.200 A 
ATOM     64  F   UNL A   1      43.725  33.472  35.867  1.00  0.00    -0.200 F 
ATOM     65  F   UNL A   1      44.326  35.778  34.541  1.00  0.00    -0.200 F 
ENDBRANCH  41  55
BRANCH  42  66
ATOM     66  C   UNL A   1      43.005  23.658  27.433  1.00  0.00     0.064 A 
ATOM     67  C   UNL A   1      43.367  23.608  26.082  1.00  0.00     0.173 A 
ATOM     68  C   UNL A   1      42.504  22.488  28.024  1.00  0.00     0.173 A 
ATOM     69  F   UNL A   1      43.827  24.710  25.471  1.00  0.00    -0.203 F 
ATOM     70  C   UNL A   1      43.231  22.432  25.347  1.00  0.00     0.198 A 
ATOM     71  C   UNL A   1      42.390  21.309  27.294  1.00  0.00     0.198 A 
ATOM     72  F   UNL A   1      42.143  22.489  29.315  1.00  0.00    -0.203 F 
ATOM     73  F   UNL A   1      43.557  22.417  24.047  1.00  0.00    -0.200 F 
ATOM     74  C   UNL A   1      42.750  21.283  25.954  1.00  0.00     0.200 A 
ATOM     75  F   UNL A   1      41.932  20.198  27.887  1.00  0.00    -0.200 F 
ATOM     76  F   UNL A   1      42.626  20.150  25.248  1.00  0.00    -0.200 F 
ENDBRANCH  42  66
BRANCH  54  77
ATOM     77  C   UNL A   1      48.456  26.784  30.422  1.00  0.00     0.064 A 
ATOM     78  C   UNL A   1      48.914  25.903  31.411  1.00  0.00     0.173 A 
ATOM     79  C   UNL A   1      49.386  27.290  29.504  1.00  0.00     0.173 A 
ATOM     80  F   UNL A   1      48.063  25.408  32.322  1.00  0.00    -0.203 F 
ATOM     81  C   UNL A   1      50.259  25.552  31.486  1.00  0.00     0.198 A 
ATOM     82  C   UNL A   1      50.726  26.923  29.570  1.00  0.00     0.198 A 
ATOM     83  F   UNL A   1      48.992  28.136  28.539  1.00  0.00    -0.203 F 
ATOM     84  F   UNL A   1      50.684  24.734  32.459  1.00  0.00    -0.200 F 
ATOM     85  C   UNL A   1      51.162  26.058  30.563  1.00  0.00     0.200 A 
ATOM     86  F   UNL A   1      51.598  27.408  28.674  1.00  0.00    -0.200 F 
ATOM     87  F   UNL A   1      52.457  25.719  30.636  1.00  0.00    -0.200 F 
ENDBRANCH  54  77
ENDBRANCH  28  29
ENDBRANCH  21  23
ENDBRANCH  20  21
ENDBRANCH  19  20
ENDBRANCH   1  19
TORSDOF 14
ENDMDL
MODEL 3
REMARK VINA RESULT:     -10.1      6.019     11.009
REMARK SMILES Cc1ccnc(NC2(CC(=O)OCCOC(=O)c3ccc(-c4c5nc(c(-c6c(F)c(F)c(F)c(F)c6F)c6ccc([nH]6)c(-c6c(F)c(F)c(F)c(F)c6F)c6nc(c(-c7c(F)c(F)c(F)c(F)c7F)c7ccc4[nH]7)C=C6)C=C5)cc3)CCC2)n1
REMARK SMILES IDX 13 1 12 2 10 3 11 4 9 5 8 6 81 7 83 8 82 9 7 10 6 12 1 13
REMARK SMILES IDX 2 14 3 15 84 16 4 17 5 18 14 19 15 20 16 21 17 22 18 23
REMARK SMILES IDX 19 24 80 25 20 26 79 27 21 28 22 29 23 30 73 31 24 32 78 33
REMARK SMILES IDX 72 34 74 35 25 36 77 37 71 38 70 39 26 41 58 42 38 43 57 44
REMARK SMILES IDX 39 45 42 46 56 47 75 48 40 49 41 50 55 52 76 53 43 54 27 55
REMARK SMILES IDX 28 56 36 57 29 58 30 59 34 60 37 61 31 62 32 63 35 64 33 65
REMARK SMILES IDX 59 66 60 67 68 68 61 69 62 70 66 71 69 72 63 73 64 74 67 75
REMARK SMILES IDX 65 76 44 77 45 78 53 79 46 80 47 81 51 82 54 83 48 84 49 85
REMARK SMILES IDX 52 86 50 87
REMARK H PARENT 7 11 74 40 42 51
REMARK Flexibility Score: inf
ROOT
ATOM      1  C   UNL A   1      33.265  34.745  28.929  1.00  0.00     0.274 C 
ENDROOT
BRANCH   1   2
ATOM      2  O   UNL A   1      34.604  34.231  29.081  1.00  0.00    -0.462 OA
BRANCH   2   3
ATOM      3  C   UNL A   1      34.698  32.906  29.346  1.00  0.00     0.308 C 
ATOM      4  O   UNL A   1      34.200  32.351  30.321  1.00  0.00    -0.252 OA
BRANCH   3   5
ATOM      5  C   UNL A   1      35.519  32.141  28.345  1.00  0.00     0.151 C 
BRANCH   5   6
ATOM      6  C   UNL A   1      35.151  30.685  28.025  1.00  0.00     0.051 C 
ATOM      7  C   UNL A   1      35.878  29.719  29.013  1.00  0.00     0.029 C 
ATOM      8  C   UNL A   1      35.936  29.996  26.877  1.00  0.00     0.029 C 
ATOM      9  C   UNL A   1      36.948  29.495  27.928  1.00  0.00     0.005 C 
BRANCH   6  10
ATOM     10  N   UNL A   1      33.737  30.482  27.999  1.00  0.00    -0.348 N 
ATOM     11  H   UNL A   1      33.253  30.929  28.731  1.00  0.00     0.164 HD
BRANCH  10  12
ATOM     12  C   UNL A   1      32.914  29.771  27.128  1.00  0.00     0.223 A 
ATOM     13  C   UNL A   1      31.826  26.340  26.495  1.00  0.00     0.067 C 
ATOM     14  C   UNL A   1      31.976  27.821  26.338  1.00  0.00     0.043 A 
ATOM     15  C   UNL A   1      31.402  28.487  25.277  1.00  0.00     0.044 A 
ATOM     16  N   UNL A   1      32.720  28.454  27.268  1.00  0.00    -0.218 NA
ATOM     17  C   UNL A   1      31.634  29.839  25.231  1.00  0.00     0.117 A 
ATOM     18  N   UNL A   1      32.375  30.497  26.139  1.00  0.00    -0.222 NA
ENDBRANCH  10  12
ENDBRANCH   6  10
ENDBRANCH   5   6
ENDBRANCH   3   5
ENDBRANCH   2   3
ENDBRANCH   1   2
BRANCH   1  19
ATOM     19  C   UNL A   1      33.002  35.891  29.900  1.00  0.00     0.275 C 
BRANCH  19  20
ATOM     20  O   UNL A   1      32.286  35.407  31.050  1.00  0.00    -0.458 OA
BRANCH  20  21
ATOM     21  C   UNL A   1      32.695  35.911  32.236  1.00  0.00     0.338 C 
ATOM     22  O   UNL A   1      32.199  36.826  32.865  1.00  0.00    -0.246 OA
BRANCH  21  23
ATOM     23  C   UNL A   1      33.881  35.177  32.696  1.00  0.00     0.060 A 
ATOM     24  C   UNL A   1      35.161  35.703  32.500  1.00  0.00     0.016 A 
ATOM     25  C   UNL A   1      33.713  33.908  33.250  1.00  0.00     0.016 A 
ATOM     26  C   UNL A   1      36.282  34.949  32.842  1.00  0.00     0.010 A 
ATOM     27  C   UNL A   1      34.834  33.175  33.639  1.00  0.00     0.010 A 
ATOM     28  C   UNL A   1      36.127  33.686  33.430  1.00  0.00    -0.014 A 
BRANCH  28  29
ATOM     29  C   UNL A   1      37.309  32.896  33.851  1.00  0.00     0.031 A 
ATOM     30  C   UNL A   1      37.982  33.178  35.160  1.00  0.00     0.074 A 
ATOM     31  C   UNL A   1      37.796  31.950  33.028  1.00  0.00     0.049 A 
ATOM     32  N   UNL A   1      39.118  32.720  35.622  1.00  0.00    -0.248 NA
ATOM     33  C   UNL A   1      37.291  34.104  36.070  1.00  0.00     0.031 C 
ATOM     34  C   UNL A   1      37.211  31.563  31.745  1.00  0.00     0.029 A 
ATOM     35  N   UNL A   1      38.907  31.152  33.144  1.00  0.00    -0.354 N 
ATOM     36  C   UNL A   1      39.293  33.320  36.860  1.00  0.00     0.074 A 
ATOM     37  C   UNL A   1      38.148  34.180  37.078  1.00  0.00     0.031 C 
ATOM     38  C   UNL A   1      37.968  30.604  31.190  1.00  0.00     0.029 A 
ATOM     39  C   UNL A   1      39.119  30.351  32.050  1.00  0.00     0.049 A 
ATOM     40  H   UNL A   1      39.494  31.155  33.935  1.00  0.00     0.167 HD
ATOM     41  C   UNL A   1      40.320  33.166  37.729  1.00  0.00     0.037 A 
ATOM     42  C   UNL A   1      40.147  29.535  31.755  1.00  0.00     0.037 A 
ATOM     43  C   UNL A   1      41.442  32.289  37.520  1.00  0.00     0.049 A 
ATOM     44  C   UNL A   1      41.294  29.415  32.718  1.00  0.00     0.074 A 
ATOM     45  C   UNL A   1      42.516  32.045  38.357  1.00  0.00     0.029 A 
ATOM     46  N   UNL A   1      41.629  31.507  36.390  1.00  0.00    -0.354 N 
ATOM     47  N   UNL A   1      41.464  30.004  33.875  1.00  0.00    -0.248 NA
ATOM     48  C   UNL A   1      42.398  28.529  32.324  1.00  0.00     0.031 C 
ATOM     49  C   UNL A   1      43.371  31.137  37.721  1.00  0.00     0.029 A 
ATOM     50  C   UNL A   1      42.811  30.792  36.501  1.00  0.00     0.049 A 
ATOM     51  H   UNL A   1      41.014  31.465  35.623  1.00  0.00     0.167 HD
ATOM     52  C   UNL A   1      42.687  29.557  34.354  1.00  0.00     0.074 A 
ATOM     53  C   UNL A   1      43.211  28.634  33.366  1.00  0.00     0.031 C 
ATOM     54  C   UNL A   1      43.319  29.885  35.505  1.00  0.00     0.037 A 
BRANCH  41  55
ATOM     55  C   UNL A   1      40.292  33.984  38.984  1.00  0.00     0.064 A 
ATOM     56  C   UNL A   1      39.685  33.513  40.156  1.00  0.00     0.173 A 
ATOM     57  C   UNL A   1      40.925  35.235  39.025  1.00  0.00     0.173 A 
ATOM     58  F   UNL A   1      39.057  32.328  40.162  1.00  0.00    -0.203 F 
ATOM     59  C   UNL A   1      39.700  34.274  41.323  1.00  0.00     0.198 A 
ATOM     60  C   UNL A   1      40.954  35.984  40.198  1.00  0.00     0.198 A 
ATOM     61  F   UNL A   1      41.523  35.727  37.929  1.00  0.00    -0.203 F 
ATOM     62  F   UNL A   1      39.087  33.819  42.426  1.00  0.00    -0.200 F 
ATOM     63  C   UNL A   1      40.338  35.505  41.344  1.00  0.00     0.200 A 
ATOM     64  F   UNL A   1      41.579  37.170  40.220  1.00  0.00    -0.200 F 
ATOM     65  F   UNL A   1      40.356  36.232  42.470  1.00  0.00    -0.200 F 
ENDBRANCH  41  55
BRANCH  42  66
ATOM     66  C   UNL A   1      40.147  28.794  30.470  1.00  0.00     0.064 A 
ATOM     67  C   UNL A   1      40.817  29.299  29.349  1.00  0.00     0.173 A 
ATOM     68  C   UNL A   1      39.493  27.559  30.345  1.00  0.00     0.173 A 
ATOM     69  F   UNL A   1      41.434  30.488  29.418  1.00  0.00    -0.203 F 
ATOM     70  C   UNL A   1      40.831  28.596  28.146  1.00  0.00     0.198 A 
ATOM     71  C   UNL A   1      39.527  26.848  29.149  1.00  0.00     0.198 A 
ATOM     72  F   UNL A   1      38.837  27.037  31.392  1.00  0.00    -0.203 F 
ATOM     73  F   UNL A   1      41.454  29.114  27.078  1.00  0.00    -0.200 F 
ATOM     74  C   UNL A   1      40.192  27.369  28.049  1.00  0.00     0.200 A 
ATOM     75  F   UNL A   1      38.916  25.658  29.062  1.00  0.00    -0.200 F 
ATOM     76  F   UNL A   1      40.212  26.691  26.893  1.00  0.00    -0.200 F 
ENDBRANCH  42  66
BRANCH  54  77
ATOM     77  C   UNL A   1      44.641  29.230  35.764  1.00  0.00     0.064 A 
ATOM     78  C   UNL A   1      44.725  27.999  36.429  1.00  0.00     0.173 A 
ATOM     79  C   UNL A   1      45.830  29.824  35.318  1.00  0.00     0.173 A 
ATOM     80  F   UNL A   1      43.616  27.403  36.890  1.00  0.00    -0.203 F 
ATOM     81  C   UNL A   1      45.959  27.391  36.651  1.00  0.00     0.198 A 
ATOM     82  C   UNL A   1      47.059  29.205  35.526  1.00  0.00     0.198 A 
ATOM     83  F   UNL A   1      45.797  31.002  34.676  1.00  0.00    -0.203 F 
ATOM     84  F   UNL A   1      46.021  26.231  37.319  1.00  0.00    -0.200 F 
ATOM     85  C   UNL A   1      47.122  27.993  36.195  1.00  0.00     0.200 A 
ATOM     86  F   UNL A   1      48.183  29.783  35.079  1.00  0.00    -0.200 F 
ATOM     87  F   UNL A   1      48.308  27.406  36.409  1.00  0.00    -0.200 F 
ENDBRANCH  54  77
ENDBRANCH  28  29
ENDBRANCH  21  23
ENDBRANCH  20  21
ENDBRANCH  19  20
ENDBRANCH   1  19
TORSDOF 14
ENDMDL
