MODEL 1
REMARK VINA RESULT:     -11.5      0.000      0.000
REMARK SMILES O=C(OCCOC(=O)c1ccc(NC2CC2)c(F)c1F)c1ccc(-c2c3nc(c(-c4c(F)c(F)c(F)c(F)c4F)c4ccc([nH]4)c(-c4c(F)c(F)c(F)c(F)c4F)c4nc(c(-c5c(F)c(F)c(F)c(F)c5F)c5ccc2[nH]5)C=C4)C=C3)cc1
REMARK SMILES IDX 4 1 3 2 2 3 1 4 21 5 22 6 83 7 23 8 82 9 24 10 25 11 26 12
REMARK SMILES IDX 76 13 27 14 81 15 75 16 77 17 28 18 80 19 74 20 73 21 29 23
REMARK SMILES IDX 61 24 41 25 60 26 42 27 45 28 59 29 78 30 43 31 44 32 58 34
REMARK SMILES IDX 79 35 46 36 30 37 31 38 39 39 32 40 33 41 37 42 40 43 34 44
REMARK SMILES IDX 35 45 38 46 36 47 62 48 63 49 71 50 64 51 65 52 69 53 72 54
REMARK SMILES IDX 66 55 67 56 70 57 68 58 47 59 48 60 56 61 49 62 50 63 54 64
REMARK SMILES IDX 57 65 51 66 52 67 55 68 53 69 5 70 6 71 7 72 8 73 9 74 10 75
REMARK SMILES IDX 19 76 11 77 17 78 20 79 12 80 18 81 13 82 14 84 15 85 16 86
REMARK H PARENT 77 22 45 33 13 83
REMARK Flexibility Score: inf
ROOT
ATOM      1  C   UNL A   1      43.698  22.026  25.219  1.00  0.00     0.275 C 
ENDROOT
BRANCH   1   2
ATOM      2  O   UNL A   1      43.283  23.307  24.714  1.00  0.00    -0.458 OA
BRANCH   2   3
ATOM      3  C   UNL A   1      43.852  24.504  25.000  1.00  0.00     0.338 C 
ATOM      4  O   UNL A   1      44.994  24.760  24.626  1.00  0.00    -0.246 OA
BRANCH   3   5
ATOM      5  C   UNL A   1      43.209  25.442  25.960  1.00  0.00     0.060 A 
ATOM      6  C   UNL A   1      43.727  26.687  26.321  1.00  0.00     0.016 A 
ATOM      7  C   UNL A   1      42.049  24.984  26.608  1.00  0.00     0.016 A 
ATOM      8  C   UNL A   1      43.074  27.485  27.262  1.00  0.00     0.010 A 
ATOM      9  C   UNL A   1      41.388  25.781  27.548  1.00  0.00     0.010 A 
ATOM     10  C   UNL A   1      41.910  27.033  27.893  1.00  0.00    -0.014 A 
BRANCH  10  11
ATOM     11  C   UNL A   1      41.385  27.781  29.057  1.00  0.00     0.031 A 
ATOM     12  C   UNL A   1      42.094  27.626  30.373  1.00  0.00     0.074 A 
ATOM     13  C   UNL A   1      40.365  28.650  28.925  1.00  0.00     0.049 A 
ATOM     14  N   UNL A   1      41.876  28.239  31.507  1.00  0.00    -0.248 NA
ATOM     15  C   UNL A   1      43.230  26.686  30.407  1.00  0.00     0.031 C 
ATOM     16  C   UNL A   1      39.665  28.953  27.679  1.00  0.00     0.029 A 
ATOM     17  N   UNL A   1      39.732  29.433  29.858  1.00  0.00    -0.354 N 
ATOM     18  C   UNL A   1      42.883  27.808  32.361  1.00  0.00     0.074 A 
ATOM     19  C   UNL A   1      43.657  26.816  31.653  1.00  0.00     0.031 C 
ATOM     20  C   UNL A   1      38.662  29.813  27.934  1.00  0.00     0.029 A 
ATOM     21  C   UNL A   1      38.655  30.124  29.360  1.00  0.00     0.049 A 
ATOM     22  H   UNL A   1      40.024  29.494  30.797  1.00  0.00     0.167 HD
ATOM     23  C   UNL A   1      43.170  28.251  33.606  1.00  0.00     0.037 A 
ATOM     24  C   UNL A   1      37.759  30.905  29.995  1.00  0.00     0.037 A 
ATOM     25  C   UNL A   1      42.385  29.223  34.310  1.00  0.00     0.049 A 
ATOM     26  C   UNL A   1      37.966  31.204  31.454  1.00  0.00     0.074 A 
ATOM     27  C   UNL A   1      42.593  29.755  35.568  1.00  0.00     0.029 A 
ATOM     28  N   UNL A   1      41.224  29.797  33.813  1.00  0.00    -0.354 N 
ATOM     29  N   UNL A   1      38.945  30.828  32.239  1.00  0.00    -0.248 NA
ATOM     30  C   UNL A   1      36.964  32.056  32.109  1.00  0.00     0.031 C 
ATOM     31  C   UNL A   1      41.532  30.619  35.852  1.00  0.00     0.029 A 
ATOM     32  C   UNL A   1      40.683  30.653  34.755  1.00  0.00     0.049 A 
ATOM     33  H   UNL A   1      40.842  29.621  32.923  1.00  0.00     0.167 HD
ATOM     34  C   UNL A   1      38.709  31.437  33.463  1.00  0.00     0.074 A 
ATOM     35  C   UNL A   1      37.479  32.189  33.324  1.00  0.00     0.031 C 
ATOM     36  C   UNL A   1      39.459  31.395  34.591  1.00  0.00     0.037 A 
BRANCH  23  37
ATOM     37  C   UNL A   1      44.403  27.709  34.261  1.00  0.00     0.064 A 
ATOM     38  C   UNL A   1      44.349  26.562  35.065  1.00  0.00     0.173 A 
ATOM     39  C   UNL A   1      45.641  28.355  34.115  1.00  0.00     0.173 A 
ATOM     40  F   UNL A   1      43.190  25.909  35.234  1.00  0.00    -0.203 F 
ATOM     41  C   UNL A   1      45.492  26.085  35.704  1.00  0.00     0.198 A 
ATOM     42  C   UNL A   1      46.783  27.864  34.739  1.00  0.00     0.198 A 
ATOM     43  F   UNL A   1      45.744  29.448  33.343  1.00  0.00    -0.203 F 
ATOM     44  F   UNL A   1      45.416  24.996  36.481  1.00  0.00    -0.200 F 
ATOM     45  C   UNL A   1      46.706  26.733  35.538  1.00  0.00     0.200 A 
ATOM     46  F   UNL A   1      47.960  28.480  34.559  1.00  0.00    -0.200 F 
ATOM     47  F   UNL A   1      47.806  26.266  36.144  1.00  0.00    -0.200 F 
ENDBRANCH  23  37
BRANCH  24  48
ATOM     48  C   UNL A   1      36.595  31.460  29.262  1.00  0.00     0.064 A 
ATOM     49  C   UNL A   1      35.538  30.631  28.860  1.00  0.00     0.173 A 
ATOM     50  C   UNL A   1      36.499  32.825  28.965  1.00  0.00     0.173 A 
ATOM     51  F   UNL A   1      35.561  29.325  29.154  1.00  0.00    -0.203 F 
ATOM     52  C   UNL A   1      34.439  31.140  28.170  1.00  0.00     0.198 A 
ATOM     53  C   UNL A   1      35.391  33.339  28.291  1.00  0.00     0.198 A 
ATOM     54  F   UNL A   1      37.468  33.663  29.358  1.00  0.00    -0.203 F 
ATOM     55  F   UNL A   1      33.450  30.320  27.787  1.00  0.00    -0.200 F 
ATOM     56  C   UNL A   1      34.365  32.495  27.889  1.00  0.00     0.200 A 
ATOM     57  F   UNL A   1      35.309  34.652  28.045  1.00  0.00    -0.200 F 
ATOM     58  F   UNL A   1      33.301  32.990  27.240  1.00  0.00    -0.200 F 
ENDBRANCH  24  48
BRANCH  36  59
ATOM     59  C   UNL A   1      38.999  32.206  35.761  1.00  0.00     0.064 A 
ATOM     60  C   UNL A   1      39.430  33.532  35.914  1.00  0.00     0.173 A 
ATOM     61  C   UNL A   1      38.226  31.638  36.782  1.00  0.00     0.173 A 
ATOM     62  F   UNL A   1      40.177  34.114  34.963  1.00  0.00    -0.203 F 
ATOM     63  C   UNL A   1      39.127  34.253  37.064  1.00  0.00     0.198 A 
ATOM     64  C   UNL A   1      37.905  32.370  37.920  1.00  0.00     0.198 A 
ATOM     65  F   UNL A   1      37.780  30.377  36.669  1.00  0.00    -0.203 F 
ATOM     66  F   UNL A   1      39.586  35.503  37.210  1.00  0.00    -0.200 F 
ATOM     67  C   UNL A   1      38.366  33.671  38.067  1.00  0.00     0.200 A 
ATOM     68  F   UNL A   1      37.152  31.815  38.880  1.00  0.00    -0.200 F 
ATOM     69  F   UNL A   1      38.078  34.365  39.176  1.00  0.00    -0.200 F 
ENDBRANCH  36  59
ENDBRANCH  10  11
ENDBRANCH   3   5
ENDBRANCH   2   3
ENDBRANCH   1   2
BRANCH   1  70
ATOM     70  C   UNL A   1      42.599  21.278  25.975  1.00  0.00     0.275 C 
BRANCH  70  71
ATOM     71  O   UNL A   1      41.281  21.716  25.609  1.00  0.00    -0.458 OA
BRANCH  71  72
ATOM     72  C   UNL A   1      40.347  21.596  26.588  1.00  0.00     0.341 C 
ATOM     73  O   UNL A   1      40.501  21.111  27.695  1.00  0.00    -0.246 OA
BRANCH  72  74
ATOM     74  C   UNL A   1      39.092  22.212  26.140  1.00  0.00     0.099 A 
ATOM     75  C   UNL A   1      38.749  23.522  26.482  1.00  0.00     0.021 A 
ATOM     76  C   UNL A   1      38.226  21.454  25.368  1.00  0.00     0.175 A 
ATOM     77  C   UNL A   1      37.517  24.059  26.065  1.00  0.00     0.030 A 
ATOM     78  C   UNL A   1      37.000  21.986  24.987  1.00  0.00     0.182 A 
ATOM     79  F   UNL A   1      38.511  20.181  25.062  1.00  0.00    -0.203 F 
ATOM     80  C   UNL A   1      36.606  23.295  25.330  1.00  0.00     0.074 A 
ATOM     81  F   UNL A   1      36.137  21.210  24.308  1.00  0.00    -0.201 F 
BRANCH  80  82
ATOM     82  N   UNL A   1      35.324  23.708  24.917  1.00  0.00    -0.380 N 
ATOM     83  H   UNL A   1      35.332  24.301  24.131  1.00  0.00     0.160 HD
BRANCH  82  84
ATOM     84  C   UNL A   1      33.992  23.428  25.428  1.00  0.00     0.079 C 
ATOM     85  C   UNL A   1      33.644  23.235  26.866  1.00  0.00     0.027 C 
ATOM     86  C   UNL A   1      33.105  24.422  26.113  1.00  0.00     0.027 C 
ENDBRANCH  82  84
ENDBRANCH  80  82
ENDBRANCH  72  74
ENDBRANCH  71  72
ENDBRANCH  70  71
ENDBRANCH   1  70
TORSDOF 13
ENDMDL
MODEL 2
REMARK VINA RESULT:     -11.4      0.525      7.662
REMARK SMILES O=C(OCCOC(=O)c1ccc(NC2CC2)c(F)c1F)c1ccc(-c2c3nc(c(-c4c(F)c(F)c(F)c(F)c4F)c4ccc([nH]4)c(-c4c(F)c(F)c(F)c(F)c4F)c4nc(c(-c5c(F)c(F)c(F)c(F)c5F)c5ccc2[nH]5)C=C4)C=C3)cc1
REMARK SMILES IDX 4 1 3 2 2 3 1 4 21 5 22 6 83 7 23 8 82 9 24 10 25 11 26 12
REMARK SMILES IDX 76 13 27 14 81 15 75 16 77 17 28 18 80 19 74 20 73 21 29 23
REMARK SMILES IDX 61 24 41 25 60 26 42 27 45 28 59 29 78 30 43 31 44 32 58 34
REMARK SMILES IDX 79 35 46 36 30 37 31 38 39 39 32 40 33 41 37 42 40 43 34 44
REMARK SMILES IDX 35 45 38 46 36 47 62 48 63 49 71 50 64 51 65 52 69 53 72 54
REMARK SMILES IDX 66 55 67 56 70 57 68 58 47 59 48 60 56 61 49 62 50 63 54 64
REMARK SMILES IDX 57 65 51 66 52 67 55 68 53 69 5 70 6 71 7 72 8 73 9 74 10 75
REMARK SMILES IDX 19 76 11 77 17 78 20 79 12 80 18 81 13 82 14 84 15 85 16 86
REMARK H PARENT 77 22 45 33 13 83
REMARK Flexibility Score: inf
ROOT
ATOM      1  C   UNL A   1      43.689  21.900  25.535  1.00  0.00     0.275 C 
ENDROOT
BRANCH   1   2
ATOM      2  O   UNL A   1      43.170  23.139  25.022  1.00  0.00    -0.458 OA
BRANCH   2   3
ATOM      3  C   UNL A   1      43.737  24.363  25.158  1.00  0.00     0.338 C 
ATOM      4  O   UNL A   1      44.811  24.619  24.622  1.00  0.00    -0.246 OA
BRANCH   3   5
ATOM      5  C   UNL A   1      43.198  25.346  26.138  1.00  0.00     0.060 A 
ATOM      6  C   UNL A   1      43.676  26.648  26.301  1.00  0.00     0.016 A 
ATOM      7  C   UNL A   1      42.203  24.882  27.015  1.00  0.00     0.016 A 
ATOM      8  C   UNL A   1      43.135  27.489  27.275  1.00  0.00     0.010 A 
ATOM      9  C   UNL A   1      41.654  25.722  27.990  1.00  0.00     0.010 A 
ATOM     10  C   UNL A   1      42.133  27.029  28.135  1.00  0.00    -0.014 A 
BRANCH  10  11
ATOM     11  C   UNL A   1      41.760  27.849  29.310  1.00  0.00     0.031 A 
ATOM     12  C   UNL A   1      40.573  28.762  29.183  1.00  0.00     0.074 A 
ATOM     13  C   UNL A   1      42.400  27.714  30.486  1.00  0.00     0.049 A 
ATOM     14  N   UNL A   1      40.004  29.510  30.092  1.00  0.00    -0.248 NA
ATOM     15  C   UNL A   1      39.909  28.807  27.867  1.00  0.00     0.031 C 
ATOM     16  C   UNL A   1      43.501  26.791  30.752  1.00  0.00     0.029 A 
ATOM     17  N   UNL A   1      42.219  28.365  31.681  1.00  0.00    -0.354 N 
ATOM     18  C   UNL A   1      38.887  30.057  29.477  1.00  0.00     0.074 A 
ATOM     19  C   UNL A   1      38.902  29.635  28.096  1.00  0.00     0.031 C 
ATOM     20  C   UNL A   1      43.937  26.974  32.012  1.00  0.00     0.029 A 
ATOM     21  C   UNL A   1      43.140  28.023  32.641  1.00  0.00     0.049 A 
ATOM     22  H   UNL A   1      41.496  29.015  31.836  1.00  0.00     0.167 HD
ATOM     23  C   UNL A   1      37.901  30.796  30.035  1.00  0.00     0.037 A 
ATOM     24  C   UNL A   1      43.323  28.519  33.880  1.00  0.00     0.037 A 
ATOM     25  C   UNL A   1      37.903  31.227  31.403  1.00  0.00     0.049 A 
ATOM     26  C   UNL A   1      42.339  29.527  34.409  1.00  0.00     0.074 A 
ATOM     27  C   UNL A   1      36.950  31.965  32.078  1.00  0.00     0.029 A 
ATOM     28  N   UNL A   1      38.926  30.967  32.303  1.00  0.00    -0.354 N 
ATOM     29  N   UNL A   1      41.262  30.001  33.835  1.00  0.00    -0.248 NA
ATOM     30  C   UNL A   1      42.578  30.045  35.763  1.00  0.00     0.031 C 
ATOM     31  C   UNL A   1      37.417  32.191  33.375  1.00  0.00     0.029 A 
ATOM     32  C   UNL A   1      38.645  31.561  33.519  1.00  0.00     0.049 A 
ATOM     33  H   UNL A   1      39.733  30.438  32.104  1.00  0.00     0.167 HD
ATOM     34  C   UNL A   1      40.665  30.832  34.772  1.00  0.00     0.074 A 
ATOM     35  C   UNL A   1      41.513  30.815  35.945  1.00  0.00     0.031 C 
ATOM     36  C   UNL A   1      39.505  31.525  34.675  1.00  0.00     0.037 A 
BRANCH  23  37
ATOM     37  C   UNL A   1      36.731  31.148  29.170  1.00  0.00     0.064 A 
ATOM     38  C   UNL A   1      36.539  32.458  28.713  1.00  0.00     0.173 A 
ATOM     39  C   UNL A   1      35.775  30.181  28.821  1.00  0.00     0.173 A 
ATOM     40  F   UNL A   1      37.426  33.417  29.018  1.00  0.00    -0.203 F 
ATOM     41  C   UNL A   1      35.427  32.789  27.941  1.00  0.00     0.198 A 
ATOM     42  C   UNL A   1      34.677  30.510  28.034  1.00  0.00     0.198 A 
ATOM     43  F   UNL A   1      35.925  28.909  29.224  1.00  0.00    -0.203 F 
ATOM     44  F   UNL A   1      35.254  34.052  27.526  1.00  0.00    -0.200 F 
ATOM     45  C   UNL A   1      34.501  31.816  27.599  1.00  0.00     0.200 A 
ATOM     46  F   UNL A   1      33.794  29.563  27.687  1.00  0.00    -0.200 F 
ATOM     47  F   UNL A   1      33.438  32.134  26.847  1.00  0.00    -0.200 F 
ENDBRANCH  23  37
BRANCH  24  48
ATOM     48  C   UNL A   1      44.473  28.072  34.705  1.00  0.00     0.064 A 
ATOM     49  C   UNL A   1      45.701  28.746  34.650  1.00  0.00     0.173 A 
ATOM     50  C   UNL A   1      44.369  26.983  35.578  1.00  0.00     0.173 A 
ATOM     51  F   UNL A   1      45.841  29.819  33.861  1.00  0.00    -0.203 F 
ATOM     52  C   UNL A   1      46.789  28.336  35.419  1.00  0.00     0.198 A 
ATOM     53  C   UNL A   1      45.451  26.583  36.363  1.00  0.00     0.198 A 
ATOM     54  F   UNL A   1      43.205  26.327  35.692  1.00  0.00    -0.203 F 
ATOM     55  F   UNL A   1      47.954  28.993  35.334  1.00  0.00    -0.200 F 
ATOM     56  C   UNL A   1      46.661  27.256  36.278  1.00  0.00     0.200 A 
ATOM     57  F   UNL A   1      45.316  25.557  37.212  1.00  0.00    -0.200 F 
ATOM     58  F   UNL A   1      47.700  26.870  37.031  1.00  0.00    -0.200 F 
ENDBRANCH  24  48
BRANCH  36  59
ATOM     59  C   UNL A   1      39.056  32.301  35.874  1.00  0.00     0.064 A 
ATOM     60  C   UNL A   1      39.492  33.620  36.065  1.00  0.00     0.173 A 
ATOM     61  C   UNL A   1      38.288  31.703  36.881  1.00  0.00     0.173 A 
ATOM     62  F   UNL A   1      40.233  34.229  35.129  1.00  0.00    -0.203 F 
ATOM     63  C   UNL A   1      39.199  34.305  37.240  1.00  0.00     0.198 A 
ATOM     64  C   UNL A   1      37.976  32.399  38.044  1.00  0.00     0.198 A 
ATOM     65  F   UNL A   1      37.837  30.447  36.732  1.00  0.00    -0.203 F 
ATOM     66  F   UNL A   1      39.662  35.548  37.422  1.00  0.00    -0.200 F 
ATOM     67  C   UNL A   1      38.442  33.693  38.229  1.00  0.00     0.200 A 
ATOM     68  F   UNL A   1      37.228  31.816  38.991  1.00  0.00    -0.200 F 
ATOM     69  F   UNL A   1      38.164  34.352  39.361  1.00  0.00    -0.200 F 
ENDBRANCH  36  59
ENDBRANCH  10  11
ENDBRANCH   3   5
ENDBRANCH   2   3
ENDBRANCH   1   2
BRANCH   1  70
ATOM     70  C   UNL A   1      42.619  20.985  26.132  1.00  0.00     0.275 C 
BRANCH  70  71
ATOM     71  O   UNL A   1      41.289  21.359  25.737  1.00  0.00    -0.458 OA
BRANCH  71  72
ATOM     72  C   UNL A   1      40.420  21.543  26.765  1.00  0.00     0.341 C 
ATOM     73  O   UNL A   1      40.594  21.256  27.936  1.00  0.00    -0.246 OA
BRANCH  72  74
ATOM     74  C   UNL A   1      39.216  22.220  26.266  1.00  0.00     0.099 A 
ATOM     75  C   UNL A   1      38.940  23.555  26.571  1.00  0.00     0.021 A 
ATOM     76  C   UNL A   1      38.330  21.496  25.484  1.00  0.00     0.175 A 
ATOM     77  C   UNL A   1      37.754  24.152  26.105  1.00  0.00     0.030 A 
ATOM     78  C   UNL A   1      37.148  22.088  25.055  1.00  0.00     0.182 A 
ATOM     79  F   UNL A   1      38.549  20.202  25.213  1.00  0.00    -0.203 F 
ATOM     80  C   UNL A   1      36.821  23.425  25.359  1.00  0.00     0.074 A 
ATOM     81  F   UNL A   1      36.262  21.348  24.367  1.00  0.00    -0.201 F 
BRANCH  80  82
ATOM     82  N   UNL A   1      35.578  23.902  24.899  1.00  0.00    -0.380 N 
ATOM     83  H   UNL A   1      35.474  23.861  23.921  1.00  0.00     0.160 HD
BRANCH  82  84
ATOM     84  C   UNL A   1      34.419  24.444  25.590  1.00  0.00     0.079 C 
ATOM     85  C   UNL A   1      34.045  25.887  25.644  1.00  0.00     0.027 C 
ATOM     86  C   UNL A   1      33.157  24.904  24.928  1.00  0.00     0.027 C 
ENDBRANCH  82  84
ENDBRANCH  80  82
ENDBRANCH  72  74
ENDBRANCH  71  72
ENDBRANCH  70  71
ENDBRANCH   1  70
TORSDOF 13
ENDMDL
MODEL 3
REMARK VINA RESULT:     -11.2      0.328      1.693
REMARK SMILES O=C(OCCOC(=O)c1ccc(NC2CC2)c(F)c1F)c1ccc(-c2c3nc(c(-c4c(F)c(F)c(F)c(F)c4F)c4ccc([nH]4)c(-c4c(F)c(F)c(F)c(F)c4F)c4nc(c(-c5c(F)c(F)c(F)c(F)c5F)c5ccc2[nH]5)C=C4)C=C3)cc1
REMARK SMILES IDX 4 1 3 2 2 3 1 4 21 5 22 6 83 7 23 8 82 9 24 10 25 11 26 12
REMARK SMILES IDX 76 13 27 14 81 15 75 16 77 17 28 18 80 19 74 20 73 21 29 23
REMARK SMILES IDX 61 24 41 25 60 26 42 27 45 28 59 29 78 30 43 31 44 32 58 34
REMARK SMILES IDX 79 35 46 36 30 37 31 38 39 39 32 40 33 41 37 42 40 43 34 44
REMARK SMILES IDX 35 45 38 46 36 47 62 48 63 49 71 50 64 51 65 52 69 53 72 54
REMARK SMILES IDX 66 55 67 56 70 57 68 58 47 59 48 60 56 61 49 62 50 63 54 64
REMARK SMILES IDX 57 65 51 66 52 67 55 68 53 69 5 70 6 71 7 72 8 73 9 74 10 75
REMARK SMILES IDX 19 76 11 77 17 78 20 79 12 80 18 81 13 82 14 84 15 85 16 86
REMARK H PARENT 77 22 45 33 13 83
REMARK Flexibility Score: inf
ROOT
ATOM      1  C   UNL A   1      43.902  21.975  25.624  1.00  0.00     0.275 C 
ENDROOT
BRANCH   1   2
ATOM      2  O   UNL A   1      43.449  23.123  24.886  1.00  0.00    -0.458 OA
BRANCH   2   3
ATOM      3  C   UNL A   1      43.909  24.392  25.016  1.00  0.00     0.338 C 
ATOM      4  O   UNL A   1      44.964  24.733  24.490  1.00  0.00    -0.246 OA
BRANCH   3   5
ATOM      5  C   UNL A   1      43.277  25.334  25.980  1.00  0.00     0.060 A 
ATOM      6  C   UNL A   1      43.764  26.608  26.280  1.00  0.00     0.016 A 
ATOM      7  C   UNL A   1      42.167  24.854  26.696  1.00  0.00     0.016 A 
ATOM      8  C   UNL A   1      43.126  27.409  27.229  1.00  0.00     0.010 A 
ATOM      9  C   UNL A   1      41.522  25.654  27.645  1.00  0.00     0.010 A 
ATOM     10  C   UNL A   1      42.012  26.934  27.928  1.00  0.00    -0.014 A 
BRANCH  10  11
ATOM     11  C   UNL A   1      41.515  27.697  29.095  1.00  0.00     0.031 A 
ATOM     12  C   UNL A   1      42.242  27.542  30.401  1.00  0.00     0.074 A 
ATOM     13  C   UNL A   1      40.505  28.579  28.973  1.00  0.00     0.049 A 
ATOM     14  N   UNL A   1      42.050  28.165  31.534  1.00  0.00    -0.248 NA
ATOM     15  C   UNL A   1      43.365  26.586  30.425  1.00  0.00     0.031 C 
ATOM     16  C   UNL A   1      39.790  28.884  27.735  1.00  0.00     0.029 A 
ATOM     17  N   UNL A   1      39.897  29.376  29.910  1.00  0.00    -0.354 N 
ATOM     18  C   UNL A   1      43.063  27.726  32.375  1.00  0.00     0.074 A 
ATOM     19  C   UNL A   1      43.813  26.719  31.663  1.00  0.00     0.031 C 
ATOM     20  C   UNL A   1      38.803  29.759  27.999  1.00  0.00     0.029 A 
ATOM     21  C   UNL A   1      38.822  30.079  29.423  1.00  0.00     0.049 A 
ATOM     22  H   UNL A   1      40.204  29.440  30.844  1.00  0.00     0.167 HD
ATOM     23  C   UNL A   1      43.376  28.173  33.613  1.00  0.00     0.037 A 
ATOM     24  C   UNL A   1      37.947  30.877  30.066  1.00  0.00     0.037 A 
ATOM     25  C   UNL A   1      42.615  29.160  34.322  1.00  0.00     0.049 A 
ATOM     26  C   UNL A   1      38.180  31.182  31.520  1.00  0.00     0.074 A 
ATOM     27  C   UNL A   1      42.849  29.698  35.574  1.00  0.00     0.029 A 
ATOM     28  N   UNL A   1      41.454  29.747  33.839  1.00  0.00    -0.354 N 
ATOM     29  N   UNL A   1      39.166  30.799  32.293  1.00  0.00    -0.248 NA
ATOM     30  C   UNL A   1      37.199  32.053  32.184  1.00  0.00     0.031 C 
ATOM     31  C   UNL A   1      41.804  30.578  35.867  1.00  0.00     0.029 A 
ATOM     32  C   UNL A   1      40.939  30.616  34.783  1.00  0.00     0.049 A 
ATOM     33  H   UNL A   1      41.057  29.570  32.956  1.00  0.00     0.167 HD
ATOM     34  C   UNL A   1      38.957  31.419  33.516  1.00  0.00     0.074 A 
ATOM     35  C   UNL A   1      37.735  32.186  33.391  1.00  0.00     0.031 C 
ATOM     36  C   UNL A   1      39.723  31.374  34.632  1.00  0.00     0.037 A 
BRANCH  23  37
ATOM     37  C   UNL A   1      44.611  27.618  34.253  1.00  0.00     0.064 A 
ATOM     38  C   UNL A   1      45.862  28.211  34.042  1.00  0.00     0.173 A 
ATOM     39  C   UNL A   1      44.552  26.467  35.056  1.00  0.00     0.173 A 
ATOM     40  F   UNL A   1      45.969  29.312  33.284  1.00  0.00    -0.203 F 
ATOM     41  C   UNL A   1      47.014  27.668  34.607  1.00  0.00     0.198 A 
ATOM     42  C   UNL A   1      45.702  25.939  35.635  1.00  0.00     0.198 A 
ATOM     43  F   UNL A   1      43.373  25.874  35.298  1.00  0.00    -0.203 F 
ATOM     44  F   UNL A   1      48.204  28.241  34.381  1.00  0.00    -0.200 F 
ATOM     45  C   UNL A   1      46.932  26.537  35.405  1.00  0.00     0.200 A 
ATOM     46  F   UNL A   1      45.617  24.858  36.423  1.00  0.00    -0.200 F 
ATOM     47  F   UNL A   1      48.040  26.023  35.958  1.00  0.00    -0.200 F 
ENDBRANCH  23  37
BRANCH  24  48
ATOM     48  C   UNL A   1      36.779  31.443  29.347  1.00  0.00     0.064 A 
ATOM     49  C   UNL A   1      35.692  30.631  28.992  1.00  0.00     0.173 A 
ATOM     50  C   UNL A   1      36.710  32.801  29.017  1.00  0.00     0.173 A 
ATOM     51  F   UNL A   1      35.690  29.333  29.320  1.00  0.00    -0.203 F 
ATOM     52  C   UNL A   1      34.590  31.151  28.316  1.00  0.00     0.198 A 
ATOM     53  C   UNL A   1      35.599  33.326  28.357  1.00  0.00     0.198 A 
ATOM     54  F   UNL A   1      37.709  33.625  29.365  1.00  0.00    -0.203 F 
ATOM     55  F   UNL A   1      33.571  30.347  27.979  1.00  0.00    -0.200 F 
ATOM     56  C   UNL A   1      34.542  32.500  28.002  1.00  0.00     0.200 A 
ATOM     57  F   UNL A   1      35.544  34.635  28.079  1.00  0.00    -0.200 F 
ATOM     58  F   UNL A   1      33.476  33.005  27.366  1.00  0.00    -0.200 F 
ENDBRANCH  24  48
BRANCH  36  59
ATOM     59  C   UNL A   1      39.293  32.199  35.804  1.00  0.00     0.064 A 
ATOM     60  C   UNL A   1      38.357  31.694  36.718  1.00  0.00     0.173 A 
ATOM     61  C   UNL A   1      39.722  33.523  35.958  1.00  0.00     0.173 A 
ATOM     62  F   UNL A   1      37.915  30.432  36.605  1.00  0.00    -0.203 F 
ATOM     63  C   UNL A   1      37.842  32.497  37.731  1.00  0.00     0.198 A 
ATOM     64  C   UNL A   1      39.223  34.317  36.987  1.00  0.00     0.198 A 
ATOM     65  F   UNL A   1      40.629  34.042  35.115  1.00  0.00    -0.203 F 
ATOM     66  F   UNL A   1      36.917  32.009  38.566  1.00  0.00    -0.200 F 
ATOM     67  C   UNL A   1      38.275  33.808  37.863  1.00  0.00     0.200 A 
ATOM     68  F   UNL A   1      39.657  35.577  37.127  1.00  0.00    -0.200 F 
ATOM     69  F   UNL A   1      37.777  34.582  38.836  1.00  0.00    -0.200 F 
ENDBRANCH  36  59
ENDBRANCH  10  11
ENDBRANCH   3   5
ENDBRANCH   2   3
ENDBRANCH   1   2
BRANCH   1  70
ATOM     70  C   UNL A   1      42.770  21.066  26.102  1.00  0.00     0.275 C 
BRANCH  70  71
ATOM     71  O   UNL A   1      41.473  21.552  25.722  1.00  0.00    -0.458 OA
BRANCH  71  72
ATOM     72  C   UNL A   1      40.450  21.118  26.504  1.00  0.00     0.341 C 
ATOM     73  O   UNL A   1      40.511  20.313  27.417  1.00  0.00    -0.246 OA
BRANCH  72  74
ATOM     74  C   UNL A   1      39.219  21.826  26.128  1.00  0.00     0.099 A 
ATOM     75  C   UNL A   1      39.005  23.165  26.465  1.00  0.00     0.021 A 
ATOM     76  C   UNL A   1      38.245  21.128  25.432  1.00  0.00     0.175 A 
ATOM     77  C   UNL A   1      37.793  23.792  26.121  1.00  0.00     0.030 A 
ATOM     78  C   UNL A   1      37.042  21.751  25.123  1.00  0.00     0.182 A 
ATOM     79  F   UNL A   1      38.407  19.831  25.134  1.00  0.00    -0.203 F 
ATOM     80  C   UNL A   1      36.776  23.092  25.465  1.00  0.00     0.074 A 
ATOM     81  F   UNL A   1      36.076  21.036  24.520  1.00  0.00    -0.201 F 
BRANCH  80  82
ATOM     82  N   UNL A   1      35.506  23.600  25.130  1.00  0.00    -0.380 N 
ATOM     83  H   UNL A   1      35.485  24.085  24.274  1.00  0.00     0.160 HD
BRANCH  82  84
ATOM     84  C   UNL A   1      34.220  23.547  25.806  1.00  0.00     0.079 C 
ATOM     85  C   UNL A   1      33.368  22.330  25.943  1.00  0.00     0.027 C 
ATOM     86  C   UNL A   1      33.984  22.961  27.164  1.00  0.00     0.027 C 
ENDBRANCH  82  84
ENDBRANCH  80  82
ENDBRANCH  72  74
ENDBRANCH  71  72
ENDBRANCH  70  71
ENDBRANCH   1  70
TORSDOF 13
ENDMDL
