MODEL 1
REMARK VINA RESULT:     -11.2      0.000      0.000
REMARK SMILES CC(C)C[C@H](NC(=O)CNC(=O)[C@@H](NC(=O)OCc1ccccc1)C(C)C)C(=O)N[C@@H](C)C(=O)OCCOC(=O)c1ccc(-c2c3nc(c(-c4c(F)c(F)c(F)c(F)c4F)c4ccc([nH]4)c(-c4c(F)c(F)c(F)c(F)c4F)c4nc(c(-c5c(F)c(F)c(F)c(F)c5F)c5ccc2[nH]5)C=C4)C=C3)cc1
REMARK SMILES IDX 31 1 32 2 30 3 28 4 29 5 5 7 4 8 2 9 1 10 3 11 6 12 7 13
REMARK SMILES IDX 8 15 9 16 10 17 11 18 12 20 13 21 14 22 15 23 16 25 17 26
REMARK SMILES IDX 18 27 19 28 20 29 24 30 21 31 23 32 22 33 25 34 26 35 27 36
REMARK SMILES IDX 33 37 34 38 35 39 36 40 37 41 38 42 39 43 40 44 41 45 42 46
REMARK SMILES IDX 103 47 43 48 102 49 44 50 45 51 46 52 96 53 47 54 101 55
REMARK SMILES IDX 95 56 97 57 48 58 100 59 94 60 93 61 49 63 81 64 61 65 80 66
REMARK SMILES IDX 62 67 65 68 79 69 98 70 63 71 64 72 78 74 99 75 66 76 50 77
REMARK SMILES IDX 51 78 59 79 52 80 53 81 57 82 60 83 54 84 55 85 58 86 56 87
REMARK SMILES IDX 82 88 83 89 91 90 84 91 85 92 89 93 92 94 86 95 87 96 90 97
REMARK SMILES IDX 88 98 67 99 68 100 76 101 69 102 70 103 74 104 77 105 71 106
REMARK SMILES IDX 72 107 75 108 73 109
REMARK H PARENT 30 6 6 14 10 19 14 24 97 62 65 73
REMARK Flexibility Score: inf
ROOT
ATOM      1  C   UNL A   1      31.781  28.903  26.297  1.00  0.00     0.189 C 
ATOM      2  C   UNL A   1      31.373  28.594  27.736  1.00  0.00     0.043 C 
ENDROOT
BRANCH   1   3
ATOM      3  N   UNL A   1      31.199  27.880  25.414  1.00  0.00    -0.341 N 
ATOM      4  C   UNL A   1      30.769  27.978  24.122  1.00  0.00     0.243 C 
ATOM      5  O   UNL A   1      30.146  27.033  23.635  1.00  0.00    -0.273 OA
ATOM      6  H   UNL A   1      31.106  26.986  25.817  1.00  0.00     0.164 HD
BRANCH   4   7
ATOM      7  C   UNL A   1      31.177  29.180  23.256  1.00  0.00     0.171 C 
BRANCH   7   8
ATOM      8  C   UNL A   1      30.049  29.465  22.277  1.00  0.00     0.038 C 
BRANCH   8   9
ATOM      9  C   UNL A   1      28.871  30.385  22.659  1.00  0.00    -0.015 C 
ATOM     10  C   UNL A   1      29.194  31.258  23.869  1.00  0.00     0.007 C 
ATOM     11  C   UNL A   1      28.512  31.314  21.487  1.00  0.00     0.007 C 
ENDBRANCH   8   9
ENDBRANCH   7   8
BRANCH   7  12
ATOM     12  N   UNL A   1      32.540  28.928  22.726  1.00  0.00    -0.343 N 
ATOM     13  C   UNL A   1      33.400  27.926  22.441  1.00  0.00     0.240 C 
ATOM     14  H   UNL A   1      32.966  29.788  22.508  1.00  0.00     0.164 HD
ATOM     15  O   UNL A   1      34.364  28.265  21.736  1.00  0.00    -0.273 OA
BRANCH  13  16
ATOM     16  C   UNL A   1      33.271  26.447  22.803  1.00  0.00     0.216 C 
BRANCH  16  17
ATOM     17  N   UNL A   1      33.172  25.491  21.732  1.00  0.00    -0.345 N 
ATOM     18  C   UNL A   1      33.403  24.173  21.581  1.00  0.00     0.243 C 
ATOM     19  H   UNL A   1      32.855  25.906  20.898  1.00  0.00     0.164 HD
ATOM     20  O   UNL A   1      33.285  23.758  20.424  1.00  0.00    -0.273 OA
BRANCH  18  21
ATOM     21  C   UNL A   1      33.905  23.165  22.618  1.00  0.00     0.177 C 
BRANCH  21  22
ATOM     22  N   UNL A   1      35.218  23.389  23.174  1.00  0.00    -0.309 N 
ATOM     23  C   UNL A   1      35.743  23.201  24.403  1.00  0.00     0.408 C 
ATOM     24  H   UNL A   1      35.863  23.753  22.524  1.00  0.00     0.167 HD
ATOM     25  O   UNL A   1      36.791  23.773  24.665  1.00  0.00    -0.225 OA
BRANCH  23  26
ATOM     26  O   UNL A   1      34.981  22.476  25.252  1.00  0.00    -0.445 OA
BRANCH  26  27
ATOM     27  C   UNL A   1      34.774  23.091  26.542  1.00  0.00     0.270 C 
BRANCH  27  28
ATOM     28  C   UNL A   1      33.323  23.470  26.730  1.00  0.00    -0.011 A 
ATOM     29  C   UNL A   1      32.881  24.753  26.398  1.00  0.00     0.007 A 
ATOM     30  C   UNL A   1      32.372  22.498  27.074  1.00  0.00     0.007 A 
ATOM     31  C   UNL A   1      31.516  25.028  26.312  1.00  0.00     0.000 A 
ATOM     32  C   UNL A   1      31.008  22.768  26.974  1.00  0.00     0.000 A 
ATOM     33  C   UNL A   1      30.580  24.029  26.573  1.00  0.00     0.000 A 
ENDBRANCH  27  28
ENDBRANCH  26  27
ENDBRANCH  23  26
ENDBRANCH  21  22
BRANCH  21  34
ATOM     34  C   UNL A   1      32.731  22.695  23.494  1.00  0.00     0.015 C 
ATOM     35  C   UNL A   1      31.391  23.304  23.016  1.00  0.00     0.010 C 
ATOM     36  C   UNL A   1      32.580  21.195  23.494  1.00  0.00     0.010 C 
ENDBRANCH  21  34
ENDBRANCH  18  21
ENDBRANCH  16  17
ENDBRANCH  13  16
ENDBRANCH   7  12
ENDBRANCH   4   7
ENDBRANCH   1   3
BRANCH   1  37
ATOM     37  C   UNL A   1      33.314  29.084  26.196  1.00  0.00     0.328 C 
ATOM     38  O   UNL A   1      34.047  28.283  25.624  1.00  0.00    -0.250 OA
BRANCH  37  39
ATOM     39  O   UNL A   1      33.762  30.134  26.952  1.00  0.00    -0.461 OA
BRANCH  39  40
ATOM     40  C   UNL A   1      33.171  31.428  26.662  1.00  0.00     0.274 C 
BRANCH  40  41
ATOM     41  C   UNL A   1      33.300  32.407  27.853  1.00  0.00     0.275 C 
BRANCH  41  42
ATOM     42  O   UNL A   1      33.192  33.842  27.593  1.00  0.00    -0.458 OA
BRANCH  42  43
ATOM     43  C   UNL A   1      33.234  34.646  28.674  1.00  0.00     0.338 C 
ATOM     44  O   UNL A   1      32.507  35.618  28.843  1.00  0.00    -0.246 OA
BRANCH  43  45
ATOM     45  C   UNL A   1      34.268  34.357  29.710  1.00  0.00     0.060 A 
ATOM     46  C   UNL A   1      35.526  34.138  29.163  1.00  0.00     0.016 A 
ATOM     47  C   UNL A   1      34.030  33.914  31.020  1.00  0.00     0.016 A 
ATOM     48  C   UNL A   1      36.413  33.277  29.808  1.00  0.00     0.010 A 
ATOM     49  C   UNL A   1      35.036  33.182  31.739  1.00  0.00     0.010 A 
ATOM     50  C   UNL A   1      36.243  32.796  31.130  1.00  0.00    -0.014 A 
BRANCH  50  51
ATOM     51  C   UNL A   1      37.394  31.969  31.706  1.00  0.00     0.031 A 
ATOM     52  C   UNL A   1      38.002  30.676  31.142  1.00  0.00     0.074 A 
ATOM     53  C   UNL A   1      38.050  32.498  32.766  1.00  0.00     0.049 A 
ATOM     54  N   UNL A   1      39.242  30.228  31.254  1.00  0.00    -0.248 NA
ATOM     55  C   UNL A   1      37.157  29.765  30.365  1.00  0.00     0.031 C 
ATOM     56  C   UNL A   1      37.630  33.686  33.524  1.00  0.00     0.029 A 
ATOM     57  N   UNL A   1      39.219  32.123  33.385  1.00  0.00    -0.354 N 
ATOM     58  C   UNL A   1      39.357  29.110  30.418  1.00  0.00     0.074 A 
ATOM     59  C   UNL A   1      38.032  28.872  29.897  1.00  0.00     0.031 C 
ATOM     60  C   UNL A   1      38.554  33.986  34.435  1.00  0.00     0.029 A 
ATOM     61  C   UNL A   1      39.500  32.885  34.489  1.00  0.00     0.049 A 
ATOM     62  H   UNL A   1      39.793  31.388  33.069  1.00  0.00     0.167 HD
ATOM     63  C   UNL A   1      40.454  28.346  30.139  1.00  0.00     0.037 A 
ATOM     64  C   UNL A   1      40.296  32.649  35.544  1.00  0.00     0.037 A 
ATOM     65  C   UNL A   1      41.620  28.316  30.992  1.00  0.00     0.049 A 
ATOM     66  C   UNL A   1      41.194  31.465  35.525  1.00  0.00     0.074 A 
ATOM     67  C   UNL A   1      42.778  27.562  30.873  1.00  0.00     0.029 A 
ATOM     68  N   UNL A   1      41.681  28.933  32.230  1.00  0.00    -0.354 N 
ATOM     69  N   UNL A   1      41.458  30.660  34.529  1.00  0.00    -0.248 NA
ATOM     70  C   UNL A   1      41.891  31.148  36.772  1.00  0.00     0.031 C 
ATOM     71  C   UNL A   1      43.427  27.570  32.119  1.00  0.00     0.029 A 
ATOM     72  C   UNL A   1      42.733  28.414  32.969  1.00  0.00     0.049 A 
ATOM     73  H   UNL A   1      41.067  29.637  32.541  1.00  0.00     0.167 HD
ATOM     74  C   UNL A   1      42.367  29.739  35.020  1.00  0.00     0.074 A 
ATOM     75  C   UNL A   1      42.606  30.091  36.406  1.00  0.00     0.031 C 
ATOM     76  C   UNL A   1      42.954  28.710  34.362  1.00  0.00     0.037 A 
BRANCH  63  77
ATOM     77  C   UNL A   1      40.465  27.397  28.952  1.00  0.00     0.064 A 
ATOM     78  C   UNL A   1      39.680  26.233  28.959  1.00  0.00     0.173 A 
ATOM     79  C   UNL A   1      41.052  27.728  27.725  1.00  0.00     0.173 A 
ATOM     80  F   UNL A   1      38.944  25.940  30.026  1.00  0.00    -0.203 F 
ATOM     81  C   UNL A   1      39.553  25.393  27.853  1.00  0.00     0.198 A 
ATOM     82  C   UNL A   1      40.885  26.917  26.594  1.00  0.00     0.198 A 
ATOM     83  F   UNL A   1      41.735  28.874  27.598  1.00  0.00    -0.203 F 
ATOM     84  F   UNL A   1      38.811  24.280  27.936  1.00  0.00    -0.200 F 
ATOM     85  C   UNL A   1      40.153  25.741  26.662  1.00  0.00     0.200 A 
ATOM     86  F   UNL A   1      41.409  27.295  25.418  1.00  0.00    -0.200 F 
ATOM     87  F   UNL A   1      39.995  24.968  25.579  1.00  0.00    -0.200 F 
ENDBRANCH  63  77
BRANCH  64  88
ATOM     88  C   UNL A   1      40.031  33.447  36.768  1.00  0.00     0.064 A 
ATOM     89  C   UNL A   1      39.067  33.079  37.706  1.00  0.00     0.173 A 
ATOM     90  C   UNL A   1      40.884  34.527  37.080  1.00  0.00     0.173 A 
ATOM     91  F   UNL A   1      38.223  32.072  37.442  1.00  0.00    -0.203 F 
ATOM     92  C   UNL A   1      38.992  33.735  38.934  1.00  0.00     0.198 A 
ATOM     93  C   UNL A   1      40.837  35.146  38.321  1.00  0.00     0.198 A 
ATOM     94  F   UNL A   1      41.828  34.911  36.207  1.00  0.00    -0.203 F 
ATOM     95  F   UNL A   1      38.065  33.368  39.828  1.00  0.00    -0.200 F 
ATOM     96  C   UNL A   1      39.891  34.748  39.249  1.00  0.00     0.200 A 
ATOM     97  F   UNL A   1      41.736  36.090  38.629  1.00  0.00    -0.200 F 
ATOM     98  F   UNL A   1      39.853  35.331  40.454  1.00  0.00    -0.200 F 
ENDBRANCH  64  88
BRANCH  76  99
ATOM     99  C   UNL A   1      43.925  27.880  35.144  1.00  0.00     0.064 A 
ATOM    100  C   UNL A   1      45.263  28.272  35.300  1.00  0.00     0.173 A 
ATOM    101  C   UNL A   1      43.527  26.660  35.708  1.00  0.00     0.173 A 
ATOM    102  F   UNL A   1      45.698  29.418  34.755  1.00  0.00    -0.203 F 
ATOM    103  C   UNL A   1      46.176  27.453  35.958  1.00  0.00     0.198 A 
ATOM    104  C   UNL A   1      44.434  25.858  36.394  1.00  0.00     0.198 A 
ATOM    105  F   UNL A   1      42.260  26.237  35.583  1.00  0.00    -0.203 F 
ATOM    106  F   UNL A   1      47.465  27.812  36.030  1.00  0.00    -0.200 F 
ATOM    107  C   UNL A   1      45.760  26.249  36.506  1.00  0.00     0.200 A 
ATOM    108  F   UNL A   1      44.029  24.699  36.929  1.00  0.00    -0.200 F 
ATOM    109  F   UNL A   1      46.642  25.455  37.129  1.00  0.00    -0.200 F 
ENDBRANCH  76  99
ENDBRANCH  50  51
ENDBRANCH  43  45
ENDBRANCH  42  43
ENDBRANCH  41  42
ENDBRANCH  40  41
ENDBRANCH  39  40
ENDBRANCH  37  39
ENDBRANCH   1  37
TORSDOF 24
ENDMDL
MODEL 2
REMARK VINA RESULT:     -11.1      1.531      7.342
REMARK SMILES CC(C)C[C@H](NC(=O)CNC(=O)[C@@H](NC(=O)OCc1ccccc1)C(C)C)C(=O)N[C@@H](C)C(=O)OCCOC(=O)c1ccc(-c2c3nc(c(-c4c(F)c(F)c(F)c(F)c4F)c4ccc([nH]4)c(-c4c(F)c(F)c(F)c(F)c4F)c4nc(c(-c5c(F)c(F)c(F)c(F)c5F)c5ccc2[nH]5)C=C4)C=C3)cc1
REMARK SMILES IDX 31 1 32 2 30 3 28 4 29 5 5 7 4 8 2 9 1 10 3 11 6 12 7 13
REMARK SMILES IDX 8 15 9 16 10 17 11 18 12 20 13 21 14 22 15 23 16 25 17 26
REMARK SMILES IDX 18 27 19 28 20 29 24 30 21 31 23 32 22 33 25 34 26 35 27 36
REMARK SMILES IDX 33 37 34 38 35 39 36 40 37 41 38 42 39 43 40 44 41 45 42 46
REMARK SMILES IDX 103 47 43 48 102 49 44 50 45 51 46 52 96 53 47 54 101 55
REMARK SMILES IDX 95 56 97 57 48 58 100 59 94 60 93 61 49 63 81 64 61 65 80 66
REMARK SMILES IDX 62 67 65 68 79 69 98 70 63 71 64 72 78 74 99 75 66 76 50 77
REMARK SMILES IDX 51 78 59 79 52 80 53 81 57 82 60 83 54 84 55 85 58 86 56 87
REMARK SMILES IDX 82 88 83 89 91 90 84 91 85 92 89 93 92 94 86 95 87 96 90 97
REMARK SMILES IDX 88 98 67 99 68 100 76 101 69 102 70 103 74 104 77 105 71 106
REMARK SMILES IDX 72 107 75 108 73 109
REMARK H PARENT 30 6 6 14 10 19 14 24 97 62 65 73
REMARK Flexibility Score: inf
ROOT
ATOM      1  C   UNL A   1      32.703  28.365  25.756  1.00  0.00     0.189 C 
ATOM      2  C   UNL A   1      33.537  27.492  26.694  1.00  0.00     0.043 C 
ENDROOT
BRANCH   1   3
ATOM      3  N   UNL A   1      33.567  28.840  24.666  1.00  0.00    -0.341 N 
ATOM      4  C   UNL A   1      33.499  28.598  23.323  1.00  0.00     0.243 C 
ATOM      5  O   UNL A   1      34.440  28.955  22.612  1.00  0.00    -0.273 OA
ATOM      6  H   UNL A   1      34.309  29.424  24.946  1.00  0.00     0.164 HD
BRANCH   4   7
ATOM      7  C   UNL A   1      32.217  28.024  22.701  1.00  0.00     0.171 C 
BRANCH   7   8
ATOM      8  C   UNL A   1      31.374  27.426  23.816  1.00  0.00     0.038 C 
BRANCH   8   9
ATOM      9  C   UNL A   1      29.859  27.700  23.909  1.00  0.00    -0.015 C 
ATOM     10  C   UNL A   1      29.361  28.571  22.758  1.00  0.00     0.007 C 
ATOM     11  C   UNL A   1      29.070  26.381  23.879  1.00  0.00     0.007 C 
ENDBRANCH   8   9
ENDBRANCH   7   8
BRANCH   7  12
ATOM     12  N   UNL A   1      32.603  27.165  21.553  1.00  0.00    -0.343 N 
ATOM     13  C   UNL A   1      32.917  25.889  21.242  1.00  0.00     0.240 C 
ATOM     14  H   UNL A   1      32.645  27.715  20.738  1.00  0.00     0.164 HD
ATOM     15  O   UNL A   1      32.903  25.642  20.025  1.00  0.00    -0.273 OA
BRANCH  13  16
ATOM     16  C   UNL A   1      33.189  24.728  22.197  1.00  0.00     0.216 C 
BRANCH  16  17
ATOM     17  N   UNL A   1      34.147  24.925  23.252  1.00  0.00    -0.345 N 
ATOM     18  C   UNL A   1      34.275  24.536  24.535  1.00  0.00     0.243 C 
ATOM     19  H   UNL A   1      34.900  25.489  22.963  1.00  0.00     0.164 HD
ATOM     20  O   UNL A   1      35.232  25.037  25.133  1.00  0.00    -0.273 OA
BRANCH  18  21
ATOM     21  C   UNL A   1      33.331  23.665  25.369  1.00  0.00     0.177 C 
BRANCH  21  22
ATOM     22  N   UNL A   1      33.877  23.049  26.554  1.00  0.00    -0.309 N 
ATOM     23  C   UNL A   1      34.278  21.792  26.839  1.00  0.00     0.408 C 
ATOM     24  H   UNL A   1      33.978  23.673  27.310  1.00  0.00     0.167 HD
ATOM     25  O   UNL A   1      34.401  21.490  28.016  1.00  0.00    -0.225 OA
BRANCH  23  26
ATOM     26  O   UNL A   1      34.396  20.969  25.773  1.00  0.00    -0.445 OA
BRANCH  26  27
ATOM     27  C   UNL A   1      33.171  20.303  25.396  1.00  0.00     0.270 C 
BRANCH  27  28
ATOM     28  C   UNL A   1      33.449  19.177  24.426  1.00  0.00    -0.011 A 
ATOM     29  C   UNL A   1      34.542  18.331  24.625  1.00  0.00     0.007 A 
ATOM     30  C   UNL A   1      32.528  18.862  23.417  1.00  0.00     0.007 A 
ATOM     31  C   UNL A   1      34.654  17.142  23.903  1.00  0.00     0.000 A 
ATOM     32  C   UNL A   1      32.629  17.668  22.706  1.00  0.00     0.000 A 
ATOM     33  C   UNL A   1      33.684  16.797  22.963  1.00  0.00     0.000 A 
ENDBRANCH  27  28
ENDBRANCH  26  27
ENDBRANCH  23  26
ENDBRANCH  21  22
BRANCH  21  34
ATOM     34  C   UNL A   1      31.919  24.275  25.357  1.00  0.00     0.015 C 
ATOM     35  C   UNL A   1      30.903  23.337  24.660  1.00  0.00     0.010 C 
ATOM     36  C   UNL A   1      31.405  24.555  26.747  1.00  0.00     0.010 C 
ENDBRANCH  21  34
ENDBRANCH  18  21
ENDBRANCH  16  17
ENDBRANCH  13  16
ENDBRANCH   7  12
ENDBRANCH   4   7
ENDBRANCH   1   3
BRANCH   1  37
ATOM     37  C   UNL A   1      31.963  29.463  26.556  1.00  0.00     0.328 C 
ATOM     38  O   UNL A   1      31.400  29.249  27.625  1.00  0.00    -0.250 OA
BRANCH  37  39
ATOM     39  O   UNL A   1      31.867  30.636  25.857  1.00  0.00    -0.461 OA
BRANCH  39  40
ATOM     40  C   UNL A   1      31.638  31.833  26.646  1.00  0.00     0.274 C 
BRANCH  40  41
ATOM     41  C   UNL A   1      32.883  32.233  27.474  1.00  0.00     0.275 C 
BRANCH  41  42
ATOM     42  O   UNL A   1      33.412  33.588  27.331  1.00  0.00    -0.458 OA
BRANCH  42  43
ATOM     43  C   UNL A   1      33.361  34.365  28.432  1.00  0.00     0.338 C 
ATOM     44  O   UNL A   1      32.528  35.244  28.621  1.00  0.00    -0.246 OA
BRANCH  43  45
ATOM     45  C   UNL A   1      34.420  34.169  29.464  1.00  0.00     0.060 A 
ATOM     46  C   UNL A   1      35.701  34.217  28.930  1.00  0.00     0.016 A 
ATOM     47  C   UNL A   1      34.251  33.580  30.726  1.00  0.00     0.016 A 
ATOM     48  C   UNL A   1      36.719  33.469  29.522  1.00  0.00     0.010 A 
ATOM     49  C   UNL A   1      35.361  32.972  31.405  1.00  0.00     0.010 A 
ATOM     50  C   UNL A   1      36.623  32.853  30.794  1.00  0.00    -0.014 A 
BRANCH  50  51
ATOM     51  C   UNL A   1      37.894  32.190  31.326  1.00  0.00     0.031 A 
ATOM     52  C   UNL A   1      38.708  32.573  32.571  1.00  0.00     0.074 A 
ATOM     53  C   UNL A   1      38.286  31.047  30.712  1.00  0.00     0.049 A 
ATOM     54  N   UNL A   1      39.440  31.795  33.352  1.00  0.00    -0.248 NA
ATOM     55  C   UNL A   1      38.727  33.969  33.015  1.00  0.00     0.031 C 
ATOM     56  C   UNL A   1      37.716  30.508  29.469  1.00  0.00     0.029 A 
ATOM     57  N   UNL A   1      39.242  30.120  31.052  1.00  0.00    -0.354 N 
ATOM     58  C   UNL A   1      39.831  32.564  34.455  1.00  0.00     0.074 A 
ATOM     59  C   UNL A   1      39.361  33.902  34.187  1.00  0.00     0.031 C 
ATOM     60  C   UNL A   1      38.264  29.324  29.202  1.00  0.00     0.029 A 
ATOM     61  C   UNL A   1      39.384  29.137  30.108  1.00  0.00     0.049 A 
ATOM     62  H   UNL A   1      39.767  30.157  31.884  1.00  0.00     0.167 HD
ATOM     63  C   UNL A   1      40.537  32.192  35.564  1.00  0.00     0.037 A 
ATOM     64  C   UNL A   1      40.393  28.286  29.865  1.00  0.00     0.037 A 
ATOM     65  C   UNL A   1      41.366  31.009  35.600  1.00  0.00     0.049 A 
ATOM     66  C   UNL A   1      41.521  28.205  30.829  1.00  0.00     0.074 A 
ATOM     67  C   UNL A   1      42.174  30.531  36.621  1.00  0.00     0.029 A 
ATOM     68  N   UNL A   1      41.641  30.231  34.488  1.00  0.00    -0.354 N 
ATOM     69  N   UNL A   1      41.618  28.746  32.016  1.00  0.00    -0.248 NA
ATOM     70  C   UNL A   1      42.681  27.411  30.420  1.00  0.00     0.031 C 
ATOM     71  C   UNL A   1      43.072  29.606  36.063  1.00  0.00     0.029 A 
ATOM     72  C   UNL A   1      42.747  29.431  34.729  1.00  0.00     0.049 A 
ATOM     73  H   UNL A   1      41.126  30.244  33.649  1.00  0.00     0.167 HD
ATOM     74  C   UNL A   1      42.849  28.351  32.510  1.00  0.00     0.074 A 
ATOM     75  C   UNL A   1      43.459  27.522  31.490  1.00  0.00     0.031 C 
ATOM     76  C   UNL A   1      43.400  28.644  33.714  1.00  0.00     0.037 A 
BRANCH  63  77
ATOM     77  C   UNL A   1      40.565  33.070  36.804  1.00  0.00     0.064 A 
ATOM     78  C   UNL A   1      41.534  34.077  36.946  1.00  0.00     0.173 A 
ATOM     79  C   UNL A   1      39.524  33.091  37.740  1.00  0.00     0.173 A 
ATOM     80  F   UNL A   1      42.455  34.243  36.003  1.00  0.00    -0.203 F 
ATOM     81  C   UNL A   1      41.532  34.992  37.999  1.00  0.00     0.198 A 
ATOM     82  C   UNL A   1      39.487  34.041  38.770  1.00  0.00     0.198 A 
ATOM     83  F   UNL A   1      38.502  32.232  37.622  1.00  0.00    -0.203 F 
ATOM     84  F   UNL A   1      42.505  35.909  38.093  1.00  0.00    -0.200 F 
ATOM     85  C   UNL A   1      40.500  34.979  38.911  1.00  0.00     0.200 A 
ATOM     86  F   UNL A   1      38.444  34.073  39.612  1.00  0.00    -0.200 F 
ATOM     87  F   UNL A   1      40.461  35.886  39.896  1.00  0.00    -0.200 F 
ENDBRANCH  63  77
BRANCH  64  88
ATOM     88  C   UNL A   1      40.436  27.675  28.513  1.00  0.00     0.064 A 
ATOM     89  C   UNL A   1      41.129  28.255  27.451  1.00  0.00     0.173 A 
ATOM     90  C   UNL A   1      39.894  26.386  28.326  1.00  0.00     0.173 A 
ATOM     91  F   UNL A   1      41.643  29.487  27.578  1.00  0.00    -0.203 F 
ATOM     92  C   UNL A   1      41.316  27.552  26.262  1.00  0.00     0.198 A 
ATOM     93  C   UNL A   1      40.123  25.670  27.160  1.00  0.00     0.198 A 
ATOM     94  F   UNL A   1      39.224  25.788  29.324  1.00  0.00    -0.203 F 
ATOM     95  F   UNL A   1      41.988  28.120  25.252  1.00  0.00    -0.200 F 
ATOM     96  C   UNL A   1      40.837  26.253  26.128  1.00  0.00     0.200 A 
ATOM     97  F   UNL A   1      39.694  24.405  27.059  1.00  0.00    -0.200 F 
ATOM     98  F   UNL A   1      41.074  25.561  25.006  1.00  0.00    -0.200 F 
ENDBRANCH  64  88
BRANCH  76  99
ATOM     99  C   UNL A   1      44.748  28.056  33.994  1.00  0.00     0.064 A 
ATOM    100  C   UNL A   1      44.887  26.764  34.524  1.00  0.00     0.173 A 
ATOM    101  C   UNL A   1      45.912  28.805  33.773  1.00  0.00     0.173 A 
ATOM    102  F   UNL A   1      43.802  26.019  34.779  1.00  0.00    -0.203 F 
ATOM    103  C   UNL A   1      46.141  26.259  34.859  1.00  0.00     0.198 A 
ATOM    104  C   UNL A   1      47.167  28.285  34.077  1.00  0.00     0.198 A 
ATOM    105  F   UNL A   1      45.834  30.047  33.273  1.00  0.00    -0.203 F 
ATOM    106  F   UNL A   1      46.244  25.052  35.432  1.00  0.00    -0.200 F 
ATOM    107  C   UNL A   1      47.279  27.019  34.633  1.00  0.00     0.200 A 
ATOM    108  F   UNL A   1      48.266  29.017  33.852  1.00  0.00    -0.200 F 
ATOM    109  F   UNL A   1      48.484  26.537  34.965  1.00  0.00    -0.200 F 
ENDBRANCH  76  99
ENDBRANCH  50  51
ENDBRANCH  43  45
ENDBRANCH  42  43
ENDBRANCH  41  42
ENDBRANCH  40  41
ENDBRANCH  39  40
ENDBRANCH  37  39
ENDBRANCH   1  37
TORSDOF 24
ENDMDL
MODEL 3
REMARK VINA RESULT:     -10.6      1.708      2.381
REMARK SMILES CC(C)C[C@H](NC(=O)CNC(=O)[C@@H](NC(=O)OCc1ccccc1)C(C)C)C(=O)N[C@@H](C)C(=O)OCCOC(=O)c1ccc(-c2c3nc(c(-c4c(F)c(F)c(F)c(F)c4F)c4ccc([nH]4)c(-c4c(F)c(F)c(F)c(F)c4F)c4nc(c(-c5c(F)c(F)c(F)c(F)c5F)c5ccc2[nH]5)C=C4)C=C3)cc1
REMARK SMILES IDX 31 1 32 2 30 3 28 4 29 5 5 7 4 8 2 9 1 10 3 11 6 12 7 13
REMARK SMILES IDX 8 15 9 16 10 17 11 18 12 20 13 21 14 22 15 23 16 25 17 26
REMARK SMILES IDX 18 27 19 28 20 29 24 30 21 31 23 32 22 33 25 34 26 35 27 36
REMARK SMILES IDX 33 37 34 38 35 39 36 40 37 41 38 42 39 43 40 44 41 45 42 46
REMARK SMILES IDX 103 47 43 48 102 49 44 50 45 51 46 52 96 53 47 54 101 55
REMARK SMILES IDX 95 56 97 57 48 58 100 59 94 60 93 61 49 63 81 64 61 65 80 66
REMARK SMILES IDX 62 67 65 68 79 69 98 70 63 71 64 72 78 74 99 75 66 76 50 77
REMARK SMILES IDX 51 78 59 79 52 80 53 81 57 82 60 83 54 84 55 85 58 86 56 87
REMARK SMILES IDX 82 88 83 89 91 90 84 91 85 92 89 93 92 94 86 95 87 96 90 97
REMARK SMILES IDX 88 98 67 99 68 100 76 101 69 102 70 103 74 104 77 105 71 106
REMARK SMILES IDX 72 107 75 108 73 109
REMARK H PARENT 30 6 6 14 10 19 14 24 97 62 65 73
REMARK Flexibility Score: inf
ROOT
ATOM      1  C   UNL A   1      31.836  28.288  26.590  1.00  0.00     0.189 C 
ATOM      2  C   UNL A   1      31.224  27.905  27.936  1.00  0.00     0.043 C 
ENDROOT
BRANCH   1   3
ATOM      3  N   UNL A   1      31.274  27.411  25.551  1.00  0.00    -0.341 N 
ATOM      4  C   UNL A   1      30.563  27.724  24.428  1.00  0.00     0.243 C 
ATOM      5  O   UNL A   1      30.034  26.811  23.792  1.00  0.00    -0.273 OA
ATOM      6  H   UNL A   1      31.436  26.449  25.687  1.00  0.00     0.164 HD
BRANCH   4   7
ATOM      7  C   UNL A   1      30.546  29.165  23.896  1.00  0.00     0.171 C 
BRANCH   7   8
ATOM      8  C   UNL A   1      29.291  29.348  23.058  1.00  0.00     0.038 C 
BRANCH   8   9
ATOM      9  C   UNL A   1      28.828  30.748  22.605  1.00  0.00    -0.015 C 
ATOM     10  C   UNL A   1      28.231  30.728  21.200  1.00  0.00     0.007 C 
ATOM     11  C   UNL A   1      27.761  31.299  23.565  1.00  0.00     0.007 C 
ENDBRANCH   8   9
ENDBRANCH   7   8
BRANCH   7  12
ATOM     12  N   UNL A   1      31.867  29.448  23.280  1.00  0.00    -0.343 N 
ATOM     13  C   UNL A   1      32.998  28.836  22.867  1.00  0.00     0.240 C 
ATOM     14  H   UNL A   1      31.947  30.416  23.118  1.00  0.00     0.164 HD
ATOM     15  O   UNL A   1      33.726  29.539  22.148  1.00  0.00    -0.273 OA
BRANCH  13  16
ATOM     16  C   UNL A   1      33.423  27.387  23.104  1.00  0.00     0.216 C 
BRANCH  16  17
ATOM     17  N   UNL A   1      33.217  26.436  22.045  1.00  0.00    -0.345 N 
ATOM     18  C   UNL A   1      32.985  25.113  21.958  1.00  0.00     0.243 C 
ATOM     19  H   UNL A   1      33.257  26.860  21.157  1.00  0.00     0.164 HD
ATOM     20  O   UNL A   1      32.976  24.664  20.807  1.00  0.00    -0.273 OA
BRANCH  18  21
ATOM     21  C   UNL A   1      32.855  24.088  23.089  1.00  0.00     0.177 C 
BRANCH  21  22
ATOM     22  N   UNL A   1      31.680  24.172  23.923  1.00  0.00    -0.309 N 
ATOM     23  C   UNL A   1      31.500  24.219  25.260  1.00  0.00     0.408 C 
ATOM     24  H   UNL A   1      30.838  24.200  23.412  1.00  0.00     0.167 HD
ATOM     25  O   UNL A   1      30.383  23.969  25.689  1.00  0.00    -0.225 OA
BRANCH  23  26
ATOM     26  O   UNL A   1      32.619  24.436  25.985  1.00  0.00    -0.445 OA
BRANCH  26  27
ATOM     27  C   UNL A   1      33.056  23.299  26.761  1.00  0.00     0.270 C 
BRANCH  27  28
ATOM     28  C   UNL A   1      34.515  22.999  26.498  1.00  0.00    -0.011 A 
ATOM     29  C   UNL A   1      34.950  21.678  26.376  1.00  0.00     0.007 A 
ATOM     30  C   UNL A   1      35.414  24.035  26.204  1.00  0.00     0.007 A 
ATOM     31  C   UNL A   1      36.222  21.398  25.873  1.00  0.00     0.000 A 
ATOM     32  C   UNL A   1      36.677  23.757  25.687  1.00  0.00     0.000 A 
ATOM     33  C   UNL A   1      37.075  22.436  25.502  1.00  0.00     0.000 A 
ENDBRANCH  27  28
ENDBRANCH  26  27
ENDBRANCH  23  26
ENDBRANCH  21  22
BRANCH  21  34
ATOM     34  C   UNL A   1      33.418  22.733  22.626  1.00  0.00     0.015 C 
ATOM     35  C   UNL A   1      34.959  22.685  22.760  1.00  0.00     0.010 C 
ATOM     36  C   UNL A   1      32.853  21.579  23.416  1.00  0.00     0.010 C 
ENDBRANCH  21  34
ENDBRANCH  18  21
ENDBRANCH  16  17
ENDBRANCH  13  16
ENDBRANCH   7  12
ENDBRANCH   4   7
ENDBRANCH   1   3
BRANCH   1  37
ATOM     37  C   UNL A   1      33.380  28.314  26.685  1.00  0.00     0.328 C 
ATOM     38  O   UNL A   1      34.092  27.404  26.270  1.00  0.00    -0.250 OA
BRANCH  37  39
ATOM     39  O   UNL A   1      33.836  29.371  27.426  1.00  0.00    -0.461 OA
BRANCH  39  40
ATOM     40  C   UNL A   1      33.464  30.692  26.950  1.00  0.00     0.274 C 
BRANCH  40  41
ATOM     41  C   UNL A   1      33.806  31.799  27.977  1.00  0.00     0.275 C 
BRANCH  41  42
ATOM     42  O   UNL A   1      33.532  33.190  27.622  1.00  0.00    -0.458 OA
BRANCH  42  43
ATOM     43  C   UNL A   1      33.567  34.079  28.635  1.00  0.00     0.338 C 
ATOM     44  O   UNL A   1      32.778  35.007  28.769  1.00  0.00    -0.246 OA
BRANCH  43  45
ATOM     45  C   UNL A   1      34.671  33.948  29.630  1.00  0.00     0.060 A 
ATOM     46  C   UNL A   1      35.923  34.171  29.070  1.00  0.00     0.016 A 
ATOM     47  C   UNL A   1      34.605  33.277  30.859  1.00  0.00     0.016 A 
ATOM     48  C   UNL A   1      37.034  33.511  29.594  1.00  0.00     0.010 A 
ATOM     49  C   UNL A   1      35.797  32.763  31.477  1.00  0.00     0.010 A 
ATOM     50  C   UNL A   1      37.045  32.821  30.832  1.00  0.00    -0.014 A 
BRANCH  50  51
ATOM     51  C   UNL A   1      38.397  32.278  31.296  1.00  0.00     0.031 A 
ATOM     52  C   UNL A   1      39.207  31.120  30.692  1.00  0.00     0.074 A 
ATOM     53  C   UNL A   1      39.029  32.974  32.272  1.00  0.00     0.049 A 
ATOM     54  N   UNL A   1      40.519  30.948  30.679  1.00  0.00    -0.248 NA
ATOM     55  C   UNL A   1      38.503  30.023  30.025  1.00  0.00     0.031 C 
ATOM     56  C   UNL A   1      38.443  34.075  33.051  1.00  0.00     0.029 A 
ATOM     57  N   UNL A   1      40.306  32.877  32.769  1.00  0.00    -0.354 N 
ATOM     58  C   UNL A   1      40.785  29.848  29.855  1.00  0.00     0.074 A 
ATOM     59  C   UNL A   1      39.496  29.316  29.481  1.00  0.00     0.031 C 
ATOM     60  C   UNL A   1      39.369  34.597  33.853  1.00  0.00     0.029 A 
ATOM     61  C   UNL A   1      40.528  33.723  33.824  1.00  0.00     0.049 A 
ATOM     62  H   UNL A   1      40.989  32.268  32.406  1.00  0.00     0.167 HD
ATOM     63  C   UNL A   1      41.986  29.322  29.474  1.00  0.00     0.037 A 
ATOM     64  C   UNL A   1      41.458  33.701  34.792  1.00  0.00     0.037 A 
ATOM     65  C   UNL A   1      43.212  29.571  30.198  1.00  0.00     0.049 A 
ATOM     66  C   UNL A   1      42.581  32.733  34.698  1.00  0.00     0.074 A 
ATOM     67  C   UNL A   1      44.486  29.073  29.969  1.00  0.00     0.029 A 
ATOM     68  N   UNL A   1      43.264  30.234  31.412  1.00  0.00    -0.354 N 
ATOM     69  N   UNL A   1      42.910  31.963  33.692  1.00  0.00    -0.248 NA
ATOM     70  C   UNL A   1      43.451  32.618  35.869  1.00  0.00     0.031 C 
ATOM     71  C   UNL A   1      45.240  29.265  31.139  1.00  0.00     0.029 A 
ATOM     72  C   UNL A   1      44.471  29.977  32.044  1.00  0.00     0.049 A 
ATOM     73  H   UNL A   1      42.548  30.804  31.775  1.00  0.00     0.167 HD
ATOM     74  C   UNL A   1      44.038  31.274  34.100  1.00  0.00     0.074 A 
ATOM     75  C   UNL A   1      44.335  31.722  35.446  1.00  0.00     0.031 C 
ATOM     76  C   UNL A   1      44.762  30.366  33.400  1.00  0.00     0.037 A 
BRANCH  63  77
ATOM     77  C   UNL A   1      42.081  28.351  28.308  1.00  0.00     0.064 A 
ATOM     78  C   UNL A   1      41.841  26.980  28.497  1.00  0.00     0.173 A 
ATOM     79  C   UNL A   1      42.175  28.775  26.977  1.00  0.00     0.173 A 
ATOM     80  F   UNL A   1      41.561  26.521  29.712  1.00  0.00    -0.203 F 
ATOM     81  C   UNL A   1      41.790  26.064  27.446  1.00  0.00     0.198 A 
ATOM     82  C   UNL A   1      42.071  27.868  25.913  1.00  0.00     0.198 A 
ATOM     83  F   UNL A   1      42.302  30.079  26.698  1.00  0.00    -0.203 F 
ATOM     84  F   UNL A   1      41.588  24.763  27.698  1.00  0.00    -0.200 F 
ATOM     85  C   UNL A   1      41.898  26.511  26.147  1.00  0.00     0.200 A 
ATOM     86  F   UNL A   1      42.103  28.314  24.649  1.00  0.00    -0.200 F 
ATOM     87  F   UNL A   1      41.798  25.647  25.128  1.00  0.00    -0.200 F 
ENDBRANCH  63  77
BRANCH  64  88
ATOM     88  C   UNL A   1      41.152  34.472  36.024  1.00  0.00     0.064 A 
ATOM     89  C   UNL A   1      40.369  33.955  37.055  1.00  0.00     0.173 A 
ATOM     90  C   UNL A   1      41.802  35.706  36.239  1.00  0.00     0.173 A 
ATOM     91  F   UNL A   1      39.718  32.795  36.887  1.00  0.00    -0.203 F 
ATOM     92  C   UNL A   1      40.277  34.624  38.275  1.00  0.00     0.198 A 
ATOM     93  C   UNL A   1      41.746  36.345  37.469  1.00  0.00     0.198 A 
ATOM     94  F   UNL A   1      42.570  36.238  35.274  1.00  0.00    -0.203 F 
ATOM     95  F   UNL A   1      39.524  34.114  39.258  1.00  0.00    -0.200 F 
ATOM     96  C   UNL A   1      40.985  35.802  38.489  1.00  0.00     0.200 A 
ATOM     97  F   UNL A   1      42.467  37.455  37.677  1.00  0.00    -0.200 F 
ATOM     98  F   UNL A   1      40.942  36.406  39.683  1.00  0.00    -0.200 F 
ENDBRANCH  64  88
BRANCH  76  99
ATOM     99  C   UNL A   1      45.961  29.791  34.088  1.00  0.00     0.064 A 
ATOM    100  C   UNL A   1      47.215  30.416  34.020  1.00  0.00     0.173 A 
ATOM    101  C   UNL A   1      45.868  28.579  34.787  1.00  0.00     0.173 A 
ATOM    102  F   UNL A   1      47.360  31.563  33.340  1.00  0.00    -0.203 F 
ATOM    103  C   UNL A   1      48.339  29.829  34.593  1.00  0.00     0.198 A 
ATOM    104  C   UNL A   1      46.987  28.011  35.387  1.00  0.00     0.198 A 
ATOM    105  F   UNL A   1      44.693  27.937  34.877  1.00  0.00    -0.203 F 
ATOM    106  F   UNL A   1      49.540  30.407  34.453  1.00  0.00    -0.200 F 
ATOM    107  C   UNL A   1      48.224  28.629  35.278  1.00  0.00     0.200 A 
ATOM    108  F   UNL A   1      46.872  26.854  36.055  1.00  0.00    -0.200 F 
ATOM    109  F   UNL A   1      49.309  28.059  35.820  1.00  0.00    -0.200 F 
ENDBRANCH  76  99
ENDBRANCH  50  51
ENDBRANCH  43  45
ENDBRANCH  42  43
ENDBRANCH  41  42
ENDBRANCH  40  41
ENDBRANCH  39  40
ENDBRANCH  37  39
ENDBRANCH   1  37
TORSDOF 24
ENDMDL
