MODEL 1
REMARK VINA RESULT:     -14.5      0.000      0.000
REMARK SMILES Cc1ccc(S(=O)(=O)N2c3ccc(C(=O)OCCOC(=O)c4ccc(-c5c6nc(c(-c7c(F)c(F)c(F)c(F)c7F)c7ccc([nH]7)c(-c7c(F)c(F)c(F)c(F)c7F)c7nc(c(-c8c(F)c(F)c(F)c(F)c8F)c8ccc5[nH]8)C=C7)C=C6)cc4)cc3C[C@H]2C)cc1
REMARK SMILES IDX 17 1 16 2 14 3 15 4 13 5 9 6 10 7 88 8 11 9 86 10 87 11
REMARK SMILES IDX 89 12 12 13 85 14 6 15 7 16 8 17 5 18 1 19 2 20 3 21 91 22
REMARK SMILES IDX 4 23 90 24 18 25 19 26 20 27 21 28 22 29 23 30 84 31 24 32
REMARK SMILES IDX 83 33 25 34 26 35 27 36 77 37 28 38 82 39 76 40 78 41 29 42
REMARK SMILES IDX 81 43 75 44 74 45 30 47 62 48 42 49 61 50 43 51 46 52 60 53
REMARK SMILES IDX 79 54 44 55 45 56 59 58 80 59 47 60 31 61 32 62 40 63 33 64
REMARK SMILES IDX 34 65 38 66 41 67 35 68 36 69 39 70 37 71 63 72 64 73 72 74
REMARK SMILES IDX 65 75 66 76 70 77 73 78 67 79 68 80 71 81 69 82 48 83 49 84
REMARK SMILES IDX 57 85 50 86 51 87 55 88 58 89 52 90 53 91 56 92 54 93
REMARK H PARENT 78 46 46 57
REMARK Flexibility Score: inf
ROOT
ATOM      1  C   UNL A   1      32.308  30.134  25.930  1.00  0.00     0.275 C 
ENDROOT
BRANCH   1   2
ATOM      2  O   UNL A   1      32.036  28.865  25.316  1.00  0.00    -0.458 OA
BRANCH   2   3
ATOM      3  C   UNL A   1      32.996  28.551  24.404  1.00  0.00     0.338 C 
ATOM      4  O   UNL A   1      33.409  29.302  23.529  1.00  0.00    -0.246 OA
BRANCH   3   5
ATOM      5  C   UNL A   1      33.449  27.146  24.465  1.00  0.00     0.060 A 
ATOM      6  N   UNL A   1      34.497  23.095  24.840  1.00  0.00    -0.263 N 
ATOM      7  C   UNL A   1      34.103  24.482  24.851  1.00  0.00     0.055 A 
ATOM      8  C   UNL A   1      34.774  22.802  23.373  1.00  0.00     0.101 C 
ATOM      9  C   UNL A   1      33.975  25.291  25.961  1.00  0.00     0.028 A 
ATOM     10  C   UNL A   1      33.906  24.979  23.560  1.00  0.00    -0.021 A 
ATOM     11  C   UNL A   1      33.986  23.860  22.568  1.00  0.00     0.063 C 
ATOM     12  C   UNL A   1      36.285  22.966  23.142  1.00  0.00     0.032 C 
ATOM     13  C   UNL A   1      33.618  26.623  25.763  1.00  0.00     0.018 A 
ATOM     14  C   UNL A   1      33.611  26.320  23.344  1.00  0.00     0.021 A 
BRANCH   6  15
ATOM     15  S   UNL A   1      33.359  22.064  25.625  1.00  0.00     0.264 S 
ATOM     16  O   UNL A   1      32.030  22.554  25.320  1.00  0.00    -0.201 OA
ATOM     17  O   UNL A   1      33.787  21.879  26.999  1.00  0.00    -0.201 OA
BRANCH  15  18
ATOM     18  C   UNL A   1      33.491  20.448  24.876  1.00  0.00     0.088 A 
ATOM     19  C   UNL A   1      33.956  16.437  23.371  1.00  0.00     0.044 C 
ATOM     20  C   UNL A   1      33.804  17.844  23.868  1.00  0.00    -0.051 A 
ATOM     21  C   UNL A   1      34.866  18.479  24.519  1.00  0.00     0.005 A 
ATOM     22  C   UNL A   1      32.606  18.543  23.680  1.00  0.00     0.005 A 
ATOM     23  C   UNL A   1      34.711  19.773  25.023  1.00  0.00     0.022 A 
ATOM     24  C   UNL A   1      32.454  19.842  24.173  1.00  0.00     0.022 A 
ENDBRANCH  15  18
ENDBRANCH   6  15
ENDBRANCH   3   5
ENDBRANCH   2   3
ENDBRANCH   1   2
BRANCH   1  25
ATOM     25  C   UNL A   1      33.175  30.072  27.195  1.00  0.00     0.275 C 
BRANCH  25  26
ATOM     26  O   UNL A   1      34.611  30.307  27.161  1.00  0.00    -0.458 OA
BRANCH  26  27
ATOM     27  C   UNL A   1      35.361  30.892  28.118  1.00  0.00     0.338 C 
ATOM     28  O   UNL A   1      35.045  31.947  28.659  1.00  0.00    -0.246 OA
BRANCH  27  29
ATOM     29  C   UNL A   1      36.629  30.223  28.446  1.00  0.00     0.060 A 
ATOM     30  C   UNL A   1      36.715  29.457  29.623  1.00  0.00     0.016 A 
ATOM     31  C   UNL A   1      37.669  30.252  27.526  1.00  0.00     0.016 A 
ATOM     32  C   UNL A   1      37.789  28.600  29.818  1.00  0.00     0.010 A 
ATOM     33  C   UNL A   1      38.664  29.320  27.650  1.00  0.00     0.010 A 
ATOM     34  C   UNL A   1      38.745  28.531  28.812  1.00  0.00    -0.014 A 
BRANCH  34  35
ATOM     35  C   UNL A   1      40.053  27.936  28.985  1.00  0.00     0.031 A 
ATOM     36  C   UNL A   1      40.381  26.578  28.532  1.00  0.00     0.074 A 
ATOM     37  C   UNL A   1      40.950  28.883  29.347  1.00  0.00     0.049 A 
ATOM     38  N   UNL A   1      41.507  26.020  28.786  1.00  0.00    -0.248 NA
ATOM     39  C   UNL A   1      39.490  25.704  27.776  1.00  0.00     0.031 C 
ATOM     40  C   UNL A   1      42.390  28.948  29.203  1.00  0.00     0.029 A 
ATOM     41  N   UNL A   1      40.629  30.068  30.039  1.00  0.00    -0.354 N 
ATOM     42  C   UNL A   1      41.624  24.899  27.991  1.00  0.00     0.074 A 
ATOM     43  C   UNL A   1      40.304  24.685  27.457  1.00  0.00     0.031 C 
ATOM     44  C   UNL A   1      42.858  29.903  30.032  1.00  0.00     0.029 A 
ATOM     45  C   UNL A   1      41.734  30.350  30.847  1.00  0.00     0.049 A 
ATOM     46  H   UNL A   1      39.797  30.589  29.970  1.00  0.00     0.167 HD
ATOM     47  C   UNL A   1      42.881  24.404  27.795  1.00  0.00     0.037 A 
ATOM     48  C   UNL A   1      41.602  30.159  32.193  1.00  0.00     0.037 A 
ATOM     49  C   UNL A   1      43.821  25.160  28.614  1.00  0.00     0.049 A 
ATOM     50  C   UNL A   1      42.529  29.063  32.654  1.00  0.00     0.074 A 
ATOM     51  C   UNL A   1      44.614  26.261  28.335  1.00  0.00     0.029 A 
ATOM     52  N   UNL A   1      43.712  25.085  29.996  1.00  0.00    -0.354 N 
ATOM     53  N   UNL A   1      42.813  27.991  31.964  1.00  0.00    -0.248 NA
ATOM     54  C   UNL A   1      43.305  29.181  33.879  1.00  0.00     0.031 C 
ATOM     55  C   UNL A   1      44.964  26.865  29.570  1.00  0.00     0.029 A 
ATOM     56  C   UNL A   1      44.382  26.133  30.591  1.00  0.00     0.049 A 
ATOM     57  H   UNL A   1      43.225  24.381  30.482  1.00  0.00     0.167 HD
ATOM     58  C   UNL A   1      43.849  27.329  32.579  1.00  0.00     0.074 A 
ATOM     59  C   UNL A   1      44.106  28.108  33.779  1.00  0.00     0.031 C 
ATOM     60  C   UNL A   1      44.463  26.232  32.038  1.00  0.00     0.037 A 
BRANCH  47  61
ATOM     61  C   UNL A   1      43.340  23.442  26.721  1.00  0.00     0.064 A 
ATOM     62  C   UNL A   1      43.071  22.056  26.853  1.00  0.00     0.173 A 
ATOM     63  C   UNL A   1      44.047  23.793  25.559  1.00  0.00     0.173 A 
ATOM     64  F   UNL A   1      42.375  21.568  27.888  1.00  0.00    -0.203 F 
ATOM     65  C   UNL A   1      43.514  21.104  25.935  1.00  0.00     0.198 A 
ATOM     66  C   UNL A   1      44.508  22.832  24.645  1.00  0.00     0.198 A 
ATOM     67  F   UNL A   1      44.283  25.072  25.245  1.00  0.00    -0.203 F 
ATOM     68  F   UNL A   1      43.232  19.808  26.133  1.00  0.00    -0.200 F 
ATOM     69  C   UNL A   1      44.245  21.489  24.834  1.00  0.00     0.200 A 
ATOM     70  F   UNL A   1      45.210  23.219  23.568  1.00  0.00    -0.200 F 
ATOM     71  F   UNL A   1      44.681  20.575  23.957  1.00  0.00    -0.200 F 
ENDBRANCH  47  61
BRANCH  48  72
ATOM     72  C   UNL A   1      40.206  30.408  32.687  1.00  0.00     0.064 A 
ATOM     73  C   UNL A   1      39.683  31.719  32.573  1.00  0.00     0.173 A 
ATOM     74  C   UNL A   1      39.282  29.379  32.913  1.00  0.00     0.173 A 
ATOM     75  F   UNL A   1      40.512  32.753  32.357  1.00  0.00    -0.203 F 
ATOM     76  C   UNL A   1      38.310  31.966  32.548  1.00  0.00     0.198 A 
ATOM     77  C   UNL A   1      37.904  29.636  32.915  1.00  0.00     0.198 A 
ATOM     78  F   UNL A   1      39.693  28.110  33.040  1.00  0.00    -0.203 F 
ATOM     79  F   UNL A   1      37.856  33.203  32.299  1.00  0.00    -0.200 F 
ATOM     80  C   UNL A   1      37.421  30.919  32.699  1.00  0.00     0.200 A 
ATOM     81  F   UNL A   1      37.034  28.622  33.036  1.00  0.00    -0.200 F 
ATOM     82  F   UNL A   1      36.101  31.134  32.591  1.00  0.00    -0.200 F 
ENDBRANCH  48  72
BRANCH  60  83
ATOM     83  C   UNL A   1      45.304  25.201  32.770  1.00  0.00     0.064 A 
ATOM     84  C   UNL A   1      46.626  25.412  33.188  1.00  0.00     0.173 A 
ATOM     85  C   UNL A   1      44.726  23.984  33.228  1.00  0.00     0.173 A 
ATOM     86  F   UNL A   1      47.264  26.566  32.966  1.00  0.00    -0.203 F 
ATOM     87  C   UNL A   1      47.336  24.459  33.923  1.00  0.00     0.198 A 
ATOM     88  C   UNL A   1      45.410  23.078  34.035  1.00  0.00     0.198 A 
ATOM     89  F   UNL A   1      43.464  23.634  32.946  1.00  0.00    -0.203 F 
ATOM     90  F   UNL A   1      48.619  24.693  34.233  1.00  0.00    -0.200 F 
ATOM     91  C   UNL A   1      46.725  23.302  34.362  1.00  0.00     0.200 A 
ATOM     92  F   UNL A   1      44.770  21.998  34.509  1.00  0.00    -0.200 F 
ATOM     93  F   UNL A   1      47.395  22.421  35.114  1.00  0.00    -0.200 F 
ENDBRANCH  60  83
ENDBRANCH  34  35
ENDBRANCH  27  29
ENDBRANCH  26  27
ENDBRANCH  25  26
ENDBRANCH   1  25
TORSDOF 13
ENDMDL
MODEL 2
REMARK VINA RESULT:     -14.4      3.672      9.967
REMARK SMILES Cc1ccc(S(=O)(=O)N2c3ccc(C(=O)OCCOC(=O)c4ccc(-c5c6nc(c(-c7c(F)c(F)c(F)c(F)c7F)c7ccc([nH]7)c(-c7c(F)c(F)c(F)c(F)c7F)c7nc(c(-c8c(F)c(F)c(F)c(F)c8F)c8ccc5[nH]8)C=C7)C=C6)cc4)cc3C[C@H]2C)cc1
REMARK SMILES IDX 17 1 16 2 14 3 15 4 13 5 9 6 10 7 88 8 11 9 86 10 87 11
REMARK SMILES IDX 89 12 12 13 85 14 6 15 7 16 8 17 5 18 1 19 2 20 3 21 91 22
REMARK SMILES IDX 4 23 90 24 18 25 19 26 20 27 21 28 22 29 23 30 84 31 24 32
REMARK SMILES IDX 83 33 25 34 26 35 27 36 77 37 28 38 82 39 76 40 78 41 29 42
REMARK SMILES IDX 81 43 75 44 74 45 30 47 62 48 42 49 61 50 43 51 46 52 60 53
REMARK SMILES IDX 79 54 44 55 45 56 59 58 80 59 47 60 31 61 32 62 40 63 33 64
REMARK SMILES IDX 34 65 38 66 41 67 35 68 36 69 39 70 37 71 63 72 64 73 72 74
REMARK SMILES IDX 65 75 66 76 70 77 73 78 67 79 68 80 71 81 69 82 48 83 49 84
REMARK SMILES IDX 57 85 50 86 51 87 55 88 58 89 52 90 53 91 56 92 54 93
REMARK H PARENT 78 46 46 57
REMARK Flexibility Score: inf
ROOT
ATOM      1  C   UNL A   1      37.011  21.551  25.526  1.00  0.00     0.275 C 
ENDROOT
BRANCH   1   2
ATOM      2  O   UNL A   1      36.632  21.411  24.148  1.00  0.00    -0.458 OA
BRANCH   2   3
ATOM      3  C   UNL A   1      36.251  22.608  23.625  1.00  0.00     0.338 C 
ATOM      4  O   UNL A   1      36.911  23.273  22.836  1.00  0.00    -0.246 OA
BRANCH   3   5
ATOM      5  C   UNL A   1      34.986  23.134  24.178  1.00  0.00     0.060 A 
ATOM      6  N   UNL A   1      31.425  24.883  25.558  1.00  0.00    -0.263 N 
ATOM      7  C   UNL A   1      32.702  24.416  25.078  1.00  0.00     0.055 A 
ATOM      8  C   UNL A   1      30.553  23.638  25.561  1.00  0.00     0.101 C 
ATOM      9  C   UNL A   1      33.897  25.106  25.115  1.00  0.00     0.028 A 
ATOM     10  C   UNL A   1      32.631  23.107  24.597  1.00  0.00    -0.021 A 
ATOM     11  C   UNL A   1      31.203  22.657  24.558  1.00  0.00     0.063 C 
ATOM     12  C   UNL A   1      30.582  23.051  26.981  1.00  0.00     0.032 C 
ATOM     13  C   UNL A   1      35.037  24.467  24.635  1.00  0.00     0.018 A 
ATOM     14  C   UNL A   1      33.772  22.435  24.172  1.00  0.00     0.021 A 
BRANCH   6  15
ATOM     15  S   UNL A   1      30.825  26.236  24.671  1.00  0.00     0.264 S 
ATOM     16  O   UNL A   1      29.384  26.264  24.821  1.00  0.00    -0.201 OA
ATOM     17  O   UNL A   1      31.436  26.224  23.355  1.00  0.00    -0.201 OA
BRANCH  15  18
ATOM     18  C   UNL A   1      31.448  27.715  25.458  1.00  0.00     0.088 A 
ATOM     19  C   UNL A   1      33.209  31.079  27.495  1.00  0.00     0.044 C 
ATOM     20  C   UNL A   1      32.567  29.917  26.795  1.00  0.00    -0.051 A 
ATOM     21  C   UNL A   1      32.360  28.713  27.474  1.00  0.00     0.005 A 
ATOM     22  C   UNL A   1      32.163  30.023  25.460  1.00  0.00     0.005 A 
ATOM     23  C   UNL A   1      31.806  27.616  26.811  1.00  0.00     0.022 A 
ATOM     24  C   UNL A   1      31.596  28.930  24.798  1.00  0.00     0.022 A 
ENDBRANCH  15  18
ENDBRANCH   6  15
ENDBRANCH   3   5
ENDBRANCH   2   3
ENDBRANCH   1   2
BRANCH   1  25
ATOM     25  C   UNL A   1      38.459  22.001  25.760  1.00  0.00     0.275 C 
BRANCH  25  26
ATOM     26  O   UNL A   1      38.781  23.257  26.422  1.00  0.00    -0.458 OA
BRANCH  26  27
ATOM     27  C   UNL A   1      39.943  23.581  27.029  1.00  0.00     0.338 C 
ATOM     28  O   UNL A   1      40.828  22.762  27.250  1.00  0.00    -0.246 OA
BRANCH  27  29
ATOM     29  C   UNL A   1      40.073  24.977  27.473  1.00  0.00     0.060 A 
ATOM     30  C   UNL A   1      40.433  25.963  26.537  1.00  0.00     0.016 A 
ATOM     31  C   UNL A   1      39.713  25.311  28.773  1.00  0.00     0.016 A 
ATOM     32  C   UNL A   1      40.295  27.307  26.856  1.00  0.00     0.010 A 
ATOM     33  C   UNL A   1      39.456  26.627  29.050  1.00  0.00     0.010 A 
ATOM     34  C   UNL A   1      39.788  27.620  28.110  1.00  0.00    -0.014 A 
BRANCH  34  35
ATOM     35  C   UNL A   1      39.867  28.937  28.705  1.00  0.00     0.031 A 
ATOM     36  C   UNL A   1      38.803  29.940  28.573  1.00  0.00     0.074 A 
ATOM     37  C   UNL A   1      40.889  28.987  29.591  1.00  0.00     0.049 A 
ATOM     38  N   UNL A   1      38.929  31.140  29.009  1.00  0.00    -0.248 NA
ATOM     39  C   UNL A   1      37.512  29.720  27.929  1.00  0.00     0.031 C 
ATOM     40  C   UNL A   1      41.125  29.835  30.741  1.00  0.00     0.029 A 
ATOM     41  N   UNL A   1      42.045  28.183  29.525  1.00  0.00    -0.354 N 
ATOM     42  C   UNL A   1      37.684  31.734  29.008  1.00  0.00     0.074 A 
ATOM     43  C   UNL A   1      36.853  30.850  28.232  1.00  0.00     0.031 C 
ATOM     44  C   UNL A   1      42.428  29.746  31.075  1.00  0.00     0.029 A 
ATOM     45  C   UNL A   1      43.085  28.966  30.033  1.00  0.00     0.049 A 
ATOM     46  H   UNL A   1      42.109  27.259  29.190  1.00  0.00     0.167 HD
ATOM     47  C   UNL A   1      37.517  32.831  29.802  1.00  0.00     0.037 A 
ATOM     48  C   UNL A   1      44.013  29.441  29.149  1.00  0.00     0.037 A 
ATOM     49  C   UNL A   1      38.802  33.185  30.396  1.00  0.00     0.049 A 
ATOM     50  C   UNL A   1      43.951  30.946  29.092  1.00  0.00     0.074 A 
ATOM     51  C   UNL A   1      39.383  32.856  31.610  1.00  0.00     0.029 A 
ATOM     52  N   UNL A   1      39.829  33.606  29.562  1.00  0.00    -0.354 N 
ATOM     53  N   UNL A   1      42.853  31.649  29.180  1.00  0.00    -0.248 NA
ATOM     54  C   UNL A   1      45.156  31.762  29.069  1.00  0.00     0.031 C 
ATOM     55  C   UNL A   1      40.781  33.063  31.489  1.00  0.00     0.029 A 
ATOM     56  C   UNL A   1      41.045  33.512  30.206  1.00  0.00     0.049 A 
ATOM     57  H   UNL A   1      39.706  33.928  28.640  1.00  0.00     0.167 HD
ATOM     58  C   UNL A   1      43.186  32.976  29.316  1.00  0.00     0.074 A 
ATOM     59  C   UNL A   1      44.636  32.990  29.224  1.00  0.00     0.031 C 
ATOM     60  C   UNL A   1      42.263  33.958  29.554  1.00  0.00     0.037 A 
BRANCH  47  61
ATOM     61  C   UNL A   1      36.218  33.450  30.267  1.00  0.00     0.064 A 
ATOM     62  C   UNL A   1      35.346  34.052  29.324  1.00  0.00     0.173 A 
ATOM     63  C   UNL A   1      35.768  33.503  31.597  1.00  0.00     0.173 A 
ATOM     64  F   UNL A   1      35.617  34.051  28.012  1.00  0.00    -0.203 F 
ATOM     65  C   UNL A   1      34.161  34.693  29.685  1.00  0.00     0.198 A 
ATOM     66  C   UNL A   1      34.584  34.165  31.961  1.00  0.00     0.198 A 
ATOM     67  F   UNL A   1      36.431  32.887  32.583  1.00  0.00    -0.203 F 
ATOM     68  F   UNL A   1      33.393  35.251  28.738  1.00  0.00    -0.200 F 
ATOM     69  C   UNL A   1      33.784  34.762  31.006  1.00  0.00     0.200 A 
ATOM     70  F   UNL A   1      34.219  34.215  33.250  1.00  0.00    -0.200 F 
ATOM     71  F   UNL A   1      32.651  35.388  31.355  1.00  0.00    -0.200 F 
ENDBRANCH  47  61
BRANCH  48  72
ATOM     72  C   UNL A   1      44.244  28.517  27.988  1.00  0.00     0.064 A 
ATOM     73  C   UNL A   1      44.821  27.251  28.249  1.00  0.00     0.173 A 
ATOM     74  C   UNL A   1      43.609  28.676  26.749  1.00  0.00     0.173 A 
ATOM     75  F   UNL A   1      45.447  27.029  29.417  1.00  0.00    -0.203 F 
ATOM     76  C   UNL A   1      44.654  26.171  27.382  1.00  0.00     0.198 A 
ATOM     77  C   UNL A   1      43.467  27.594  25.868  1.00  0.00     0.198 A 
ATOM     78  F   UNL A   1      43.042  29.844  26.419  1.00  0.00    -0.203 F 
ATOM     79  F   UNL A   1      45.098  24.955  27.733  1.00  0.00    -0.200 F 
ATOM     80  C   UNL A   1      43.958  26.339  26.201  1.00  0.00     0.200 A 
ATOM     81  F   UNL A   1      42.771  27.744  24.731  1.00  0.00    -0.200 F 
ATOM     82  F   UNL A   1      43.718  25.287  25.403  1.00  0.00    -0.200 F 
ENDBRANCH  48  72
BRANCH  60  83
ATOM     83  C   UNL A   1      42.435  35.449  29.322  1.00  0.00     0.064 A 
ATOM     84  C   UNL A   1      43.250  36.282  30.103  1.00  0.00     0.173 A 
ATOM     85  C   UNL A   1      41.887  36.073  28.167  1.00  0.00     0.173 A 
ATOM     86  F   UNL A   1      43.954  35.815  31.140  1.00  0.00    -0.203 F 
ATOM     87  C   UNL A   1      43.433  37.635  29.807  1.00  0.00     0.198 A 
ATOM     88  C   UNL A   1      42.145  37.400  27.828  1.00  0.00     0.198 A 
ATOM     89  F   UNL A   1      41.108  35.419  27.295  1.00  0.00    -0.203 F 
ATOM     90  F   UNL A   1      44.169  38.393  30.632  1.00  0.00    -0.200 F 
ATOM     91  C   UNL A   1      42.897  38.190  28.663  1.00  0.00     0.200 A 
ATOM     92  F   UNL A   1      41.673  37.893  26.673  1.00  0.00    -0.200 F 
ATOM     93  F   UNL A   1      43.125  39.473  28.357  1.00  0.00    -0.200 F 
ENDBRANCH  60  83
ENDBRANCH  34  35
ENDBRANCH  27  29
ENDBRANCH  26  27
ENDBRANCH  25  26
ENDBRANCH   1  25
TORSDOF 13
ENDMDL
MODEL 3
REMARK VINA RESULT:     -14.3      0.772      1.850
REMARK SMILES Cc1ccc(S(=O)(=O)N2c3ccc(C(=O)OCCOC(=O)c4ccc(-c5c6nc(c(-c7c(F)c(F)c(F)c(F)c7F)c7ccc([nH]7)c(-c7c(F)c(F)c(F)c(F)c7F)c7nc(c(-c8c(F)c(F)c(F)c(F)c8F)c8ccc5[nH]8)C=C7)C=C6)cc4)cc3C[C@H]2C)cc1
REMARK SMILES IDX 17 1 16 2 14 3 15 4 13 5 9 6 10 7 88 8 11 9 86 10 87 11
REMARK SMILES IDX 89 12 12 13 85 14 6 15 7 16 8 17 5 18 1 19 2 20 3 21 91 22
REMARK SMILES IDX 4 23 90 24 18 25 19 26 20 27 21 28 22 29 23 30 84 31 24 32
REMARK SMILES IDX 83 33 25 34 26 35 27 36 77 37 28 38 82 39 76 40 78 41 29 42
REMARK SMILES IDX 81 43 75 44 74 45 30 47 62 48 42 49 61 50 43 51 46 52 60 53
REMARK SMILES IDX 79 54 44 55 45 56 59 58 80 59 47 60 31 61 32 62 40 63 33 64
REMARK SMILES IDX 34 65 38 66 41 67 35 68 36 69 39 70 37 71 63 72 64 73 72 74
REMARK SMILES IDX 65 75 66 76 70 77 73 78 67 79 68 80 71 81 69 82 48 83 49 84
REMARK SMILES IDX 57 85 50 86 51 87 55 88 58 89 52 90 53 91 56 92 54 93
REMARK H PARENT 78 46 46 57
REMARK Flexibility Score: inf
ROOT
ATOM      1  C   UNL A   1      32.158  30.119  25.813  1.00  0.00     0.275 C 
ENDROOT
BRANCH   1   2
ATOM      2  O   UNL A   1      31.972  28.815  25.243  1.00  0.00    -0.458 OA
BRANCH   2   3
ATOM      3  C   UNL A   1      32.975  28.517  24.374  1.00  0.00     0.338 C 
ATOM      4  O   UNL A   1      33.412  29.275  23.517  1.00  0.00    -0.246 OA
BRANCH   3   5
ATOM      5  C   UNL A   1      33.450  27.120  24.455  1.00  0.00     0.060 A 
ATOM      6  N   UNL A   1      34.562  23.093  24.895  1.00  0.00    -0.263 N 
ATOM      7  C   UNL A   1      34.147  24.474  24.884  1.00  0.00     0.055 A 
ATOM      8  C   UNL A   1      34.823  22.774  23.431  1.00  0.00     0.101 C 
ATOM      9  C   UNL A   1      34.023  25.303  25.980  1.00  0.00     0.028 A 
ATOM     10  C   UNL A   1      33.925  24.942  23.588  1.00  0.00    -0.021 A 
ATOM     11  C   UNL A   1      34.008  23.805  22.616  1.00  0.00     0.063 C 
ATOM     12  C   UNL A   1      36.327  22.955  23.175  1.00  0.00     0.032 C 
ATOM     13  C   UNL A   1      33.645  26.625  25.761  1.00  0.00     0.018 A 
ATOM     14  C   UNL A   1      33.608  26.274  23.349  1.00  0.00     0.021 A 
BRANCH   6  15
ATOM     15  S   UNL A   1      33.450  22.061  25.717  1.00  0.00     0.264 S 
ATOM     16  O   UNL A   1      32.111  22.542  25.442  1.00  0.00    -0.201 OA
ATOM     17  O   UNL A   1      33.914  21.888  27.080  1.00  0.00    -0.201 OA
BRANCH  15  18
ATOM     18  C   UNL A   1      33.572  20.440  24.975  1.00  0.00     0.088 A 
ATOM     19  C   UNL A   1      34.016  16.419  23.490  1.00  0.00     0.044 C 
ATOM     20  C   UNL A   1      33.871  17.830  23.980  1.00  0.00    -0.051 A 
ATOM     21  C   UNL A   1      34.941  18.468  24.615  1.00  0.00     0.005 A 
ATOM     22  C   UNL A   1      32.671  18.529  23.802  1.00  0.00     0.005 A 
ATOM     23  C   UNL A   1      34.793  19.765  25.113  1.00  0.00     0.022 A 
ATOM     24  C   UNL A   1      32.526  19.831  24.288  1.00  0.00     0.022 A 
ENDBRANCH  15  18
ENDBRANCH   6  15
ENDBRANCH   3   5
ENDBRANCH   2   3
ENDBRANCH   1   2
BRANCH   1  25
ATOM     25  C   UNL A   1      32.978  30.152  27.110  1.00  0.00     0.275 C 
BRANCH  25  26
ATOM     26  O   UNL A   1      34.432  30.209  27.104  1.00  0.00    -0.458 OA
BRANCH  26  27
ATOM     27  C   UNL A   1      35.237  30.542  28.136  1.00  0.00     0.338 C 
ATOM     28  O   UNL A   1      34.975  31.452  28.916  1.00  0.00    -0.246 OA
BRANCH  27  29
ATOM     29  C   UNL A   1      36.494  29.787  28.246  1.00  0.00     0.060 A 
ATOM     30  C   UNL A   1      37.393  29.792  27.165  1.00  0.00     0.016 A 
ATOM     31  C   UNL A   1      36.825  29.196  29.459  1.00  0.00     0.016 A 
ATOM     32  C   UNL A   1      38.690  29.329  27.337  1.00  0.00     0.010 A 
ATOM     33  C   UNL A   1      38.134  28.856  29.671  1.00  0.00     0.010 A 
ATOM     34  C   UNL A   1      39.048  28.881  28.602  1.00  0.00    -0.014 A 
BRANCH  34  35
ATOM     35  C   UNL A   1      40.235  28.098  28.873  1.00  0.00     0.031 A 
ATOM     36  C   UNL A   1      40.323  26.658  28.600  1.00  0.00     0.074 A 
ATOM     37  C   UNL A   1      41.283  28.916  29.128  1.00  0.00     0.049 A 
ATOM     38  N   UNL A   1      41.338  25.952  28.944  1.00  0.00    -0.248 NA
ATOM     39  C   UNL A   1      39.293  25.859  27.945  1.00  0.00     0.031 C 
ATOM     40  C   UNL A   1      42.712  28.715  29.004  1.00  0.00     0.029 A 
ATOM     41  N   UNL A   1      41.173  30.217  29.660  1.00  0.00    -0.354 N 
ATOM     42  C   UNL A   1      41.257  24.735  28.299  1.00  0.00     0.074 A 
ATOM     43  C   UNL A   1      39.918  24.684  27.772  1.00  0.00     0.031 C 
ATOM     44  C   UNL A   1      43.340  29.675  29.714  1.00  0.00     0.029 A 
ATOM     45  C   UNL A   1      42.312  30.406  30.446  1.00  0.00     0.049 A 
ATOM     46  H   UNL A   1      40.442  30.860  29.510  1.00  0.00     0.167 HD
ATOM     47  C   UNL A   1      42.410  24.012  28.189  1.00  0.00     0.037 A 
ATOM     48  C   UNL A   1      42.154  30.414  31.803  1.00  0.00     0.037 A 
ATOM     49  C   UNL A   1      43.469  24.695  28.924  1.00  0.00     0.049 A 
ATOM     50  C   UNL A   1      42.881  29.244  32.415  1.00  0.00     0.074 A 
ATOM     51  C   UNL A   1      44.438  25.600  28.523  1.00  0.00     0.029 A 
ATOM     52  N   UNL A   1      43.354  24.816  30.302  1.00  0.00    -0.354 N 
ATOM     53  N   UNL A   1      42.974  28.060  31.871  1.00  0.00    -0.248 NA
ATOM     54  C   UNL A   1      43.670  29.383  33.630  1.00  0.00     0.031 C 
ATOM     55  C   UNL A   1      44.891  26.287  29.678  1.00  0.00     0.029 A 
ATOM     56  C   UNL A   1      44.196  25.802  30.773  1.00  0.00     0.049 A 
ATOM     57  H   UNL A   1      42.754  24.274  30.864  1.00  0.00     0.167 HD
ATOM     58  C   UNL A   1      43.883  27.314  32.584  1.00  0.00     0.074 A 
ATOM     59  C   UNL A   1      44.274  28.184  33.680  1.00  0.00     0.031 C 
ATOM     60  C   UNL A   1      44.297  26.069  32.197  1.00  0.00     0.037 A 
BRANCH  47  61
ATOM     61  C   UNL A   1      42.693  22.857  27.255  1.00  0.00     0.064 A 
ATOM     62  C   UNL A   1      42.018  21.623  27.433  1.00  0.00     0.173 A 
ATOM     63  C   UNL A   1      43.605  22.878  26.186  1.00  0.00     0.173 A 
ATOM     64  F   UNL A   1      41.092  21.457  28.386  1.00  0.00    -0.203 F 
ATOM     65  C   UNL A   1      42.271  20.497  26.648  1.00  0.00     0.198 A 
ATOM     66  C   UNL A   1      43.872  21.738  25.408  1.00  0.00     0.198 A 
ATOM     67  F   UNL A   1      44.240  24.001  25.830  1.00  0.00    -0.203 F 
ATOM     68  F   UNL A   1      41.601  19.360  26.883  1.00  0.00    -0.200 F 
ATOM     69  C   UNL A   1      43.208  20.550  25.641  1.00  0.00     0.200 A 
ATOM     70  F   UNL A   1      44.778  21.803  24.422  1.00  0.00    -0.200 F 
ATOM     71  F   UNL A   1      43.460  19.466  24.894  1.00  0.00    -0.200 F 
ENDBRANCH  47  61
BRANCH  48  72
ATOM     72  C   UNL A   1      40.824  30.959  32.236  1.00  0.00     0.064 A 
ATOM     73  C   UNL A   1      39.836  30.041  32.666  1.00  0.00     0.173 A 
ATOM     74  C   UNL A   1      40.626  32.303  32.579  1.00  0.00     0.173 A 
ATOM     75  F   UNL A   1      39.962  28.737  32.372  1.00  0.00    -0.203 F 
ATOM     76  C   UNL A   1      38.788  30.424  33.504  1.00  0.00     0.198 A 
ATOM     77  C   UNL A   1      39.555  32.688  33.398  1.00  0.00     0.198 A 
ATOM     78  F   UNL A   1      41.510  33.239  32.205  1.00  0.00    -0.203 F 
ATOM     79  F   UNL A   1      37.954  29.498  34.000  1.00  0.00    -0.200 F 
ATOM     80  C   UNL A   1      38.661  31.746  33.886  1.00  0.00     0.200 A 
ATOM     81  F   UNL A   1      39.440  33.965  33.793  1.00  0.00    -0.200 F 
ATOM     82  F   UNL A   1      37.708  32.107  34.759  1.00  0.00    -0.200 F 
ENDBRANCH  48  72
BRANCH  60  83
ATOM     83  C   UNL A   1      44.952  25.011  33.068  1.00  0.00     0.064 A 
ATOM     84  C   UNL A   1      44.305  23.855  33.528  1.00  0.00     0.173 A 
ATOM     85  C   UNL A   1      46.347  25.057  33.343  1.00  0.00     0.173 A 
ATOM     86  F   UNL A   1      43.029  23.590  33.229  1.00  0.00    -0.203 F 
ATOM     87  C   UNL A   1      44.970  22.874  34.269  1.00  0.00     0.198 A 
ATOM     88  C   UNL A   1      47.023  24.034  34.004  1.00  0.00     0.198 A 
ATOM     89  F   UNL A   1      47.126  26.075  32.952  1.00  0.00    -0.203 F 
ATOM     90  F   UNL A   1      44.278  21.826  34.738  1.00  0.00    -0.200 F 
ATOM     91  C   UNL A   1      46.329  22.953  34.492  1.00  0.00     0.200 A 
ATOM     92  F   UNL A   1      48.356  24.100  34.143  1.00  0.00    -0.200 F 
ATOM     93  F   UNL A   1      46.969  21.980  35.152  1.00  0.00    -0.200 F 
ENDBRANCH  60  83
ENDBRANCH  34  35
ENDBRANCH  27  29
ENDBRANCH  26  27
ENDBRANCH  25  26
ENDBRANCH   1  25
TORSDOF 13
ENDMDL
