MODEL 1
REMARK VINA RESULT:     -12.9      0.000      0.000
REMARK SMILES O=C(OCCOC(=O)[C@H]1Cc2ccc(Cl)cc2C[N@@H+]1Cc1ccccc1Cl)c1ccc(-c2c3nc(c(-c4c(F)c(F)c(F)c(F)c4F)c4ccc([nH]4)c(-c4c(F)c(F)c(F)c(F)c4F)c4nc(c(-c5c(F)c(F)c(F)c(F)c5F)c5ccc2[nH]5)C=C4)C=C3)cc1
REMARK SMILES IDX 4 1 3 2 2 3 1 4 28 5 29 6 90 7 30 8 89 9 31 10 32 11 33 12
REMARK SMILES IDX 83 13 34 14 88 15 82 16 84 17 35 18 87 19 81 20 80 21 36 23
REMARK SMILES IDX 68 24 48 25 67 26 49 27 52 28 66 29 85 30 50 31 51 32 65 34
REMARK SMILES IDX 86 35 53 36 37 37 38 38 46 39 39 40 40 41 44 42 47 43 41 44
REMARK SMILES IDX 42 45 45 46 43 47 69 48 70 49 78 50 71 51 72 52 76 53 79 54
REMARK SMILES IDX 73 55 74 56 77 57 75 58 54 59 55 60 63 61 56 62 57 63 61 64
REMARK SMILES IDX 64 65 58 66 59 67 62 68 60 69 5 70 6 71 7 72 8 73 9 74 10 75
REMARK SMILES IDX 19 76 11 77 18 78 12 80 17 81 13 82 16 83 14 84 15 85 20 86
REMARK SMILES IDX 21 87 22 88 26 89 23 90 25 91 27 92 24 93
REMARK H PARENT 84 22 52 33 19 79
REMARK Flexibility Score: inf
ROOT
ATOM      1  C   UNL A   1      31.775  29.364  26.970  1.00  0.00     0.275 C 
ENDROOT
BRANCH   1   2
ATOM      2  O   UNL A   1      32.550  30.462  26.480  1.00  0.00    -0.458 OA
BRANCH   2   3
ATOM      3  C   UNL A   1      33.289  31.353  27.173  1.00  0.00     0.338 C 
ATOM      4  O   UNL A   1      32.880  32.513  27.252  1.00  0.00    -0.246 OA
BRANCH   3   5
ATOM      5  C   UNL A   1      34.659  31.060  27.709  1.00  0.00     0.060 A 
ATOM      6  C   UNL A   1      34.885  29.716  28.013  1.00  0.00     0.016 A 
ATOM      7  C   UNL A   1      35.692  31.959  28.000  1.00  0.00     0.016 A 
ATOM      8  C   UNL A   1      35.986  29.341  28.777  1.00  0.00     0.010 A 
ATOM      9  C   UNL A   1      36.839  31.563  28.715  1.00  0.00     0.010 A 
ATOM     10  C   UNL A   1      36.975  30.256  29.175  1.00  0.00    -0.014 A 
BRANCH  10  11
ATOM     11  C   UNL A   1      38.130  29.780  29.996  1.00  0.00     0.031 A 
ATOM     12  C   UNL A   1      39.176  28.814  29.487  1.00  0.00     0.074 A 
ATOM     13  C   UNL A   1      38.290  30.322  31.221  1.00  0.00     0.049 A 
ATOM     14  N   UNL A   1      40.306  28.450  30.051  1.00  0.00    -0.248 NA
ATOM     15  C   UNL A   1      38.949  28.172  28.185  1.00  0.00     0.031 C 
ATOM     16  C   UNL A   1      37.347  31.249  31.850  1.00  0.00     0.029 A 
ATOM     17  N   UNL A   1      39.302  30.209  32.140  1.00  0.00    -0.354 N 
ATOM     18  C   UNL A   1      40.940  27.599  29.153  1.00  0.00     0.074 A 
ATOM     19  C   UNL A   1      40.046  27.438  28.031  1.00  0.00     0.031 C 
ATOM     20  C   UNL A   1      37.867  31.699  32.994  1.00  0.00     0.029 A 
ATOM     21  C   UNL A   1      39.100  30.971  33.262  1.00  0.00     0.049 A 
ATOM     22  H   UNL A   1      40.092  29.638  32.007  1.00  0.00     0.167 HD
ATOM     23  C   UNL A   1      42.164  27.025  29.249  1.00  0.00     0.037 A 
ATOM     24  C   UNL A   1      39.774  31.036  34.424  1.00  0.00     0.037 A 
ATOM     25  C   UNL A   1      43.010  27.101  30.414  1.00  0.00     0.049 A 
ATOM     26  C   UNL A   1      40.992  30.190  34.602  1.00  0.00     0.074 A 
ATOM     27  C   UNL A   1      44.253  26.523  30.618  1.00  0.00     0.029 A 
ATOM     28  N   UNL A   1      42.675  27.750  31.592  1.00  0.00    -0.354 N 
ATOM     29  N   UNL A   1      41.603  29.441  33.720  1.00  0.00    -0.248 NA
ATOM     30  C   UNL A   1      41.591  30.166  35.939  1.00  0.00     0.031 C 
ATOM     31  C   UNL A   1      44.619  26.735  31.953  1.00  0.00     0.029 A 
ATOM     32  C   UNL A   1      43.639  27.504  32.558  1.00  0.00     0.049 A 
ATOM     33  H   UNL A   1      41.871  28.302  31.723  1.00  0.00     0.167 HD
ATOM     34  C   UNL A   1      42.657  28.847  34.394  1.00  0.00     0.074 A 
ATOM     35  C   UNL A   1      42.614  29.343  35.755  1.00  0.00     0.031 C 
ATOM     36  C   UNL A   1      43.571  27.966  33.921  1.00  0.00     0.037 A 
BRANCH  23  37
ATOM     37  C   UNL A   1      42.684  26.228  28.084  1.00  0.00     0.064 A 
ATOM     38  C   UNL A   1      42.252  24.913  27.851  1.00  0.00     0.173 A 
ATOM     39  C   UNL A   1      43.495  26.833  27.111  1.00  0.00     0.173 A 
ATOM     40  F   UNL A   1      41.482  24.284  28.752  1.00  0.00    -0.203 F 
ATOM     41  C   UNL A   1      42.600  24.242  26.679  1.00  0.00     0.198 A 
ATOM     42  C   UNL A   1      43.828  26.164  25.935  1.00  0.00     0.198 A 
ATOM     43  F   UNL A   1      43.928  28.091  27.281  1.00  0.00    -0.203 F 
ATOM     44  F   UNL A   1      42.174  22.987  26.477  1.00  0.00    -0.200 F 
ATOM     45  C   UNL A   1      43.376  24.871  25.717  1.00  0.00     0.200 A 
ATOM     46  F   UNL A   1      44.568  26.779  25.001  1.00  0.00    -0.200 F 
ATOM     47  F   UNL A   1      43.685  24.233  24.579  1.00  0.00    -0.200 F 
ENDBRANCH  23  37
BRANCH  24  48
ATOM     48  C   UNL A   1      39.208  31.867  35.516  1.00  0.00     0.064 A 
ATOM     49  C   UNL A   1      38.344  31.327  36.473  1.00  0.00     0.173 A 
ATOM     50  C   UNL A   1      39.645  33.193  35.696  1.00  0.00     0.173 A 
ATOM     51  F   UNL A   1      37.881  30.078  36.330  1.00  0.00    -0.203 F 
ATOM     52  C   UNL A   1      37.969  32.068  37.593  1.00  0.00     0.198 A 
ATOM     53  C   UNL A   1      39.304  33.915  36.835  1.00  0.00     0.198 A 
ATOM     54  F   UNL A   1      40.477  33.753  34.805  1.00  0.00    -0.203 F 
ATOM     55  F   UNL A   1      37.143  31.534  38.501  1.00  0.00    -0.200 F 
ATOM     56  C   UNL A   1      38.469  33.350  37.784  1.00  0.00     0.200 A 
ATOM     57  F   UNL A   1      39.820  35.136  37.030  1.00  0.00    -0.200 F 
ATOM     58  F   UNL A   1      38.153  34.037  38.891  1.00  0.00    -0.200 F 
ENDBRANCH  24  48
BRANCH  36  59
ATOM     59  C   UNL A   1      44.593  27.457  34.890  1.00  0.00     0.064 A 
ATOM     60  C   UNL A   1      45.785  28.159  35.123  1.00  0.00     0.173 A 
ATOM     61  C   UNL A   1      44.367  26.280  35.618  1.00  0.00     0.173 A 
ATOM     62  F   UNL A   1      46.053  29.281  34.439  1.00  0.00    -0.203 F 
ATOM     63  C   UNL A   1      46.723  27.690  36.038  1.00  0.00     0.198 A 
ATOM     64  C   UNL A   1      45.294  25.830  36.554  1.00  0.00     0.198 A 
ATOM     65  F   UNL A   1      43.240  25.576  35.436  1.00  0.00    -0.203 F 
ATOM     66  F   UNL A   1      47.873  28.354  36.215  1.00  0.00    -0.200 F 
ATOM     67  C   UNL A   1      46.473  26.531  36.758  1.00  0.00     0.200 A 
ATOM     68  F   UNL A   1      45.045  24.718  37.260  1.00  0.00    -0.200 F 
ATOM     69  F   UNL A   1      47.373  26.085  37.646  1.00  0.00    -0.200 F 
ENDBRANCH  36  59
ENDBRANCH  10  11
ENDBRANCH   3   5
ENDBRANCH   2   3
ENDBRANCH   1   2
BRANCH   1  70
ATOM     70  C   UNL A   1      31.819  28.112  26.092  1.00  0.00     0.274 C 
BRANCH  70  71
ATOM     71  O   UNL A   1      33.128  27.665  25.677  1.00  0.00    -0.458 OA
BRANCH  71  72
ATOM     72  C   UNL A   1      33.385  27.763  24.338  1.00  0.00     0.365 C 
ATOM     73  O   UNL A   1      33.669  28.825  23.781  1.00  0.00    -0.245 OA
BRANCH  72  74
ATOM     74  C   UNL A   1      33.314  26.437  23.553  1.00  0.00     0.300 C 
ATOM     75  C   UNL A   1      34.179  25.398  24.303  1.00  0.00     0.113 C 
ATOM     76  N   UNL A   1      31.928  25.977  23.206  1.00  0.00    -0.315 N 
ATOM     77  C   UNL A   1      33.799  23.948  24.122  1.00  0.00    -0.033 A 
ATOM     78  C   UNL A   1      32.022  24.673  22.517  1.00  0.00     0.300 C 
ATOM     79  H   UNL A   1      31.409  25.894  24.080  1.00  0.00     0.349 HD
ATOM     80  C   UNL A   1      34.515  22.931  24.772  1.00  0.00     0.006 A 
ATOM     81  C   UNL A   1      32.697  23.607  23.331  1.00  0.00     0.011 A 
ATOM     82  C   UNL A   1      34.113  21.596  24.661  1.00  0.00     0.021 A 
ATOM     83  C   UNL A   1      32.320  22.261  23.192  1.00  0.00     0.030 A 
ATOM     84  C   UNL A   1      33.016  21.267  23.873  1.00  0.00     0.041 A 
ATOM     85  Cl  UNL A   1      32.528  19.624  23.720  1.00  0.00    -0.084 Cl
BRANCH  76  86
ATOM     86  C   UNL A   1      31.156  26.952  22.374  1.00  0.00     0.301 C 
BRANCH  86  87
ATOM     87  C   UNL A   1      29.887  27.484  23.019  1.00  0.00     0.025 A 
ATOM     88  C   UNL A   1      29.120  26.625  23.825  1.00  0.00     0.011 A 
ATOM     89  C   UNL A   1      29.331  28.723  22.668  1.00  0.00     0.049 A 
ATOM     90  C   UNL A   1      27.763  26.863  24.027  1.00  0.00     0.001 A 
ATOM     91  C   UNL A   1      27.971  28.964  22.870  1.00  0.00     0.021 A 
ATOM     92  Cl  UNL A   1      30.278  30.000  22.002  1.00  0.00    -0.084 Cl
ATOM     93  C   UNL A   1      27.176  28.009  23.500  1.00  0.00     0.002 A 
ENDBRANCH  86  87
ENDBRANCH  76  86
ENDBRANCH  72  74
ENDBRANCH  71  72
ENDBRANCH  70  71
ENDBRANCH   1  70
TORSDOF 13
ENDMDL
MODEL 2
REMARK VINA RESULT:     -12.8      1.529      2.595
REMARK SMILES O=C(OCCOC(=O)[C@H]1Cc2ccc(Cl)cc2C[N@@H+]1Cc1ccccc1Cl)c1ccc(-c2c3nc(c(-c4c(F)c(F)c(F)c(F)c4F)c4ccc([nH]4)c(-c4c(F)c(F)c(F)c(F)c4F)c4nc(c(-c5c(F)c(F)c(F)c(F)c5F)c5ccc2[nH]5)C=C4)C=C3)cc1
REMARK SMILES IDX 4 1 3 2 2 3 1 4 28 5 29 6 90 7 30 8 89 9 31 10 32 11 33 12
REMARK SMILES IDX 83 13 34 14 88 15 82 16 84 17 35 18 87 19 81 20 80 21 36 23
REMARK SMILES IDX 68 24 48 25 67 26 49 27 52 28 66 29 85 30 50 31 51 32 65 34
REMARK SMILES IDX 86 35 53 36 37 37 38 38 46 39 39 40 40 41 44 42 47 43 41 44
REMARK SMILES IDX 42 45 45 46 43 47 69 48 70 49 78 50 71 51 72 52 76 53 79 54
REMARK SMILES IDX 73 55 74 56 77 57 75 58 54 59 55 60 63 61 56 62 57 63 61 64
REMARK SMILES IDX 64 65 58 66 59 67 62 68 60 69 5 70 6 71 7 72 8 73 9 74 10 75
REMARK SMILES IDX 19 76 11 77 18 78 12 80 17 81 13 82 16 83 14 84 15 85 20 86
REMARK SMILES IDX 21 87 22 88 26 89 23 90 25 91 27 92 24 93
REMARK H PARENT 84 22 52 33 19 79
REMARK Flexibility Score: inf
ROOT
ATOM      1  C   UNL A   1      32.125  33.129  26.571  1.00  0.00     0.275 C 
ENDROOT
BRANCH   1   2
ATOM      2  O   UNL A   1      32.152  34.024  27.685  1.00  0.00    -0.458 OA
BRANCH   2   3
ATOM      3  C   UNL A   1      33.215  34.489  28.373  1.00  0.00     0.338 C 
ATOM      4  O   UNL A   1      33.255  35.691  28.643  1.00  0.00    -0.246 OA
BRANCH   3   5
ATOM      5  C   UNL A   1      34.431  33.665  28.681  1.00  0.00     0.060 A 
ATOM      6  C   UNL A   1      34.184  32.547  29.478  1.00  0.00     0.016 A 
ATOM      7  C   UNL A   1      35.764  33.916  28.331  1.00  0.00     0.016 A 
ATOM      8  C   UNL A   1      35.237  31.861  30.078  1.00  0.00     0.010 A 
ATOM      9  C   UNL A   1      36.826  33.176  28.888  1.00  0.00     0.010 A 
ATOM     10  C   UNL A   1      36.582  32.176  29.825  1.00  0.00    -0.014 A 
BRANCH  10  11
ATOM     11  C   UNL A   1      37.661  31.396  30.507  1.00  0.00     0.031 A 
ATOM     12  C   UNL A   1      38.476  30.322  29.822  1.00  0.00     0.074 A 
ATOM     13  C   UNL A   1      37.978  31.744  31.771  1.00  0.00     0.049 A 
ATOM     14  N   UNL A   1      39.539  29.687  30.264  1.00  0.00    -0.248 NA
ATOM     15  C   UNL A   1      38.069  29.897  28.475  1.00  0.00     0.031 C 
ATOM     16  C   UNL A   1      37.262  32.747  32.563  1.00  0.00     0.029 A 
ATOM     17  N   UNL A   1      38.990  31.333  32.600  1.00  0.00    -0.354 N 
ATOM     18  C   UNL A   1      39.955  28.850  29.235  1.00  0.00     0.074 A 
ATOM     19  C   UNL A   1      38.996  28.997  28.166  1.00  0.00     0.031 C 
ATOM     20  C   UNL A   1      37.911  32.948  33.711  1.00  0.00     0.029 A 
ATOM     21  C   UNL A   1      38.991  31.976  33.811  1.00  0.00     0.049 A 
ATOM     22  H   UNL A   1      39.649  30.645  32.350  1.00  0.00     0.167 HD
ATOM     23  C   UNL A   1      41.048  28.050  29.182  1.00  0.00     0.037 A 
ATOM     24  C   UNL A   1      39.718  31.771  34.924  1.00  0.00     0.037 A 
ATOM     25  C   UNL A   1      41.945  27.824  30.288  1.00  0.00     0.049 A 
ATOM     26  C   UNL A   1      40.757  30.698  34.922  1.00  0.00     0.074 A 
ATOM     27  C   UNL A   1      43.061  27.004  30.341  1.00  0.00     0.029 A 
ATOM     28  N   UNL A   1      41.796  28.374  31.552  1.00  0.00    -0.354 N 
ATOM     29  N   UNL A   1      41.171  29.962  33.922  1.00  0.00    -0.248 NA
ATOM     30  C   UNL A   1      41.401  30.400  36.205  1.00  0.00     0.031 C 
ATOM     31  C   UNL A   1      43.522  26.979  31.663  1.00  0.00     0.029 A 
ATOM     32  C   UNL A   1      42.739  27.837  32.415  1.00  0.00     0.049 A 
ATOM     33  H   UNL A   1      41.121  29.047  31.798  1.00  0.00     0.167 HD
ATOM     34  C   UNL A   1      42.120  29.105  34.452  1.00  0.00     0.074 A 
ATOM     35  C   UNL A   1      42.236  29.429  35.860  1.00  0.00     0.031 C 
ATOM     36  C   UNL A   1      42.824  28.133  33.822  1.00  0.00     0.037 A 
BRANCH  23  37
ATOM     37  C   UNL A   1      41.350  27.320  27.902  1.00  0.00     0.064 A 
ATOM     38  C   UNL A   1      42.127  27.911  26.894  1.00  0.00     0.173 A 
ATOM     39  C   UNL A   1      40.995  25.971  27.750  1.00  0.00     0.173 A 
ATOM     40  F   UNL A   1      42.487  29.199  26.984  1.00  0.00    -0.203 F 
ATOM     41  C   UNL A   1      42.549  27.171  25.789  1.00  0.00     0.198 A 
ATOM     42  C   UNL A   1      41.431  25.231  26.653  1.00  0.00     0.198 A 
ATOM     43  F   UNL A   1      40.261  25.357  28.690  1.00  0.00    -0.203 F 
ATOM     44  F   UNL A   1      43.292  27.755  24.838  1.00  0.00    -0.200 F 
ATOM     45  C   UNL A   1      42.213  25.830  25.675  1.00  0.00     0.200 A 
ATOM     46  F   UNL A   1      41.115  23.933  26.552  1.00  0.00    -0.200 F 
ATOM     47  F   UNL A   1      42.643  25.114  24.627  1.00  0.00    -0.200 F 
ENDBRANCH  23  37
BRANCH  24  48
ATOM     48  C   UNL A   1      39.374  32.553  36.138  1.00  0.00     0.064 A 
ATOM     49  C   UNL A   1      38.470  32.068  37.088  1.00  0.00     0.173 A 
ATOM     50  C   UNL A   1      40.064  33.744  36.433  1.00  0.00     0.173 A 
ATOM     51  F   UNL A   1      37.771  30.952  36.840  1.00  0.00    -0.203 F 
ATOM     52  C   UNL A   1      38.297  32.724  38.306  1.00  0.00     0.198 A 
ATOM     53  C   UNL A   1      39.922  34.372  37.665  1.00  0.00     0.198 A 
ATOM     54  F   UNL A   1      40.944  34.246  35.553  1.00  0.00    -0.203 F 
ATOM     55  F   UNL A   1      37.429  32.244  39.206  1.00  0.00    -0.200 F 
ATOM     56  C   UNL A   1      39.041  33.859  38.602  1.00  0.00     0.200 A 
ATOM     57  F   UNL A   1      40.670  35.445  37.957  1.00  0.00    -0.200 F 
ATOM     58  F   UNL A   1      38.916  34.453  39.798  1.00  0.00    -0.200 F 
ENDBRANCH  24  48
BRANCH  36  59
ATOM     59  C   UNL A   1      43.772  27.327  34.656  1.00  0.00     0.064 A 
ATOM     60  C   UNL A   1      43.383  26.101  35.215  1.00  0.00     0.173 A 
ATOM     61  C   UNL A   1      45.088  27.762  34.869  1.00  0.00     0.173 A 
ATOM     62  F   UNL A   1      42.129  25.651  35.052  1.00  0.00    -0.203 F 
ATOM     63  C   UNL A   1      44.274  25.348  35.974  1.00  0.00     0.198 A 
ATOM     64  C   UNL A   1      45.984  26.992  35.605  1.00  0.00     0.198 A 
ATOM     65  F   UNL A   1      45.509  28.924  34.351  1.00  0.00    -0.203 F 
ATOM     66  F   UNL A   1      43.868  24.199  36.534  1.00  0.00    -0.200 F 
ATOM     67  C   UNL A   1      45.575  25.789  36.161  1.00  0.00     0.200 A 
ATOM     68  F   UNL A   1      47.246  27.412  35.773  1.00  0.00    -0.200 F 
ATOM     69  F   UNL A   1      46.434  25.058  36.885  1.00  0.00    -0.200 F 
ENDBRANCH  36  59
ENDBRANCH  10  11
ENDBRANCH   3   5
ENDBRANCH   2   3
ENDBRANCH   1   2
BRANCH   1  70
ATOM     70  C   UNL A   1      31.632  31.718  26.901  1.00  0.00     0.274 C 
BRANCH  70  71
ATOM     71  O   UNL A   1      32.650  30.712  27.093  1.00  0.00    -0.458 OA
BRANCH  71  72
ATOM     72  C   UNL A   1      32.246  29.422  26.891  1.00  0.00     0.365 C 
ATOM     73  O   UNL A   1      31.426  28.851  27.610  1.00  0.00    -0.245 OA
BRANCH  72  74
ATOM     74  C   UNL A   1      32.879  28.715  25.674  1.00  0.00     0.300 C 
ATOM     75  C   UNL A   1      33.644  27.476  26.194  1.00  0.00     0.113 C 
ATOM     76  N   UNL A   1      31.940  28.449  24.534  1.00  0.00    -0.315 N 
ATOM     77  C   UNL A   1      33.808  26.329  25.225  1.00  0.00    -0.033 A 
ATOM     78  C   UNL A   1      32.674  27.717  23.480  1.00  0.00     0.300 C 
ATOM     79  H   UNL A   1      31.170  27.891  24.900  1.00  0.00     0.349 HD
ATOM     80  C   UNL A   1      34.476  25.156  25.608  1.00  0.00     0.006 A 
ATOM     81  C   UNL A   1      33.256  26.413  23.943  1.00  0.00     0.011 A 
ATOM     82  C   UNL A   1      34.560  24.068  24.733  1.00  0.00     0.021 A 
ATOM     83  C   UNL A   1      33.375  25.332  23.054  1.00  0.00     0.030 A 
ATOM     84  C   UNL A   1      34.007  24.160  23.460  1.00  0.00     0.041 A 
ATOM     85  Cl  UNL A   1      34.122  22.830  22.374  1.00  0.00    -0.084 Cl
BRANCH  76  86
ATOM     86  C   UNL A   1      31.307  29.681  23.968  1.00  0.00     0.301 C 
BRANCH  86  87
ATOM     87  C   UNL A   1      29.799  29.608  23.796  1.00  0.00     0.025 A 
ATOM     88  C   UNL A   1      29.184  28.347  23.708  1.00  0.00     0.011 A 
ATOM     89  C   UNL A   1      29.023  30.738  23.500  1.00  0.00     0.049 A 
ATOM     90  C   UNL A   1      27.951  28.201  23.077  1.00  0.00     0.001 A 
ATOM     91  C   UNL A   1      27.787  30.593  22.868  1.00  0.00     0.021 A 
ATOM     92  Cl  UNL A   1      29.530  32.334  23.907  1.00  0.00    -0.084 Cl
ATOM     93  C   UNL A   1      27.277  29.323  22.608  1.00  0.00     0.002 A 
ENDBRANCH  86  87
ENDBRANCH  76  86
ENDBRANCH  72  74
ENDBRANCH  71  72
ENDBRANCH  70  71
ENDBRANCH   1  70
TORSDOF 13
ENDMDL
MODEL 3
REMARK VINA RESULT:     -12.8      3.667      5.421
REMARK SMILES O=C(OCCOC(=O)[C@H]1Cc2ccc(Cl)cc2C[N@@H+]1Cc1ccccc1Cl)c1ccc(-c2c3nc(c(-c4c(F)c(F)c(F)c(F)c4F)c4ccc([nH]4)c(-c4c(F)c(F)c(F)c(F)c4F)c4nc(c(-c5c(F)c(F)c(F)c(F)c5F)c5ccc2[nH]5)C=C4)C=C3)cc1
REMARK SMILES IDX 4 1 3 2 2 3 1 4 28 5 29 6 90 7 30 8 89 9 31 10 32 11 33 12
REMARK SMILES IDX 83 13 34 14 88 15 82 16 84 17 35 18 87 19 81 20 80 21 36 23
REMARK SMILES IDX 68 24 48 25 67 26 49 27 52 28 66 29 85 30 50 31 51 32 65 34
REMARK SMILES IDX 86 35 53 36 37 37 38 38 46 39 39 40 40 41 44 42 47 43 41 44
REMARK SMILES IDX 42 45 45 46 43 47 69 48 70 49 78 50 71 51 72 52 76 53 79 54
REMARK SMILES IDX 73 55 74 56 77 57 75 58 54 59 55 60 63 61 56 62 57 63 61 64
REMARK SMILES IDX 64 65 58 66 59 67 62 68 60 69 5 70 6 71 7 72 8 73 9 74 10 75
REMARK SMILES IDX 19 76 11 77 18 78 12 80 17 81 13 82 16 83 14 84 15 85 20 86
REMARK SMILES IDX 21 87 22 88 26 89 23 90 25 91 27 92 24 93
REMARK H PARENT 84 22 52 33 19 79
REMARK Flexibility Score: inf
ROOT
ATOM      1  C   UNL A   1      32.783  28.095  26.360  1.00  0.00     0.275 C 
ENDROOT
BRANCH   1   2
ATOM      2  O   UNL A   1      33.329  28.706  27.532  1.00  0.00    -0.458 OA
BRANCH   2   3
ATOM      3  C   UNL A   1      34.105  29.805  27.632  1.00  0.00     0.338 C 
ATOM      4  O   UNL A   1      33.708  30.848  27.108  1.00  0.00    -0.246 OA
BRANCH   3   5
ATOM      5  C   UNL A   1      35.496  29.792  28.193  1.00  0.00     0.060 A 
ATOM      6  C   UNL A   1      36.502  30.001  27.248  1.00  0.00     0.016 A 
ATOM      7  C   UNL A   1      35.903  29.533  29.507  1.00  0.00     0.016 A 
ATOM      8  C   UNL A   1      37.831  29.733  27.560  1.00  0.00     0.010 A 
ATOM      9  C   UNL A   1      37.258  29.328  29.835  1.00  0.00     0.010 A 
ATOM     10  C   UNL A   1      38.241  29.359  28.851  1.00  0.00    -0.014 A 
BRANCH  10  11
ATOM     11  C   UNL A   1      39.688  29.085  29.113  1.00  0.00     0.031 A 
ATOM     12  C   UNL A   1      40.387  27.812  28.689  1.00  0.00     0.074 A 
ATOM     13  C   UNL A   1      40.418  30.071  29.672  1.00  0.00     0.049 A 
ATOM     14  N   UNL A   1      41.670  27.528  28.723  1.00  0.00    -0.248 NA
ATOM     15  C   UNL A   1      39.567  26.716  28.155  1.00  0.00     0.031 C 
ATOM     16  C   UNL A   1      39.872  31.343  30.151  1.00  0.00     0.029 A 
ATOM     17  N   UNL A   1      41.766  30.185  29.902  1.00  0.00    -0.354 N 
ATOM     18  C   UNL A   1      41.809  26.263  28.162  1.00  0.00     0.074 A 
ATOM     19  C   UNL A   1      40.477  25.796  27.856  1.00  0.00     0.031 C 
ATOM     20  C   UNL A   1      40.873  32.144  30.518  1.00  0.00     0.029 A 
ATOM     21  C   UNL A   1      42.118  31.389  30.458  1.00  0.00     0.049 A 
ATOM     22  H   UNL A   1      42.413  29.475  29.691  1.00  0.00     0.167 HD
ATOM     23  C   UNL A   1      42.944  25.568  27.907  1.00  0.00     0.037 A 
ATOM     24  C   UNL A   1      43.291  31.831  30.946  1.00  0.00     0.037 A 
ATOM     25  C   UNL A   1      44.264  25.989  28.309  1.00  0.00     0.049 A 
ATOM     26  C   UNL A   1      44.484  30.936  30.884  1.00  0.00     0.074 A 
ATOM     27  C   UNL A   1      45.472  25.336  28.125  1.00  0.00     0.029 A 
ATOM     28  N   UNL A   1      44.541  27.143  29.025  1.00  0.00    -0.354 N 
ATOM     29  N   UNL A   1      44.604  29.772  30.297  1.00  0.00    -0.248 NA
ATOM     30  C   UNL A   1      45.690  31.393  31.580  1.00  0.00     0.031 C 
ATOM     31  C   UNL A   1      46.460  26.042  28.821  1.00  0.00     0.029 A 
ATOM     32  C   UNL A   1      45.882  27.172  29.375  1.00  0.00     0.049 A 
ATOM     33  H   UNL A   1      43.882  27.839  29.250  1.00  0.00     0.167 HD
ATOM     34  C   UNL A   1      45.896  29.349  30.557  1.00  0.00     0.074 A 
ATOM     35  C   UNL A   1      46.529  30.394  31.337  1.00  0.00     0.031 C 
ATOM     36  C   UNL A   1      46.496  28.193  30.184  1.00  0.00     0.037 A 
BRANCH  23  37
ATOM     37  C   UNL A   1      42.843  24.255  27.181  1.00  0.00     0.064 A 
ATOM     38  C   UNL A   1      43.191  24.144  25.825  1.00  0.00     0.173 A 
ATOM     39  C   UNL A   1      42.547  23.074  27.880  1.00  0.00     0.173 A 
ATOM     40  F   UNL A   1      43.475  25.241  25.108  1.00  0.00    -0.203 F 
ATOM     41  C   UNL A   1      43.261  22.897  25.203  1.00  0.00     0.198 A 
ATOM     42  C   UNL A   1      42.634  21.830  27.259  1.00  0.00     0.198 A 
ATOM     43  F   UNL A   1      42.216  23.124  29.178  1.00  0.00    -0.203 F 
ATOM     44  F   UNL A   1      43.599  22.815  23.909  1.00  0.00    -0.200 F 
ATOM     45  C   UNL A   1      42.996  21.742  25.922  1.00  0.00     0.200 A 
ATOM     46  F   UNL A   1      42.388  20.714  27.959  1.00  0.00    -0.200 F 
ATOM     47  F   UNL A   1      43.092  20.543  25.330  1.00  0.00    -0.200 F 
ENDBRANCH  23  37
BRANCH  24  48
ATOM     48  C   UNL A   1      43.313  33.151  31.625  1.00  0.00     0.064 A 
ATOM     49  C   UNL A   1      43.533  34.335  30.914  1.00  0.00     0.173 A 
ATOM     50  C   UNL A   1      42.968  33.254  32.985  1.00  0.00     0.173 A 
ATOM     51  F   UNL A   1      43.889  34.286  29.623  1.00  0.00    -0.203 F 
ATOM     52  C   UNL A   1      43.368  35.575  31.529  1.00  0.00     0.198 A 
ATOM     53  C   UNL A   1      42.763  34.492  33.584  1.00  0.00     0.198 A 
ATOM     54  F   UNL A   1      42.745  32.146  33.707  1.00  0.00    -0.203 F 
ATOM     55  F   UNL A   1      43.580  36.699  30.832  1.00  0.00    -0.200 F 
ATOM     56  C   UNL A   1      42.960  35.652  32.854  1.00  0.00     0.200 A 
ATOM     57  F   UNL A   1      42.333  34.557  34.852  1.00  0.00    -0.200 F 
ATOM     58  F   UNL A   1      42.745  36.846  33.424  1.00  0.00    -0.200 F 
ENDBRANCH  24  48
BRANCH  36  59
ATOM     59  C   UNL A   1      47.908  27.980  30.636  1.00  0.00     0.064 A 
ATOM     60  C   UNL A   1      48.193  27.302  31.830  1.00  0.00     0.173 A 
ATOM     61  C   UNL A   1      48.986  28.421  29.855  1.00  0.00     0.173 A 
ATOM     62  F   UNL A   1      47.196  26.876  32.620  1.00  0.00    -0.203 F 
ATOM     63  C   UNL A   1      49.508  27.092  32.236  1.00  0.00     0.198 A 
ATOM     64  C   UNL A   1      50.299  28.183  30.249  1.00  0.00     0.198 A 
ATOM     65  F   UNL A   1      48.765  29.069  28.701  1.00  0.00    -0.203 F 
ATOM     66  F   UNL A   1      49.757  26.479  33.402  1.00  0.00    -0.200 F 
ATOM     67  C   UNL A   1      50.559  27.525  31.441  1.00  0.00     0.200 A 
ATOM     68  F   UNL A   1      51.314  28.589  29.473  1.00  0.00    -0.200 F 
ATOM     69  F   UNL A   1      51.825  27.314  31.829  1.00  0.00    -0.200 F 
ENDBRANCH  36  59
ENDBRANCH  10  11
ENDBRANCH   3   5
ENDBRANCH   2   3
ENDBRANCH   1   2
BRANCH   1  70
ATOM     70  C   UNL A   1      33.774  27.238  25.570  1.00  0.00     0.274 C 
BRANCH  70  71
ATOM     71  O   UNL A   1      33.236  26.061  24.929  1.00  0.00    -0.458 OA
BRANCH  71  72
ATOM     72  C   UNL A   1      33.464  24.882  25.581  1.00  0.00     0.365 C 
ATOM     73  O   UNL A   1      32.863  24.548  26.604  1.00  0.00    -0.245 OA
BRANCH  72  74
ATOM     74  C   UNL A   1      34.527  23.967  24.939  1.00  0.00     0.300 C 
ATOM     75  C   UNL A   1      35.893  24.314  25.573  1.00  0.00     0.113 C 
ATOM     76  N   UNL A   1      34.186  22.505  24.928  1.00  0.00    -0.315 N 
ATOM     77  C   UNL A   1      36.927  23.213  25.593  1.00  0.00    -0.033 A 
ATOM     78  C   UNL A   1      35.320  21.760  24.342  1.00  0.00     0.300 C 
ATOM     79  H   UNL A   1      34.023  22.225  25.894  1.00  0.00     0.349 HD
ATOM     80  C   UNL A   1      38.193  23.427  26.159  1.00  0.00     0.006 A 
ATOM     81  C   UNL A   1      36.614  21.951  25.080  1.00  0.00     0.011 A 
ATOM     82  C   UNL A   1      39.120  22.383  26.243  1.00  0.00     0.021 A 
ATOM     83  C   UNL A   1      37.561  20.915  25.133  1.00  0.00     0.030 A 
ATOM     84  C   UNL A   1      38.799  21.130  25.731  1.00  0.00     0.041 A 
ATOM     85  Cl  UNL A   1      39.942  19.847  25.818  1.00  0.00    -0.084 Cl
BRANCH  76  86
ATOM     86  C   UNL A   1      32.919  22.183  24.200  1.00  0.00     0.301 C 
BRANCH  86  87
ATOM     87  C   UNL A   1      32.521  20.717  24.220  1.00  0.00     0.025 A 
ATOM     88  C   UNL A   1      32.595  20.007  25.431  1.00  0.00     0.011 A 
ATOM     89  C   UNL A   1      32.296  19.985  23.045  1.00  0.00     0.049 A 
ATOM     90  C   UNL A   1      32.730  18.621  25.435  1.00  0.00     0.001 A 
ATOM     91  C   UNL A   1      32.430  18.596  23.048  1.00  0.00     0.021 A 
ATOM     92  Cl  UNL A   1      31.830  20.740  21.566  1.00  0.00    -0.084 Cl
ATOM     93  C   UNL A   1      32.702  17.920  24.235  1.00  0.00     0.002 A 
ENDBRANCH  86  87
ENDBRANCH  76  86
ENDBRANCH  72  74
ENDBRANCH  71  72
ENDBRANCH  70  71
ENDBRANCH   1  70
TORSDOF 13
ENDMDL
