MODEL 1
REMARK VINA RESULT:     -11.9      0.000      0.000
REMARK SMILES NC(=O)COc1ccc(/C=C2\SC(=S)N(CCC(=O)OCCOC(=O)c3ccc(-c4c5nc(c(-c6c(F)c(F)c(F)c(F)c6F)c6ccc([nH]6)c(-c6c(F)c(F)c(F)c(F)c6F)c6nc(c(-c7c(F)c(F)c(F)c(F)c7F)c7ccc4[nH]7)C=C6)C=C5)cc3)C2=O)cc1
REMARK SMILES IDX 18 1 19 2 17 3 16 4 15 5 10 6 11 7 12 8 89 9 13 10 90 11
REMARK SMILES IDX 14 12 9 13 6 14 7 15 92 16 8 17 91 18 5 19 4 20 2 21 1 22
REMARK SMILES IDX 3 25 20 26 21 27 22 28 23 29 24 30 25 31 26 32 27 33 88 34
REMARK SMILES IDX 28 35 87 36 29 37 30 38 31 39 81 40 32 41 86 42 80 43 82 44
REMARK SMILES IDX 33 45 85 46 79 47 78 48 34 50 66 51 46 52 65 53 47 54 50 55
REMARK SMILES IDX 64 56 83 57 48 58 49 59 63 61 84 62 51 63 35 64 36 65 44 66
REMARK SMILES IDX 37 67 38 68 42 69 45 70 39 71 40 72 43 73 41 74 67 75 68 76
REMARK SMILES IDX 76 77 69 78 70 79 74 80 77 81 71 82 72 83 75 84 73 85 52 86
REMARK SMILES IDX 53 87 61 88 54 89 55 90 59 91 62 92 56 93 57 94 60 95 58 96
REMARK H PARENT 1 23 1 24 82 49 50 60
REMARK Flexibility Score: inf
ROOT
ATOM      1  C   UNL A   1      30.902  26.616  24.339  1.00  0.00     0.307 C 
ATOM      2  O   UNL A   1      30.061  26.239  25.144  1.00  0.00    -0.252 OA
ENDROOT
BRANCH   1   3
ATOM      3  C   UNL A   1      31.231  25.847  23.078  1.00  0.00     0.144 C 
BRANCH   3   4
ATOM      4  C   UNL A   1      30.982  24.337  23.165  1.00  0.00     0.139 C 
BRANCH   4   5
ATOM      5  N   UNL A   1      32.083  23.645  23.840  1.00  0.00    -0.292 N 
ATOM      6  C   UNL A   1      35.634  23.395  23.859  1.00  0.00     0.029 C 
ATOM      7  C   UNL A   1      34.349  23.185  24.162  1.00  0.00     0.081 C 
ATOM      8  S   UNL A   1      33.633  22.504  25.559  1.00  0.00    -0.054 SA
ATOM      9  C   UNL A   1      33.304  23.586  23.208  1.00  0.00     0.266 C 
ATOM     10  C   UNL A   1      32.022  23.048  25.081  1.00  0.00     0.148 C 
ATOM     11  O   UNL A   1      33.535  23.801  22.030  1.00  0.00    -0.268 OA
ATOM     12  S   UNL A   1      30.686  22.856  26.060  1.00  0.00    -0.052 S 
BRANCH   6  13
ATOM     13  C   UNL A   1      36.749  22.844  24.609  1.00  0.00    -0.024 A 
ATOM     14  C   UNL A   1      38.922  21.962  26.122  1.00  0.00     0.120 A 
ATOM     15  C   UNL A   1      38.271  21.087  25.244  1.00  0.00     0.047 A 
ATOM     16  C   UNL A   1      38.472  23.276  26.241  1.00  0.00     0.047 A 
ATOM     17  C   UNL A   1      37.175  21.522  24.493  1.00  0.00     0.012 A 
ATOM     18  C   UNL A   1      37.395  23.715  25.485  1.00  0.00     0.012 A 
BRANCH  14  19
ATOM     19  O   UNL A   1      40.018  21.459  26.768  1.00  0.00    -0.484 OA
BRANCH  19  20
ATOM     20  C   UNL A   1      40.511  20.214  26.281  1.00  0.00     0.329 C 
BRANCH  20  21
ATOM     21  C   UNL A   1      42.004  19.933  26.485  1.00  0.00     0.255 C 
ATOM     22  N   UNL A   1      42.417  19.809  27.779  1.00  0.00    -0.367 N 
ATOM     23  H   UNL A   1      43.364  19.627  27.978  1.00  0.00     0.159 HD
ATOM     24  H   UNL A   1      41.768  19.900  28.513  1.00  0.00     0.159 HD
ATOM     25  O   UNL A   1      42.798  19.820  25.555  1.00  0.00    -0.271 OA
ENDBRANCH  20  21
ENDBRANCH  19  20
ENDBRANCH  14  19
ENDBRANCH   6  13
ENDBRANCH   4   5
ENDBRANCH   3   4
ENDBRANCH   1   3
BRANCH   1  26
ATOM     26  O   UNL A   1      31.682  27.712  24.487  1.00  0.00    -0.462 OA
BRANCH  26  27
ATOM     27  C   UNL A   1      31.475  28.528  25.659  1.00  0.00     0.274 C 
BRANCH  27  28
ATOM     28  C   UNL A   1      31.982  29.960  25.459  1.00  0.00     0.275 C 
BRANCH  28  29
ATOM     29  O   UNL A   1      33.278  30.108  26.057  1.00  0.00    -0.458 OA
BRANCH  29  30
ATOM     30  C   UNL A   1      33.424  31.102  26.958  1.00  0.00     0.338 C 
ATOM     31  O   UNL A   1      32.684  32.031  27.217  1.00  0.00    -0.246 OA
BRANCH  30  32
ATOM     32  C   UNL A   1      34.678  30.874  27.672  1.00  0.00     0.060 A 
ATOM     33  C   UNL A   1      35.555  31.943  27.871  1.00  0.00     0.016 A 
ATOM     34  C   UNL A   1      34.987  29.587  28.109  1.00  0.00     0.016 A 
ATOM     35  C   UNL A   1      36.751  31.731  28.546  1.00  0.00     0.010 A 
ATOM     36  C   UNL A   1      36.180  29.379  28.793  1.00  0.00     0.010 A 
ATOM     37  C   UNL A   1      37.060  30.451  29.019  1.00  0.00    -0.014 A 
BRANCH  37  38
ATOM     38  C   UNL A   1      38.306  30.214  29.774  1.00  0.00     0.031 A 
ATOM     39  C   UNL A   1      39.366  29.331  29.197  1.00  0.00     0.074 A 
ATOM     40  C   UNL A   1      38.444  30.763  30.993  1.00  0.00     0.049 A 
ATOM     41  N   UNL A   1      40.454  28.872  29.757  1.00  0.00    -0.248 NA
ATOM     42  C   UNL A   1      39.172  28.902  27.804  1.00  0.00     0.031 C 
ATOM     43  C   UNL A   1      37.482  31.668  31.622  1.00  0.00     0.029 A 
ATOM     44  N   UNL A   1      39.435  30.622  31.927  1.00  0.00    -0.354 N 
ATOM     45  C   UNL A   1      41.068  28.088  28.792  1.00  0.00     0.074 A 
ATOM     46  C   UNL A   1      40.225  28.119  27.616  1.00  0.00     0.031 C 
ATOM     47  C   UNL A   1      37.926  31.995  32.846  1.00  0.00     0.029 A 
ATOM     48  C   UNL A   1      39.172  31.280  33.102  1.00  0.00     0.049 A 
ATOM     49  H   UNL A   1      40.256  30.101  31.770  1.00  0.00     0.167 HD
ATOM     50  C   UNL A   1      42.234  27.407  28.889  1.00  0.00     0.037 A 
ATOM     51  C   UNL A   1      39.845  31.269  34.267  1.00  0.00     0.037 A 
ATOM     52  C   UNL A   1      43.055  27.385  30.071  1.00  0.00     0.049 A 
ATOM     53  C   UNL A   1      41.090  30.435  34.376  1.00  0.00     0.074 A 
ATOM     54  C   UNL A   1      44.262  26.743  30.275  1.00  0.00     0.029 A 
ATOM     55  N   UNL A   1      42.742  28.036  31.258  1.00  0.00    -0.354 N 
ATOM     56  N   UNL A   1      41.672  29.695  33.463  1.00  0.00    -0.248 NA
ATOM     57  C   UNL A   1      41.764  30.421  35.681  1.00  0.00     0.031 C 
ATOM     58  C   UNL A   1      44.658  26.968  31.598  1.00  0.00     0.029 A 
ATOM     59  C   UNL A   1      43.720  27.788  32.207  1.00  0.00     0.049 A 
ATOM     60  H   UNL A   1      41.943  28.592  31.403  1.00  0.00     0.167 HD
ATOM     61  C   UNL A   1      42.787  29.142  34.073  1.00  0.00     0.074 A 
ATOM     62  C   UNL A   1      42.809  29.641  35.433  1.00  0.00     0.031 C 
ATOM     63  C   UNL A   1      43.712  28.296  33.555  1.00  0.00     0.037 A 
BRANCH  50  64
ATOM     64  C   UNL A   1      42.667  26.608  27.697  1.00  0.00     0.064 A 
ATOM     65  C   UNL A   1      43.573  27.121  26.756  1.00  0.00     0.173 A 
ATOM     66  C   UNL A   1      42.183  25.307  27.501  1.00  0.00     0.173 A 
ATOM     67  F   UNL A   1      44.052  28.367  26.889  1.00  0.00    -0.203 F 
ATOM     68  C   UNL A   1      43.956  26.368  25.648  1.00  0.00     0.198 A 
ATOM     69  C   UNL A   1      42.588  24.547  26.406  1.00  0.00     0.198 A 
ATOM     70  F   UNL A   1      41.317  24.769  28.373  1.00  0.00    -0.203 F 
ATOM     71  F   UNL A   1      44.786  26.896  24.737  1.00  0.00    -0.200 F 
ATOM     72  C   UNL A   1      43.469  25.082  25.477  1.00  0.00     0.200 A 
ATOM     73  F   UNL A   1      42.123  23.301  26.246  1.00  0.00    -0.200 F 
ATOM     74  F   UNL A   1      43.840  24.358  24.411  1.00  0.00    -0.200 F 
ENDBRANCH  50  64
BRANCH  51  75
ATOM     75  C   UNL A   1      39.338  32.057  35.418  1.00  0.00     0.064 A 
ATOM     76  C   UNL A   1      39.653  33.415  35.552  1.00  0.00     0.173 A 
ATOM     77  C   UNL A   1      38.511  31.477  36.392  1.00  0.00     0.173 A 
ATOM     78  F   UNL A   1      40.458  34.006  34.657  1.00  0.00    -0.203 F 
ATOM     79  C   UNL A   1      39.165  34.163  36.621  1.00  0.00     0.198 A 
ATOM     80  C   UNL A   1      38.004  32.233  37.447  1.00  0.00     0.198 A 
ATOM     81  F   UNL A   1      38.180  30.180  36.308  1.00  0.00    -0.203 F 
ATOM     82  F   UNL A   1      39.507  35.453  36.744  1.00  0.00    -0.200 F 
ATOM     83  C   UNL A   1      38.335  33.574  37.563  1.00  0.00     0.200 A 
ATOM     84  F   UNL A   1      37.192  31.662  38.347  1.00  0.00    -0.200 F 
ATOM     85  F   UNL A   1      37.859  34.297  38.586  1.00  0.00    -0.200 F 
ENDBRANCH  51  75
BRANCH  63  86
ATOM     86  C   UNL A   1      44.831  27.877  34.461  1.00  0.00     0.064 A 
ATOM     87  C   UNL A   1      45.976  28.669  34.623  1.00  0.00     0.173 A 
ATOM     88  C   UNL A   1      44.736  26.692  35.206  1.00  0.00     0.173 A 
ATOM     89  F   UNL A   1      46.120  29.801  33.916  1.00  0.00    -0.203 F 
ATOM     90  C   UNL A   1      46.996  28.281  35.487  1.00  0.00     0.198 A 
ATOM     91  C   UNL A   1      45.745  26.320  36.088  1.00  0.00     0.198 A 
ATOM     92  F   UNL A   1      43.657  25.903  35.087  1.00  0.00    -0.203 F 
ATOM     93  F   UNL A   1      48.100  29.033  35.599  1.00  0.00    -0.200 F 
ATOM     94  C   UNL A   1      46.876  27.112  36.225  1.00  0.00     0.200 A 
ATOM     95  F   UNL A   1      45.624  25.196  36.808  1.00  0.00    -0.200 F 
ATOM     96  F   UNL A   1      47.854  26.745  37.063  1.00  0.00    -0.200 F 
ENDBRANCH  63  86
ENDBRANCH  37  38
ENDBRANCH  30  32
ENDBRANCH  29  30
ENDBRANCH  28  29
ENDBRANCH  27  28
ENDBRANCH  26  27
ENDBRANCH   1  26
TORSDOF 17
ENDMDL
MODEL 2
REMARK VINA RESULT:     -11.6      0.284      1.590
REMARK SMILES NC(=O)COc1ccc(/C=C2\SC(=S)N(CCC(=O)OCCOC(=O)c3ccc(-c4c5nc(c(-c6c(F)c(F)c(F)c(F)c6F)c6ccc([nH]6)c(-c6c(F)c(F)c(F)c(F)c6F)c6nc(c(-c7c(F)c(F)c(F)c(F)c7F)c7ccc4[nH]7)C=C6)C=C5)cc3)C2=O)cc1
REMARK SMILES IDX 18 1 19 2 17 3 16 4 15 5 10 6 11 7 12 8 89 9 13 10 90 11
REMARK SMILES IDX 14 12 9 13 6 14 7 15 92 16 8 17 91 18 5 19 4 20 2 21 1 22
REMARK SMILES IDX 3 25 20 26 21 27 22 28 23 29 24 30 25 31 26 32 27 33 88 34
REMARK SMILES IDX 28 35 87 36 29 37 30 38 31 39 81 40 32 41 86 42 80 43 82 44
REMARK SMILES IDX 33 45 85 46 79 47 78 48 34 50 66 51 46 52 65 53 47 54 50 55
REMARK SMILES IDX 64 56 83 57 48 58 49 59 63 61 84 62 51 63 35 64 36 65 44 66
REMARK SMILES IDX 37 67 38 68 42 69 45 70 39 71 40 72 43 73 41 74 67 75 68 76
REMARK SMILES IDX 76 77 69 78 70 79 74 80 77 81 71 82 72 83 75 84 73 85 52 86
REMARK SMILES IDX 53 87 61 88 54 89 55 90 59 91 62 92 56 93 57 94 60 95 58 96
REMARK H PARENT 1 23 1 24 82 49 50 60
REMARK Flexibility Score: inf
ROOT
ATOM      1  C   UNL A   1      31.176  26.749  24.212  1.00  0.00     0.307 C 
ATOM      2  O   UNL A   1      30.244  26.327  24.884  1.00  0.00    -0.252 OA
ENDROOT
BRANCH   1   3
ATOM      3  C   UNL A   1      31.725  26.004  23.015  1.00  0.00     0.144 C 
BRANCH   3   4
ATOM      4  C   UNL A   1      31.449  24.496  23.017  1.00  0.00     0.139 C 
BRANCH   4   5
ATOM      5  N   UNL A   1      32.489  23.756  23.735  1.00  0.00    -0.292 N 
ATOM      6  C   UNL A   1      36.021  23.337  23.889  1.00  0.00     0.029 C 
ATOM      7  C   UNL A   1      34.717  23.191  24.144  1.00  0.00     0.081 C 
ATOM      8  S   UNL A   1      33.917  22.551  25.514  1.00  0.00    -0.054 SA
ATOM      9  C   UNL A   1      33.730  23.636  23.150  1.00  0.00     0.266 C 
ATOM     10  C   UNL A   1      32.353  23.168  24.974  1.00  0.00     0.148 C 
ATOM     11  O   UNL A   1      34.015  23.834  21.980  1.00  0.00    -0.268 OA
ATOM     12  S   UNL A   1      30.973  23.044  25.903  1.00  0.00    -0.052 S 
BRANCH   6  13
ATOM     13  C   UNL A   1      37.079  22.738  24.683  1.00  0.00    -0.024 A 
ATOM     14  C   UNL A   1      39.157  21.763  26.270  1.00  0.00     0.120 A 
ATOM     15  C   UNL A   1      38.447  20.899  25.428  1.00  0.00     0.047 A 
ATOM     16  C   UNL A   1      38.815  23.112  26.316  1.00  0.00     0.047 A 
ATOM     17  C   UNL A   1      37.398  21.382  24.639  1.00  0.00     0.012 A 
ATOM     18  C   UNL A   1      37.785  23.598  25.524  1.00  0.00     0.012 A 
BRANCH  14  19
ATOM     19  O   UNL A   1      40.202  21.207  26.957  1.00  0.00    -0.484 OA
BRANCH  19  20
ATOM     20  C   UNL A   1      40.719  19.990  26.426  1.00  0.00     0.329 C 
BRANCH  20  21
ATOM     21  C   UNL A   1      42.231  19.928  26.182  1.00  0.00     0.255 C 
ATOM     22  N   UNL A   1      42.923  19.032  26.943  1.00  0.00    -0.367 N 
ATOM     23  H   UNL A   1      43.897  18.943  26.835  1.00  0.00     0.159 HD
ATOM     24  H   UNL A   1      42.447  18.475  27.600  1.00  0.00     0.159 HD
ATOM     25  O   UNL A   1      42.806  20.631  25.355  1.00  0.00    -0.271 OA
ENDBRANCH  20  21
ENDBRANCH  19  20
ENDBRANCH  14  19
ENDBRANCH   6  13
ENDBRANCH   4   5
ENDBRANCH   3   4
ENDBRANCH   1   3
BRANCH   1  26
ATOM     26  O   UNL A   1      31.870  27.881  24.472  1.00  0.00    -0.462 OA
BRANCH  26  27
ATOM     27  C   UNL A   1      31.316  28.800  25.437  1.00  0.00     0.274 C 
BRANCH  27  28
ATOM     28  C   UNL A   1      32.062  30.137  25.452  1.00  0.00     0.275 C 
BRANCH  28  29
ATOM     29  O   UNL A   1      33.175  30.068  26.356  1.00  0.00    -0.458 OA
BRANCH  29  30
ATOM     30  C   UNL A   1      33.454  31.181  27.067  1.00  0.00     0.338 C 
ATOM     31  O   UNL A   1      32.817  32.210  27.179  1.00  0.00    -0.246 OA
BRANCH  30  32
ATOM     32  C   UNL A   1      34.710  30.952  27.776  1.00  0.00     0.060 A 
ATOM     33  C   UNL A   1      35.612  32.008  27.928  1.00  0.00     0.016 A 
ATOM     34  C   UNL A   1      34.997  29.675  28.256  1.00  0.00     0.016 A 
ATOM     35  C   UNL A   1      36.810  31.795  28.598  1.00  0.00     0.010 A 
ATOM     36  C   UNL A   1      36.192  29.467  28.936  1.00  0.00     0.010 A 
ATOM     37  C   UNL A   1      37.097  30.526  29.115  1.00  0.00    -0.014 A 
BRANCH  37  38
ATOM     38  C   UNL A   1      38.345  30.291  29.865  1.00  0.00     0.031 A 
ATOM     39  C   UNL A   1      39.408  29.416  29.280  1.00  0.00     0.074 A 
ATOM     40  C   UNL A   1      38.483  30.832  31.088  1.00  0.00     0.049 A 
ATOM     41  N   UNL A   1      40.499  28.959  29.835  1.00  0.00    -0.248 NA
ATOM     42  C   UNL A   1      39.213  28.996  27.885  1.00  0.00     0.031 C 
ATOM     43  C   UNL A   1      37.518  31.729  31.725  1.00  0.00     0.029 A 
ATOM     44  N   UNL A   1      39.477  30.690  32.019  1.00  0.00    -0.354 N 
ATOM     45  C   UNL A   1      41.115  28.184  28.864  1.00  0.00     0.074 A 
ATOM     46  C   UNL A   1      40.269  28.219  27.690  1.00  0.00     0.031 C 
ATOM     47  C   UNL A   1      37.963  32.050  32.950  1.00  0.00     0.029 A 
ATOM     48  C   UNL A   1      39.213  31.339  33.199  1.00  0.00     0.049 A 
ATOM     49  H   UNL A   1      40.300  30.174  31.857  1.00  0.00     0.167 HD
ATOM     50  C   UNL A   1      42.285  27.508  28.955  1.00  0.00     0.037 A 
ATOM     51  C   UNL A   1      39.888  31.323  34.362  1.00  0.00     0.037 A 
ATOM     52  C   UNL A   1      43.108  27.482  30.135  1.00  0.00     0.049 A 
ATOM     53  C   UNL A   1      41.137  30.494  34.464  1.00  0.00     0.074 A 
ATOM     54  C   UNL A   1      44.318  26.844  30.332  1.00  0.00     0.029 A 
ATOM     55  N   UNL A   1      42.794  28.123  31.326  1.00  0.00    -0.354 N 
ATOM     56  N   UNL A   1      41.721  29.763  33.544  1.00  0.00    -0.248 NA
ATOM     57  C   UNL A   1      41.814  30.475  35.766  1.00  0.00     0.031 C 
ATOM     58  C   UNL A   1      44.716  27.062  31.656  1.00  0.00     0.029 A 
ATOM     59  C   UNL A   1      43.775  27.873  32.272  1.00  0.00     0.049 A 
ATOM     60  H   UNL A   1      41.993  28.675  31.477  1.00  0.00     0.167 HD
ATOM     61  C   UNL A   1      42.840  29.211  34.148  1.00  0.00     0.074 A 
ATOM     62  C   UNL A   1      42.862  29.702  35.512  1.00  0.00     0.031 C 
ATOM     63  C   UNL A   1      43.767  28.372  33.624  1.00  0.00     0.037 A 
BRANCH  50  64
ATOM     64  C   UNL A   1      42.719  26.718  27.756  1.00  0.00     0.064 A 
ATOM     65  C   UNL A   1      43.631  27.236  26.824  1.00  0.00     0.173 A 
ATOM     66  C   UNL A   1      42.229  25.422  27.545  1.00  0.00     0.173 A 
ATOM     67  F   UNL A   1      44.116  28.479  26.973  1.00  0.00    -0.203 F 
ATOM     68  C   UNL A   1      44.016  26.493  25.711  1.00  0.00     0.198 A 
ATOM     69  C   UNL A   1      42.635  24.672  26.444  1.00  0.00     0.198 A 
ATOM     70  F   UNL A   1      41.355  24.880  28.407  1.00  0.00    -0.203 F 
ATOM     71  F   UNL A   1      44.853  27.026  24.809  1.00  0.00    -0.200 F 
ATOM     72  C   UNL A   1      43.523  25.211  25.525  1.00  0.00     0.200 A 
ATOM     73  F   UNL A   1      42.163  23.430  26.269  1.00  0.00    -0.200 F 
ATOM     74  F   UNL A   1      43.895  24.496  24.453  1.00  0.00    -0.200 F 
ENDBRANCH  50  64
BRANCH  51  75
ATOM     75  C   UNL A   1      39.380  32.101  35.519  1.00  0.00     0.064 A 
ATOM     76  C   UNL A   1      38.495  31.523  36.439  1.00  0.00     0.173 A 
ATOM     77  C   UNL A   1      39.783  33.426  35.743  1.00  0.00     0.173 A 
ATOM     78  F   UNL A   1      38.065  30.267  36.254  1.00  0.00    -0.203 F 
ATOM     79  C   UNL A   1      38.029  32.244  37.537  1.00  0.00     0.198 A 
ATOM     80  C   UNL A   1      39.336  34.137  36.854  1.00  0.00     0.198 A 
ATOM     81  F   UNL A   1      40.629  34.024  34.891  1.00  0.00    -0.203 F 
ATOM     82  F   UNL A   1      37.159  31.678  38.385  1.00  0.00    -0.200 F 
ATOM     83  C   UNL A   1      38.456  33.546  37.748  1.00  0.00     0.200 A 
ATOM     84  F   UNL A   1      39.761  35.390  37.061  1.00  0.00    -0.200 F 
ATOM     85  F   UNL A   1      38.014  34.235  38.809  1.00  0.00    -0.200 F 
ENDBRANCH  51  75
BRANCH  63  86
ATOM     86  C   UNL A   1      44.890  27.953  34.524  1.00  0.00     0.064 A 
ATOM     87  C   UNL A   1      44.837  26.754  35.250  1.00  0.00     0.173 A 
ATOM     88  C   UNL A   1      46.049  28.736  34.627  1.00  0.00     0.173 A 
ATOM     89  F   UNL A   1      43.741  25.982  35.197  1.00  0.00    -0.203 F 
ATOM     90  C   UNL A   1      45.898  26.364  36.061  1.00  0.00     0.198 A 
ATOM     91  C   UNL A   1      47.118  28.331  35.419  1.00  0.00     0.198 A 
ATOM     92  F   UNL A   1      46.147  29.890  33.948  1.00  0.00    -0.203 F 
ATOM     93  F   UNL A   1      45.811  25.234  36.777  1.00  0.00    -0.200 F 
ATOM     94  C   UNL A   1      47.040  27.147  36.138  1.00  0.00     0.200 A 
ATOM     95  F   UNL A   1      48.225  29.083  35.485  1.00  0.00    -0.200 F 
ATOM     96  F   UNL A   1      48.064  26.765  36.914  1.00  0.00    -0.200 F 
ENDBRANCH  63  86
ENDBRANCH  37  38
ENDBRANCH  30  32
ENDBRANCH  29  30
ENDBRANCH  28  29
ENDBRANCH  27  28
ENDBRANCH  26  27
ENDBRANCH   1  26
TORSDOF 17
ENDMDL
MODEL 3
REMARK VINA RESULT:     -11.2      2.649      8.071
REMARK SMILES NC(=O)COc1ccc(/C=C2\SC(=S)N(CCC(=O)OCCOC(=O)c3ccc(-c4c5nc(c(-c6c(F)c(F)c(F)c(F)c6F)c6ccc([nH]6)c(-c6c(F)c(F)c(F)c(F)c6F)c6nc(c(-c7c(F)c(F)c(F)c(F)c7F)c7ccc4[nH]7)C=C6)C=C5)cc3)C2=O)cc1
REMARK SMILES IDX 18 1 19 2 17 3 16 4 15 5 10 6 11 7 12 8 89 9 13 10 90 11
REMARK SMILES IDX 14 12 9 13 6 14 7 15 92 16 8 17 91 18 5 19 4 20 2 21 1 22
REMARK SMILES IDX 3 25 20 26 21 27 22 28 23 29 24 30 25 31 26 32 27 33 88 34
REMARK SMILES IDX 28 35 87 36 29 37 30 38 31 39 81 40 32 41 86 42 80 43 82 44
REMARK SMILES IDX 33 45 85 46 79 47 78 48 34 50 66 51 46 52 65 53 47 54 50 55
REMARK SMILES IDX 64 56 83 57 48 58 49 59 63 61 84 62 51 63 35 64 36 65 44 66
REMARK SMILES IDX 37 67 38 68 42 69 45 70 39 71 40 72 43 73 41 74 67 75 68 76
REMARK SMILES IDX 76 77 69 78 70 79 74 80 77 81 71 82 72 83 75 84 73 85 52 86
REMARK SMILES IDX 53 87 61 88 54 89 55 90 59 91 62 92 56 93 57 94 60 95 58 96
REMARK H PARENT 1 23 1 24 82 49 50 60
REMARK Flexibility Score: inf
ROOT
ATOM      1  C   UNL A   1      32.574  30.126  26.893  1.00  0.00     0.307 C 
ATOM      2  O   UNL A   1      33.051  29.274  27.632  1.00  0.00    -0.252 OA
ENDROOT
BRANCH   1   3
ATOM      3  C   UNL A   1      31.452  29.832  25.923  1.00  0.00     0.144 C 
BRANCH   3   4
ATOM      4  C   UNL A   1      31.909  29.479  24.502  1.00  0.00     0.139 C 
BRANCH   4   5
ATOM      5  N   UNL A   1      32.100  28.037  24.337  1.00  0.00    -0.292 N 
ATOM      6  C   UNL A   1      34.257  25.375  25.303  1.00  0.00     0.029 C 
ATOM      7  C   UNL A   1      33.256  26.046  24.725  1.00  0.00     0.081 C 
ATOM      8  S   UNL A   1      31.776  25.491  24.072  1.00  0.00    -0.054 SA
ATOM      9  C   UNL A   1      33.345  27.508  24.594  1.00  0.00     0.266 C 
ATOM     10  C   UNL A   1      31.132  27.131  23.958  1.00  0.00     0.148 C 
ATOM     11  O   UNL A   1      34.399  28.115  24.684  1.00  0.00    -0.268 OA
ATOM     12  S   UNL A   1      29.564  27.447  23.485  1.00  0.00    -0.052 S 
BRANCH   6  13
ATOM     13  C   UNL A   1      34.385  23.928  25.287  1.00  0.00    -0.024 A 
ATOM     14  C   UNL A   1      34.682  21.162  25.071  1.00  0.00     0.120 A 
ATOM     15  C   UNL A   1      34.198  21.730  26.256  1.00  0.00     0.047 A 
ATOM     16  C   UNL A   1      35.022  21.988  24.002  1.00  0.00     0.047 A 
ATOM     17  C   UNL A   1      34.058  23.116  26.372  1.00  0.00     0.012 A 
ATOM     18  C   UNL A   1      34.870  23.363  24.108  1.00  0.00     0.012 A 
BRANCH  14  19
ATOM     19  O   UNL A   1      34.727  19.794  25.036  1.00  0.00    -0.484 OA
BRANCH  19  20
ATOM     20  C   UNL A   1      33.627  19.152  24.396  1.00  0.00     0.329 C 
BRANCH  20  21
ATOM     21  C   UNL A   1      32.710  18.303  25.284  1.00  0.00     0.255 C 
ATOM     22  N   UNL A   1      32.900  18.427  26.629  1.00  0.00    -0.367 N 
ATOM     23  H   UNL A   1      32.343  17.910  27.254  1.00  0.00     0.159 HD
ATOM     24  H   UNL A   1      33.594  19.034  26.974  1.00  0.00     0.159 HD
ATOM     25  O   UNL A   1      31.848  17.554  24.834  1.00  0.00    -0.271 OA
ENDBRANCH  20  21
ENDBRANCH  19  20
ENDBRANCH  14  19
ENDBRANCH   6  13
ENDBRANCH   4   5
ENDBRANCH   3   4
ENDBRANCH   1   3
BRANCH   1  26
ATOM     26  O   UNL A   1      33.011  31.403  26.798  1.00  0.00    -0.462 OA
BRANCH  26  27
ATOM     27  C   UNL A   1      32.145  32.446  27.289  1.00  0.00     0.274 C 
BRANCH  27  28
ATOM     28  C   UNL A   1      32.831  33.815  27.284  1.00  0.00     0.275 C 
BRANCH  28  29
ATOM     29  O   UNL A   1      32.322  34.624  28.355  1.00  0.00    -0.458 OA
BRANCH  29  30
ATOM     30  C   UNL A   1      33.195  35.458  28.957  1.00  0.00     0.338 C 
ATOM     31  O   UNL A   1      33.173  36.669  29.054  1.00  0.00    -0.246 OA
BRANCH  30  32
ATOM     32  C   UNL A   1      34.242  34.640  29.565  1.00  0.00     0.060 A 
ATOM     33  C   UNL A   1      35.514  34.619  28.989  1.00  0.00     0.016 A 
ATOM     34  C   UNL A   1      33.939  33.874  30.689  1.00  0.00     0.016 A 
ATOM     35  C   UNL A   1      36.512  33.840  29.560  1.00  0.00     0.010 A 
ATOM     36  C   UNL A   1      34.943  33.103  31.266  1.00  0.00     0.010 A 
ATOM     37  C   UNL A   1      36.232  33.090  30.708  1.00  0.00    -0.014 A 
BRANCH  37  38
ATOM     38  C   UNL A   1      37.290  32.289  31.353  1.00  0.00     0.031 A 
ATOM     39  C   UNL A   1      37.780  32.667  32.715  1.00  0.00     0.074 A 
ATOM     40  C   UNL A   1      37.830  31.259  30.680  1.00  0.00     0.049 A 
ATOM     41  N   UNL A   1      38.798  32.198  33.387  1.00  0.00    -0.248 NA
ATOM     42  C   UNL A   1      37.024  33.718  33.413  1.00  0.00     0.031 C 
ATOM     43  C   UNL A   1      37.393  30.791  29.364  1.00  0.00     0.029 A 
ATOM     44  N   UNL A   1      38.874  30.433  31.001  1.00  0.00    -0.354 N 
ATOM     45  C   UNL A   1      38.817  32.905  34.579  1.00  0.00     0.074 A 
ATOM     46  C   UNL A   1      37.719  33.847  34.534  1.00  0.00     0.031 C 
ATOM     47  C   UNL A   1      38.171  29.767  28.984  1.00  0.00     0.029 A 
ATOM     48  C   UNL A   1      39.191  29.545  30.004  1.00  0.00     0.049 A 
ATOM     49  H   UNL A   1      39.351  30.473  31.862  1.00  0.00     0.167 HD
ATOM     50  C   UNL A   1      39.679  32.772  35.615  1.00  0.00     0.037 A 
ATOM     51  C   UNL A   1      40.217  28.679  29.913  1.00  0.00     0.037 A 
ATOM     52  C   UNL A   1      40.768  31.831  35.636  1.00  0.00     0.049 A 
ATOM     53  C   UNL A   1      41.210  28.613  31.039  1.00  0.00     0.074 A 
ATOM     54  C   UNL A   1      41.692  31.600  36.638  1.00  0.00     0.029 A 
ATOM     55  N   UNL A   1      41.082  30.969  34.594  1.00  0.00    -0.354 N 
ATOM     56  N   UNL A   1      41.226  29.281  32.167  1.00  0.00    -0.248 NA
ATOM     57  C   UNL A   1      42.336  27.684  30.873  1.00  0.00     0.031 C 
ATOM     58  C   UNL A   1      42.592  30.628  36.186  1.00  0.00     0.029 A 
ATOM     59  C   UNL A   1      42.203  30.222  34.919  1.00  0.00     0.049 A 
ATOM     60  H   UNL A   1      40.582  30.897  33.749  1.00  0.00     0.167 HD
ATOM     61  C   UNL A   1      42.349  28.844  32.854  1.00  0.00     0.074 A 
ATOM     62  C   UNL A   1      42.984  27.842  32.019  1.00  0.00     0.031 C 
ATOM     63  C   UNL A   1      42.815  29.235  34.065  1.00  0.00     0.037 A 
BRANCH  50  64
ATOM     64  C   UNL A   1      39.493  33.686  36.788  1.00  0.00     0.064 A 
ATOM     65  C   UNL A   1      38.764  33.292  37.920  1.00  0.00     0.173 A 
ATOM     66  C   UNL A   1      40.065  34.966  36.788  1.00  0.00     0.173 A 
ATOM     67  F   UNL A   1      38.183  32.084  37.963  1.00  0.00    -0.203 F 
ATOM     68  C   UNL A   1      38.593  34.159  38.998  1.00  0.00     0.198 A 
ATOM     69  C   UNL A   1      39.913  35.821  37.877  1.00  0.00     0.198 A 
ATOM     70  F   UNL A   1      40.773  35.390  35.730  1.00  0.00    -0.203 F 
ATOM     71  F   UNL A   1      37.853  33.778  40.049  1.00  0.00    -0.200 F 
ATOM     72  C   UNL A   1      39.171  35.418  38.978  1.00  0.00     0.200 A 
ATOM     73  F   UNL A   1      40.479  37.035  37.860  1.00  0.00    -0.200 F 
ATOM     74  F   UNL A   1      39.007  36.250  40.016  1.00  0.00    -0.200 F 
ENDBRANCH  50  64
BRANCH  51  75
ATOM     75  C   UNL A   1      40.358  27.830  28.705  1.00  0.00     0.064 A 
ATOM     76  C   UNL A   1      39.757  26.566  28.642  1.00  0.00     0.173 A 
ATOM     77  C   UNL A   1      41.075  28.270  27.582  1.00  0.00     0.173 A 
ATOM     78  F   UNL A   1      39.080  26.094  29.699  1.00  0.00    -0.203 F 
ATOM     79  C   UNL A   1      39.872  25.772  27.503  1.00  0.00     0.198 A 
ATOM     80  C   UNL A   1      41.169  27.485  26.435  1.00  0.00     0.198 A 
ATOM     81  F   UNL A   1      41.669  29.473  27.593  1.00  0.00    -0.203 F 
ATOM     82  F   UNL A   1      39.314  24.554  27.480  1.00  0.00    -0.200 F 
ATOM     83  C   UNL A   1      40.571  26.235  26.398  1.00  0.00     0.200 A 
ATOM     84  F   UNL A   1      41.834  27.942  25.365  1.00  0.00    -0.200 F 
ATOM     85  F   UNL A   1      40.673  25.474  25.300  1.00  0.00    -0.200 F 
ENDBRANCH  51  75
BRANCH  63  86
ATOM     86  C   UNL A   1      44.058  28.562  34.565  1.00  0.00     0.064 A 
ATOM     87  C   UNL A   1      45.326  29.123  34.357  1.00  0.00     0.173 A 
ATOM     88  C   UNL A   1      43.975  27.368  35.295  1.00  0.00     0.173 A 
ATOM     89  F   UNL A   1      45.457  30.254  33.647  1.00  0.00    -0.203 F 
ATOM     90  C   UNL A   1      46.470  28.501  34.849  1.00  0.00     0.198 A 
ATOM     91  C   UNL A   1      45.118  26.763  35.808  1.00  0.00     0.198 A 
ATOM     92  F   UNL A   1      42.783  26.796  35.522  1.00  0.00    -0.203 F 
ATOM     93  F   UNL A   1      47.677  29.032  34.606  1.00  0.00    -0.200 F 
ATOM     94  C   UNL A   1      46.365  27.327  35.580  1.00  0.00     0.200 A 
ATOM     95  F   UNL A   1      45.014  25.634  36.522  1.00  0.00    -0.200 F 
ATOM     96  F   UNL A   1      47.466  26.735  36.061  1.00  0.00    -0.200 F 
ENDBRANCH  63  86
ENDBRANCH  37  38
ENDBRANCH  30  32
ENDBRANCH  29  30
ENDBRANCH  28  29
ENDBRANCH  27  28
ENDBRANCH  26  27
ENDBRANCH   1  26
TORSDOF 17
ENDMDL
