MODEL 1
REMARK VINA RESULT:     -11.4      0.000      0.000
REMARK SMILES Cc1cn2c(CC(=O)N[C@@H](C(=O)OCCOC(=O)c3ccc(-c4c5nc(c(-c6c(F)c(F)c(F)c(F)c6F)c6ccc([nH]6)c(-c6c(F)c(F)c(F)c(F)c6F)c6nc(c(-c7c(F)c(F)c(F)c(F)c7F)c7ccc4[nH]7)C=C6)C=C5)cc3)[C@H](C)O)csc2n1
REMARK SMILES IDX 14 1 13 2 11 3 12 4 10 5 9 6 7 7 8 8 6 10 5 11 1 12 2 13
REMARK SMILES IDX 3 14 88 15 4 16 87 17 86 18 85 19 82 20 83 21 84 22 15 24
REMARK SMILES IDX 16 25 17 26 18 27 19 28 20 29 81 30 21 31 80 32 22 33 23 34
REMARK SMILES IDX 24 35 74 36 25 37 79 38 73 39 75 40 26 41 78 42 72 43 71 44
REMARK SMILES IDX 27 46 59 47 39 48 58 49 40 50 43 51 57 52 76 53 41 54 42 55
REMARK SMILES IDX 56 57 77 58 44 59 28 60 29 61 37 62 30 63 31 64 35 65 38 66
REMARK SMILES IDX 32 67 33 68 36 69 34 70 60 71 61 72 69 73 62 74 63 75 67 76
REMARK SMILES IDX 70 77 64 78 65 79 68 80 66 81 45 82 46 83 54 84 47 85 48 86
REMARK SMILES IDX 52 87 55 88 49 89 50 90 53 91 51 92
REMARK H PARENT 9 9 84 23 75 45 43 56
REMARK Flexibility Score: inf
ROOT
ATOM      1  C   UNL A   1      31.832  29.345  24.655  1.00  0.00     0.274 C 
ENDROOT
BRANCH   1   2
ATOM      2  O   UNL A   1      30.603  28.850  24.077  1.00  0.00    -0.460 OA
BRANCH   2   3
ATOM      3  C   UNL A   1      30.708  27.812  23.201  1.00  0.00     0.331 C 
ATOM      4  O   UNL A   1      30.388  27.866  22.020  1.00  0.00    -0.250 OA
BRANCH   3   5
ATOM      5  C   UNL A   1      31.264  26.536  23.866  1.00  0.00     0.221 C 
BRANCH   5   6
ATOM      6  N   UNL A   1      32.327  25.897  23.069  1.00  0.00    -0.340 N 
ATOM      7  C   UNL A   1      33.614  25.637  23.442  1.00  0.00     0.226 C 
ATOM      8  O   UNL A   1      34.400  25.220  22.592  1.00  0.00    -0.275 OA
ATOM      9  H   UNL A   1      32.078  25.623  22.157  1.00  0.00     0.164 HD
BRANCH   7  10
ATOM     10  C   UNL A   1      34.059  25.892  24.880  1.00  0.00     0.155 C 
BRANCH  10  11
ATOM     11  C   UNL A   1      33.974  24.621  25.663  1.00  0.00     0.044 A 
ATOM     12  C   UNL A   1      37.859  21.528  25.125  1.00  0.00     0.068 C 
ATOM     13  C   UNL A   1      36.631  22.257  25.515  1.00  0.00     0.057 A 
ATOM     14  C   UNL A   1      36.273  23.568  25.230  1.00  0.00     0.117 A 
ATOM     15  N   UNL A   1      35.638  21.616  26.238  1.00  0.00    -0.224 NA
ATOM     16  N   UNL A   1      35.002  23.693  25.714  1.00  0.00    -0.294 N 
ATOM     17  C   UNL A   1      34.710  22.524  26.352  1.00  0.00     0.194 A 
ATOM     18  S   UNL A   1      33.107  22.549  27.011  1.00  0.00    -0.105 S 
ATOM     19  C   UNL A   1      32.887  24.165  26.325  1.00  0.00     0.091 A 
ENDBRANCH  10  11
ENDBRANCH   7  10
ENDBRANCH   5   6
BRANCH   5  20
ATOM     20  C   UNL A   1      30.175  25.506  24.219  1.00  0.00     0.145 C 
ATOM     21  C   UNL A   1      30.305  24.200  23.440  1.00  0.00     0.041 C 
BRANCH  20  22
ATOM     22  O   UNL A   1      28.887  26.044  23.874  1.00  0.00    -0.391 OA
ATOM     23  H   UNL A   1      28.943  26.496  23.018  1.00  0.00     0.211 HD
ENDBRANCH  20  22
ENDBRANCH   5  20
ENDBRANCH   3   5
ENDBRANCH   2   3
ENDBRANCH   1   2
BRANCH   1  24
ATOM     24  C   UNL A   1      31.542  30.430  25.690  1.00  0.00     0.275 C 
BRANCH  24  25
ATOM     25  O   UNL A   1      32.501  30.329  26.757  1.00  0.00    -0.458 OA
BRANCH  25  26
ATOM     26  C   UNL A   1      33.104  31.477  27.130  1.00  0.00     0.338 C 
ATOM     27  O   UNL A   1      32.633  32.607  27.138  1.00  0.00    -0.246 OA
BRANCH  26  28
ATOM     28  C   UNL A   1      34.440  31.170  27.658  1.00  0.00     0.060 A 
ATOM     29  C   UNL A   1      34.747  29.844  27.946  1.00  0.00     0.016 A 
ATOM     30  C   UNL A   1      35.329  32.184  28.007  1.00  0.00     0.016 A 
ATOM     31  C   UNL A   1      35.885  29.529  28.677  1.00  0.00     0.010 A 
ATOM     32  C   UNL A   1      36.532  31.855  28.646  1.00  0.00     0.010 A 
ATOM     33  C   UNL A   1      36.803  30.527  29.026  1.00  0.00    -0.014 A 
BRANCH  33  34
ATOM     34  C   UNL A   1      38.001  30.169  29.835  1.00  0.00     0.031 A 
ATOM     35  C   UNL A   1      39.110  29.350  29.229  1.00  0.00     0.074 A 
ATOM     36  C   UNL A   1      38.135  30.630  31.095  1.00  0.00     0.049 A 
ATOM     37  N   UNL A   1      40.166  28.833  29.805  1.00  0.00    -0.248 NA
ATOM     38  C   UNL A   1      39.015  29.062  27.791  1.00  0.00     0.031 C 
ATOM     39  C   UNL A   1      37.164  31.470  31.798  1.00  0.00     0.029 A 
ATOM     40  N   UNL A   1      39.158  30.483  32.000  1.00  0.00    -0.354 N 
ATOM     41  C   UNL A   1      40.814  28.097  28.822  1.00  0.00     0.074 A 
ATOM     42  C   UNL A   1      40.046  28.251  27.606  1.00  0.00     0.031 C 
ATOM     43  C   UNL A   1      37.664  31.820  32.991  1.00  0.00     0.029 A 
ATOM     44  C   UNL A   1      38.953  31.160  33.176  1.00  0.00     0.049 A 
ATOM     45  H   UNL A   1      39.961  29.942  31.822  1.00  0.00     0.167 HD
ATOM     46  C   UNL A   1      41.940  27.354  28.929  1.00  0.00     0.037 A 
ATOM     47  C   UNL A   1      39.703  31.225  34.293  1.00  0.00     0.037 A 
ATOM     48  C   UNL A   1      42.751  27.269  30.114  1.00  0.00     0.049 A 
ATOM     49  C   UNL A   1      40.973  30.429  34.372  1.00  0.00     0.074 A 
ATOM     50  C   UNL A   1      43.918  26.551  30.315  1.00  0.00     0.029 A 
ATOM     51  N   UNL A   1      42.496  27.953  31.293  1.00  0.00    -0.354 N 
ATOM     52  N   UNL A   1      41.523  29.661  33.464  1.00  0.00    -0.248 NA
ATOM     53  C   UNL A   1      41.710  30.483  35.643  1.00  0.00     0.031 C 
ATOM     54  C   UNL A   1      44.360  26.787  31.622  1.00  0.00     0.029 A 
ATOM     55  C   UNL A   1      43.482  27.673  32.225  1.00  0.00     0.049 A 
ATOM     56  H   UNL A   1      41.728  28.549  31.445  1.00  0.00     0.167 HD
ATOM     57  C   UNL A   1      42.655  29.123  34.058  1.00  0.00     0.074 A 
ATOM     58  C   UNL A   1      42.738  29.685  35.390  1.00  0.00     0.031 C 
ATOM     59  C   UNL A   1      43.537  28.228  33.551  1.00  0.00     0.037 A 
BRANCH  46  60
ATOM     60  C   UNL A   1      42.341  26.532  27.741  1.00  0.00     0.064 A 
ATOM     61  C   UNL A   1      43.292  26.978  26.814  1.00  0.00     0.173 A 
ATOM     62  C   UNL A   1      41.777  25.262  27.549  1.00  0.00     0.173 A 
ATOM     63  F   UNL A   1      43.844  28.193  26.945  1.00  0.00    -0.203 F 
ATOM     64  C   UNL A   1      43.653  26.186  25.726  1.00  0.00     0.198 A 
ATOM     65  C   UNL A   1      42.155  24.464  26.473  1.00  0.00     0.198 A 
ATOM     66  F   UNL A   1      40.863  24.791  28.410  1.00  0.00    -0.203 F 
ATOM     67  F   UNL A   1      44.538  26.646  24.830  1.00  0.00    -0.200 F 
ATOM     68  C   UNL A   1      43.090  24.929  25.560  1.00  0.00     0.200 A 
ATOM     69  F   UNL A   1      41.615  23.248  26.318  1.00  0.00    -0.200 F 
ATOM     70  F   UNL A   1      43.441  24.169  24.514  1.00  0.00    -0.200 F 
ENDBRANCH  46  60
BRANCH  47  71
ATOM     71  C   UNL A   1      39.245  32.050  35.439  1.00  0.00     0.064 A 
ATOM     72  C   UNL A   1      38.448  31.496  36.449  1.00  0.00     0.173 A 
ATOM     73  C   UNL A   1      39.617  33.396  35.561  1.00  0.00     0.173 A 
ATOM     74  F   UNL A   1      38.046  30.219  36.362  1.00  0.00    -0.203 F 
ATOM     75  C   UNL A   1      38.038  32.261  37.540  1.00  0.00     0.198 A 
ATOM     76  C   UNL A   1      39.229  34.152  36.663  1.00  0.00     0.198 A 
ATOM     77  F   UNL A   1      40.380  33.969  34.618  1.00  0.00    -0.203 F 
ATOM     78  F   UNL A   1      37.253  31.717  38.480  1.00  0.00    -0.200 F 
ATOM     79  C   UNL A   1      38.437  33.585  37.650  1.00  0.00     0.200 A 
ATOM     80  F   UNL A   1      39.627  35.427  36.773  1.00  0.00    -0.200 F 
ATOM     81  F   UNL A   1      38.055  34.315  38.707  1.00  0.00    -0.200 F 
ENDBRANCH  47  71
BRANCH  59  82
ATOM     82  C   UNL A   1      44.650  27.790  34.452  1.00  0.00     0.064 A 
ATOM     83  C   UNL A   1      44.526  26.642  35.247  1.00  0.00     0.173 A 
ATOM     84  C   UNL A   1      45.853  28.506  34.505  1.00  0.00     0.173 A 
ATOM     85  F   UNL A   1      43.385  25.936  35.240  1.00  0.00    -0.203 F 
ATOM     86  C   UNL A   1      45.564  26.236  36.080  1.00  0.00     0.198 A 
ATOM     87  C   UNL A   1      46.896  28.087  35.326  1.00  0.00     0.198 A 
ATOM     88  F   UNL A   1      46.017  29.610  33.760  1.00  0.00    -0.203 F 
ATOM     89  F   UNL A   1      45.411  25.156  36.859  1.00  0.00    -0.200 F 
ATOM     90  C   UNL A   1      46.748  26.956  36.117  1.00  0.00     0.200 A 
ATOM     91  F   UNL A   1      48.042  28.781  35.359  1.00  0.00    -0.200 F 
ATOM     92  F   UNL A   1      47.746  26.565  36.921  1.00  0.00    -0.200 F 
ENDBRANCH  59  82
ENDBRANCH  33  34
ENDBRANCH  26  28
ENDBRANCH  25  26
ENDBRANCH  24  25
ENDBRANCH   1  24
TORSDOF 16
ENDMDL
MODEL 2
REMARK VINA RESULT:     -11.3      1.296      2.035
REMARK SMILES Cc1cn2c(CC(=O)N[C@@H](C(=O)OCCOC(=O)c3ccc(-c4c5nc(c(-c6c(F)c(F)c(F)c(F)c6F)c6ccc([nH]6)c(-c6c(F)c(F)c(F)c(F)c6F)c6nc(c(-c7c(F)c(F)c(F)c(F)c7F)c7ccc4[nH]7)C=C6)C=C5)cc3)[C@H](C)O)csc2n1
REMARK SMILES IDX 14 1 13 2 11 3 12 4 10 5 9 6 7 7 8 8 6 10 5 11 1 12 2 13
REMARK SMILES IDX 3 14 88 15 4 16 87 17 86 18 85 19 82 20 83 21 84 22 15 24
REMARK SMILES IDX 16 25 17 26 18 27 19 28 20 29 81 30 21 31 80 32 22 33 23 34
REMARK SMILES IDX 24 35 74 36 25 37 79 38 73 39 75 40 26 41 78 42 72 43 71 44
REMARK SMILES IDX 27 46 59 47 39 48 58 49 40 50 43 51 57 52 76 53 41 54 42 55
REMARK SMILES IDX 56 57 77 58 44 59 28 60 29 61 37 62 30 63 31 64 35 65 38 66
REMARK SMILES IDX 32 67 33 68 36 69 34 70 60 71 61 72 69 73 62 74 63 75 67 76
REMARK SMILES IDX 70 77 64 78 65 79 68 80 66 81 45 82 46 83 54 84 47 85 48 86
REMARK SMILES IDX 52 87 55 88 49 89 50 90 53 91 51 92
REMARK H PARENT 9 9 84 23 75 45 43 56
REMARK Flexibility Score: inf
ROOT
ATOM      1  C   UNL A   1      31.015  29.675  24.561  1.00  0.00     0.274 C 
ENDROOT
BRANCH   1   2
ATOM      2  O   UNL A   1      30.662  28.295  24.307  1.00  0.00    -0.460 OA
BRANCH   2   3
ATOM      3  C   UNL A   1      31.081  27.760  23.127  1.00  0.00     0.331 C 
ATOM      4  O   UNL A   1      30.645  28.079  22.027  1.00  0.00    -0.250 OA
BRANCH   3   5
ATOM      5  C   UNL A   1      32.165  26.680  23.322  1.00  0.00     0.221 C 
BRANCH   5   6
ATOM      6  N   UNL A   1      32.356  26.316  24.738  1.00  0.00    -0.340 N 
ATOM      7  C   UNL A   1      32.246  25.081  25.309  1.00  0.00     0.226 C 
ATOM      8  O   UNL A   1      32.307  24.992  26.535  1.00  0.00    -0.275 OA
ATOM      9  H   UNL A   1      32.592  27.053  25.346  1.00  0.00     0.164 HD
BRANCH   7  10
ATOM     10  C   UNL A   1      32.024  23.851  24.433  1.00  0.00     0.155 C 
BRANCH  10  11
ATOM     11  C   UNL A   1      33.263  23.013  24.423  1.00  0.00     0.044 A 
ATOM     12  C   UNL A   1      32.527  18.127  25.152  1.00  0.00     0.068 C 
ATOM     13  C   UNL A   1      33.029  19.488  24.860  1.00  0.00     0.057 A 
ATOM     14  C   UNL A   1      32.304  20.638  24.577  1.00  0.00     0.117 A 
ATOM     15  N   UNL A   1      34.390  19.750  24.877  1.00  0.00    -0.224 NA
ATOM     16  N   UNL A   1      33.241  21.630  24.510  1.00  0.00    -0.294 N 
ATOM     17  C   UNL A   1      34.457  21.028  24.634  1.00  0.00     0.194 A 
ATOM     18  S   UNL A   1      35.744  22.188  24.571  1.00  0.00    -0.105 S 
ATOM     19  C   UNL A   1      34.534  23.471  24.431  1.00  0.00     0.091 A 
ENDBRANCH  10  11
ENDBRANCH   7  10
ENDBRANCH   5   6
BRANCH   5  20
ATOM     20  C   UNL A   1      33.517  27.048  22.683  1.00  0.00     0.145 C 
ATOM     21  C   UNL A   1      34.003  28.444  23.062  1.00  0.00     0.041 C 
BRANCH  20  22
ATOM     22  O   UNL A   1      33.376  27.055  21.251  1.00  0.00    -0.391 OA
ATOM     23  H   UNL A   1      33.769  27.866  20.892  1.00  0.00     0.211 HD
ENDBRANCH  20  22
ENDBRANCH   5  20
ENDBRANCH   3   5
ENDBRANCH   2   3
ENDBRANCH   1   2
BRANCH   1  24
ATOM     24  C   UNL A   1      31.490  29.853  26.001  1.00  0.00     0.275 C 
BRANCH  24  25
ATOM     25  O   UNL A   1      32.861  30.287  25.993  1.00  0.00    -0.458 OA
BRANCH  25  26
ATOM     26  C   UNL A   1      33.188  31.252  26.877  1.00  0.00     0.338 C 
ATOM     27  O   UNL A   1      32.499  32.188  27.259  1.00  0.00    -0.246 OA
BRANCH  26  28
ATOM     28  C   UNL A   1      34.515  30.962  27.438  1.00  0.00     0.060 A 
ATOM     29  C   UNL A   1      34.848  29.635  27.692  1.00  0.00     0.016 A 
ATOM     30  C   UNL A   1      35.365  31.986  27.847  1.00  0.00     0.016 A 
ATOM     31  C   UNL A   1      35.970  29.325  28.448  1.00  0.00     0.010 A 
ATOM     32  C   UNL A   1      36.556  31.667  28.514  1.00  0.00     0.010 A 
ATOM     33  C   UNL A   1      36.850  30.335  28.859  1.00  0.00    -0.014 A 
BRANCH  33  34
ATOM     34  C   UNL A   1      38.032  29.981  29.694  1.00  0.00     0.031 A 
ATOM     35  C   UNL A   1      39.146  29.148  29.119  1.00  0.00     0.074 A 
ATOM     36  C   UNL A   1      38.145  30.458  30.950  1.00  0.00     0.049 A 
ATOM     37  N   UNL A   1      40.189  28.633  29.721  1.00  0.00    -0.248 NA
ATOM     38  C   UNL A   1      39.075  28.842  27.683  1.00  0.00     0.031 C 
ATOM     39  C   UNL A   1      37.167  31.312  31.625  1.00  0.00     0.029 A 
ATOM     40  N   UNL A   1      39.151  30.317  31.875  1.00  0.00    -0.354 N 
ATOM     41  C   UNL A   1      40.850  27.881  28.759  1.00  0.00     0.074 A 
ATOM     42  C   UNL A   1      40.105  28.022  27.527  1.00  0.00     0.031 C 
ATOM     43  C   UNL A   1      37.648  31.676  32.822  1.00  0.00     0.029 A 
ATOM     44  C   UNL A   1      38.929  31.011  33.039  1.00  0.00     0.049 A 
ATOM     45  H   UNL A   1      39.954  29.770  31.719  1.00  0.00     0.167 HD
ATOM     46  C   UNL A   1      41.970  27.133  28.896  1.00  0.00     0.037 A 
ATOM     47  C   UNL A   1      39.659  31.086  34.167  1.00  0.00     0.037 A 
ATOM     48  C   UNL A   1      42.760  27.059  30.097  1.00  0.00     0.049 A 
ATOM     49  C   UNL A   1      40.923  30.284  34.281  1.00  0.00     0.074 A 
ATOM     50  C   UNL A   1      43.918  26.337  30.328  1.00  0.00     0.029 A 
ATOM     51  N   UNL A   1      42.487  27.760  31.262  1.00  0.00    -0.354 N 
ATOM     52  N   UNL A   1      41.485  29.501  33.393  1.00  0.00    -0.248 NA
ATOM     53  C   UNL A   1      41.637  30.351  35.563  1.00  0.00     0.031 C 
ATOM     54  C   UNL A   1      44.338  26.588  31.640  1.00  0.00     0.029 A 
ATOM     55  C   UNL A   1      43.455  27.487  32.215  1.00  0.00     0.049 A 
ATOM     56  H   UNL A   1      41.720  28.362  31.392  1.00  0.00     0.167 HD
ATOM     57  C   UNL A   1      42.603  28.966  34.013  1.00  0.00     0.074 A 
ATOM     58  C   UNL A   1      42.666  29.545  35.340  1.00  0.00     0.031 C 
ATOM     59  C   UNL A   1      43.489  28.059  33.535  1.00  0.00     0.037 A 
BRANCH  46  60
ATOM     60  C   UNL A   1      42.387  26.293  27.727  1.00  0.00     0.064 A 
ATOM     61  C   UNL A   1      43.375  26.711  26.825  1.00  0.00     0.173 A 
ATOM     62  C   UNL A   1      41.803  25.033  27.527  1.00  0.00     0.173 A 
ATOM     63  F   UNL A   1      43.948  27.915  26.962  1.00  0.00    -0.203 F 
ATOM     64  C   UNL A   1      43.750  25.904  25.753  1.00  0.00     0.198 A 
ATOM     65  C   UNL A   1      42.195  24.220  26.468  1.00  0.00     0.198 A 
ATOM     66  F   UNL A   1      40.854  24.589  28.365  1.00  0.00    -0.203 F 
ATOM     67  F   UNL A   1      44.670  26.337  24.879  1.00  0.00    -0.200 F 
ATOM     68  C   UNL A   1      43.165  24.657  25.580  1.00  0.00     0.200 A 
ATOM     69  F   UNL A   1      41.633  23.014  26.307  1.00  0.00    -0.200 F 
ATOM     70  F   UNL A   1      43.530  23.882  24.550  1.00  0.00    -0.200 F 
ENDBRANCH  46  60
BRANCH  47  71
ATOM     71  C   UNL A   1      39.186  31.929  35.295  1.00  0.00     0.064 A 
ATOM     72  C   UNL A   1      39.472  33.299  35.337  1.00  0.00     0.173 A 
ATOM     73  C   UNL A   1      38.417  31.387  36.335  1.00  0.00     0.173 A 
ATOM     74  F   UNL A   1      40.226  33.856  34.377  1.00  0.00    -0.203 F 
ATOM     75  C   UNL A   1      39.008  34.097  36.380  1.00  0.00     0.198 A 
ATOM     76  C   UNL A   1      37.932  32.190  37.363  1.00  0.00     0.198 A 
ATOM     77  F   UNL A   1      38.118  30.080  36.338  1.00  0.00    -0.203 F 
ATOM     78  F   UNL A   1      39.318  35.401  36.413  1.00  0.00    -0.200 F 
ATOM     79  C   UNL A   1      38.230  33.544  37.387  1.00  0.00     0.200 A 
ATOM     80  F   UNL A   1      37.171  31.654  38.327  1.00  0.00    -0.200 F 
ATOM     81  F   UNL A   1      37.771  34.315  38.382  1.00  0.00    -0.200 F 
ENDBRANCH  47  71
BRANCH  59  82
ATOM     82  C   UNL A   1      44.583  27.627  34.461  1.00  0.00     0.064 A 
ATOM     83  C   UNL A   1      44.425  26.510  35.293  1.00  0.00     0.173 A 
ATOM     84  C   UNL A   1      45.802  28.317  34.502  1.00  0.00     0.173 A 
ATOM     85  F   UNL A   1      43.269  25.830  35.298  1.00  0.00    -0.203 F 
ATOM     86  C   UNL A   1      45.446  26.109  36.150  1.00  0.00     0.198 A 
ATOM     87  C   UNL A   1      46.827  27.902  35.347  1.00  0.00     0.198 A 
ATOM     88  F   UNL A   1      45.997  29.391  33.722  1.00  0.00    -0.203 F 
ATOM     89  F   UNL A   1      45.261  25.060  36.963  1.00  0.00    -0.200 F 
ATOM     90  C   UNL A   1      46.646  26.803  36.174  1.00  0.00     0.200 A 
ATOM     91  F   UNL A   1      47.989  28.572  35.368  1.00  0.00    -0.200 F 
ATOM     92  F   UNL A   1      47.627  26.417  37.001  1.00  0.00    -0.200 F 
ENDBRANCH  59  82
ENDBRANCH  33  34
ENDBRANCH  26  28
ENDBRANCH  25  26
ENDBRANCH  24  25
ENDBRANCH   1  24
TORSDOF 16
ENDMDL
MODEL 3
REMARK VINA RESULT:     -11.2      0.459      7.350
REMARK SMILES Cc1cn2c(CC(=O)N[C@@H](C(=O)OCCOC(=O)c3ccc(-c4c5nc(c(-c6c(F)c(F)c(F)c(F)c6F)c6ccc([nH]6)c(-c6c(F)c(F)c(F)c(F)c6F)c6nc(c(-c7c(F)c(F)c(F)c(F)c7F)c7ccc4[nH]7)C=C6)C=C5)cc3)[C@H](C)O)csc2n1
REMARK SMILES IDX 14 1 13 2 11 3 12 4 10 5 9 6 7 7 8 8 6 10 5 11 1 12 2 13
REMARK SMILES IDX 3 14 88 15 4 16 87 17 86 18 85 19 82 20 83 21 84 22 15 24
REMARK SMILES IDX 16 25 17 26 18 27 19 28 20 29 81 30 21 31 80 32 22 33 23 34
REMARK SMILES IDX 24 35 74 36 25 37 79 38 73 39 75 40 26 41 78 42 72 43 71 44
REMARK SMILES IDX 27 46 59 47 39 48 58 49 40 50 43 51 57 52 76 53 41 54 42 55
REMARK SMILES IDX 56 57 77 58 44 59 28 60 29 61 37 62 30 63 31 64 35 65 38 66
REMARK SMILES IDX 32 67 33 68 36 69 34 70 60 71 61 72 69 73 62 74 63 75 67 76
REMARK SMILES IDX 70 77 64 78 65 79 68 80 66 81 45 82 46 83 54 84 47 85 48 86
REMARK SMILES IDX 52 87 55 88 49 89 50 90 53 91 51 92
REMARK H PARENT 9 9 84 23 75 45 43 56
REMARK Flexibility Score: inf
ROOT
ATOM      1  C   UNL A   1      31.459  29.019  25.237  1.00  0.00     0.274 C 
ENDROOT
BRANCH   1   2
ATOM      2  O   UNL A   1      30.564  29.007  24.101  1.00  0.00    -0.460 OA
BRANCH   2   3
ATOM      3  C   UNL A   1      30.710  27.983  23.214  1.00  0.00     0.331 C 
ATOM      4  O   UNL A   1      30.431  28.052  22.023  1.00  0.00    -0.250 OA
BRANCH   3   5
ATOM      5  C   UNL A   1      31.256  26.702  23.879  1.00  0.00     0.221 C 
BRANCH   5   6
ATOM      6  N   UNL A   1      32.302  26.045  23.074  1.00  0.00    -0.340 N 
ATOM      7  C   UNL A   1      33.579  25.740  23.445  1.00  0.00     0.226 C 
ATOM      8  O   UNL A   1      34.355  25.314  22.591  1.00  0.00    -0.275 OA
ATOM      9  H   UNL A   1      32.048  25.795  22.156  1.00  0.00     0.164 HD
BRANCH   7  10
ATOM     10  C   UNL A   1      34.027  25.956  24.889  1.00  0.00     0.155 C 
BRANCH  10  11
ATOM     11  C   UNL A   1      33.921  24.669  25.644  1.00  0.00     0.044 A 
ATOM     12  C   UNL A   1      37.739  21.513  25.007  1.00  0.00     0.068 C 
ATOM     13  C   UNL A   1      36.529  22.257  25.422  1.00  0.00     0.057 A 
ATOM     14  C   UNL A   1      36.195  23.581  25.169  1.00  0.00     0.117 A 
ATOM     15  N   UNL A   1      35.529  21.620  26.138  1.00  0.00    -0.224 NA
ATOM     16  N   UNL A   1      34.931  23.720  25.666  1.00  0.00    -0.294 N 
ATOM     17  C   UNL A   1      34.620  22.543  26.279  1.00  0.00     0.194 A 
ATOM     18  S   UNL A   1      33.023  22.586  26.952  1.00  0.00    -0.105 S 
ATOM     19  C   UNL A   1      32.831  24.220  26.304  1.00  0.00     0.091 A 
ENDBRANCH  10  11
ENDBRANCH   7  10
ENDBRANCH   5   6
BRANCH   5  20
ATOM     20  C   UNL A   1      30.156  25.689  24.248  1.00  0.00     0.145 C 
ATOM     21  C   UNL A   1      30.278  24.367  23.495  1.00  0.00     0.041 C 
BRANCH  20  22
ATOM     22  O   UNL A   1      28.874  26.231  23.887  1.00  0.00    -0.391 OA
ATOM     23  H   UNL A   1      28.999  27.029  23.350  1.00  0.00     0.211 HD
ENDBRANCH  20  22
ENDBRANCH   5  20
ENDBRANCH   3   5
ENDBRANCH   2   3
ENDBRANCH   1   2
BRANCH   1  24
ATOM     24  C   UNL A   1      31.744  30.453  25.681  1.00  0.00     0.275 C 
BRANCH  24  25
ATOM     25  O   UNL A   1      32.463  30.423  26.927  1.00  0.00    -0.458 OA
BRANCH  25  26
ATOM     26  C   UNL A   1      33.158  31.535  27.242  1.00  0.00     0.338 C 
ATOM     27  O   UNL A   1      32.764  32.694  27.247  1.00  0.00    -0.246 OA
BRANCH  26  28
ATOM     28  C   UNL A   1      34.495  31.149  27.713  1.00  0.00     0.060 A 
ATOM     29  C   UNL A   1      34.741  29.805  27.973  1.00  0.00     0.016 A 
ATOM     30  C   UNL A   1      35.451  32.110  28.036  1.00  0.00     0.016 A 
ATOM     31  C   UNL A   1      35.889  29.420  28.653  1.00  0.00     0.010 A 
ATOM     32  C   UNL A   1      36.660  31.708  28.621  1.00  0.00     0.010 A 
ATOM     33  C   UNL A   1      36.873  30.362  28.975  1.00  0.00    -0.014 A 
BRANCH  33  34
ATOM     34  C   UNL A   1      38.082  29.929  29.730  1.00  0.00     0.031 A 
ATOM     35  C   UNL A   1      38.274  30.350  31.163  1.00  0.00     0.074 A 
ATOM     36  C   UNL A   1      38.981  29.103  29.160  1.00  0.00     0.049 A 
ATOM     37  N   UNL A   1      39.313  30.182  31.943  1.00  0.00    -0.248 NA
ATOM     38  C   UNL A   1      37.159  31.065  31.801  1.00  0.00     0.031 C 
ATOM     39  C   UNL A   1      38.905  28.577  27.796  1.00  0.00     0.029 A 
ATOM     40  N   UNL A   1      40.124  28.533  29.667  1.00  0.00    -0.354 N 
ATOM     41  C   UNL A   1      39.007  30.836  33.129  1.00  0.00     0.074 A 
ATOM     42  C   UNL A   1      37.678  31.387  32.977  1.00  0.00     0.031 C 
ATOM     43  C   UNL A   1      39.910  27.712  27.598  1.00  0.00     0.029 A 
ATOM     44  C   UNL A   1      40.754  27.687  28.789  1.00  0.00     0.049 A 
ATOM     45  H   UNL A   1      40.459  28.715  30.574  1.00  0.00     0.167 HD
ATOM     46  C   UNL A   1      39.772  30.973  34.237  1.00  0.00     0.037 A 
ATOM     47  C   UNL A   1      41.897  26.987  28.913  1.00  0.00     0.037 A 
ATOM     48  C   UNL A   1      41.058  30.355  34.422  1.00  0.00     0.049 A 
ATOM     49  C   UNL A   1      42.706  27.117  30.170  1.00  0.00     0.074 A 
ATOM     50  C   UNL A   1      41.903  30.425  35.517  1.00  0.00     0.029 A 
ATOM     51  N   UNL A   1      41.671  29.523  33.498  1.00  0.00    -0.354 N 
ATOM     52  N   UNL A   1      42.449  27.817  31.248  1.00  0.00    -0.248 NA
ATOM     53  C   UNL A   1      43.980  26.385  30.217  1.00  0.00     0.031 C 
ATOM     54  C   UNL A   1      43.037  29.650  35.247  1.00  0.00     0.029 A 
ATOM     55  C   UNL A   1      42.884  29.076  33.996  1.00  0.00     0.049 A 
ATOM     56  H   UNL A   1      41.300  29.287  32.618  1.00  0.00     0.167 HD
ATOM     57  C   UNL A   1      43.534  27.630  32.090  1.00  0.00     0.074 A 
ATOM     58  C   UNL A   1      44.435  26.716  31.418  1.00  0.00     0.031 C 
ATOM     59  C   UNL A   1      43.774  28.182  33.304  1.00  0.00     0.037 A 
BRANCH  46  60
ATOM     60  C   UNL A   1      39.257  31.865  35.326  1.00  0.00     0.064 A 
ATOM     61  C   UNL A   1      38.488  31.374  36.390  1.00  0.00     0.173 A 
ATOM     62  C   UNL A   1      39.566  33.234  35.313  1.00  0.00     0.173 A 
ATOM     63  F   UNL A   1      38.150  30.077  36.436  1.00  0.00    -0.203 F 
ATOM     64  C   UNL A   1      38.033  32.225  37.394  1.00  0.00     0.198 A 
ATOM     65  C   UNL A   1      39.128  34.078  36.329  1.00  0.00     0.198 A 
ATOM     66  F   UNL A   1      40.300  33.750  34.316  1.00  0.00    -0.203 F 
ATOM     67  F   UNL A   1      37.267  31.743  38.383  1.00  0.00    -0.200 F 
ATOM     68  C   UNL A   1      38.358  33.574  37.366  1.00  0.00     0.200 A 
ATOM     69  F   UNL A   1      39.449  35.379  36.303  1.00  0.00    -0.200 F 
ATOM     70  F   UNL A   1      37.921  34.390  38.335  1.00  0.00    -0.200 F 
ENDBRANCH  46  60
BRANCH  47  71
ATOM     71  C   UNL A   1      42.359  26.128  27.793  1.00  0.00     0.064 A 
ATOM     72  C   UNL A   1      41.827  24.846  27.605  1.00  0.00     0.173 A 
ATOM     73  C   UNL A   1      43.318  26.581  26.877  1.00  0.00     0.173 A 
ATOM     74  F   UNL A   1      40.926  24.360  28.472  1.00  0.00    -0.203 F 
ATOM     75  C   UNL A   1      42.240  24.047  26.540  1.00  0.00     0.198 A 
ATOM     76  C   UNL A   1      43.711  25.793  25.799  1.00  0.00     0.198 A 
ATOM     77  F   UNL A   1      43.856  27.802  27.017  1.00  0.00    -0.203 F 
ATOM     78  F   UNL A   1      41.737  22.813  26.396  1.00  0.00    -0.200 F 
ATOM     79  C   UNL A   1      43.174  24.526  25.633  1.00  0.00     0.200 A 
ATOM     80  F   UNL A   1      44.604  26.263  24.917  1.00  0.00    -0.200 F 
ATOM     81  F   UNL A   1      43.559  23.763  24.600  1.00  0.00    -0.200 F 
ENDBRANCH  47  71
BRANCH  59  82
ATOM     82  C   UNL A   1      45.068  27.825  33.966  1.00  0.00     0.064 A 
ATOM     83  C   UNL A   1      45.171  26.695  34.790  1.00  0.00     0.173 A 
ATOM     84  C   UNL A   1      46.217  28.601  33.759  1.00  0.00     0.173 A 
ATOM     85  F   UNL A   1      44.092  25.934  35.028  1.00  0.00    -0.203 F 
ATOM     86  C   UNL A   1      46.377  26.365  35.401  1.00  0.00     0.198 A 
ATOM     87  C   UNL A   1      47.426  28.257  34.357  1.00  0.00     0.198 A 
ATOM     88  F   UNL A   1      46.166  29.690  32.978  1.00  0.00    -0.203 F 
ATOM     89  F   UNL A   1      46.444  25.301  36.213  1.00  0.00    -0.200 F 
ATOM     90  C   UNL A   1      47.503  27.143  35.181  1.00  0.00     0.200 A 
ATOM     91  F   UNL A   1      48.516  29.007  34.143  1.00  0.00    -0.200 F 
ATOM     92  F   UNL A   1      48.663  26.825  35.772  1.00  0.00    -0.200 F 
ENDBRANCH  59  82
ENDBRANCH  33  34
ENDBRANCH  26  28
ENDBRANCH  25  26
ENDBRANCH  24  25
ENDBRANCH   1  24
TORSDOF 16
ENDMDL
