MODEL 1
REMARK VINA RESULT:     -12.8      0.000      0.000
REMARK SMILES O=C(OCCOC(=O)[C@H]1CCCN1S(=O)(=O)c1cccc([N+](=O)[O-])c1)c1ccc(-c2c3nc(c(-c4c(F)c(F)c(F)c(F)c4F)c4ccc([nH]4)c(-c4c(F)c(F)c(F)c(F)c4F)c4nc(c(-c5c(F)c(F)c(F)c(F)c5F)c5ccc2[nH]5)C=C4)C=C3)cc1
REMARK SMILES IDX 5 1 4 2 3 3 2 4 1 5 26 6 27 7 88 8 28 9 87 10 29 11 30 12
REMARK SMILES IDX 31 13 81 14 32 15 86 16 80 17 82 18 33 19 85 20 79 21 78 22
REMARK SMILES IDX 34 24 66 25 46 26 65 27 47 28 50 29 64 30 83 31 48 32 49 33
REMARK SMILES IDX 63 35 84 36 51 37 35 38 36 39 44 40 37 41 38 42 42 43 45 44
REMARK SMILES IDX 39 45 40 46 43 47 41 48 67 49 68 50 76 51 69 52 70 53 74 54
REMARK SMILES IDX 77 55 71 56 72 57 75 58 73 59 52 60 53 61 61 62 54 63 55 64
REMARK SMILES IDX 59 65 62 66 56 67 57 68 60 69 58 70 6 71 7 72 8 73 9 74
REMARK SMILES IDX 10 75 13 76 11 77 12 78 14 79 15 80 16 81 17 82 18 83 25 84
REMARK SMILES IDX 19 85 21 86 20 87 22 88 23 89 24 90
REMARK H PARENT 82 23 50 34
REMARK Flexibility Score: inf
ROOT
ATOM      1  C   UNL A   1      36.382  22.778  23.621  1.00  0.00     0.274 C 
ENDROOT
BRANCH   1   2
ATOM      2  C   UNL A   1      37.006  23.459  24.842  1.00  0.00     0.275 C 
BRANCH   2   3
ATOM      3  O   UNL A   1      37.721  22.582  25.726  1.00  0.00    -0.458 OA
BRANCH   3   4
ATOM      4  C   UNL A   1      39.019  22.676  26.110  1.00  0.00     0.338 C 
ATOM      5  O   UNL A   1      39.707  21.662  26.198  1.00  0.00    -0.246 OA
BRANCH   4   6
ATOM      6  C   UNL A   1      39.557  23.944  26.682  1.00  0.00     0.060 A 
ATOM      7  C   UNL A   1      40.168  24.972  25.961  1.00  0.00     0.016 A 
ATOM      8  C   UNL A   1      39.432  24.094  28.068  1.00  0.00     0.016 A 
ATOM      9  C   UNL A   1      40.409  26.215  26.559  1.00  0.00     0.010 A 
ATOM     10  C   UNL A   1      39.703  25.318  28.679  1.00  0.00     0.010 A 
ATOM     11  C   UNL A   1      40.044  26.441  27.900  1.00  0.00    -0.014 A 
BRANCH  11  12
ATOM     12  C   UNL A   1      40.053  28.029  28.567  1.00  0.00     0.031 A 
ATOM     13  C   UNL A   1      41.868  28.168  28.281  1.00  0.00     0.074 A 
ATOM     14  C   UNL A   1      38.803  29.220  29.285  1.00  0.00     0.049 A 
ATOM     15  N   UNL A   1      42.578  29.278  28.195  1.00  0.00    -0.248 NA
ATOM     16  C   UNL A   1      42.749  26.982  28.183  1.00  0.00     0.031 C 
ATOM     17  C   UNL A   1      37.143  29.285  29.542  1.00  0.00     0.029 A 
ATOM     18  N   UNL A   1      38.878  30.656  29.823  1.00  0.00    -0.354 N 
ATOM     19  C   UNL A   1      43.897  28.961  28.246  1.00  0.00     0.074 A 
ATOM     20  C   UNL A   1      43.965  27.527  28.121  1.00  0.00     0.031 C 
ATOM     21  C   UNL A   1      36.680  30.512  29.826  1.00  0.00     0.029 A 
ATOM     22  C   UNL A   1      37.767  31.428  29.910  1.00  0.00     0.049 A 
ATOM     23  H   UNL A   1      39.745  31.022  30.110  1.00  0.00     0.167 HD
ATOM     24  C   UNL A   1      44.896  29.832  28.523  1.00  0.00     0.037 A 
ATOM     25  C   UNL A   1      37.764  32.771  29.992  1.00  0.00     0.037 A 
ATOM     26  C   UNL A   1      44.673  31.216  28.922  1.00  0.00     0.049 A 
ATOM     27  C   UNL A   1      39.110  33.492  29.943  1.00  0.00     0.074 A 
ATOM     28  C   UNL A   1      45.620  32.147  29.303  1.00  0.00     0.029 A 
ATOM     29  N   UNL A   1      43.425  31.852  29.066  1.00  0.00    -0.354 N 
ATOM     30  N   UNL A   1      40.327  33.006  29.758  1.00  0.00    -0.248 NA
ATOM     31  C   UNL A   1      39.066  34.943  30.123  1.00  0.00     0.031 C 
ATOM     32  C   UNL A   1      44.954  33.293  29.755  1.00  0.00     0.029 A 
ATOM     33  C   UNL A   1      43.582  33.142  29.574  1.00  0.00     0.049 A 
ATOM     34  H   UNL A   1      42.559  31.443  28.838  1.00  0.00     0.167 HD
ATOM     35  C   UNL A   1      41.203  34.089  29.825  1.00  0.00     0.074 A 
ATOM     36  C   UNL A   1      40.348  35.261  30.001  1.00  0.00     0.031 C 
ATOM     37  C   UNL A   1      42.567  34.170  29.793  1.00  0.00     0.037 A 
BRANCH  24  38
ATOM     38  C   UNL A   1      46.270  29.236  28.561  1.00  0.00     0.064 A 
ATOM     39  C   UNL A   1      46.819  28.750  29.758  1.00  0.00     0.173 A 
ATOM     40  C   UNL A   1      47.076  29.213  27.414  1.00  0.00     0.173 A 
ATOM     41  F   UNL A   1      46.096  28.771  30.889  1.00  0.00    -0.203 F 
ATOM     42  C   UNL A   1      48.136  28.302  29.814  1.00  0.00     0.198 A 
ATOM     43  C   UNL A   1      48.385  28.739  27.467  1.00  0.00     0.198 A 
ATOM     44  F   UNL A   1      46.607  29.675  26.246  1.00  0.00    -0.203 F 
ATOM     45  F   UNL A   1      48.658  27.906  30.983  1.00  0.00    -0.200 F 
ATOM     46  C   UNL A   1      48.917  28.296  28.669  1.00  0.00     0.200 A 
ATOM     47  F   UNL A   1      49.139  28.734  26.360  1.00  0.00    -0.200 F 
ATOM     48  F   UNL A   1      50.192  27.883  28.727  1.00  0.00    -0.200 F 
ENDBRANCH  24  38
BRANCH  25  49
ATOM     49  C   UNL A   1      36.462  33.478  29.994  1.00  0.00     0.064 A 
ATOM     50  C   UNL A   1      35.786  33.751  28.798  1.00  0.00     0.173 A 
ATOM     51  C   UNL A   1      35.811  33.796  31.197  1.00  0.00     0.173 A 
ATOM     52  F   UNL A   1      36.369  33.478  27.622  1.00  0.00    -0.203 F 
ATOM     53  C   UNL A   1      34.505  34.299  28.804  1.00  0.00     0.198 A 
ATOM     54  C   UNL A   1      34.518  34.313  31.202  1.00  0.00     0.198 A 
ATOM     55  F   UNL A   1      36.413  33.551  32.370  1.00  0.00    -0.203 F 
ATOM     56  F   UNL A   1      33.884  34.556  27.645  1.00  0.00    -0.200 F 
ATOM     57  C   UNL A   1      33.865  34.563  30.006  1.00  0.00     0.200 A 
ATOM     58  F   UNL A   1      33.898  34.545  32.367  1.00  0.00    -0.200 F 
ATOM     59  F   UNL A   1      32.617  35.051  30.011  1.00  0.00    -0.200 F 
ENDBRANCH  25  49
BRANCH  37  60
ATOM     60  C   UNL A   1      43.115  35.551  30.096  1.00  0.00     0.064 A 
ATOM     61  C   UNL A   1      43.285  36.500  29.072  1.00  0.00     0.173 A 
ATOM     62  C   UNL A   1      43.424  35.940  31.407  1.00  0.00     0.173 A 
ATOM     63  F   UNL A   1      43.007  36.174  27.800  1.00  0.00    -0.203 F 
ATOM     64  C   UNL A   1      43.778  37.773  29.344  1.00  0.00     0.198 A 
ATOM     65  C   UNL A   1      43.890  37.226  31.680  1.00  0.00     0.198 A 
ATOM     66  F   UNL A   1      43.266  35.079  32.423  1.00  0.00    -0.203 F 
ATOM     67  F   UNL A   1      43.979  38.641  28.344  1.00  0.00    -0.200 F 
ATOM     68  C   UNL A   1      44.076  38.136  30.648  1.00  0.00     0.200 A 
ATOM     69  F   UNL A   1      44.164  37.584  32.943  1.00  0.00    -0.200 F 
ATOM     70  F   UNL A   1      44.547  39.362  30.912  1.00  0.00    -0.200 F 
ENDBRANCH  37  60
ENDBRANCH  11  12
ENDBRANCH   4   6
ENDBRANCH   3   4
ENDBRANCH   2   3
ENDBRANCH   1   2
BRANCH   1  71
ATOM     71  O   UNL A   1      34.963  22.555  23.709  1.00  0.00    -0.461 OA
BRANCH  71  72
ATOM     72  C   UNL A   1      34.616  21.529  24.543  1.00  0.00     0.324 C 
ATOM     73  O   UNL A   1      35.261  20.491  24.645  1.00  0.00    -0.250 OA
BRANCH  72  74
ATOM     74  C   UNL A   1      33.302  21.804  25.285  1.00  0.00     0.183 C 
ATOM     75  C   UNL A   1      33.321  21.052  26.618  1.00  0.00     0.034 C 
ATOM     76  N   UNL A   1      33.162  23.241  25.689  1.00  0.00    -0.184 NA
ATOM     77  C   UNL A   1      34.111  21.965  27.541  1.00  0.00     0.019 C 
ATOM     78  C   UNL A   1      33.995  23.364  26.941  1.00  0.00     0.103 C 
BRANCH  76  79
ATOM     79  S   UNL A   1      31.567  23.835  25.910  1.00  0.00     0.244 S 
ATOM     80  O   UNL A   1      30.685  23.095  25.036  1.00  0.00    -0.207 OA
ATOM     81  O   UNL A   1      31.331  23.889  27.338  1.00  0.00    -0.207 OA
BRANCH  79  82
ATOM     82  C   UNL A   1      31.524  25.539  25.386  1.00  0.00     0.089 A 
ATOM     83  C   UNL A   1      32.526  26.711  26.409  1.00  0.00     0.022 A 
ATOM     84  C   UNL A   1      30.439  26.168  24.004  1.00  0.00     0.107 A 
ATOM     85  C   UNL A   1      32.438  28.531  26.086  1.00  0.00     0.008 A 
ATOM     86  C   UNL A   1      30.331  27.988  23.689  1.00  0.00     0.270 A 
ATOM     87  C   UNL A   1      31.308  29.183  24.700  1.00  0.00     0.086 A 
BRANCH  86  88
ATOM     88  N   UNL A   1      29.308  28.479  22.800  1.00  0.00     0.062 N 
ATOM     89  O   UNL A   1      29.669  28.965  21.724  1.00  0.00    -0.258 OA
ATOM     90  O   UNL A   1      28.139  28.368  23.189  1.00  0.00    -0.258 OA
ENDBRANCH  86  88
ENDBRANCH  79  82
ENDBRANCH  76  79
ENDBRANCH  72  74
ENDBRANCH  71  72
ENDBRANCH   1  71
TORSDOF 14
ENDMDL
MODEL 2
REMARK VINA RESULT:     -12.7      3.953      9.777
REMARK SMILES O=C(OCCOC(=O)[C@H]1CCCN1S(=O)(=O)c1cccc([N+](=O)[O-])c1)c1ccc(-c2c3nc(c(-c4c(F)c(F)c(F)c(F)c4F)c4ccc([nH]4)c(-c4c(F)c(F)c(F)c(F)c4F)c4nc(c(-c5c(F)c(F)c(F)c(F)c5F)c5ccc2[nH]5)C=C4)C=C3)cc1
REMARK SMILES IDX 5 1 4 2 3 3 2 4 1 5 26 6 27 7 88 8 28 9 87 10 29 11 30 12
REMARK SMILES IDX 31 13 81 14 32 15 86 16 80 17 82 18 33 19 85 20 79 21 78 22
REMARK SMILES IDX 34 24 66 25 46 26 65 27 47 28 50 29 64 30 83 31 48 32 49 33
REMARK SMILES IDX 63 35 84 36 51 37 35 38 36 39 44 40 37 41 38 42 42 43 45 44
REMARK SMILES IDX 39 45 40 46 43 47 41 48 67 49 68 50 76 51 69 52 70 53 74 54
REMARK SMILES IDX 77 55 71 56 72 57 75 58 73 59 52 60 53 61 61 62 54 63 55 64
REMARK SMILES IDX 59 65 62 66 56 67 57 68 60 69 58 70 6 71 7 72 8 73 9 74
REMARK SMILES IDX 10 75 13 76 11 77 12 78 14 79 15 80 16 81 17 82 18 83 25 84
REMARK SMILES IDX 19 85 21 86 20 87 22 88 23 89 24 90
REMARK H PARENT 82 23 50 34
REMARK Flexibility Score: inf
ROOT
ATOM      1  C   UNL A   1      33.986  31.679  27.390  1.00  0.00     0.274 C 
ENDROOT
BRANCH   1   2
ATOM      2  C   UNL A   1      34.216  32.529  28.642  1.00  0.00     0.275 C 
BRANCH   2   3
ATOM      3  O   UNL A   1      34.602  31.792  29.813  1.00  0.00    -0.458 OA
BRANCH   3   4
ATOM      4  C   UNL A   1      35.860  31.527  30.244  1.00  0.00     0.338 C 
ATOM      5  O   UNL A   1      36.410  32.289  31.036  1.00  0.00    -0.246 OA
BRANCH   4   6
ATOM      6  C   UNL A   1      36.692  30.482  29.580  1.00  0.00     0.060 A 
ATOM      7  C   UNL A   1      36.993  30.418  28.218  1.00  0.00     0.016 A 
ATOM      8  C   UNL A   1      37.204  29.482  30.417  1.00  0.00     0.016 A 
ATOM      9  C   UNL A   1      37.979  29.542  27.747  1.00  0.00     0.010 A 
ATOM     10  C   UNL A   1      38.160  28.583  29.948  1.00  0.00     0.010 A 
ATOM     11  C   UNL A   1      38.675  28.709  28.642  1.00  0.00    -0.014 A 
BRANCH  11  12
ATOM     12  C   UNL A   1      40.082  27.849  28.143  1.00  0.00     0.031 A 
ATOM     13  C   UNL A   1      41.164  29.194  28.784  1.00  0.00     0.074 A 
ATOM     14  C   UNL A   1      40.467  26.218  27.313  1.00  0.00     0.049 A 
ATOM     15  N   UNL A   1      42.441  29.103  29.110  1.00  0.00    -0.248 NA
ATOM     16  C   UNL A   1      40.691  30.590  28.937  1.00  0.00     0.031 C 
ATOM     17  C   UNL A   1      39.629  24.874  26.750  1.00  0.00     0.029 A 
ATOM     18  N   UNL A   1      41.764  25.487  26.938  1.00  0.00    -0.354 N 
ATOM     19  C   UNL A   1      42.942  30.352  29.284  1.00  0.00     0.074 A 
ATOM     20  C   UNL A   1      41.804  31.238  29.283  1.00  0.00     0.031 C 
ATOM     21  C   UNL A   1      40.407  23.810  26.500  1.00  0.00     0.029 A 
ATOM     22  C   UNL A   1      41.773  24.151  26.714  1.00  0.00     0.049 A 
ATOM     23  H   UNL A   1      42.603  25.996  26.860  1.00  0.00     0.167 HD
ATOM     24  C   UNL A   1      44.257  30.669  29.287  1.00  0.00     0.037 A 
ATOM     25  C   UNL A   1      42.865  23.367  26.760  1.00  0.00     0.037 A 
ATOM     26  C   UNL A   1      45.319  29.716  28.986  1.00  0.00     0.049 A 
ATOM     27  C   UNL A   1      44.196  24.017  27.134  1.00  0.00     0.074 A 
ATOM     28  C   UNL A   1      46.673  29.967  28.884  1.00  0.00     0.029 A 
ATOM     29  N   UNL A   1      45.152  28.355  28.665  1.00  0.00    -0.354 N 
ATOM     30  N   UNL A   1      44.458  25.260  27.503  1.00  0.00    -0.248 NA
ATOM     31  C   UNL A   1      45.370  23.146  27.088  1.00  0.00     0.031 C 
ATOM     32  C   UNL A   1      47.303  28.804  28.423  1.00  0.00     0.029 A 
ATOM     33  C   UNL A   1      46.371  27.774  28.322  1.00  0.00     0.049 A 
ATOM     34  H   UNL A   1      44.290  27.878  28.683  1.00  0.00     0.167 HD
ATOM     35  C   UNL A   1      45.835  25.333  27.709  1.00  0.00     0.074 A 
ATOM     36  C   UNL A   1      46.326  23.976  27.483  1.00  0.00     0.031 C 
ATOM     37  C   UNL A   1      46.665  26.376  28.010  1.00  0.00     0.037 A 
BRANCH  24  38
ATOM     38  C   UNL A   1      44.562  32.126  29.458  1.00  0.00     0.064 A 
ATOM     39  C   UNL A   1      44.616  32.992  28.354  1.00  0.00     0.173 A 
ATOM     40  C   UNL A   1      44.876  32.652  30.720  1.00  0.00     0.173 A 
ATOM     41  F   UNL A   1      44.348  32.531  27.123  1.00  0.00    -0.203 F 
ATOM     42  C   UNL A   1      45.010  34.319  28.502  1.00  0.00     0.198 A 
ATOM     43  C   UNL A   1      45.244  33.988  30.867  1.00  0.00     0.198 A 
ATOM     44  F   UNL A   1      44.852  31.868  31.807  1.00  0.00    -0.203 F 
ATOM     45  F   UNL A   1      45.119  35.107  27.424  1.00  0.00    -0.200 F 
ATOM     46  C   UNL A   1      45.324  34.816  29.758  1.00  0.00     0.200 A 
ATOM     47  F   UNL A   1      45.547  34.467  32.082  1.00  0.00    -0.200 F 
ATOM     48  F   UNL A   1      45.723  36.088  29.896  1.00  0.00    -0.200 F 
ENDBRANCH  24  38
BRANCH  25  49
ATOM     49  C   UNL A   1      42.698  21.906  26.574  1.00  0.00     0.064 A 
ATOM     50  C   UNL A   1      43.328  21.236  25.517  1.00  0.00     0.173 A 
ATOM     51  C   UNL A   1      41.998  21.129  27.511  1.00  0.00     0.173 A 
ATOM     52  F   UNL A   1      43.998  21.932  24.588  1.00  0.00    -0.203 F 
ATOM     53  C   UNL A   1      43.278  19.847  25.413  1.00  0.00     0.198 A 
ATOM     54  C   UNL A   1      41.976  19.740  27.425  1.00  0.00     0.198 A 
ATOM     55  F   UNL A   1      41.381  21.722  28.544  1.00  0.00    -0.203 F 
ATOM     56  F   UNL A   1      43.883  19.232  24.388  1.00  0.00    -0.200 F 
ATOM     57  C   UNL A   1      42.617  19.100  26.377  1.00  0.00     0.200 A 
ATOM     58  F   UNL A   1      41.355  19.023  28.371  1.00  0.00    -0.200 F 
ATOM     59  F   UNL A   1      42.605  17.762  26.299  1.00  0.00    -0.200 F 
ENDBRANCH  25  49
BRANCH  37  60
ATOM     60  C   UNL A   1      48.142  26.034  27.950  1.00  0.00     0.064 A 
ATOM     61  C   UNL A   1      48.862  26.162  26.749  1.00  0.00     0.173 A 
ATOM     62  C   UNL A   1      48.842  25.627  29.094  1.00  0.00     0.173 A 
ATOM     63  F   UNL A   1      48.236  26.544  25.626  1.00  0.00    -0.203 F 
ATOM     64  C   UNL A   1      50.220  25.861  26.689  1.00  0.00     0.198 A 
ATOM     65  C   UNL A   1      50.209  25.354  29.036  1.00  0.00     0.198 A 
ATOM     66  F   UNL A   1      48.206  25.504  30.268  1.00  0.00    -0.203 F 
ATOM     67  F   UNL A   1      50.873  25.941  25.521  1.00  0.00    -0.200 F 
ATOM     68  C   UNL A   1      50.892  25.461  27.833  1.00  0.00     0.200 A 
ATOM     69  F   UNL A   1      50.864  24.982  30.145  1.00  0.00    -0.200 F 
ATOM     70  F   UNL A   1      52.200  25.174  27.777  1.00  0.00    -0.200 F 
ENDBRANCH  37  60
ENDBRANCH  11  12
ENDBRANCH   4   6
ENDBRANCH   3   4
ENDBRANCH   2   3
ENDBRANCH   1   2
BRANCH   1  71
ATOM     71  O   UNL A   1      32.887  30.753  27.477  1.00  0.00    -0.461 OA
BRANCH  71  72
ATOM     72  C   UNL A   1      33.248  29.449  27.283  1.00  0.00     0.324 C 
ATOM     73  O   UNL A   1      34.331  28.987  27.625  1.00  0.00    -0.250 OA
BRANCH  72  74
ATOM     74  C   UNL A   1      32.166  28.654  26.539  1.00  0.00     0.183 C 
ATOM     75  C   UNL A   1      31.609  29.520  25.406  1.00  0.00     0.034 C 
ATOM     76  N   UNL A   1      32.722  27.456  25.831  1.00  0.00    -0.184 NA
ATOM     77  C   UNL A   1      32.612  29.337  24.280  1.00  0.00     0.019 C 
ATOM     78  C   UNL A   1      33.313  28.010  24.557  1.00  0.00     0.103 C 
BRANCH  76  79
ATOM     79  S   UNL A   1      31.640  26.157  25.533  1.00  0.00     0.244 S 
ATOM     80  O   UNL A   1      30.764  26.030  26.674  1.00  0.00    -0.207 OA
ATOM     81  O   UNL A   1      31.108  26.349  24.199  1.00  0.00    -0.207 OA
BRANCH  79  82
ATOM     82  C   UNL A   1      32.587  24.650  25.422  1.00  0.00     0.089 A 
ATOM     83  C   UNL A   1      34.424  24.855  25.524  1.00  0.00     0.022 A 
ATOM     84  C   UNL A   1      31.832  22.979  25.074  1.00  0.00     0.107 A 
ATOM     85  C   UNL A   1      35.535  23.401  25.252  1.00  0.00     0.008 A 
ATOM     86  C   UNL A   1      32.939  21.525  24.781  1.00  0.00     0.270 A 
ATOM     87  C   UNL A   1      34.774  21.700  24.863  1.00  0.00     0.086 A 
BRANCH  86  88
ATOM     88  N   UNL A   1      32.363  20.308  24.266  1.00  0.00     0.062 N 
ATOM     89  O   UNL A   1      32.064  19.427  25.077  1.00  0.00    -0.258 OA
ATOM     90  O   UNL A   1      32.209  20.246  23.040  1.00  0.00    -0.258 OA
ENDBRANCH  86  88
ENDBRANCH  79  82
ENDBRANCH  76  79
ENDBRANCH  72  74
ENDBRANCH  71  72
ENDBRANCH   1  71
TORSDOF 14
ENDMDL
MODEL 3
REMARK VINA RESULT:     -12.6      4.685     10.181
REMARK SMILES O=C(OCCOC(=O)[C@H]1CCCN1S(=O)(=O)c1cccc([N+](=O)[O-])c1)c1ccc(-c2c3nc(c(-c4c(F)c(F)c(F)c(F)c4F)c4ccc([nH]4)c(-c4c(F)c(F)c(F)c(F)c4F)c4nc(c(-c5c(F)c(F)c(F)c(F)c5F)c5ccc2[nH]5)C=C4)C=C3)cc1
REMARK SMILES IDX 5 1 4 2 3 3 2 4 1 5 26 6 27 7 88 8 28 9 87 10 29 11 30 12
REMARK SMILES IDX 31 13 81 14 32 15 86 16 80 17 82 18 33 19 85 20 79 21 78 22
REMARK SMILES IDX 34 24 66 25 46 26 65 27 47 28 50 29 64 30 83 31 48 32 49 33
REMARK SMILES IDX 63 35 84 36 51 37 35 38 36 39 44 40 37 41 38 42 42 43 45 44
REMARK SMILES IDX 39 45 40 46 43 47 41 48 67 49 68 50 76 51 69 52 70 53 74 54
REMARK SMILES IDX 77 55 71 56 72 57 75 58 73 59 52 60 53 61 61 62 54 63 55 64
REMARK SMILES IDX 59 65 62 66 56 67 57 68 60 69 58 70 6 71 7 72 8 73 9 74
REMARK SMILES IDX 10 75 13 76 11 77 12 78 14 79 15 80 16 81 17 82 18 83 25 84
REMARK SMILES IDX 19 85 21 86 20 87 22 88 23 89 24 90
REMARK H PARENT 82 23 50 34
REMARK Flexibility Score: inf
ROOT
ATOM      1  C   UNL A   1      31.866  29.069  27.197  1.00  0.00     0.274 C 
ENDROOT
BRANCH   1   2
ATOM      2  C   UNL A   1      32.296  30.511  26.921  1.00  0.00     0.275 C 
BRANCH   2   3
ATOM      3  O   UNL A   1      33.716  30.714  26.833  1.00  0.00    -0.458 OA
BRANCH   3   4
ATOM      4  C   UNL A   1      34.503  31.416  27.686  1.00  0.00     0.338 C 
ATOM      5  O   UNL A   1      34.381  32.636  27.769  1.00  0.00    -0.246 OA
BRANCH   4   6
ATOM      6  C   UNL A   1      35.689  30.782  28.330  1.00  0.00     0.060 A 
ATOM      7  C   UNL A   1      35.660  29.707  29.220  1.00  0.00     0.016 A 
ATOM      8  C   UNL A   1      36.934  31.332  28.001  1.00  0.00     0.016 A 
ATOM      9  C   UNL A   1      36.840  29.036  29.567  1.00  0.00     0.010 A 
ATOM     10  C   UNL A   1      38.116  30.692  28.371  1.00  0.00     0.010 A 
ATOM     11  C   UNL A   1      38.073  29.445  29.026  1.00  0.00    -0.014 A 
BRANCH  11  12
ATOM     12  C   UNL A   1      39.483  28.469  29.194  1.00  0.00     0.031 A 
ATOM     13  C   UNL A   1      39.851  29.236  30.828  1.00  0.00     0.074 A 
ATOM     14  C   UNL A   1      40.355  27.140  28.209  1.00  0.00     0.049 A 
ATOM     15  N   UNL A   1      40.605  28.737  31.791  1.00  0.00    -0.248 NA
ATOM     16  C   UNL A   1      39.362  30.583  31.201  1.00  0.00     0.031 C 
ATOM     17  C   UNL A   1      40.121  26.290  26.777  1.00  0.00     0.029 A 
ATOM     18  N   UNL A   1      41.598  26.271  28.448  1.00  0.00    -0.354 N 
ATOM     19  C   UNL A   1      40.841  29.706  32.712  1.00  0.00     0.074 A 
ATOM     20  C   UNL A   1      39.961  30.797  32.373  1.00  0.00     0.031 C 
ATOM     21  C   UNL A   1      40.897  25.203  26.654  1.00  0.00     0.029 A 
ATOM     22  C   UNL A   1      41.782  25.114  27.767  1.00  0.00     0.049 A 
ATOM     23  H   UNL A   1      42.271  26.557  29.106  1.00  0.00     0.167 HD
ATOM     24  C   UNL A   1      41.825  29.673  33.640  1.00  0.00     0.037 A 
ATOM     25  C   UNL A   1      42.595  24.113  28.150  1.00  0.00     0.037 A 
ATOM     26  C   UNL A   1      42.847  28.635  33.698  1.00  0.00     0.049 A 
ATOM     27  C   UNL A   1      43.341  24.266  29.474  1.00  0.00     0.074 A 
ATOM     28  C   UNL A   1      43.932  28.565  34.550  1.00  0.00     0.029 A 
ATOM     29  N   UNL A   1      42.962  27.528  32.834  1.00  0.00    -0.354 N 
ATOM     30  N   UNL A   1      43.269  25.226  30.382  1.00  0.00    -0.248 NA
ATOM     31  C   UNL A   1      44.279  23.195  29.808  1.00  0.00     0.031 C 
ATOM     32  C   UNL A   1      44.736  27.490  34.152  1.00  0.00     0.029 A 
ATOM     33  C   UNL A   1      44.122  26.805  33.107  1.00  0.00     0.049 A 
ATOM     34  H   UNL A   1      42.310  27.296  32.133  1.00  0.00     0.167 HD
ATOM     35  C   UNL A   1      44.174  24.891  31.389  1.00  0.00     0.074 A 
ATOM     36  C   UNL A   1      44.724  23.597  30.992  1.00  0.00     0.031 C 
ATOM     37  C   UNL A   1      44.580  25.550  32.515  1.00  0.00     0.037 A 
BRANCH  24  38
ATOM     38  C   UNL A   1      41.911  30.881  34.522  1.00  0.00     0.064 A 
ATOM     39  C   UNL A   1      42.868  31.883  34.293  1.00  0.00     0.173 A 
ATOM     40  C   UNL A   1      41.085  31.009  35.648  1.00  0.00     0.173 A 
ATOM     41  F   UNL A   1      43.698  31.795  33.243  1.00  0.00    -0.203 F 
ATOM     42  C   UNL A   1      43.019  32.946  35.180  1.00  0.00     0.198 A 
ATOM     43  C   UNL A   1      41.222  32.089  36.518  1.00  0.00     0.198 A 
ATOM     44  F   UNL A   1      40.161  30.076  35.921  1.00  0.00    -0.203 F 
ATOM     45  F   UNL A   1      43.984  33.853  34.975  1.00  0.00    -0.200 F 
ATOM     46  C   UNL A   1      42.197  33.048  36.291  1.00  0.00     0.200 A 
ATOM     47  F   UNL A   1      40.426  32.186  37.592  1.00  0.00    -0.200 F 
ATOM     48  F   UNL A   1      42.357  34.061  37.154  1.00  0.00    -0.200 F 
ENDBRANCH  24  38
BRANCH  25  49
ATOM     49  C   UNL A   1      42.624  22.873  27.338  1.00  0.00     0.064 A 
ATOM     50  C   UNL A   1      43.609  22.672  26.362  1.00  0.00     0.173 A 
ATOM     51  C   UNL A   1      41.739  21.814  27.598  1.00  0.00     0.173 A 
ATOM     52  F   UNL A   1      44.471  23.656  26.068  1.00  0.00    -0.203 F 
ATOM     53  C   UNL A   1      43.717  21.457  25.688  1.00  0.00     0.198 A 
ATOM     54  C   UNL A   1      41.868  20.590  26.948  1.00  0.00     0.198 A 
ATOM     55  F   UNL A   1      40.781  21.955  28.526  1.00  0.00    -0.203 F 
ATOM     56  F   UNL A   1      44.663  21.294  24.754  1.00  0.00    -0.200 F 
ATOM     57  C   UNL A   1      42.858  20.412  25.994  1.00  0.00     0.200 A 
ATOM     58  F   UNL A   1      41.050  19.578  27.264  1.00  0.00    -0.200 F 
ATOM     59  F   UNL A   1      42.989  19.230  25.376  1.00  0.00    -0.200 F 
ENDBRANCH  25  49
BRANCH  37  60
ATOM     60  C   UNL A   1      45.744  24.894  33.234  1.00  0.00     0.064 A 
ATOM     61  C   UNL A   1      47.068  25.280  32.962  1.00  0.00     0.173 A 
ATOM     62  C   UNL A   1      45.534  23.921  34.222  1.00  0.00     0.173 A 
ATOM     63  F   UNL A   1      47.321  26.204  32.023  1.00  0.00    -0.203 F 
ATOM     64  C   UNL A   1      48.140  24.690  33.626  1.00  0.00     0.198 A 
ATOM     65  C   UNL A   1      46.609  23.353  34.905  1.00  0.00     0.198 A 
ATOM     66  F   UNL A   1      44.290  23.528  34.530  1.00  0.00    -0.203 F 
ATOM     67  F   UNL A   1      49.396  25.038  33.312  1.00  0.00    -0.200 F 
ATOM     68  C   UNL A   1      47.909  23.731  34.600  1.00  0.00     0.200 A 
ATOM     69  F   UNL A   1      46.387  22.437  35.858  1.00  0.00    -0.200 F 
ATOM     70  F   UNL A   1      48.940  23.165  35.242  1.00  0.00    -0.200 F 
ENDBRANCH  37  60
ENDBRANCH  11  12
ENDBRANCH   4   6
ENDBRANCH   3   4
ENDBRANCH   2   3
ENDBRANCH   1   2
BRANCH   1  71
ATOM     71  O   UNL A   1      31.458  28.323  26.035  1.00  0.00    -0.461 OA
BRANCH  71  72
ATOM     72  C   UNL A   1      32.294  27.289  25.722  1.00  0.00     0.324 C 
ATOM     73  O   UNL A   1      33.348  27.067  26.309  1.00  0.00    -0.250 OA
BRANCH  72  74
ATOM     74  C   UNL A   1      31.791  26.480  24.519  1.00  0.00     0.183 C 
ATOM     75  C   UNL A   1      31.106  27.434  23.536  1.00  0.00     0.034 C 
ATOM     76  N   UNL A   1      32.910  25.886  23.719  1.00  0.00    -0.184 NA
ATOM     77  C   UNL A   1      32.258  28.026  22.741  1.00  0.00     0.019 C 
ATOM     78  C   UNL A   1      33.404  27.023  22.857  1.00  0.00     0.103 C 
BRANCH  76  79
ATOM     79  S   UNL A   1      32.549  24.484  22.797  1.00  0.00     0.244 S 
ATOM     80  O   UNL A   1      31.117  24.293  22.810  1.00  0.00    -0.207 OA
ATOM     81  O   UNL A   1      33.277  24.601  21.550  1.00  0.00    -0.207 OA
BRANCH  79  82
ATOM     82  C   UNL A   1      33.279  23.074  23.609  1.00  0.00     0.089 A 
ATOM     83  C   UNL A   1      35.042  23.281  24.131  1.00  0.00     0.022 A 
ATOM     84  C   UNL A   1      32.414  21.432  23.802  1.00  0.00     0.107 A 
ATOM     85  C   UNL A   1      35.977  21.845  24.829  1.00  0.00     0.008 A 
ATOM     86  C   UNL A   1      33.349  19.986  24.481  1.00  0.00     0.270 A 
ATOM     87  C   UNL A   1      35.112  20.157  24.998  1.00  0.00     0.086 A 
BRANCH  86  88
ATOM     88  N   UNL A   1      32.759  18.674  24.389  1.00  0.00     0.062 N 
ATOM     89  O   UNL A   1      32.152  18.249  25.376  1.00  0.00    -0.258 OA
ATOM     90  O   UNL A   1      32.907  18.075  23.316  1.00  0.00    -0.258 OA
ENDBRANCH  86  88
ENDBRANCH  79  82
ENDBRANCH  76  79
ENDBRANCH  72  74
ENDBRANCH  71  72
ENDBRANCH   1  71
TORSDOF 14
ENDMDL
