MODEL 1
REMARK VINA RESULT:     -11.2      0.000      0.000
REMARK SMILES C[C@@H]1CCC[C@](C#N)([C@H](O)C(=O)OCCOC(=O)c2ccc(-c3c4nc(c(-c5c(F)c(F)c(F)c(F)c5F)c5ccc([nH]5)c(-c5c(F)c(F)c(F)c(F)c5F)c5nc(c(-c6c(F)c(F)c(F)c(F)c6F)c6ccc3[nH]6)C=C5)C=C4)cc2)C1
REMARK SMILES IDX 14 1 13 2 11 3 12 4 9 5 6 6 1 7 2 8 3 9 82 10 4 11 5 12 7 13
REMARK SMILES IDX 8 14 10 15 15 17 16 18 17 19 18 20 19 21 20 22 81 23 21 24
REMARK SMILES IDX 80 25 22 26 23 27 24 28 74 29 25 30 79 31 73 32 75 33 26 34
REMARK SMILES IDX 78 35 72 36 71 37 27 39 59 40 39 41 58 42 40 43 43 44 57 45
REMARK SMILES IDX 76 46 41 47 42 48 56 50 77 51 44 52 28 53 29 54 37 55 30 56
REMARK SMILES IDX 31 57 35 58 38 59 32 60 33 61 36 62 34 63 60 64 61 65 69 66
REMARK SMILES IDX 62 67 63 68 67 69 70 70 64 71 65 72 68 73 66 74 45 75 46 76
REMARK SMILES IDX 54 77 47 78 48 79 52 80 55 81 49 82 50 83 53 84 51 85
REMARK H PARENT 10 16 75 38 43 49
REMARK Flexibility Score: inf
ROOT
ATOM      1  C   UNL A   1      31.487  29.530  24.622  1.00  0.00     0.274 C 
ENDROOT
BRANCH   1   2
ATOM      2  O   UNL A   1      32.802  29.101  24.214  1.00  0.00    -0.460 OA
BRANCH   2   3
ATOM      3  C   UNL A   1      32.896  28.514  22.990  1.00  0.00     0.336 C 
ATOM      4  O   UNL A   1      33.815  28.682  22.200  1.00  0.00    -0.249 OA
BRANCH   3   5
ATOM      5  C   UNL A   1      31.742  27.516  22.755  1.00  0.00     0.244 C 
BRANCH   5   6
ATOM      6  C   UNL A   1      32.164  26.026  22.781  1.00  0.00     0.094 C 
ATOM      7  C   UNL A   1      29.900  25.953  25.348  1.00  0.00     0.008 C 
ATOM      8  C   UNL A   1      30.769  24.867  24.710  1.00  0.00    -0.013 C 
ATOM      9  C   UNL A   1      32.072  24.649  25.483  1.00  0.00     0.003 C 
ATOM     10  C   UNL A   1      31.035  25.051  23.204  1.00  0.00     0.029 C 
ATOM     11  C   UNL A   1      33.124  25.711  25.188  1.00  0.00     0.002 C 
ATOM     12  C   UNL A   1      33.411  25.824  23.692  1.00  0.00     0.026 C 
BRANCH   6  13
ATOM     13  C   UNL A   1      32.584  25.677  21.393  1.00  0.00     0.072 C 
ATOM     14  N   UNL A   1      32.903  25.401  20.316  1.00  0.00    -0.198 NA
ENDBRANCH   6  13
ENDBRANCH   5   6
BRANCH   5  15
ATOM     15  O   UNL A   1      30.933  27.822  21.626  1.00  0.00    -0.380 OA
ATOM     16  H   UNL A   1      31.186  28.689  21.273  1.00  0.00     0.211 HD
ENDBRANCH   5  15
ENDBRANCH   3   5
ENDBRANCH   2   3
ENDBRANCH   1   2
BRANCH   1  17
ATOM     17  C   UNL A   1      31.559  30.491  25.817  1.00  0.00     0.275 C 
BRANCH  17  18
ATOM     18  O   UNL A   1      32.744  30.287  26.614  1.00  0.00    -0.458 OA
BRANCH  18  19
ATOM     19  C   UNL A   1      33.271  31.420  27.133  1.00  0.00     0.338 C 
ATOM     20  O   UNL A   1      32.711  32.500  27.250  1.00  0.00    -0.246 OA
BRANCH  19  21
ATOM     21  C   UNL A   1      34.569  31.148  27.768  1.00  0.00     0.060 A 
ATOM     22  C   UNL A   1      34.784  29.847  28.228  1.00  0.00     0.016 A 
ATOM     23  C   UNL A   1      35.522  32.140  28.000  1.00  0.00     0.016 A 
ATOM     24  C   UNL A   1      35.934  29.519  28.925  1.00  0.00     0.010 A 
ATOM     25  C   UNL A   1      36.689  31.811  28.702  1.00  0.00     0.010 A 
ATOM     26  C   UNL A   1      36.895  30.501  29.172  1.00  0.00    -0.014 A 
BRANCH  26  27
ATOM     27  C   UNL A   1      38.074  30.136  29.985  1.00  0.00     0.031 A 
ATOM     28  C   UNL A   1      39.129  29.248  29.400  1.00  0.00     0.074 A 
ATOM     29  C   UNL A   1      38.226  30.669  31.211  1.00  0.00     0.049 A 
ATOM     30  N   UNL A   1      40.189  28.737  29.968  1.00  0.00    -0.248 NA
ATOM     31  C   UNL A   1      38.971  28.888  27.982  1.00  0.00     0.031 C 
ATOM     32  C   UNL A   1      37.304  31.617  31.837  1.00  0.00     0.029 A 
ATOM     33  N   UNL A   1      39.214  30.493  32.145  1.00  0.00    -0.354 N 
ATOM     34  C   UNL A   1      40.805  27.965  28.993  1.00  0.00     0.074 A 
ATOM     35  C   UNL A   1      40.000  28.073  27.795  1.00  0.00     0.031 C 
ATOM     36  C   UNL A   1      37.769  31.939  33.055  1.00  0.00     0.029 A 
ATOM     37  C   UNL A   1      38.983  31.172  33.315  1.00  0.00     0.049 A 
ATOM     38  H   UNL A   1      40.010  29.935  31.992  1.00  0.00     0.167 HD
ATOM     39  C   UNL A   1      41.937  27.232  29.099  1.00  0.00     0.037 A 
ATOM     40  C   UNL A   1      39.655  31.142  34.482  1.00  0.00     0.037 A 
ATOM     41  C   UNL A   1      42.740  27.161  30.292  1.00  0.00     0.049 A 
ATOM     42  C   UNL A   1      40.874  30.269  34.592  1.00  0.00     0.074 A 
ATOM     43  C   UNL A   1      43.909  26.454  30.506  1.00  0.00     0.029 A 
ATOM     44  N   UNL A   1      42.453  27.828  31.476  1.00  0.00    -0.354 N 
ATOM     45  N   UNL A   1      41.432  29.509  33.681  1.00  0.00    -0.248 NA
ATOM     46  C   UNL A   1      41.552  30.239  35.895  1.00  0.00     0.031 C 
ATOM     47  C   UNL A   1      44.303  26.652  31.833  1.00  0.00     0.029 A 
ATOM     48  C   UNL A   1      43.411  27.529  32.431  1.00  0.00     0.049 A 
ATOM     49  H   UNL A   1      41.683  28.425  31.615  1.00  0.00     0.167 HD
ATOM     50  C   UNL A   1      42.536  28.929  34.290  1.00  0.00     0.074 A 
ATOM     51  C   UNL A   1      42.577  29.437  35.645  1.00  0.00     0.031 C 
ATOM     52  C   UNL A   1      43.432  28.051  33.774  1.00  0.00     0.037 A 
BRANCH  39  53
ATOM     53  C   UNL A   1      42.345  26.408  27.914  1.00  0.00     0.064 A 
ATOM     54  C   UNL A   1      41.800  25.141  27.662  1.00  0.00     0.173 A 
ATOM     55  C   UNL A   1      43.282  26.912  26.998  1.00  0.00     0.173 A 
ATOM     56  F   UNL A   1      40.915  24.604  28.515  1.00  0.00    -0.203 F 
ATOM     57  C   UNL A   1      42.194  24.400  26.549  1.00  0.00     0.198 A 
ATOM     58  C   UNL A   1      43.652  26.182  25.872  1.00  0.00     0.198 A 
ATOM     59  F   UNL A   1      43.834  28.119  27.191  1.00  0.00    -0.203 F 
ATOM     60  F   UNL A   1      41.695  23.172  26.353  1.00  0.00    -0.200 F 
ATOM     61  C   UNL A   1      43.113  24.924  25.652  1.00  0.00     0.200 A 
ATOM     62  F   UNL A   1      44.532  26.696  25.001  1.00  0.00    -0.200 F 
ATOM     63  F   UNL A   1      43.486  24.213  24.579  1.00  0.00    -0.200 F 
ENDBRANCH  39  53
BRANCH  40  64
ATOM     64  C   UNL A   1      39.158  31.928  35.642  1.00  0.00     0.064 A 
ATOM     65  C   UNL A   1      38.314  31.353  36.600  1.00  0.00     0.173 A 
ATOM     66  C   UNL A   1      39.522  33.272  35.815  1.00  0.00     0.173 A 
ATOM     67  F   UNL A   1      37.917  30.079  36.465  1.00  0.00    -0.203 F 
ATOM     68  C   UNL A   1      37.842  32.096  37.681  1.00  0.00     0.198 A 
ATOM     69  C   UNL A   1      39.077  34.005  36.913  1.00  0.00     0.198 A 
ATOM     70  F   UNL A   1      40.327  33.871  34.925  1.00  0.00    -0.203 F 
ATOM     71  F   UNL A   1      37.001  31.535  38.561  1.00  0.00    -0.200 F 
ATOM     72  C   UNL A   1      38.231  33.418  37.841  1.00  0.00     0.200 A 
ATOM     73  F   UNL A   1      39.465  35.278  37.069  1.00  0.00    -0.200 F 
ATOM     74  F   UNL A   1      37.782  34.130  38.884  1.00  0.00    -0.200 F 
ENDBRANCH  40  64
BRANCH  52  75
ATOM     75  C   UNL A   1      44.553  27.615  34.671  1.00  0.00     0.064 A 
ATOM     76  C   UNL A   1      44.457  26.459  35.460  1.00  0.00     0.173 A 
ATOM     77  C   UNL A   1      45.754  28.340  34.708  1.00  0.00     0.173 A 
ATOM     78  F   UNL A   1      43.325  25.740  35.471  1.00  0.00    -0.203 F 
ATOM     79  C   UNL A   1      45.515  26.060  36.273  1.00  0.00     0.198 A 
ATOM     80  C   UNL A   1      46.820  27.921  35.497  1.00  0.00     0.198 A 
ATOM     81  F   UNL A   1      45.897  29.449  33.966  1.00  0.00    -0.203 F 
ATOM     82  F   UNL A   1      45.385  24.979  37.055  1.00  0.00    -0.200 F 
ATOM     83  C   UNL A   1      46.697  26.785  36.285  1.00  0.00     0.200 A 
ATOM     84  F   UNL A   1      47.966  28.614  35.497  1.00  0.00    -0.200 F 
ATOM     85  F   UNL A   1      47.717  26.395  37.062  1.00  0.00    -0.200 F 
ENDBRANCH  52  75
ENDBRANCH  26  27
ENDBRANCH  19  21
ENDBRANCH  18  19
ENDBRANCH  17  18
ENDBRANCH   1  17
TORSDOF 14
ENDMDL
MODEL 2
REMARK VINA RESULT:     -11.2      0.181      2.038
REMARK SMILES C[C@@H]1CCC[C@](C#N)([C@H](O)C(=O)OCCOC(=O)c2ccc(-c3c4nc(c(-c5c(F)c(F)c(F)c(F)c5F)c5ccc([nH]5)c(-c5c(F)c(F)c(F)c(F)c5F)c5nc(c(-c6c(F)c(F)c(F)c(F)c6F)c6ccc3[nH]6)C=C5)C=C4)cc2)C1
REMARK SMILES IDX 14 1 13 2 11 3 12 4 9 5 6 6 1 7 2 8 3 9 82 10 4 11 5 12 7 13
REMARK SMILES IDX 8 14 10 15 15 17 16 18 17 19 18 20 19 21 20 22 81 23 21 24
REMARK SMILES IDX 80 25 22 26 23 27 24 28 74 29 25 30 79 31 73 32 75 33 26 34
REMARK SMILES IDX 78 35 72 36 71 37 27 39 59 40 39 41 58 42 40 43 43 44 57 45
REMARK SMILES IDX 76 46 41 47 42 48 56 50 77 51 44 52 28 53 29 54 37 55 30 56
REMARK SMILES IDX 31 57 35 58 38 59 32 60 33 61 36 62 34 63 60 64 61 65 69 66
REMARK SMILES IDX 62 67 63 68 67 69 70 70 64 71 65 72 68 73 66 74 45 75 46 76
REMARK SMILES IDX 54 77 47 78 48 79 52 80 55 81 49 82 50 83 53 84 51 85
REMARK H PARENT 10 16 75 38 43 49
REMARK Flexibility Score: inf
ROOT
ATOM      1  C   UNL A   1      31.577  29.560  24.657  1.00  0.00     0.274 C 
ENDROOT
BRANCH   1   2
ATOM      2  O   UNL A   1      32.853  28.992  24.299  1.00  0.00    -0.460 OA
BRANCH   2   3
ATOM      3  C   UNL A   1      32.953  28.461  23.051  1.00  0.00     0.336 C 
ATOM      4  O   UNL A   1      33.883  28.649  22.280  1.00  0.00    -0.249 OA
BRANCH   3   5
ATOM      5  C   UNL A   1      31.786  27.493  22.758  1.00  0.00     0.244 C 
BRANCH   5   6
ATOM      6  C   UNL A   1      32.182  25.995  22.737  1.00  0.00     0.094 C 
ATOM      7  C   UNL A   1      29.925  25.885  25.308  1.00  0.00     0.008 C 
ATOM      8  C   UNL A   1      30.772  24.803  24.635  1.00  0.00    -0.013 C 
ATOM      9  C   UNL A   1      32.074  24.539  25.396  1.00  0.00     0.003 C 
ATOM     10  C   UNL A   1      31.037  25.028  23.134  1.00  0.00     0.029 C 
ATOM     11  C   UNL A   1      33.143  25.590  25.129  1.00  0.00     0.002 C 
ATOM     12  C   UNL A   1      33.428  25.744  23.636  1.00  0.00     0.026 C 
BRANCH   6  13
ATOM     13  C   UNL A   1      32.590  25.681  21.337  1.00  0.00     0.072 C 
ATOM     14  N   UNL A   1      32.901  25.442  20.249  1.00  0.00    -0.198 NA
ENDBRANCH   6  13
ENDBRANCH   5   6
BRANCH   5  15
ATOM     15  O   UNL A   1      31.005  27.855  21.626  1.00  0.00    -0.380 OA
ATOM     16  H   UNL A   1      31.028  28.817  21.511  1.00  0.00     0.211 HD
ENDBRANCH   5  15
ENDBRANCH   3   5
ENDBRANCH   2   3
ENDBRANCH   1   2
BRANCH   1  17
ATOM     17  C   UNL A   1      31.695  30.468  25.889  1.00  0.00     0.275 C 
BRANCH  17  18
ATOM     18  O   UNL A   1      32.939  30.277  26.594  1.00  0.00    -0.458 OA
BRANCH  18  19
ATOM     19  C   UNL A   1      33.456  31.405  27.134  1.00  0.00     0.338 C 
ATOM     20  O   UNL A   1      32.889  32.480  27.262  1.00  0.00    -0.246 OA
BRANCH  19  21
ATOM     21  C   UNL A   1      34.751  31.130  27.775  1.00  0.00     0.060 A 
ATOM     22  C   UNL A   1      34.974  29.821  28.207  1.00  0.00     0.016 A 
ATOM     23  C   UNL A   1      35.691  32.126  28.039  1.00  0.00     0.016 A 
ATOM     24  C   UNL A   1      36.120  29.488  28.907  1.00  0.00     0.010 A 
ATOM     25  C   UNL A   1      36.855  31.791  28.745  1.00  0.00     0.010 A 
ATOM     26  C   UNL A   1      37.068  30.472  29.186  1.00  0.00    -0.014 A 
BRANCH  26  27
ATOM     27  C   UNL A   1      38.244  30.100  30.002  1.00  0.00     0.031 A 
ATOM     28  C   UNL A   1      39.295  29.205  29.420  1.00  0.00     0.074 A 
ATOM     29  C   UNL A   1      38.396  30.631  31.228  1.00  0.00     0.049 A 
ATOM     30  N   UNL A   1      40.350  28.688  29.990  1.00  0.00    -0.248 NA
ATOM     31  C   UNL A   1      39.138  28.846  28.001  1.00  0.00     0.031 C 
ATOM     32  C   UNL A   1      37.478  31.585  31.853  1.00  0.00     0.029 A 
ATOM     33  N   UNL A   1      39.380  30.449  32.165  1.00  0.00    -0.354 N 
ATOM     34  C   UNL A   1      40.963  27.912  29.016  1.00  0.00     0.074 A 
ATOM     35  C   UNL A   1      40.162  28.025  27.816  1.00  0.00     0.031 C 
ATOM     36  C   UNL A   1      37.942  31.904  33.072  1.00  0.00     0.029 A 
ATOM     37  C   UNL A   1      39.151  31.129  33.335  1.00  0.00     0.049 A 
ATOM     38  H   UNL A   1      40.173  29.886  32.014  1.00  0.00     0.167 HD
ATOM     39  C   UNL A   1      42.090  27.172  29.124  1.00  0.00     0.037 A 
ATOM     40  C   UNL A   1      39.819  31.094  34.504  1.00  0.00     0.037 A 
ATOM     41  C   UNL A   1      42.889  27.095  30.320  1.00  0.00     0.049 A 
ATOM     42  C   UNL A   1      41.032  30.213  34.616  1.00  0.00     0.074 A 
ATOM     43  C   UNL A   1      44.054  26.381  30.536  1.00  0.00     0.029 A 
ATOM     44  N   UNL A   1      42.604  27.764  31.503  1.00  0.00    -0.354 N 
ATOM     45  N   UNL A   1      41.588  29.450  33.706  1.00  0.00    -0.248 NA
ATOM     46  C   UNL A   1      41.706  30.179  35.921  1.00  0.00     0.031 C 
ATOM     47  C   UNL A   1      44.445  26.576  31.865  1.00  0.00     0.029 A 
ATOM     48  C   UNL A   1      43.557  27.458  32.461  1.00  0.00     0.049 A 
ATOM     49  H   UNL A   1      41.837  28.365  31.641  1.00  0.00     0.167 HD
ATOM     50  C   UNL A   1      42.686  28.862  34.317  1.00  0.00     0.074 A 
ATOM     51  C   UNL A   1      42.727  29.370  35.673  1.00  0.00     0.031 C 
ATOM     52  C   UNL A   1      43.578  27.980  33.804  1.00  0.00     0.037 A 
BRANCH  39  53
ATOM     53  C   UNL A   1      42.496  26.346  27.940  1.00  0.00     0.064 A 
ATOM     54  C   UNL A   1      43.404  26.813  26.979  1.00  0.00     0.173 A 
ATOM     55  C   UNL A   1      41.986  25.047  27.783  1.00  0.00     0.173 A 
ATOM     56  F   UNL A   1      43.907  28.054  27.072  1.00  0.00    -0.203 F 
ATOM     57  C   UNL A   1      43.768  26.020  25.893  1.00  0.00     0.198 A 
ATOM     58  C   UNL A   1      42.374  24.247  26.712  1.00  0.00     0.198 A 
ATOM     59  F   UNL A   1      41.116  24.550  28.674  1.00  0.00    -0.203 F 
ATOM     60  F   UNL A   1      44.601  26.505  24.961  1.00  0.00    -0.200 F 
ATOM     61  C   UNL A   1      43.260  24.736  25.764  1.00  0.00     0.200 A 
ATOM     62  F   UNL A   1      41.890  23.003  26.596  1.00  0.00    -0.200 F 
ATOM     63  F   UNL A   1      43.616  23.973  24.722  1.00  0.00    -0.200 F 
ENDBRANCH  39  53
BRANCH  40  64
ATOM     64  C   UNL A   1      39.324  31.882  35.662  1.00  0.00     0.064 A 
ATOM     65  C   UNL A   1      39.756  33.197  35.883  1.00  0.00     0.173 A 
ATOM     66  C   UNL A   1      38.406  31.336  36.571  1.00  0.00     0.173 A 
ATOM     67  F   UNL A   1      40.653  33.755  35.058  1.00  0.00    -0.203 F 
ATOM     68  C   UNL A   1      39.297  33.930  36.977  1.00  0.00     0.198 A 
ATOM     69  C   UNL A   1      37.922  32.080  37.645  1.00  0.00     0.198 A 
ATOM     70  F   UNL A   1      37.962  30.081  36.406  1.00  0.00    -0.203 F 
ATOM     71  F   UNL A   1      39.758  35.170  37.190  1.00  0.00    -0.200 F 
ATOM     72  C   UNL A   1      38.374  33.374  37.850  1.00  0.00     0.200 A 
ATOM     73  F   UNL A   1      37.022  31.543  38.479  1.00  0.00    -0.200 F 
ATOM     74  F   UNL A   1      37.929  34.082  38.898  1.00  0.00    -0.200 F 
ENDBRANCH  40  64
BRANCH  52  75
ATOM     75  C   UNL A   1      44.695  27.536  34.704  1.00  0.00     0.064 A 
ATOM     76  C   UNL A   1      45.879  28.277  34.826  1.00  0.00     0.173 A 
ATOM     77  C   UNL A   1      44.558  26.378  35.483  1.00  0.00     0.173 A 
ATOM     78  F   UNL A   1      46.064  29.383  34.091  1.00  0.00    -0.203 F 
ATOM     79  C   UNL A   1      46.897  27.859  35.679  1.00  0.00     0.198 A 
ATOM     80  C   UNL A   1      45.564  25.980  36.358  1.00  0.00     0.198 A 
ATOM     81  F   UNL A   1      43.441  25.639  35.407  1.00  0.00    -0.203 F 
ATOM     82  F   UNL A   1      48.041  28.555  35.746  1.00  0.00    -0.200 F 
ATOM     83  C   UNL A   1      46.736  26.717  36.450  1.00  0.00     0.200 A 
ATOM     84  F   UNL A   1      45.401  24.885  37.112  1.00  0.00    -0.200 F 
ATOM     85  F   UNL A   1      47.714  26.321  37.276  1.00  0.00    -0.200 F 
ENDBRANCH  52  75
ENDBRANCH  26  27
ENDBRANCH  19  21
ENDBRANCH  18  19
ENDBRANCH  17  18
ENDBRANCH   1  17
TORSDOF 14
ENDMDL
MODEL 3
REMARK VINA RESULT:     -11.1      4.908      9.925
REMARK SMILES C[C@@H]1CCC[C@](C#N)([C@H](O)C(=O)OCCOC(=O)c2ccc(-c3c4nc(c(-c5c(F)c(F)c(F)c(F)c5F)c5ccc([nH]5)c(-c5c(F)c(F)c(F)c(F)c5F)c5nc(c(-c6c(F)c(F)c(F)c(F)c6F)c6ccc3[nH]6)C=C5)C=C4)cc2)C1
REMARK SMILES IDX 14 1 13 2 11 3 12 4 9 5 6 6 1 7 2 8 3 9 82 10 4 11 5 12 7 13
REMARK SMILES IDX 8 14 10 15 15 17 16 18 17 19 18 20 19 21 20 22 81 23 21 24
REMARK SMILES IDX 80 25 22 26 23 27 24 28 74 29 25 30 79 31 73 32 75 33 26 34
REMARK SMILES IDX 78 35 72 36 71 37 27 39 59 40 39 41 58 42 40 43 43 44 57 45
REMARK SMILES IDX 76 46 41 47 42 48 56 50 77 51 44 52 28 53 29 54 37 55 30 56
REMARK SMILES IDX 31 57 35 58 38 59 32 60 33 61 36 62 34 63 60 64 61 65 69 66
REMARK SMILES IDX 62 67 63 68 67 69 70 70 64 71 65 72 68 73 66 74 45 75 46 76
REMARK SMILES IDX 54 77 47 78 48 79 52 80 55 81 49 82 50 83 53 84 51 85
REMARK H PARENT 10 16 75 38 43 49
REMARK Flexibility Score: inf
ROOT
ATOM      1  C   UNL A   1      35.311  20.801  25.357  1.00  0.00     0.274 C 
ENDROOT
BRANCH   1   2
ATOM      2  O   UNL A   1      34.973  21.830  26.309  1.00  0.00    -0.460 OA
BRANCH   2   3
ATOM      3  C   UNL A   1      33.708  21.801  26.811  1.00  0.00     0.336 C 
ATOM      4  O   UNL A   1      33.425  21.795  28.001  1.00  0.00    -0.249 OA
BRANCH   3   5
ATOM      5  C   UNL A   1      32.655  21.884  25.685  1.00  0.00     0.244 C 
BRANCH   5   6
ATOM      6  C   UNL A   1      31.982  23.271  25.534  1.00  0.00     0.094 C 
ATOM      7  C   UNL A   1      33.227  22.968  22.360  1.00  0.00     0.008 C 
ATOM      8  C   UNL A   1      32.401  24.061  23.043  1.00  0.00    -0.013 C 
ATOM      9  C   UNL A   1      33.282  25.192  23.580  1.00  0.00     0.003 C 
ATOM     10  C   UNL A   1      31.421  23.557  24.117  1.00  0.00     0.029 C 
ATOM     11  C   UNL A   1      33.966  24.841  24.894  1.00  0.00     0.002 C 
ATOM     12  C   UNL A   1      32.961  24.406  25.959  1.00  0.00     0.026 C 
BRANCH   6  13
ATOM     13  C   UNL A   1      30.845  23.300  26.499  1.00  0.00     0.072 C 
ATOM     14  N   UNL A   1      29.966  23.328  27.251  1.00  0.00    -0.198 NA
ENDBRANCH   6  13
ENDBRANCH   5   6
BRANCH   5  15
ATOM     15  O   UNL A   1      31.704  20.828  25.703  1.00  0.00    -0.380 OA
ATOM     16  H   UNL A   1      31.385  20.664  24.803  1.00  0.00     0.211 HD
ENDBRANCH   5  15
ENDBRANCH   3   5
ENDBRANCH   2   3
ENDBRANCH   1   2
BRANCH   1  17
ATOM     17  C   UNL A   1      36.817  20.787  25.060  1.00  0.00     0.275 C 
BRANCH  17  18
ATOM     18  O   UNL A   1      37.515  21.863  25.719  1.00  0.00    -0.458 OA
BRANCH  18  19
ATOM     19  C   UNL A   1      38.768  21.552  26.126  1.00  0.00     0.338 C 
ATOM     20  O   UNL A   1      39.359  20.499  25.932  1.00  0.00    -0.246 OA
BRANCH  19  21
ATOM     21  C   UNL A   1      39.453  22.738  26.660  1.00  0.00     0.060 A 
ATOM     22  C   UNL A   1      39.081  23.974  26.125  1.00  0.00     0.016 A 
ATOM     23  C   UNL A   1      40.494  22.660  27.584  1.00  0.00     0.016 A 
ATOM     24  C   UNL A   1      39.736  25.135  26.493  1.00  0.00     0.010 A 
ATOM     25  C   UNL A   1      41.158  23.835  27.962  1.00  0.00     0.010 A 
ATOM     26  C   UNL A   1      40.784  25.075  27.412  1.00  0.00    -0.014 A 
BRANCH  26  27
ATOM     27  C   UNL A   1      41.513  26.322  27.725  1.00  0.00     0.031 A 
ATOM     28  C   UNL A   1      40.846  27.383  28.545  1.00  0.00     0.074 A 
ATOM     29  C   UNL A   1      42.794  26.457  27.337  1.00  0.00     0.049 A 
ATOM     30  N   UNL A   1      41.269  28.580  28.854  1.00  0.00    -0.248 NA
ATOM     31  C   UNL A   1      39.521  27.051  29.094  1.00  0.00     0.031 C 
ATOM     32  C   UNL A   1      43.567  25.446  26.615  1.00  0.00     0.029 A 
ATOM     33  N   UNL A   1      43.672  27.497  27.502  1.00  0.00    -0.354 N 
ATOM     34  C   UNL A   1      40.252  29.159  29.600  1.00  0.00     0.074 A 
ATOM     35  C   UNL A   1      39.188  28.183  29.697  1.00  0.00     0.031 C 
ATOM     36  C   UNL A   1      44.806  25.916  26.397  1.00  0.00     0.029 A 
ATOM     37  C   UNL A   1      44.890  27.281  26.907  1.00  0.00     0.049 A 
ATOM     38  H   UNL A   1      43.451  28.319  27.999  1.00  0.00     0.167 HD
ATOM     39  C   UNL A   1      40.217  30.396  30.145  1.00  0.00     0.037 A 
ATOM     40  C   UNL A   1      45.939  28.111  26.752  1.00  0.00     0.037 A 
ATOM     41  C   UNL A   1      41.299  31.343  30.061  1.00  0.00     0.049 A 
ATOM     42  C   UNL A   1      45.848  29.503  27.314  1.00  0.00     0.074 A 
ATOM     43  C   UNL A   1      41.371  32.621  30.584  1.00  0.00     0.029 A 
ATOM     44  N   UNL A   1      42.504  31.107  29.412  1.00  0.00    -0.354 N 
ATOM     45  N   UNL A   1      44.870  30.062  27.984  1.00  0.00    -0.248 NA
ATOM     46  C   UNL A   1      47.002  30.384  27.088  1.00  0.00     0.031 C 
ATOM     47  C   UNL A   1      42.598  33.178  30.208  1.00  0.00     0.029 A 
ATOM     48  C   UNL A   1      43.315  32.226  29.500  1.00  0.00     0.049 A 
ATOM     49  H   UNL A   1      42.745  30.269  28.956  1.00  0.00     0.167 HD
ATOM     50  C   UNL A   1      45.296  31.350  28.280  1.00  0.00     0.074 A 
ATOM     51  C   UNL A   1      46.628  31.483  27.728  1.00  0.00     0.031 C 
ATOM     52  C   UNL A   1      44.641  32.334  28.945  1.00  0.00     0.037 A 
BRANCH  39  53
ATOM     53  C   UNL A   1      38.953  30.818  30.834  1.00  0.00     0.064 A 
ATOM     54  C   UNL A   1      38.770  30.670  32.216  1.00  0.00     0.173 A 
ATOM     55  C   UNL A   1      37.915  31.407  30.095  1.00  0.00     0.173 A 
ATOM     56  F   UNL A   1      39.723  30.096  32.966  1.00  0.00    -0.203 F 
ATOM     57  C   UNL A   1      37.587  31.077  32.829  1.00  0.00     0.198 A 
ATOM     58  C   UNL A   1      36.745  31.839  30.715  1.00  0.00     0.198 A 
ATOM     59  F   UNL A   1      38.038  31.573  28.769  1.00  0.00    -0.203 F 
ATOM     60  F   UNL A   1      37.415  30.884  34.145  1.00  0.00    -0.200 F 
ATOM     61  C   UNL A   1      36.580  31.667  32.080  1.00  0.00     0.200 A 
ATOM     62  F   UNL A   1      35.779  32.419  29.990  1.00  0.00    -0.200 F 
ATOM     63  F   UNL A   1      35.445  32.064  32.673  1.00  0.00    -0.200 F 
ENDBRANCH  39  53
BRANCH  40  64
ATOM     64  C   UNL A   1      47.137  27.657  25.998  1.00  0.00     0.064 A 
ATOM     65  C   UNL A   1      48.261  27.146  26.661  1.00  0.00     0.173 A 
ATOM     66  C   UNL A   1      47.178  27.723  24.597  1.00  0.00     0.173 A 
ATOM     67  F   UNL A   1      48.280  27.087  27.999  1.00  0.00    -0.203 F 
ATOM     68  C   UNL A   1      49.386  26.730  25.950  1.00  0.00     0.198 A 
ATOM     69  C   UNL A   1      48.290  27.277  23.886  1.00  0.00     0.198 A 
ATOM     70  F   UNL A   1      46.129  28.206  23.915  1.00  0.00    -0.203 F 
ATOM     71  F   UNL A   1      50.464  26.285  26.609  1.00  0.00    -0.200 F 
ATOM     72  C   UNL A   1      49.395  26.787  24.564  1.00  0.00     0.200 A 
ATOM     73  F   UNL A   1      48.290  27.323  22.547  1.00  0.00    -0.200 F 
ATOM     74  F   UNL A   1      50.475  26.381  23.882  1.00  0.00    -0.200 F 
ENDBRANCH  40  64
BRANCH  52  75
ATOM     75  C   UNL A   1      45.374  33.629  29.142  1.00  0.00     0.064 A 
ATOM     76  C   UNL A   1      45.252  34.689  28.232  1.00  0.00     0.173 A 
ATOM     77  C   UNL A   1      46.173  33.824  30.278  1.00  0.00     0.173 A 
ATOM     78  F   UNL A   1      44.511  34.546  27.123  1.00  0.00    -0.203 F 
ATOM     79  C   UNL A   1      45.925  35.889  28.441  1.00  0.00     0.198 A 
ATOM     80  C   UNL A   1      46.819  35.036  30.500  1.00  0.00     0.198 A 
ATOM     81  F   UNL A   1      46.316  32.842  31.182  1.00  0.00    -0.203 F 
ATOM     82  F   UNL A   1      45.833  36.874  27.535  1.00  0.00    -0.200 F 
ATOM     83  C   UNL A   1      46.701  36.065  29.577  1.00  0.00     0.200 A 
ATOM     84  F   UNL A   1      47.556  35.209  31.605  1.00  0.00    -0.200 F 
ATOM     85  F   UNL A   1      47.341  37.224  29.781  1.00  0.00    -0.200 F 
ENDBRANCH  52  75
ENDBRANCH  26  27
ENDBRANCH  19  21
ENDBRANCH  18  19
ENDBRANCH  17  18
ENDBRANCH   1  17
TORSDOF 14
ENDMDL
