MODEL 1
REMARK VINA RESULT:     -11.9      0.000      0.000
REMARK SMILES O=C(OCCOC(=O)[C@H]1C=C[C@@H](NC(=O)c2ccc(Cl)cn2)C1)c1ccc(-c2c3nc(c(-c4c(F)c(F)c(F)c(F)c4F)c4ccc([nH]4)c(-c4c(F)c(F)c(F)c(F)c4F)c4nc(c(-c5c(F)c(F)c(F)c(F)c5F)c5ccc2[nH]5)C=C4)C=C3)cc1
REMARK SMILES IDX 4 1 3 2 2 3 1 4 24 5 25 6 86 7 26 8 85 9 27 10 28 11 29 12
REMARK SMILES IDX 79 13 30 14 84 15 78 16 80 17 31 18 83 19 77 20 76 21 32 23
REMARK SMILES IDX 64 24 44 25 63 26 45 27 48 28 62 29 81 30 46 31 47 32 61 34
REMARK SMILES IDX 82 35 49 36 33 37 34 38 42 39 35 40 36 41 40 42 43 43 37 44
REMARK SMILES IDX 38 45 41 46 39 47 65 48 66 49 74 50 67 51 68 52 72 53 75 54
REMARK SMILES IDX 69 55 70 56 73 57 71 58 50 59 51 60 59 61 52 62 53 63 57 64
REMARK SMILES IDX 60 65 54 66 55 67 58 68 56 69 5 70 6 71 7 72 8 73 9 74 10 75
REMARK SMILES IDX 23 76 11 77 12 78 13 79 14 80 15 82 16 83 17 84 22 85 18 86
REMARK SMILES IDX 21 87 19 88 20 89
REMARK H PARENT 80 22 48 33 13 81
REMARK Flexibility Score: inf
ROOT
ATOM      1  C   UNL A   1      31.832  32.460  27.190  1.00  0.00     0.275 C 
ENDROOT
BRANCH   1   2
ATOM      2  O   UNL A   1      32.290  33.815  27.300  1.00  0.00    -0.458 OA
BRANCH   2   3
ATOM      3  C   UNL A   1      32.906  34.418  28.342  1.00  0.00     0.338 C 
ATOM      4  O   UNL A   1      32.487  35.501  28.745  1.00  0.00    -0.246 OA
BRANCH   3   5
ATOM      5  C   UNL A   1      34.191  33.914  28.914  1.00  0.00     0.060 A 
ATOM      6  C   UNL A   1      35.475  34.231  28.465  1.00  0.00     0.016 A 
ATOM      7  C   UNL A   1      34.070  33.037  30.003  1.00  0.00     0.016 A 
ATOM      8  C   UNL A   1      36.610  33.780  29.145  1.00  0.00     0.010 A 
ATOM      9  C   UNL A   1      35.197  32.597  30.697  1.00  0.00     0.010 A 
ATOM     10  C   UNL A   1      36.478  32.974  30.274  1.00  0.00    -0.014 A 
BRANCH  10  11
ATOM     11  C   UNL A   1      37.667  32.400  30.939  1.00  0.00     0.031 A 
ATOM     12  C   UNL A   1      38.302  31.188  30.322  1.00  0.00     0.074 A 
ATOM     13  C   UNL A   1      38.139  32.922  32.088  1.00  0.00     0.049 A 
ATOM     14  N   UNL A   1      39.285  30.450  30.762  1.00  0.00    -0.248 NA
ATOM     15  C   UNL A   1      37.762  30.759  29.019  1.00  0.00     0.031 C 
ATOM     16  C   UNL A   1      37.649  34.136  32.743  1.00  0.00     0.029 A 
ATOM     17  N   UNL A   1      39.091  32.447  32.952  1.00  0.00    -0.354 N 
ATOM     18  C   UNL A   1      39.510  29.507  29.770  1.00  0.00     0.074 A 
ATOM     19  C   UNL A   1      38.484  29.681  28.767  1.00  0.00     0.031 C 
ATOM     20  C   UNL A   1      38.200  34.232  33.965  1.00  0.00     0.029 A 
ATOM     21  C   UNL A   1      39.113  33.113  34.157  1.00  0.00     0.049 A 
ATOM     22  H   UNL A   1      39.697  31.703  32.734  1.00  0.00     0.167 HD
ATOM     23  C   UNL A   1      40.535  28.630  29.668  1.00  0.00     0.037 A 
ATOM     24  C   UNL A   1      39.788  32.826  35.285  1.00  0.00     0.037 A 
ATOM     25  C   UNL A   1      41.538  28.470  30.682  1.00  0.00     0.049 A 
ATOM     26  C   UNL A   1      40.789  31.702  35.243  1.00  0.00     0.074 A 
ATOM     27  C   UNL A   1      42.656  27.659  30.681  1.00  0.00     0.029 A 
ATOM     28  N   UNL A   1      41.523  29.137  31.901  1.00  0.00    -0.354 N 
ATOM     29  N   UNL A   1      41.088  30.896  34.253  1.00  0.00    -0.248 NA
ATOM     30  C   UNL A   1      41.600  31.496  36.450  1.00  0.00     0.031 C 
ATOM     31  C   UNL A   1      43.295  27.805  31.917  1.00  0.00     0.029 A 
ATOM     32  C   UNL A   1      42.600  28.739  32.672  1.00  0.00     0.049 A 
ATOM     33  H   UNL A   1      40.845  29.797  32.176  1.00  0.00     0.167 HD
ATOM     34  C   UNL A   1      42.173  30.146  34.682  1.00  0.00     0.074 A 
ATOM     35  C   UNL A   1      42.460  30.574  36.038  1.00  0.00     0.031 C 
ATOM     36  C   UNL A   1      42.887  29.215  34.003  1.00  0.00     0.037 A 
BRANCH  23  37
ATOM     37  C   UNL A   1      40.609  27.829  28.401  1.00  0.00     0.064 A 
ATOM     38  C   UNL A   1      40.014  26.558  28.312  1.00  0.00     0.173 A 
ATOM     39  C   UNL A   1      41.322  28.298  27.291  1.00  0.00     0.173 A 
ATOM     40  F   UNL A   1      39.334  26.056  29.354  1.00  0.00    -0.203 F 
ATOM     41  C   UNL A   1      40.184  25.763  27.182  1.00  0.00     0.198 A 
ATOM     42  C   UNL A   1      41.461  27.512  26.147  1.00  0.00     0.198 A 
ATOM     43  F   UNL A   1      41.907  29.504  27.319  1.00  0.00    -0.203 F 
ATOM     44  F   UNL A   1      39.679  24.521  27.157  1.00  0.00    -0.200 F 
ATOM     45  C   UNL A   1      40.907  26.241  26.102  1.00  0.00     0.200 A 
ATOM     46  F   UNL A   1      42.156  27.974  25.099  1.00  0.00    -0.200 F 
ATOM     47  F   UNL A   1      41.087  25.468  25.021  1.00  0.00    -0.200 F 
ENDBRANCH  23  37
BRANCH  24  48
ATOM     48  C   UNL A   1      39.608  33.644  36.513  1.00  0.00     0.064 A 
ATOM     49  C   UNL A   1      38.715  33.246  37.517  1.00  0.00     0.173 A 
ATOM     50  C   UNL A   1      40.290  34.857  36.698  1.00  0.00     0.173 A 
ATOM     51  F   UNL A   1      38.022  32.107  37.381  1.00  0.00    -0.203 F 
ATOM     52  C   UNL A   1      38.494  34.039  38.643  1.00  0.00     0.198 A 
ATOM     53  C   UNL A   1      40.082  35.641  37.833  1.00  0.00     0.198 A 
ATOM     54  F   UNL A   1      41.145  35.295  35.768  1.00  0.00    -0.203 F 
ATOM     55  F   UNL A   1      37.601  33.653  39.565  1.00  0.00    -0.200 F 
ATOM     56  C   UNL A   1      39.177  35.234  38.800  1.00  0.00     0.200 A 
ATOM     57  F   UNL A   1      40.744  36.797  37.982  1.00  0.00    -0.200 F 
ATOM     58  F   UNL A   1      38.956  35.999  39.879  1.00  0.00    -0.200 F 
ENDBRANCH  24  48
BRANCH  36  59
ATOM     59  C   UNL A   1      44.114  28.674  34.671  1.00  0.00     0.064 A 
ATOM     60  C   UNL A   1      44.091  27.491  35.421  1.00  0.00     0.173 A 
ATOM     61  C   UNL A   1      45.345  29.327  34.503  1.00  0.00     0.173 A 
ATOM     62  F   UNL A   1      42.936  26.842  35.627  1.00  0.00    -0.203 F 
ATOM     63  C   UNL A   1      45.257  26.989  35.992  1.00  0.00     0.198 A 
ATOM     64  C   UNL A   1      46.513  28.805  35.046  1.00  0.00     0.198 A 
ATOM     65  F   UNL A   1      45.417  30.462  33.790  1.00  0.00    -0.203 F 
ATOM     66  F   UNL A   1      45.209  25.878  36.740  1.00  0.00    -0.200 F 
ATOM     67  C   UNL A   1      46.468  27.639  35.794  1.00  0.00     0.200 A 
ATOM     68  F   UNL A   1      47.682  29.426  34.840  1.00  0.00    -0.200 F 
ATOM     69  F   UNL A   1      47.592  27.143  36.329  1.00  0.00    -0.200 F 
ENDBRANCH  36  59
ENDBRANCH  10  11
ENDBRANCH   3   5
ENDBRANCH   2   3
ENDBRANCH   1   2
BRANCH   1  70
ATOM     70  C   UNL A   1      32.931  31.391  27.125  1.00  0.00     0.274 C 
BRANCH  70  71
ATOM     71  O   UNL A   1      32.529  30.063  27.506  1.00  0.00    -0.462 OA
BRANCH  71  72
ATOM     72  C   UNL A   1      33.446  29.097  27.221  1.00  0.00     0.312 C 
ATOM     73  O   UNL A   1      34.618  29.142  27.584  1.00  0.00    -0.252 OA
BRANCH  72  74
ATOM     74  C   UNL A   1      32.902  27.916  26.428  1.00  0.00     0.124 C 
ATOM     75  C   UNL A   1      31.600  28.206  25.742  1.00  0.00    -0.014 C 
ATOM     76  C   UNL A   1      33.735  27.338  25.277  1.00  0.00     0.048 C 
ATOM     77  C   UNL A   1      31.486  27.483  24.619  1.00  0.00    -0.006 C 
ATOM     78  C   UNL A   1      32.688  26.615  24.414  1.00  0.00     0.106 C 
BRANCH  78  79
ATOM     79  N   UNL A   1      32.976  26.557  23.004  1.00  0.00    -0.344 N 
ATOM     80  C   UNL A   1      33.303  25.438  22.270  1.00  0.00     0.270 C 
ATOM     81  H   UNL A   1      32.935  27.409  22.512  1.00  0.00     0.164 HD
ATOM     82  O   UNL A   1      33.332  25.466  21.042  1.00  0.00    -0.267 OA
BRANCH  80  83
ATOM     83  C   UNL A   1      33.526  24.162  22.988  1.00  0.00     0.128 A 
ATOM     84  C   UNL A   1      34.797  23.903  23.487  1.00  0.00     0.036 A 
ATOM     85  N   UNL A   1      32.493  23.281  23.024  1.00  0.00    -0.250 NA
ATOM     86  C   UNL A   1      35.035  22.656  24.056  1.00  0.00     0.024 A 
ATOM     87  C   UNL A   1      32.749  22.095  23.625  1.00  0.00     0.132 A 
ATOM     88  C   UNL A   1      33.992  21.737  24.133  1.00  0.00     0.059 A 
ATOM     89  Cl  UNL A   1      34.250  20.188  24.824  1.00  0.00    -0.083 Cl
ENDBRANCH  80  83
ENDBRANCH  78  79
ENDBRANCH  72  74
ENDBRANCH  71  72
ENDBRANCH  70  71
ENDBRANCH   1  70
TORSDOF 13
ENDMDL
MODEL 2
REMARK VINA RESULT:     -11.9      0.380      1.717
REMARK SMILES O=C(OCCOC(=O)[C@H]1C=C[C@@H](NC(=O)c2ccc(Cl)cn2)C1)c1ccc(-c2c3nc(c(-c4c(F)c(F)c(F)c(F)c4F)c4ccc([nH]4)c(-c4c(F)c(F)c(F)c(F)c4F)c4nc(c(-c5c(F)c(F)c(F)c(F)c5F)c5ccc2[nH]5)C=C4)C=C3)cc1
REMARK SMILES IDX 4 1 3 2 2 3 1 4 24 5 25 6 86 7 26 8 85 9 27 10 28 11 29 12
REMARK SMILES IDX 79 13 30 14 84 15 78 16 80 17 31 18 83 19 77 20 76 21 32 23
REMARK SMILES IDX 64 24 44 25 63 26 45 27 48 28 62 29 81 30 46 31 47 32 61 34
REMARK SMILES IDX 82 35 49 36 33 37 34 38 42 39 35 40 36 41 40 42 43 43 37 44
REMARK SMILES IDX 38 45 41 46 39 47 65 48 66 49 74 50 67 51 68 52 72 53 75 54
REMARK SMILES IDX 69 55 70 56 73 57 71 58 50 59 51 60 59 61 52 62 53 63 57 64
REMARK SMILES IDX 60 65 54 66 55 67 58 68 56 69 5 70 6 71 7 72 8 73 9 74 10 75
REMARK SMILES IDX 23 76 11 77 12 78 13 79 14 80 15 82 16 83 17 84 22 85 18 86
REMARK SMILES IDX 21 87 19 88 20 89
REMARK H PARENT 80 22 48 33 13 81
REMARK Flexibility Score: inf
ROOT
ATOM      1  C   UNL A   1      31.743  32.279  27.244  1.00  0.00     0.275 C 
ENDROOT
BRANCH   1   2
ATOM      2  O   UNL A   1      32.312  33.595  27.257  1.00  0.00    -0.458 OA
BRANCH   2   3
ATOM      3  C   UNL A   1      32.935  34.238  28.271  1.00  0.00     0.338 C 
ATOM      4  O   UNL A   1      32.527  35.341  28.628  1.00  0.00    -0.246 OA
BRANCH   3   5
ATOM      5  C   UNL A   1      34.217  33.748  28.862  1.00  0.00     0.060 A 
ATOM      6  C   UNL A   1      35.503  34.151  28.494  1.00  0.00     0.016 A 
ATOM      7  C   UNL A   1      34.092  32.789  29.879  1.00  0.00     0.016 A 
ATOM      8  C   UNL A   1      36.628  33.700  29.190  1.00  0.00     0.010 A 
ATOM      9  C   UNL A   1      35.208  32.349  30.589  1.00  0.00     0.010 A 
ATOM     10  C   UNL A   1      36.486  32.809  30.251  1.00  0.00    -0.014 A 
BRANCH  10  11
ATOM     11  C   UNL A   1      37.672  32.238  30.927  1.00  0.00     0.031 A 
ATOM     12  C   UNL A   1      38.318  31.031  30.313  1.00  0.00     0.074 A 
ATOM     13  C   UNL A   1      38.131  32.761  32.080  1.00  0.00     0.049 A 
ATOM     14  N   UNL A   1      39.299  30.296  30.760  1.00  0.00    -0.248 NA
ATOM     15  C   UNL A   1      37.791  30.602  29.004  1.00  0.00     0.031 C 
ATOM     16  C   UNL A   1      37.631  33.971  32.734  1.00  0.00     0.029 A 
ATOM     17  N   UNL A   1      39.077  32.287  32.952  1.00  0.00    -0.354 N 
ATOM     18  C   UNL A   1      39.537  29.356  29.768  1.00  0.00     0.074 A 
ATOM     19  C   UNL A   1      38.520  29.527  28.757  1.00  0.00     0.031 C 
ATOM     20  C   UNL A   1      38.171  34.068  33.960  1.00  0.00     0.029 A 
ATOM     21  C   UNL A   1      39.087  32.952  34.158  1.00  0.00     0.049 A 
ATOM     22  H   UNL A   1      39.689  31.547  32.738  1.00  0.00     0.167 HD
ATOM     23  C   UNL A   1      40.567  28.483  29.674  1.00  0.00     0.037 A 
ATOM     24  C   UNL A   1      39.753  32.666  35.292  1.00  0.00     0.037 A 
ATOM     25  C   UNL A   1      41.561  28.325  30.697  1.00  0.00     0.049 A 
ATOM     26  C   UNL A   1      40.758  31.545  35.257  1.00  0.00     0.074 A 
ATOM     27  C   UNL A   1      42.683  27.519  30.704  1.00  0.00     0.029 A 
ATOM     28  N   UNL A   1      41.533  28.990  31.917  1.00  0.00    -0.354 N 
ATOM     29  N   UNL A   1      41.070  30.743  34.267  1.00  0.00    -0.248 NA
ATOM     30  C   UNL A   1      41.560  31.341  36.470  1.00  0.00     0.031 C 
ATOM     31  C   UNL A   1      43.311  27.665  31.946  1.00  0.00     0.029 A 
ATOM     32  C   UNL A   1      42.605  28.595  32.697  1.00  0.00     0.049 A 
ATOM     33  H   UNL A   1      40.850  29.646  32.186  1.00  0.00     0.167 HD
ATOM     34  C   UNL A   1      42.154  29.996  34.705  1.00  0.00     0.074 A 
ATOM     35  C   UNL A   1      42.427  30.423  36.064  1.00  0.00     0.031 C 
ATOM     36  C   UNL A   1      42.878  29.070  34.031  1.00  0.00     0.037 A 
BRANCH  23  37
ATOM     37  C   UNL A   1      40.656  27.685  28.406  1.00  0.00     0.064 A 
ATOM     38  C   UNL A   1      40.040  26.425  28.299  1.00  0.00     0.173 A 
ATOM     39  C   UNL A   1      41.402  28.144  27.314  1.00  0.00     0.173 A 
ATOM     40  F   UNL A   1      39.328  25.932  29.324  1.00  0.00    -0.203 F 
ATOM     41  C   UNL A   1      40.221  25.631  27.170  1.00  0.00     0.198 A 
ATOM     42  C   UNL A   1      41.553  27.359  26.172  1.00  0.00     0.198 A 
ATOM     43  F   UNL A   1      42.008  29.340  27.360  1.00  0.00    -0.203 F 
ATOM     44  F   UNL A   1      39.695  24.398  27.130  1.00  0.00    -0.200 F 
ATOM     45  C   UNL A   1      40.978  26.099  26.109  1.00  0.00     0.200 A 
ATOM     46  F   UNL A   1      42.280  27.812  25.141  1.00  0.00    -0.200 F 
ATOM     47  F   UNL A   1      41.168  25.326  25.030  1.00  0.00    -0.200 F 
ENDBRANCH  23  37
BRANCH  24  48
ATOM     48  C   UNL A   1      39.558  33.481  36.520  1.00  0.00     0.064 A 
ATOM     49  C   UNL A   1      40.293  34.656  36.726  1.00  0.00     0.173 A 
ATOM     50  C   UNL A   1      38.668  33.089  37.531  1.00  0.00     0.173 A 
ATOM     51  F   UNL A   1      41.173  35.064  35.801  1.00  0.00    -0.203 F 
ATOM     52  C   UNL A   1      40.162  35.393  37.903  1.00  0.00     0.198 A 
ATOM     53  C   UNL A   1      38.525  33.835  38.701  1.00  0.00     0.198 A 
ATOM     54  F   UNL A   1      37.950  31.969  37.398  1.00  0.00    -0.203 F 
ATOM     55  F   UNL A   1      40.911  36.489  38.090  1.00  0.00    -0.200 F 
ATOM     56  C   UNL A   1      39.279  34.983  38.888  1.00  0.00     0.200 A 
ATOM     57  F   UNL A   1      37.669  33.437  39.653  1.00  0.00    -0.200 F 
ATOM     58  F   UNL A   1      39.161  35.687  40.023  1.00  0.00    -0.200 F 
ENDBRANCH  24  48
BRANCH  36  59
ATOM     59  C   UNL A   1      44.101  28.532  34.709  1.00  0.00     0.064 A 
ATOM     60  C   UNL A   1      45.340  29.182  34.631  1.00  0.00     0.173 A 
ATOM     61  C   UNL A   1      44.009  27.375  35.498  1.00  0.00     0.173 A 
ATOM     62  F   UNL A   1      45.482  30.279  33.874  1.00  0.00    -0.203 F 
ATOM     63  C   UNL A   1      46.448  28.683  35.310  1.00  0.00     0.198 A 
ATOM     64  C   UNL A   1      45.109  26.898  36.201  1.00  0.00     0.198 A 
ATOM     65  F   UNL A   1      42.842  26.720  35.605  1.00  0.00    -0.203 F 
ATOM     66  F   UNL A   1      47.634  29.294  35.192  1.00  0.00    -0.200 F 
ATOM     67  C   UNL A   1      46.329  27.549  36.103  1.00  0.00     0.200 A 
ATOM     68  F   UNL A   1      44.987  25.813  36.979  1.00  0.00    -0.200 F 
ATOM     69  F   UNL A   1      47.393  27.082  36.770  1.00  0.00    -0.200 F 
ENDBRANCH  36  59
ENDBRANCH  10  11
ENDBRANCH   3   5
ENDBRANCH   2   3
ENDBRANCH   1   2
BRANCH   1  70
ATOM     70  C   UNL A   1      32.704  31.144  26.868  1.00  0.00     0.274 C 
BRANCH  70  71
ATOM     71  O   UNL A   1      32.284  29.821  27.253  1.00  0.00    -0.462 OA
BRANCH  71  72
ATOM     72  C   UNL A   1      33.229  28.859  27.066  1.00  0.00     0.312 C 
ATOM     73  O   UNL A   1      34.364  28.918  27.531  1.00  0.00    -0.252 OA
BRANCH  72  74
ATOM     74  C   UNL A   1      32.765  27.660  26.249  1.00  0.00     0.124 C 
ATOM     75  C   UNL A   1      31.431  27.865  25.594  1.00  0.00    -0.014 C 
ATOM     76  C   UNL A   1      33.618  27.184  25.067  1.00  0.00     0.048 C 
ATOM     77  C   UNL A   1      31.352  27.168  24.452  1.00  0.00    -0.006 C 
ATOM     78  C   UNL A   1      32.614  26.404  24.200  1.00  0.00     0.106 C 
BRANCH  78  79
ATOM     79  N   UNL A   1      32.878  26.409  22.785  1.00  0.00    -0.344 N 
ATOM     80  C   UNL A   1      33.266  25.338  22.010  1.00  0.00     0.270 C 
ATOM     81  H   UNL A   1      32.769  27.271  22.321  1.00  0.00     0.164 HD
ATOM     82  O   UNL A   1      33.269  25.405  20.784  1.00  0.00    -0.267 OA
BRANCH  80  83
ATOM     83  C   UNL A   1      33.590  24.059  22.684  1.00  0.00     0.128 A 
ATOM     84  C   UNL A   1      32.564  23.144  22.885  1.00  0.00     0.036 A 
ATOM     85  N   UNL A   1      34.856  23.909  23.153  1.00  0.00    -0.250 NA
ATOM     86  C   UNL A   1      32.845  21.998  23.622  1.00  0.00     0.024 A 
ATOM     87  C   UNL A   1      35.104  22.761  23.826  1.00  0.00     0.132 A 
ATOM     88  C   UNL A   1      34.138  21.798  24.096  1.00  0.00     0.059 A 
ATOM     89  Cl  UNL A   1      34.521  20.399  25.012  1.00  0.00    -0.083 Cl
ENDBRANCH  80  83
ENDBRANCH  78  79
ENDBRANCH  72  74
ENDBRANCH  71  72
ENDBRANCH  70  71
ENDBRANCH   1  70
TORSDOF 13
ENDMDL
MODEL 3
REMARK VINA RESULT:     -11.9      0.448      1.732
REMARK SMILES O=C(OCCOC(=O)[C@H]1C=C[C@@H](NC(=O)c2ccc(Cl)cn2)C1)c1ccc(-c2c3nc(c(-c4c(F)c(F)c(F)c(F)c4F)c4ccc([nH]4)c(-c4c(F)c(F)c(F)c(F)c4F)c4nc(c(-c5c(F)c(F)c(F)c(F)c5F)c5ccc2[nH]5)C=C4)C=C3)cc1
REMARK SMILES IDX 4 1 3 2 2 3 1 4 24 5 25 6 86 7 26 8 85 9 27 10 28 11 29 12
REMARK SMILES IDX 79 13 30 14 84 15 78 16 80 17 31 18 83 19 77 20 76 21 32 23
REMARK SMILES IDX 64 24 44 25 63 26 45 27 48 28 62 29 81 30 46 31 47 32 61 34
REMARK SMILES IDX 82 35 49 36 33 37 34 38 42 39 35 40 36 41 40 42 43 43 37 44
REMARK SMILES IDX 38 45 41 46 39 47 65 48 66 49 74 50 67 51 68 52 72 53 75 54
REMARK SMILES IDX 69 55 70 56 73 57 71 58 50 59 51 60 59 61 52 62 53 63 57 64
REMARK SMILES IDX 60 65 54 66 55 67 58 68 56 69 5 70 6 71 7 72 8 73 9 74 10 75
REMARK SMILES IDX 23 76 11 77 12 78 13 79 14 80 15 82 16 83 17 84 22 85 18 86
REMARK SMILES IDX 21 87 19 88 20 89
REMARK H PARENT 80 22 48 33 13 81
REMARK Flexibility Score: inf
ROOT
ATOM      1  C   UNL A   1      31.838  32.377  27.259  1.00  0.00     0.275 C 
ENDROOT
BRANCH   1   2
ATOM      2  O   UNL A   1      32.386  33.702  27.314  1.00  0.00    -0.458 OA
BRANCH   2   3
ATOM      3  C   UNL A   1      32.967  34.333  28.359  1.00  0.00     0.338 C 
ATOM      4  O   UNL A   1      32.518  35.413  28.737  1.00  0.00    -0.246 OA
BRANCH   3   5
ATOM      5  C   UNL A   1      34.250  33.865  28.964  1.00  0.00     0.060 A 
ATOM      6  C   UNL A   1      35.537  34.210  28.543  1.00  0.00     0.016 A 
ATOM      7  C   UNL A   1      34.126  32.995  30.058  1.00  0.00     0.016 A 
ATOM      8  C   UNL A   1      36.666  33.793  29.252  1.00  0.00     0.010 A 
ATOM      9  C   UNL A   1      35.247  32.589  30.781  1.00  0.00     0.010 A 
ATOM     10  C   UNL A   1      36.528  32.993  30.384  1.00  0.00    -0.014 A 
BRANCH  10  11
ATOM     11  C   UNL A   1      37.715  32.453  31.082  1.00  0.00     0.031 A 
ATOM     12  C   UNL A   1      38.364  31.224  30.517  1.00  0.00     0.074 A 
ATOM     13  C   UNL A   1      38.173  33.023  32.214  1.00  0.00     0.049 A 
ATOM     14  N   UNL A   1      39.348  30.510  30.994  1.00  0.00    -0.248 NA
ATOM     15  C   UNL A   1      37.839  30.741  29.227  1.00  0.00     0.031 C 
ATOM     16  C   UNL A   1      37.668  34.257  32.818  1.00  0.00     0.029 A 
ATOM     17  N   UNL A   1      39.120  32.588  33.104  1.00  0.00    -0.354 N 
ATOM     18  C   UNL A   1      39.588  29.532  30.041  1.00  0.00     0.074 A 
ATOM     19  C   UNL A   1      38.571  29.660  29.024  1.00  0.00     0.031 C 
ATOM     20  C   UNL A   1      38.208  34.405  34.040  1.00  0.00     0.029 A 
ATOM     21  C   UNL A   1      39.127  33.301  34.282  1.00  0.00     0.049 A 
ATOM     22  H   UNL A   1      39.733  31.841  32.920  1.00  0.00     0.167 HD
ATOM     23  C   UNL A   1      40.620  28.658  29.982  1.00  0.00     0.037 A 
ATOM     24  C   UNL A   1      39.794  33.062  35.427  1.00  0.00     0.037 A 
ATOM     25  C   UNL A   1      41.615  28.545  31.011  1.00  0.00     0.049 A 
ATOM     26  C   UNL A   1      40.802  31.944  35.437  1.00  0.00     0.074 A 
ATOM     27  C   UNL A   1      42.739  27.743  31.050  1.00  0.00     0.029 A 
ATOM     28  N   UNL A   1      41.585  29.258  32.203  1.00  0.00    -0.354 N 
ATOM     29  N   UNL A   1      41.117  31.103  34.481  1.00  0.00    -0.248 NA
ATOM     30  C   UNL A   1      41.604  31.792  36.658  1.00  0.00     0.031 C 
ATOM     31  C   UNL A   1      43.366  27.941  32.286  1.00  0.00     0.029 A 
ATOM     32  C   UNL A   1      42.657  28.898  32.998  1.00  0.00     0.049 A 
ATOM     33  H   UNL A   1      40.900  29.923  32.446  1.00  0.00     0.167 HD
ATOM     34  C   UNL A   1      42.202  30.378  34.948  1.00  0.00     0.074 A 
ATOM     35  C   UNL A   1      42.474  30.860  36.289  1.00  0.00     0.031 C 
ATOM     36  C   UNL A   1      42.929  29.427  34.312  1.00  0.00     0.037 A 
BRANCH  23  37
ATOM     37  C   UNL A   1      40.712  27.810  28.748  1.00  0.00     0.064 A 
ATOM     38  C   UNL A   1      41.470  28.226  27.639  1.00  0.00     0.173 A 
ATOM     39  C   UNL A   1      39.998  26.610  28.640  1.00  0.00     0.173 A 
ATOM     40  F   UNL A   1      42.159  29.377  27.684  1.00  0.00    -0.203 F 
ATOM     41  C   UNL A   1      41.460  27.502  26.450  1.00  0.00     0.198 A 
ATOM     42  C   UNL A   1      40.018  25.871  27.458  1.00  0.00     0.198 A 
ATOM     43  F   UNL A   1      39.260  26.165  29.668  1.00  0.00    -0.203 F 
ATOM     44  F   UNL A   1      42.123  27.966  25.380  1.00  0.00    -0.200 F 
ATOM     45  C   UNL A   1      40.733  26.326  26.361  1.00  0.00     0.200 A 
ATOM     46  F   UNL A   1      39.320  24.730  27.372  1.00  0.00    -0.200 F 
ATOM     47  F   UNL A   1      40.709  25.640  25.210  1.00  0.00    -0.200 F 
ENDBRANCH  23  37
BRANCH  24  48
ATOM     48  C   UNL A   1      39.597  33.926  36.621  1.00  0.00     0.064 A 
ATOM     49  C   UNL A   1      40.283  35.140  36.750  1.00  0.00     0.173 A 
ATOM     50  C   UNL A   1      38.754  33.543  37.676  1.00  0.00     0.173 A 
ATOM     51  F   UNL A   1      41.118  35.542  35.781  1.00  0.00    -0.203 F 
ATOM     52  C   UNL A   1      40.152  35.926  37.895  1.00  0.00     0.198 A 
ATOM     53  C   UNL A   1      38.609  34.338  38.813  1.00  0.00     0.198 A 
ATOM     54  F   UNL A   1      38.083  32.388  37.615  1.00  0.00    -0.203 F 
ATOM     55  F   UNL A   1      40.855  37.062  38.008  1.00  0.00    -0.200 F 
ATOM     56  C   UNL A   1      39.315  35.525  38.924  1.00  0.00     0.200 A 
ATOM     57  F   UNL A   1      37.799  33.949  39.807  1.00  0.00    -0.200 F 
ATOM     58  F   UNL A   1      39.198  36.277  40.028  1.00  0.00    -0.200 F 
ENDBRANCH  24  48
BRANCH  36  59
ATOM     59  C   UNL A   1      44.154  28.921  35.011  1.00  0.00     0.064 A 
ATOM     60  C   UNL A   1      44.128  27.780  35.823  1.00  0.00     0.173 A 
ATOM     61  C   UNL A   1      45.386  29.563  34.811  1.00  0.00     0.173 A 
ATOM     62  F   UNL A   1      42.971  27.144  36.060  1.00  0.00    -0.203 F 
ATOM     63  C   UNL A   1      45.292  27.308  36.422  1.00  0.00     0.198 A 
ATOM     64  C   UNL A   1      46.552  29.070  35.385  1.00  0.00     0.198 A 
ATOM     65  F   UNL A   1      45.461  30.659  34.039  1.00  0.00    -0.203 F 
ATOM     66  F   UNL A   1      45.241  26.238  37.229  1.00  0.00    -0.200 F 
ATOM     67  C   UNL A   1      46.504  27.945  36.194  1.00  0.00     0.200 A 
ATOM     68  F   UNL A   1      47.723  29.678  35.148  1.00  0.00    -0.200 F 
ATOM     69  F   UNL A   1      47.626  27.477  36.757  1.00  0.00    -0.200 F 
ENDBRANCH  36  59
ENDBRANCH  10  11
ENDBRANCH   3   5
ENDBRANCH   2   3
ENDBRANCH   1   2
BRANCH   1  70
ATOM     70  C   UNL A   1      32.857  31.243  27.088  1.00  0.00     0.274 C 
BRANCH  70  71
ATOM     71  O   UNL A   1      32.343  29.912  27.276  1.00  0.00    -0.462 OA
BRANCH  71  72
ATOM     72  C   UNL A   1      33.242  28.923  27.014  1.00  0.00     0.312 C 
ATOM     73  O   UNL A   1      34.396  28.922  27.433  1.00  0.00    -0.252 OA
BRANCH  72  74
ATOM     74  C   UNL A   1      32.699  27.776  26.173  1.00  0.00     0.124 C 
ATOM     75  C   UNL A   1      31.385  28.085  25.517  1.00  0.00    -0.014 C 
ATOM     76  C   UNL A   1      33.522  27.263  24.985  1.00  0.00     0.048 C 
ATOM     77  C   UNL A   1      31.263  27.416  24.362  1.00  0.00    -0.006 C 
ATOM     78  C   UNL A   1      32.471  26.572  24.100  1.00  0.00     0.106 C 
BRANCH  78  79
ATOM     79  N   UNL A   1      32.741  26.584  22.686  1.00  0.00    -0.344 N 
ATOM     80  C   UNL A   1      33.129  25.517  21.906  1.00  0.00     0.270 C 
ATOM     81  H   UNL A   1      32.636  27.449  22.227  1.00  0.00     0.164 HD
ATOM     82  O   UNL A   1      33.138  25.592  20.680  1.00  0.00    -0.267 OA
BRANCH  80  83
ATOM     83  C   UNL A   1      33.447  24.234  22.573  1.00  0.00     0.128 A 
ATOM     84  C   UNL A   1      32.405  23.349  22.826  1.00  0.00     0.036 A 
ATOM     85  N   UNL A   1      34.728  24.050  22.987  1.00  0.00    -0.250 NA
ATOM     86  C   UNL A   1      32.687  22.199  23.557  1.00  0.00     0.024 A 
ATOM     87  C   UNL A   1      34.972  22.899  23.657  1.00  0.00     0.132 A 
ATOM     88  C   UNL A   1      33.994  21.966  23.975  1.00  0.00     0.059 A 
ATOM     89  Cl  UNL A   1      34.377  20.560  24.882  1.00  0.00    -0.083 Cl
ENDBRANCH  80  83
ENDBRANCH  78  79
ENDBRANCH  72  74
ENDBRANCH  71  72
ENDBRANCH  70  71
ENDBRANCH   1  70
TORSDOF 13
ENDMDL
