MODEL 1
REMARK VINA RESULT:     -12.6      0.000      0.000
REMARK SMILES C/C(=N/N=c1\[nH]c(O)c(C(=O)OCCOC(=O)c2ccc(-c3c4nc(c(-c5c(F)c(F)c(F)c(F)c5F)c5ccc([nH]5)c(-c5c(F)c(F)c(F)c(F)c5F)c5nc(c(-c6c(F)c(F)c(F)c(F)c6F)c6ccc3[nH]6)C=C5)C=C4)cc2)s1)c1ccc2c(c1)OCO2
REMARK SMILES IDX 13 1 12 2 10 3 11 4 9 5 4 6 5 7 6 8 81 9 7 10 3 12 1 13 2 14
REMARK SMILES IDX 82 15 83 16 87 17 84 18 86 19 85 20 88 21 90 22 89 23 8 24
REMARK SMILES IDX 14 26 15 27 16 28 17 29 18 30 19 31 80 32 20 33 79 34 21 35
REMARK SMILES IDX 22 36 23 37 73 38 24 39 78 40 72 41 74 42 25 43 77 44 71 45
REMARK SMILES IDX 70 46 26 48 58 49 38 50 57 51 39 52 42 53 56 54 75 55 40 56
REMARK SMILES IDX 41 57 55 59 76 60 43 61 27 62 28 63 36 64 29 65 30 66 34 67
REMARK SMILES IDX 37 68 31 69 32 70 35 71 33 72 59 73 60 74 68 75 61 76 62 77
REMARK SMILES IDX 66 78 69 79 63 80 64 81 67 82 65 83 44 84 45 85 53 86 46 87
REMARK SMILES IDX 47 88 51 89 54 90 48 91 49 92 52 93 50 94
REMARK H PARENT 6 11 8 25 74 47 42 58
REMARK Flexibility Score: inf
ROOT
ATOM      1  C   UNL A   1      33.854  34.763  28.798  1.00  0.00     0.275 C 
ENDROOT
BRANCH   1   2
ATOM      2  O   UNL A   1      32.917  34.736  29.883  1.00  0.00    -0.458 OA
BRANCH   2   3
ATOM      3  C   UNL A   1      32.997  35.747  30.796  1.00  0.00     0.354 C 
ATOM      4  O   UNL A   1      32.527  36.858  30.652  1.00  0.00    -0.245 OA
BRANCH   3   5
ATOM      5  C   UNL A   1      33.662  35.257  32.025  1.00  0.00     0.176 A 
ATOM      6  N   UNL A   1      35.660  33.078  34.318  1.00  0.00    -0.121 NA
ATOM      7  C   UNL A   1      34.910  33.950  33.754  1.00  0.00     0.211 A 
ATOM      8  N   UNL A   1      34.409  35.152  34.175  1.00  0.00    -0.300 N 
ATOM      9  S   UNL A   1      34.431  33.677  32.072  1.00  0.00    -0.084 S 
ATOM     10  C   UNL A   1      33.718  35.863  33.228  1.00  0.00     0.216 A 
ATOM     11  H   UNL A   1      34.538  35.483  35.093  1.00  0.00     0.172 HD
BRANCH   6  12
ATOM     12  N   UNL A   1      36.169  33.458  35.552  1.00  0.00    -0.152 NA
ATOM     13  C   UNL A   1      38.145  34.196  36.737  1.00  0.00     0.069 C 
ATOM     14  C   UNL A   1      37.457  33.655  35.507  1.00  0.00     0.067 C 
BRANCH  14  15
ATOM     15  C   UNL A   1      38.327  33.423  34.318  1.00  0.00     0.001 A 
ATOM     16  C   UNL A   1      39.085  32.237  34.205  1.00  0.00     0.014 A 
ATOM     17  C   UNL A   1      38.382  34.403  33.320  1.00  0.00     0.060 A 
ATOM     18  C   UNL A   1      39.910  32.021  33.098  1.00  0.00     0.051 A 
ATOM     19  C   UNL A   1      39.177  34.142  32.225  1.00  0.00     0.166 A 
ATOM     20  C   UNL A   1      39.919  32.987  32.116  1.00  0.00     0.165 A 
ATOM     21  O   UNL A   1      39.320  34.953  31.142  1.00  0.00    -0.454 OA
ATOM     22  O   UNL A   1      40.617  32.932  30.950  1.00  0.00    -0.454 OA
ATOM     23  C   UNL A   1      40.108  34.104  30.281  1.00  0.00     0.468 C 
ENDBRANCH  14  15
ENDBRANCH   6  12
BRANCH  10  24
ATOM     24  O   UNL A   1      33.145  37.056  33.552  1.00  0.00    -0.493 OA
ATOM     25  H   UNL A   1      32.307  37.284  33.198  1.00  0.00     0.295 HD
ENDBRANCH  10  24
ENDBRANCH   3   5
ENDBRANCH   2   3
ENDBRANCH   1   2
BRANCH   1  26
ATOM     26  C   UNL A   1      33.778  33.467  28.005  1.00  0.00     0.275 C 
BRANCH  26  27
ATOM     27  O   UNL A   1      35.028  32.781  28.040  1.00  0.00    -0.458 OA
BRANCH  27  28
ATOM     28  C   UNL A   1      34.994  31.467  27.733  1.00  0.00     0.338 C 
ATOM     29  O   UNL A   1      34.143  30.875  27.084  1.00  0.00    -0.246 OA
BRANCH  28  30
ATOM     30  C   UNL A   1      36.050  30.779  28.478  1.00  0.00     0.060 A 
ATOM     31  C   UNL A   1      36.909  31.555  29.264  1.00  0.00     0.016 A 
ATOM     32  C   UNL A   1      36.336  29.442  28.170  1.00  0.00     0.016 A 
ATOM     33  C   UNL A   1      38.142  31.038  29.606  1.00  0.00     0.010 A 
ATOM     34  C   UNL A   1      37.567  28.933  28.498  1.00  0.00     0.010 A 
ATOM     35  C   UNL A   1      38.482  29.764  29.144  1.00  0.00    -0.014 A 
BRANCH  35  36
ATOM     36  C   UNL A   1      39.832  29.286  29.351  1.00  0.00     0.031 A 
ATOM     37  C   UNL A   1      40.203  29.024  30.762  1.00  0.00     0.074 A 
ATOM     38  C   UNL A   1      40.593  28.911  28.306  1.00  0.00     0.049 A 
ATOM     39  N   UNL A   1      41.235  29.451  31.412  1.00  0.00    -0.248 NA
ATOM     40  C   UNL A   1      39.260  28.239  31.576  1.00  0.00     0.031 C 
ATOM     41  C   UNL A   1      40.204  28.807  26.895  1.00  0.00     0.029 A 
ATOM     42  N   UNL A   1      41.845  28.387  28.317  1.00  0.00    -0.354 N 
ATOM     43  C   UNL A   1      41.154  28.870  32.675  1.00  0.00     0.074 A 
ATOM     44  C   UNL A   1      39.864  28.238  32.763  1.00  0.00     0.031 C 
ATOM     45  C   UNL A   1      41.099  28.027  26.251  1.00  0.00     0.029 A 
ATOM     46  C   UNL A   1      42.164  27.673  27.174  1.00  0.00     0.049 A 
ATOM     47  H   UNL A   1      42.469  28.503  29.069  1.00  0.00     0.167 HD
ATOM     48  C   UNL A   1      42.235  28.779  33.495  1.00  0.00     0.037 A 
ATOM     49  C   UNL A   1      43.165  26.765  27.058  1.00  0.00     0.037 A 
ATOM     50  C   UNL A   1      43.267  29.710  33.131  1.00  0.00     0.049 A 
ATOM     51  C   UNL A   1      44.113  26.999  28.183  1.00  0.00     0.074 A 
ATOM     52  C   UNL A   1      43.309  31.087  33.001  1.00  0.00     0.029 A 
ATOM     53  N   UNL A   1      44.381  29.248  32.475  1.00  0.00    -0.354 N 
ATOM     54  N   UNL A   1      44.870  28.056  28.298  1.00  0.00    -0.248 NA
ATOM     55  C   UNL A   1      43.885  26.262  29.421  1.00  0.00     0.031 C 
ATOM     56  C   UNL A   1      44.126  31.323  31.857  1.00  0.00     0.029 A 
ATOM     57  C   UNL A   1      44.566  30.081  31.399  1.00  0.00     0.049 A 
ATOM     58  H   UNL A   1      44.935  28.473  32.725  1.00  0.00     0.167 HD
ATOM     59  C   UNL A   1      44.867  28.351  29.653  1.00  0.00     0.074 A 
ATOM     60  C   UNL A   1      44.320  27.164  30.303  1.00  0.00     0.031 C 
ATOM     61  C   UNL A   1      45.027  29.630  30.109  1.00  0.00     0.037 A 
BRANCH  48  62
ATOM     62  C   UNL A   1      42.464  27.629  34.432  1.00  0.00     0.064 A 
ATOM     63  C   UNL A   1      43.032  26.436  33.949  1.00  0.00     0.173 A 
ATOM     64  C   UNL A   1      41.892  27.559  35.722  1.00  0.00     0.173 A 
ATOM     65  F   UNL A   1      43.567  26.385  32.719  1.00  0.00    -0.203 F 
ATOM     66  C   UNL A   1      42.984  25.250  34.684  1.00  0.00     0.198 A 
ATOM     67  C   UNL A   1      41.898  26.388  36.476  1.00  0.00     0.198 A 
ATOM     68  F   UNL A   1      41.210  28.584  36.250  1.00  0.00    -0.203 F 
ATOM     69  F   UNL A   1      43.433  24.111  34.138  1.00  0.00    -0.200 F 
ATOM     70  C   UNL A   1      42.418  25.227  35.946  1.00  0.00     0.200 A 
ATOM     71  F   UNL A   1      41.324  26.382  37.688  1.00  0.00    -0.200 F 
ATOM     72  F   UNL A   1      42.325  24.079  36.631  1.00  0.00    -0.200 F 
ENDBRANCH  48  62
BRANCH  49  73
ATOM     73  C   UNL A   1      43.162  25.527  26.240  1.00  0.00     0.064 A 
ATOM     74  C   UNL A   1      44.227  25.227  25.376  1.00  0.00     0.173 A 
ATOM     75  C   UNL A   1      42.227  24.491  26.454  1.00  0.00     0.173 A 
ATOM     76  F   UNL A   1      45.195  26.130  25.160  1.00  0.00    -0.203 F 
ATOM     77  C   UNL A   1      44.348  23.972  24.766  1.00  0.00     0.198 A 
ATOM     78  C   UNL A   1      42.338  23.249  25.831  1.00  0.00     0.198 A 
ATOM     79  F   UNL A   1      41.233  24.627  27.342  1.00  0.00    -0.203 F 
ATOM     80  F   UNL A   1      45.409  23.706  23.991  1.00  0.00    -0.200 F 
ATOM     81  C   UNL A   1      43.405  22.984  24.995  1.00  0.00     0.200 A 
ATOM     82  F   UNL A   1      41.436  22.292  26.092  1.00  0.00    -0.200 F 
ATOM     83  F   UNL A   1      43.544  21.769  24.447  1.00  0.00    -0.200 F 
ENDBRANCH  49  73
BRANCH  61  84
ATOM     84  C   UNL A   1      45.434  30.696  29.130  1.00  0.00     0.064 A 
ATOM     85  C   UNL A   1      46.770  30.982  28.799  1.00  0.00     0.173 A 
ATOM     86  C   UNL A   1      44.438  31.324  28.369  1.00  0.00     0.173 A 
ATOM     87  F   UNL A   1      47.781  30.339  29.394  1.00  0.00    -0.203 F 
ATOM     88  C   UNL A   1      47.091  31.885  27.789  1.00  0.00     0.198 A 
ATOM     89  C   UNL A   1      44.762  32.197  27.332  1.00  0.00     0.198 A 
ATOM     90  F   UNL A   1      43.143  31.045  28.592  1.00  0.00    -0.203 F 
ATOM     91  F   UNL A   1      48.376  32.141  27.501  1.00  0.00    -0.200 F 
ATOM     92  C   UNL A   1      46.087  32.485  27.050  1.00  0.00     0.200 A 
ATOM     93  F   UNL A   1      43.788  32.732  26.583  1.00  0.00    -0.200 F 
ATOM     94  F   UNL A   1      46.397  33.317  26.045  1.00  0.00    -0.200 F 
ENDBRANCH  61  84
ENDBRANCH  35  36
ENDBRANCH  28  30
ENDBRANCH  27  28
ENDBRANCH  26  27
ENDBRANCH   1  26
TORSDOF 14
ENDMDL
MODEL 2
REMARK VINA RESULT:     -12.4      0.830      1.731
REMARK SMILES C/C(=N/N=c1\[nH]c(O)c(C(=O)OCCOC(=O)c2ccc(-c3c4nc(c(-c5c(F)c(F)c(F)c(F)c5F)c5ccc([nH]5)c(-c5c(F)c(F)c(F)c(F)c5F)c5nc(c(-c6c(F)c(F)c(F)c(F)c6F)c6ccc3[nH]6)C=C5)C=C4)cc2)s1)c1ccc2c(c1)OCO2
REMARK SMILES IDX 13 1 12 2 10 3 11 4 9 5 4 6 5 7 6 8 81 9 7 10 3 12 1 13 2 14
REMARK SMILES IDX 82 15 83 16 87 17 84 18 86 19 85 20 88 21 90 22 89 23 8 24
REMARK SMILES IDX 14 26 15 27 16 28 17 29 18 30 19 31 80 32 20 33 79 34 21 35
REMARK SMILES IDX 22 36 23 37 73 38 24 39 78 40 72 41 74 42 25 43 77 44 71 45
REMARK SMILES IDX 70 46 26 48 58 49 38 50 57 51 39 52 42 53 56 54 75 55 40 56
REMARK SMILES IDX 41 57 55 59 76 60 43 61 27 62 28 63 36 64 29 65 30 66 34 67
REMARK SMILES IDX 37 68 31 69 32 70 35 71 33 72 59 73 60 74 68 75 61 76 62 77
REMARK SMILES IDX 66 78 69 79 63 80 64 81 67 82 65 83 44 84 45 85 53 86 46 87
REMARK SMILES IDX 47 88 51 89 54 90 48 91 49 92 52 93 50 94
REMARK H PARENT 6 11 8 25 74 47 42 58
REMARK Flexibility Score: inf
ROOT
ATOM      1  C   UNL A   1      33.696  34.899  28.750  1.00  0.00     0.275 C 
ENDROOT
BRANCH   1   2
ATOM      2  O   UNL A   1      32.965  34.717  29.970  1.00  0.00    -0.458 OA
BRANCH   2   3
ATOM      3  C   UNL A   1      33.036  35.723  30.890  1.00  0.00     0.354 C 
ATOM      4  O   UNL A   1      32.529  36.820  30.766  1.00  0.00    -0.245 OA
BRANCH   3   5
ATOM      5  C   UNL A   1      33.746  35.246  32.098  1.00  0.00     0.176 A 
ATOM      6  N   UNL A   1      35.892  33.129  34.315  1.00  0.00    -0.121 NA
ATOM      7  C   UNL A   1      35.088  33.972  33.780  1.00  0.00     0.211 A 
ATOM      8  N   UNL A   1      34.533  35.137  34.233  1.00  0.00    -0.300 N 
ATOM      9  S   UNL A   1      34.597  33.707  32.101  1.00  0.00    -0.084 S 
ATOM     10  C   UNL A   1      33.790  35.830  33.312  1.00  0.00     0.216 A 
ATOM     11  H   UNL A   1      34.659  35.457  35.156  1.00  0.00     0.172 HD
BRANCH   6  12
ATOM     12  N   UNL A   1      36.400  33.512  35.549  1.00  0.00    -0.152 NA
ATOM     13  C   UNL A   1      38.355  34.329  36.718  1.00  0.00     0.069 C 
ATOM     14  C   UNL A   1      37.676  33.776  35.488  1.00  0.00     0.067 C 
BRANCH  14  15
ATOM     15  C   UNL A   1      38.537  33.614  34.281  1.00  0.00     0.001 A 
ATOM     16  C   UNL A   1      39.488  32.571  34.215  1.00  0.00     0.014 A 
ATOM     17  C   UNL A   1      38.390  34.514  33.220  1.00  0.00     0.060 A 
ATOM     18  C   UNL A   1      40.304  32.423  33.091  1.00  0.00     0.051 A 
ATOM     19  C   UNL A   1      39.185  34.317  32.112  1.00  0.00     0.166 A 
ATOM     20  C   UNL A   1      40.115  33.303  32.048  1.00  0.00     0.165 A 
ATOM     21  O   UNL A   1      39.152  35.061  30.973  1.00  0.00    -0.454 OA
ATOM     22  O   UNL A   1      40.776  33.286  30.860  1.00  0.00    -0.454 OA
ATOM     23  C   UNL A   1      40.050  34.301  30.138  1.00  0.00     0.468 C 
ENDBRANCH  14  15
ENDBRANCH   6  12
BRANCH  10  24
ATOM     24  O   UNL A   1      33.161  36.984  33.669  1.00  0.00    -0.493 OA
ATOM     25  H   UNL A   1      33.364  37.395  34.487  1.00  0.00     0.295 HD
ENDBRANCH  10  24
ENDBRANCH   3   5
ENDBRANCH   2   3
ENDBRANCH   1   2
BRANCH   1  26
ATOM     26  C   UNL A   1      33.832  33.572  28.017  1.00  0.00     0.275 C 
BRANCH  26  27
ATOM     27  O   UNL A   1      34.826  32.755  28.633  1.00  0.00    -0.458 OA
BRANCH  27  28
ATOM     28  C   UNL A   1      35.020  31.538  28.083  1.00  0.00     0.338 C 
ATOM     29  O   UNL A   1      34.311  30.969  27.264  1.00  0.00    -0.246 OA
BRANCH  28  30
ATOM     30  C   UNL A   1      36.130  30.877  28.772  1.00  0.00     0.060 A 
ATOM     31  C   UNL A   1      37.038  31.681  29.470  1.00  0.00     0.016 A 
ATOM     32  C   UNL A   1      36.400  29.532  28.487  1.00  0.00     0.016 A 
ATOM     33  C   UNL A   1      38.296  31.180  29.739  1.00  0.00     0.010 A 
ATOM     34  C   UNL A   1      37.655  29.039  28.742  1.00  0.00     0.010 A 
ATOM     35  C   UNL A   1      38.609  29.893  29.294  1.00  0.00    -0.014 A 
BRANCH  35  36
ATOM     36  C   UNL A   1      39.973  29.426  29.419  1.00  0.00     0.031 A 
ATOM     37  C   UNL A   1      40.479  29.310  30.808  1.00  0.00     0.074 A 
ATOM     38  C   UNL A   1      40.629  28.936  28.351  1.00  0.00     0.049 A 
ATOM     39  N   UNL A   1      41.569  29.793  31.307  1.00  0.00    -0.248 NA
ATOM     40  C   UNL A   1      39.620  28.623  31.787  1.00  0.00     0.031 C 
ATOM     41  C   UNL A   1      40.105  28.689  27.003  1.00  0.00     0.029 A 
ATOM     42  N   UNL A   1      41.877  28.404  28.297  1.00  0.00    -0.354 N 
ATOM     43  C   UNL A   1      41.611  29.349  32.625  1.00  0.00     0.074 A 
ATOM     44  C   UNL A   1      40.336  28.741  32.904  1.00  0.00     0.031 C 
ATOM     45  C   UNL A   1      40.934  27.837  26.361  1.00  0.00     0.029 A 
ATOM     46  C   UNL A   1      42.084  27.571  27.210  1.00  0.00     0.049 A 
ATOM     47  H   UNL A   1      42.571  28.593  28.968  1.00  0.00     0.167 HD
ATOM     48  C   UNL A   1      42.766  29.333  33.343  1.00  0.00     0.037 A 
ATOM     49  C   UNL A   1      43.069  26.646  27.094  1.00  0.00     0.037 A 
ATOM     50  C   UNL A   1      43.757  30.211  32.785  1.00  0.00     0.049 A 
ATOM     51  C   UNL A   1      44.122  26.988  28.091  1.00  0.00     0.074 A 
ATOM     52  C   UNL A   1      43.786  31.566  32.507  1.00  0.00     0.029 A 
ATOM     53  N   UNL A   1      44.803  29.672  32.076  1.00  0.00    -0.354 N 
ATOM     54  N   UNL A   1      44.886  28.044  28.020  1.00  0.00    -0.248 NA
ATOM     55  C   UNL A   1      44.015  26.387  29.416  1.00  0.00     0.031 C 
ATOM     56  C   UNL A   1      44.488  31.673  31.271  1.00  0.00     0.029 A 
ATOM     57  C   UNL A   1      44.883  30.385  30.906  1.00  0.00     0.049 A 
ATOM     58  H   UNL A   1      45.379  28.923  32.352  1.00  0.00     0.167 HD
ATOM     59  C   UNL A   1      45.014  28.480  29.331  1.00  0.00     0.074 A 
ATOM     60  C   UNL A   1      44.533  27.372  30.152  1.00  0.00     0.031 C 
ATOM     61  C   UNL A   1      45.217  29.797  29.632  1.00  0.00     0.037 A 
BRANCH  48  62
ATOM     62  C   UNL A   1      43.086  28.285  34.369  1.00  0.00     0.064 A 
ATOM     63  C   UNL A   1      43.419  28.670  35.680  1.00  0.00     0.173 A 
ATOM     64  C   UNL A   1      43.347  26.937  34.038  1.00  0.00     0.173 A 
ATOM     65  F   UNL A   1      43.247  29.938  36.084  1.00  0.00    -0.203 F 
ATOM     66  C   UNL A   1      44.016  27.780  36.577  1.00  0.00     0.198 A 
ATOM     67  C   UNL A   1      43.889  26.038  34.954  1.00  0.00     0.198 A 
ATOM     68  F   UNL A   1      43.195  26.472  32.791  1.00  0.00    -0.203 F 
ATOM     69  F   UNL A   1      44.423  28.218  37.776  1.00  0.00    -0.200 F 
ATOM     70  C   UNL A   1      44.250  26.466  36.213  1.00  0.00     0.200 A 
ATOM     71  F   UNL A   1      44.129  24.775  34.573  1.00  0.00    -0.200 F 
ATOM     72  F   UNL A   1      44.869  25.626  37.053  1.00  0.00    -0.200 F 
ENDBRANCH  48  62
BRANCH  49  73
ATOM     73  C   UNL A   1      42.988  25.329  26.415  1.00  0.00     0.064 A 
ATOM     74  C   UNL A   1      43.845  25.009  25.350  1.00  0.00     0.173 A 
ATOM     75  C   UNL A   1      42.226  24.264  26.940  1.00  0.00     0.173 A 
ATOM     76  F   UNL A   1      44.650  25.946  24.828  1.00  0.00    -0.203 F 
ATOM     77  C   UNL A   1      43.934  23.707  24.844  1.00  0.00     0.198 A 
ATOM     78  C   UNL A   1      42.300  22.971  26.422  1.00  0.00     0.198 A 
ATOM     79  F   UNL A   1      41.457  24.429  28.025  1.00  0.00    -0.203 F 
ATOM     80  F   UNL A   1      44.805  23.428  23.864  1.00  0.00    -0.200 F 
ATOM     81  C   UNL A   1      43.163  22.689  25.381  1.00  0.00     0.200 A 
ATOM     82  F   UNL A   1      41.574  21.990  26.977  1.00  0.00    -0.200 F 
ATOM     83  F   UNL A   1      43.280  21.434  24.926  1.00  0.00    -0.200 F 
ENDBRANCH  49  73
BRANCH  61  84
ATOM     84  C   UNL A   1      45.526  30.752  28.512  1.00  0.00     0.064 A 
ATOM     85  C   UNL A   1      44.542  31.351  27.705  1.00  0.00     0.173 A 
ATOM     86  C   UNL A   1      46.841  31.215  28.368  1.00  0.00     0.173 A 
ATOM     87  F   UNL A   1      43.248  31.053  27.860  1.00  0.00    -0.203 F 
ATOM     88  C   UNL A   1      44.867  32.330  26.770  1.00  0.00     0.198 A 
ATOM     89  C   UNL A   1      47.158  32.223  27.461  1.00  0.00     0.198 A 
ATOM     90  F   UNL A   1      47.815  30.730  29.154  1.00  0.00    -0.203 F 
ATOM     91  F   UNL A   1      43.908  32.877  26.010  1.00  0.00    -0.200 F 
ATOM     92  C   UNL A   1      46.173  32.772  26.655  1.00  0.00     0.200 A 
ATOM     93  F   UNL A   1      48.413  32.688  27.391  1.00  0.00    -0.200 F 
ATOM     94  F   UNL A   1      46.479  33.750  25.789  1.00  0.00    -0.200 F 
ENDBRANCH  61  84
ENDBRANCH  35  36
ENDBRANCH  28  30
ENDBRANCH  27  28
ENDBRANCH  26  27
ENDBRANCH   1  26
TORSDOF 14
ENDMDL
MODEL 3
REMARK VINA RESULT:     -12.1      5.135     11.347
REMARK SMILES C/C(=N/N=c1\[nH]c(O)c(C(=O)OCCOC(=O)c2ccc(-c3c4nc(c(-c5c(F)c(F)c(F)c(F)c5F)c5ccc([nH]5)c(-c5c(F)c(F)c(F)c(F)c5F)c5nc(c(-c6c(F)c(F)c(F)c(F)c6F)c6ccc3[nH]6)C=C5)C=C4)cc2)s1)c1ccc2c(c1)OCO2
REMARK SMILES IDX 13 1 12 2 10 3 11 4 9 5 4 6 5 7 6 8 81 9 7 10 3 12 1 13 2 14
REMARK SMILES IDX 82 15 83 16 87 17 84 18 86 19 85 20 88 21 90 22 89 23 8 24
REMARK SMILES IDX 14 26 15 27 16 28 17 29 18 30 19 31 80 32 20 33 79 34 21 35
REMARK SMILES IDX 22 36 23 37 73 38 24 39 78 40 72 41 74 42 25 43 77 44 71 45
REMARK SMILES IDX 70 46 26 48 58 49 38 50 57 51 39 52 42 53 56 54 75 55 40 56
REMARK SMILES IDX 41 57 55 59 76 60 43 61 27 62 28 63 36 64 29 65 30 66 34 67
REMARK SMILES IDX 37 68 31 69 32 70 35 71 33 72 59 73 60 74 68 75 61 76 62 77
REMARK SMILES IDX 66 78 69 79 63 80 64 81 67 82 65 83 44 84 45 85 53 86 46 87
REMARK SMILES IDX 47 88 51 89 54 90 48 91 49 92 52 93 50 94
REMARK H PARENT 6 11 8 25 74 47 42 58
REMARK Flexibility Score: inf
ROOT
ATOM      1  C   UNL A   1      42.000  19.473  26.362  1.00  0.00     0.275 C 
ENDROOT
BRANCH   1   2
ATOM      2  O   UNL A   1      42.673  20.052  25.236  1.00  0.00    -0.458 OA
BRANCH   2   3
ATOM      3  C   UNL A   1      44.038  20.073  25.274  1.00  0.00     0.354 C 
ATOM      4  O   UNL A   1      44.751  19.091  25.323  1.00  0.00    -0.245 OA
BRANCH   3   5
ATOM      5  C   UNL A   1      44.518  21.469  25.156  1.00  0.00     0.176 A 
ATOM      6  N   UNL A   1      46.831  24.410  25.181  1.00  0.00    -0.121 NA
ATOM      7  C   UNL A   1      45.850  23.585  25.155  1.00  0.00     0.211 A 
ATOM      8  N   UNL A   1      44.541  23.716  24.781  1.00  0.00    -0.300 N 
ATOM      9  S   UNL A   1      46.164  21.901  25.598  1.00  0.00    -0.084 S 
ATOM     10  C   UNL A   1      43.809  22.555  24.791  1.00  0.00     0.216 A 
ATOM     11  H   UNL A   1      44.151  24.582  24.522  1.00  0.00     0.172 HD
BRANCH   6  12
ATOM     12  N   UNL A   1      46.563  25.651  24.620  1.00  0.00    -0.152 NA
ATOM     13  C   UNL A   1      46.327  28.017  25.066  1.00  0.00     0.069 C 
ATOM     14  C   UNL A   1      46.488  26.588  25.524  1.00  0.00     0.067 C 
BRANCH  14  15
ATOM     15  C   UNL A   1      46.585  26.378  26.998  1.00  0.00     0.001 A 
ATOM     16  C   UNL A   1      45.439  26.031  27.748  1.00  0.00     0.014 A 
ATOM     17  C   UNL A   1      47.827  26.535  27.623  1.00  0.00     0.060 A 
ATOM     18  C   UNL A   1      45.524  25.845  29.130  1.00  0.00     0.051 A 
ATOM     19  C   UNL A   1      47.881  26.309  28.980  1.00  0.00     0.166 A 
ATOM     20  C   UNL A   1      46.764  25.974  29.713  1.00  0.00     0.165 A 
ATOM     21  O   UNL A   1      49.004  26.370  29.747  1.00  0.00    -0.454 OA
ATOM     22  O   UNL A   1      47.051  25.783  31.029  1.00  0.00    -0.454 OA
ATOM     23  C   UNL A   1      48.489  25.884  31.005  1.00  0.00     0.468 C 
ENDBRANCH  14  15
ENDBRANCH   6  12
BRANCH  10  24
ATOM     24  O   UNL A   1      42.485  22.578  24.473  1.00  0.00    -0.493 OA
ATOM     25  H   UNL A   1      41.999  21.778  24.436  1.00  0.00     0.295 HD
ENDBRANCH  10  24
ENDBRANCH   3   5
ENDBRANCH   2   3
ENDBRANCH   1   2
BRANCH   1  26
ATOM     26  C   UNL A   1      40.683  20.194  26.614  1.00  0.00     0.275 C 
BRANCH  26  27
ATOM     27  O   UNL A   1      40.916  21.541  27.023  1.00  0.00    -0.458 OA
BRANCH  27  28
ATOM     28  C   UNL A   1      39.964  22.436  26.690  1.00  0.00     0.338 C 
ATOM     29  O   UNL A   1      38.893  22.216  26.139  1.00  0.00    -0.246 OA
BRANCH  28  30
ATOM     30  C   UNL A   1      40.486  23.787  26.903  1.00  0.00     0.060 A 
ATOM     31  C   UNL A   1      41.657  23.924  27.657  1.00  0.00     0.016 A 
ATOM     32  C   UNL A   1      39.673  24.885  26.594  1.00  0.00     0.016 A 
ATOM     33  C   UNL A   1      41.927  25.143  28.246  1.00  0.00     0.010 A 
ATOM     34  C   UNL A   1      39.933  26.093  27.191  1.00  0.00     0.010 A 
ATOM     35  C   UNL A   1      41.013  26.184  28.070  1.00  0.00    -0.014 A 
BRANCH  35  36
ATOM     36  C   UNL A   1      41.198  27.407  28.821  1.00  0.00     0.031 A 
ATOM     37  C   UNL A   1      42.359  28.233  28.412  1.00  0.00     0.074 A 
ATOM     38  C   UNL A   1      40.248  27.839  29.671  1.00  0.00     0.049 A 
ATOM     39  N   UNL A   1      43.300  28.718  29.154  1.00  0.00    -0.248 NA
ATOM     40  C   UNL A   1      42.531  28.495  26.973  1.00  0.00     0.031 C 
ATOM     41  C   UNL A   1      38.911  27.276  29.895  1.00  0.00     0.029 A 
ATOM     42  N   UNL A   1      40.225  28.981  30.404  1.00  0.00    -0.354 N 
ATOM     43  C   UNL A   1      44.104  29.470  28.303  1.00  0.00     0.074 A 
ATOM     44  C   UNL A   1      43.661  29.199  26.960  1.00  0.00     0.031 C 
ATOM     45  C   UNL A   1      38.140  28.207  30.498  1.00  0.00     0.029 A 
ATOM     46  C   UNL A   1      38.955  29.375  30.789  1.00  0.00     0.049 A 
ATOM     47  H   UNL A   1      41.038  29.484  30.640  1.00  0.00     0.167 HD
ATOM     48  C   UNL A   1      44.956  30.420  28.772  1.00  0.00     0.037 A 
ATOM     49  C   UNL A   1      38.598  30.617  31.198  1.00  0.00     0.037 A 
ATOM     50  C   UNL A   1      45.258  30.233  30.164  1.00  0.00     0.049 A 
ATOM     51  C   UNL A   1      39.844  31.334  31.591  1.00  0.00     0.074 A 
ATOM     52  C   UNL A   1      45.801  29.189  30.892  1.00  0.00     0.029 A 
ATOM     53  N   UNL A   1      44.663  31.053  31.091  1.00  0.00    -0.354 N 
ATOM     54  N   UNL A   1      40.571  31.027  32.630  1.00  0.00    -0.248 NA
ATOM     55  C   UNL A   1      40.528  32.108  30.561  1.00  0.00     0.031 C 
ATOM     56  C   UNL A   1      45.062  29.168  32.111  1.00  0.00     0.029 A 
ATOM     57  C   UNL A   1      44.157  30.229  32.066  1.00  0.00     0.049 A 
ATOM     58  H   UNL A   1      44.609  32.035  31.062  1.00  0.00     0.167 HD
ATOM     59  C   UNL A   1      41.883  31.196  32.210  1.00  0.00     0.074 A 
ATOM     60  C   UNL A   1      41.791  31.948  30.962  1.00  0.00     0.031 C 
ATOM     61  C   UNL A   1      42.907  30.467  32.745  1.00  0.00     0.037 A 
BRANCH  48  62
ATOM     62  C   UNL A   1      45.264  31.690  28.032  1.00  0.00     0.064 A 
ATOM     63  C   UNL A   1      44.213  32.513  27.590  1.00  0.00     0.173 A 
ATOM     64  C   UNL A   1      46.540  31.983  27.501  1.00  0.00     0.173 A 
ATOM     65  F   UNL A   1      42.955  32.295  28.004  1.00  0.00    -0.203 F 
ATOM     66  C   UNL A   1      44.419  33.524  26.648  1.00  0.00     0.198 A 
ATOM     67  C   UNL A   1      46.751  33.029  26.606  1.00  0.00     0.198 A 
ATOM     68  F   UNL A   1      47.602  31.202  27.740  1.00  0.00    -0.203 F 
ATOM     69  F   UNL A   1      43.371  34.207  26.167  1.00  0.00    -0.200 F 
ATOM     70  C   UNL A   1      45.687  33.780  26.157  1.00  0.00     0.200 A 
ATOM     71  F   UNL A   1      47.984  33.246  26.126  1.00  0.00    -0.200 F 
ATOM     72  F   UNL A   1      45.877  34.713  25.215  1.00  0.00    -0.200 F 
ENDBRANCH  48  62
BRANCH  49  73
ATOM     73  C   UNL A   1      37.306  31.306  30.954  1.00  0.00     0.064 A 
ATOM     74  C   UNL A   1      36.443  31.624  32.015  1.00  0.00     0.173 A 
ATOM     75  C   UNL A   1      36.988  31.877  29.704  1.00  0.00     0.173 A 
ATOM     76  F   UNL A   1      36.701  31.175  33.252  1.00  0.00    -0.203 F 
ATOM     77  C   UNL A   1      35.334  32.459  31.834  1.00  0.00     0.198 A 
ATOM     78  C   UNL A   1      35.872  32.693  29.521  1.00  0.00     0.198 A 
ATOM     79  F   UNL A   1      37.800  31.731  28.647  1.00  0.00    -0.203 F 
ATOM     80  F   UNL A   1      34.565  32.785  32.883  1.00  0.00    -0.200 F 
ATOM     81  C   UNL A   1      35.050  32.994  30.588  1.00  0.00     0.200 A 
ATOM     82  F   UNL A   1      35.633  33.230  28.315  1.00  0.00    -0.200 F 
ATOM     83  F   UNL A   1      34.014  33.829  30.425  1.00  0.00    -0.200 F 
ENDBRANCH  49  73
BRANCH  61  84
ATOM     84  C   UNL A   1      42.633  29.627  33.962  1.00  0.00     0.064 A 
ATOM     85  C   UNL A   1      42.026  28.360  33.913  1.00  0.00     0.173 A 
ATOM     86  C   UNL A   1      43.165  30.035  35.193  1.00  0.00     0.173 A 
ATOM     87  F   UNL A   1      41.598  27.844  32.756  1.00  0.00    -0.203 F 
ATOM     88  C   UNL A   1      41.916  27.563  35.050  1.00  0.00     0.198 A 
ATOM     89  C   UNL A   1      43.089  29.219  36.320  1.00  0.00     0.198 A 
ATOM     90  F   UNL A   1      43.815  31.206  35.291  1.00  0.00    -0.203 F 
ATOM     91  F   UNL A   1      41.324  26.362  34.973  1.00  0.00    -0.200 F 
ATOM     92  C   UNL A   1      42.455  27.989  36.250  1.00  0.00     0.200 A 
ATOM     93  F   UNL A   1      43.662  29.611  37.466  1.00  0.00    -0.200 F 
ATOM     94  F   UNL A   1      42.393  27.201  37.334  1.00  0.00    -0.200 F 
ENDBRANCH  61  84
ENDBRANCH  35  36
ENDBRANCH  28  30
ENDBRANCH  27  28
ENDBRANCH  26  27
ENDBRANCH   1  26
TORSDOF 14
ENDMDL
