MODEL 1
REMARK VINA RESULT:     -10.9      0.000      0.000
REMARK SMILES C[C@@H](Oc1ccc(N)cc1)C(=O)OCCOC(=O)c1ccc(-c2c3nc(c(-c4c(F)c(F)c(F)c(F)c4F)c4ccc([nH]4)c(-c4c(F)c(F)c(F)c(F)c4F)c4nc(c(-c5c(F)c(F)c(F)c(F)c5F)c5ccc2[nH]5)C=C4)C=C3)cc1
REMARK SMILES IDX 14 1 13 2 11 3 12 4 2 5 1 6 3 7 4 8 5 9 10 10 6 11 9 12 7 13
REMARK SMILES IDX 8 14 15 17 16 18 17 19 18 20 19 21 20 22 81 23 21 24 80 25
REMARK SMILES IDX 22 26 23 27 24 28 74 29 25 30 79 31 73 32 75 33 26 34 78 35
REMARK SMILES IDX 72 36 71 37 27 39 59 40 39 41 58 42 40 43 43 44 57 45 76 46
REMARK SMILES IDX 41 47 42 48 56 50 77 51 44 52 28 53 29 54 37 55 30 56 31 57
REMARK SMILES IDX 35 58 38 59 32 60 33 61 36 62 34 63 60 64 61 65 69 66 62 67
REMARK SMILES IDX 63 68 67 69 70 70 64 71 65 72 68 73 66 74 45 75 46 76 54 77
REMARK SMILES IDX 47 78 48 79 52 80 55 81 49 82 50 83 53 84 51 85
REMARK H PARENT 8 15 8 16 75 38 43 49
REMARK Flexibility Score: inf
ROOT
ATOM      1  C   UNL A   1      42.087  19.161  26.236  1.00  0.00     0.274 C 
ENDROOT
BRANCH   1   2
ATOM      2  O   UNL A   1      42.773  19.151  24.971  1.00  0.00    -0.459 OA
BRANCH   2   3
ATOM      3  C   UNL A   1      44.100  18.846  24.998  1.00  0.00     0.347 C 
ATOM      4  O   UNL A   1      44.604  17.984  25.712  1.00  0.00    -0.248 OA
BRANCH   3   5
ATOM      5  C   UNL A   1      44.914  19.696  24.021  1.00  0.00     0.279 C 
ATOM      6  C   UNL A   1      44.989  19.056  22.637  1.00  0.00     0.066 C 
BRANCH   5   7
ATOM      7  O   UNL A   1      44.331  21.002  23.936  1.00  0.00    -0.479 OA
BRANCH   7   8
ATOM      8  C   UNL A   1      45.042  21.902  24.682  1.00  0.00     0.120 A 
ATOM      9  C   UNL A   1      45.980  22.727  24.069  1.00  0.00     0.048 A 
ATOM     10  C   UNL A   1      44.797  22.010  26.048  1.00  0.00     0.048 A 
ATOM     11  C   UNL A   1      46.716  23.630  24.838  1.00  0.00     0.029 A 
ATOM     12  C   UNL A   1      45.531  22.925  26.809  1.00  0.00     0.029 A 
ATOM     13  C   UNL A   1      46.484  23.754  26.210  1.00  0.00     0.032 A 
BRANCH  13  14
ATOM     14  N   UNL A   1      47.267  24.600  26.978  1.00  0.00    -0.399 N 
ATOM     15  H   UNL A   1      47.855  24.229  27.675  1.00  0.00     0.156 HD
ATOM     16  H   UNL A   1      47.235  25.572  26.827  1.00  0.00     0.156 HD
ENDBRANCH  13  14
ENDBRANCH   7   8
ENDBRANCH   5   7
ENDBRANCH   3   5
ENDBRANCH   2   3
ENDBRANCH   1   2
BRANCH   1  17
ATOM     17  C   UNL A   1      40.625  19.577  26.065  1.00  0.00     0.275 C 
BRANCH  17  18
ATOM     18  O   UNL A   1      40.284  20.644  26.970  1.00  0.00    -0.458 OA
BRANCH  18  19
ATOM     19  C   UNL A   1      39.526  21.632  26.442  1.00  0.00     0.338 C 
ATOM     20  O   UNL A   1      38.602  21.524  25.657  1.00  0.00    -0.246 OA
BRANCH  19  21
ATOM     21  C   UNL A   1      39.906  22.920  27.040  1.00  0.00     0.060 A 
ATOM     22  C   UNL A   1      39.309  24.080  26.539  1.00  0.00     0.016 A 
ATOM     23  C   UNL A   1      40.931  22.996  27.983  1.00  0.00     0.016 A 
ATOM     24  C   UNL A   1      39.756  25.330  26.961  1.00  0.00     0.010 A 
ATOM     25  C   UNL A   1      41.378  24.252  28.409  1.00  0.00     0.010 A 
ATOM     26  C   UNL A   1      40.812  25.423  27.878  1.00  0.00    -0.014 A 
BRANCH  26  27
ATOM     27  C   UNL A   1      41.381  26.755  28.191  1.00  0.00     0.031 A 
ATOM     28  C   UNL A   1      42.767  27.098  27.724  1.00  0.00     0.074 A 
ATOM     29  C   UNL A   1      40.644  27.670  28.845  1.00  0.00     0.049 A 
ATOM     30  N   UNL A   1      43.444  28.207  27.880  1.00  0.00    -0.248 NA
ATOM     31  C   UNL A   1      43.486  26.053  26.980  1.00  0.00     0.031 C 
ATOM     32  C   UNL A   1      39.277  27.468  29.322  1.00  0.00     0.029 A 
ATOM     33  N   UNL A   1      40.943  28.958  29.212  1.00  0.00    -0.354 N 
ATOM     34  C   UNL A   1      44.670  27.990  27.268  1.00  0.00     0.074 A 
ATOM     35  C   UNL A   1      44.653  26.639  26.748  1.00  0.00     0.031 C 
ATOM     36  C   UNL A   1      38.851  28.597  29.913  1.00  0.00     0.029 A 
ATOM     37  C   UNL A   1      39.921  29.591  29.872  1.00  0.00     0.049 A 
ATOM     38  H   UNL A   1      41.809  29.385  29.021  1.00  0.00     0.167 HD
ATOM     39  C   UNL A   1      45.716  28.842  27.146  1.00  0.00     0.037 A 
ATOM     40  C   UNL A   1      39.859  30.834  30.386  1.00  0.00     0.037 A 
ATOM     41  C   UNL A   1      45.734  30.191  27.643  1.00  0.00     0.049 A 
ATOM     42  C   UNL A   1      41.041  31.755  30.249  1.00  0.00     0.074 A 
ATOM     43  C   UNL A   1      46.746  31.132  27.558  1.00  0.00     0.029 A 
ATOM     44  N   UNL A   1      44.683  30.794  28.318  1.00  0.00    -0.354 N 
ATOM     45  N   UNL A   1      42.192  31.542  29.661  1.00  0.00    -0.248 NA
ATOM     46  C   UNL A   1      40.909  33.092  30.846  1.00  0.00     0.031 C 
ATOM     47  C   UNL A   1      46.316  32.297  28.202  1.00  0.00     0.029 A 
ATOM     48  C   UNL A   1      45.025  32.091  28.663  1.00  0.00     0.049 A 
ATOM     49  H   UNL A   1      43.821  30.363  28.522  1.00  0.00     0.167 HD
ATOM     50  C   UNL A   1      42.914  32.719  29.799  1.00  0.00     0.074 A 
ATOM     51  C   UNL A   1      42.068  33.648  30.519  1.00  0.00     0.031 C 
ATOM     52  C   UNL A   1      44.166  33.005  29.368  1.00  0.00     0.037 A 
BRANCH  39  53
ATOM     53  C   UNL A   1      46.942  28.326  26.459  1.00  0.00     0.064 A 
ATOM     54  C   UNL A   1      48.110  28.025  27.174  1.00  0.00     0.173 A 
ATOM     55  C   UNL A   1      46.940  28.108  25.074  1.00  0.00     0.173 A 
ATOM     56  F   UNL A   1      48.163  28.233  28.498  1.00  0.00    -0.203 F 
ATOM     57  C   UNL A   1      49.239  27.537  26.522  1.00  0.00     0.198 A 
ATOM     58  C   UNL A   1      48.065  27.604  24.429  1.00  0.00     0.198 A 
ATOM     59  F   UNL A   1      45.845  28.383  24.349  1.00  0.00    -0.203 F 
ATOM     60  F   UNL A   1      50.357  27.285  27.218  1.00  0.00    -0.200 F 
ATOM     61  C   UNL A   1      49.214  27.323  25.152  1.00  0.00     0.200 A 
ATOM     62  F   UNL A   1      48.038  27.394  23.105  1.00  0.00    -0.200 F 
ATOM     63  F   UNL A   1      50.302  26.852  24.526  1.00  0.00    -0.200 F 
ENDBRANCH  39  53
BRANCH  40  64
ATOM     64  C   UNL A   1      38.624  31.287  31.070  1.00  0.00     0.064 A 
ATOM     65  C   UNL A   1      38.496  31.188  32.461  1.00  0.00     0.173 A 
ATOM     66  C   UNL A   1      37.549  31.820  30.346  1.00  0.00     0.173 A 
ATOM     67  F   UNL A   1      39.491  30.660  33.189  1.00  0.00    -0.203 F 
ATOM     68  C   UNL A   1      37.331  31.598  33.105  1.00  0.00     0.198 A 
ATOM     69  C   UNL A   1      36.391  32.247  30.993  1.00  0.00     0.198 A 
ATOM     70  F   UNL A   1      37.625  31.929  29.012  1.00  0.00    -0.203 F 
ATOM     71  F   UNL A   1      37.218  31.462  34.433  1.00  0.00    -0.200 F 
ATOM     72  C   UNL A   1      36.281  32.132  32.370  1.00  0.00     0.200 A 
ATOM     73  F   UNL A   1      35.382  32.766  30.281  1.00  0.00    -0.200 F 
ATOM     74  F   UNL A   1      35.161  32.525  32.990  1.00  0.00    -0.200 F 
ENDBRANCH  40  64
BRANCH  52  75
ATOM     75  C   UNL A   1      44.684  34.384  29.636  1.00  0.00     0.064 A 
ATOM     76  C   UNL A   1      45.412  34.676  30.799  1.00  0.00     0.173 A 
ATOM     77  C   UNL A   1      44.480  35.412  28.706  1.00  0.00     0.173 A 
ATOM     78  F   UNL A   1      45.618  33.726  31.722  1.00  0.00    -0.203 F 
ATOM     79  C   UNL A   1      45.903  35.958  31.027  1.00  0.00     0.198 A 
ATOM     80  C   UNL A   1      44.988  36.689  28.930  1.00  0.00     0.198 A 
ATOM     81  F   UNL A   1      43.792  35.179  27.579  1.00  0.00    -0.203 F 
ATOM     82  F   UNL A   1      46.569  36.226  32.160  1.00  0.00    -0.200 F 
ATOM     83  C   UNL A   1      45.695  36.962  30.092  1.00  0.00     0.200 A 
ATOM     84  F   UNL A   1      44.790  37.657  28.024  1.00  0.00    -0.200 F 
ATOM     85  F   UNL A   1      46.170  38.195  30.315  1.00  0.00    -0.200 F 
ENDBRANCH  52  75
ENDBRANCH  26  27
ENDBRANCH  19  21
ENDBRANCH  18  19
ENDBRANCH  17  18
ENDBRANCH   1  17
TORSDOF 14
ENDMDL
MODEL 2
REMARK VINA RESULT:     -10.7      2.034      3.075
REMARK SMILES C[C@@H](Oc1ccc(N)cc1)C(=O)OCCOC(=O)c1ccc(-c2c3nc(c(-c4c(F)c(F)c(F)c(F)c4F)c4ccc([nH]4)c(-c4c(F)c(F)c(F)c(F)c4F)c4nc(c(-c5c(F)c(F)c(F)c(F)c5F)c5ccc2[nH]5)C=C4)C=C3)cc1
REMARK SMILES IDX 14 1 13 2 11 3 12 4 2 5 1 6 3 7 4 8 5 9 10 10 6 11 9 12 7 13
REMARK SMILES IDX 8 14 15 17 16 18 17 19 18 20 19 21 20 22 81 23 21 24 80 25
REMARK SMILES IDX 22 26 23 27 24 28 74 29 25 30 79 31 73 32 75 33 26 34 78 35
REMARK SMILES IDX 72 36 71 37 27 39 59 40 39 41 58 42 40 43 43 44 57 45 76 46
REMARK SMILES IDX 41 47 42 48 56 50 77 51 44 52 28 53 29 54 37 55 30 56 31 57
REMARK SMILES IDX 35 58 38 59 32 60 33 61 36 62 34 63 60 64 61 65 69 66 62 67
REMARK SMILES IDX 63 68 67 69 70 70 64 71 65 72 68 73 66 74 45 75 46 76 54 77
REMARK SMILES IDX 47 78 48 79 52 80 55 81 49 82 50 83 53 84 51 85
REMARK H PARENT 8 15 8 16 75 38 43 49
REMARK Flexibility Score: inf
ROOT
ATOM      1  C   UNL A   1      42.180  20.181  26.555  1.00  0.00     0.274 C 
ENDROOT
BRANCH   1   2
ATOM      2  O   UNL A   1      42.653  19.814  25.246  1.00  0.00    -0.459 OA
BRANCH   2   3
ATOM      3  C   UNL A   1      43.903  19.277  25.176  1.00  0.00     0.347 C 
ATOM      4  O   UNL A   1      44.153  18.078  25.253  1.00  0.00    -0.248 OA
BRANCH   3   5
ATOM      5  C   UNL A   1      44.984  20.340  24.977  1.00  0.00     0.279 C 
ATOM      6  C   UNL A   1      46.343  19.718  24.663  1.00  0.00     0.066 C 
BRANCH   5   7
ATOM      7  O   UNL A   1      44.585  21.225  23.922  1.00  0.00    -0.479 OA
BRANCH   7   8
ATOM      8  C   UNL A   1      44.730  22.532  24.303  1.00  0.00     0.120 A 
ATOM      9  C   UNL A   1      43.609  23.289  24.632  1.00  0.00     0.048 A 
ATOM     10  C   UNL A   1      46.004  23.086  24.393  1.00  0.00     0.048 A 
ATOM     11  C   UNL A   1      43.761  24.626  25.001  1.00  0.00     0.029 A 
ATOM     12  C   UNL A   1      46.148  24.423  24.775  1.00  0.00     0.029 A 
ATOM     13  C   UNL A   1      45.031  25.200  25.099  1.00  0.00     0.032 A 
BRANCH  13  14
ATOM     14  N   UNL A   1      45.170  26.545  25.396  1.00  0.00    -0.399 N 
ATOM     15  H   UNL A   1      46.053  26.977  25.328  1.00  0.00     0.156 HD
ATOM     16  H   UNL A   1      44.386  27.071  25.674  1.00  0.00     0.156 HD
ENDBRANCH  13  14
ENDBRANCH   7   8
ENDBRANCH   5   7
ENDBRANCH   3   5
ENDBRANCH   2   3
ENDBRANCH   1   2
BRANCH   1  17
ATOM     17  C   UNL A   1      40.736  20.681  26.497  1.00  0.00     0.275 C 
BRANCH  17  18
ATOM     18  O   UNL A   1      40.690  22.092  26.212  1.00  0.00    -0.458 OA
BRANCH  18  19
ATOM     19  C   UNL A   1      39.462  22.655  26.269  1.00  0.00     0.338 C 
ATOM     20  O   UNL A   1      38.391  22.137  26.011  1.00  0.00    -0.246 OA
BRANCH  19  21
ATOM     21  C   UNL A   1      39.568  24.020  26.807  1.00  0.00     0.060 A 
ATOM     22  C   UNL A   1      40.143  25.004  25.998  1.00  0.00     0.016 A 
ATOM     23  C   UNL A   1      39.229  24.293  28.132  1.00  0.00     0.016 A 
ATOM     24  C   UNL A   1      40.411  26.265  26.524  1.00  0.00     0.010 A 
ATOM     25  C   UNL A   1      39.496  25.562  28.659  1.00  0.00     0.010 A 
ATOM     26  C   UNL A   1      40.114  26.544  27.864  1.00  0.00    -0.014 A 
BRANCH  26  27
ATOM     27  C   UNL A   1      40.552  27.833  28.450  1.00  0.00     0.031 A 
ATOM     28  C   UNL A   1      42.013  28.074  28.704  1.00  0.00     0.074 A 
ATOM     29  C   UNL A   1      39.654  28.801  28.704  1.00  0.00     0.049 A 
ATOM     30  N   UNL A   1      42.605  29.132  29.195  1.00  0.00    -0.248 NA
ATOM     31  C   UNL A   1      42.929  26.976  28.358  1.00  0.00     0.031 C 
ATOM     32  C   UNL A   1      38.215  28.699  28.471  1.00  0.00     0.029 A 
ATOM     33  N   UNL A   1      39.827  30.066  29.207  1.00  0.00    -0.354 N 
ATOM     34  C   UNL A   1      43.958  28.825  29.230  1.00  0.00     0.074 A 
ATOM     35  C   UNL A   1      44.101  27.477  28.724  1.00  0.00     0.031 C 
ATOM     36  C   UNL A   1      37.634  29.858  28.823  1.00  0.00     0.029 A 
ATOM     37  C   UNL A   1      38.657  30.773  29.323  1.00  0.00     0.049 A 
ATOM     38  H   UNL A   1      40.706  30.430  29.461  1.00  0.00     0.167 HD
ATOM     39  C   UNL A   1      44.989  29.600  29.643  1.00  0.00     0.037 A 
ATOM     40  C   UNL A   1      38.441  32.020  29.783  1.00  0.00     0.037 A 
ATOM     41  C   UNL A   1      44.857  30.947  30.129  1.00  0.00     0.049 A 
ATOM     42  C   UNL A   1      39.603  32.854  30.249  1.00  0.00     0.074 A 
ATOM     43  C   UNL A   1      45.847  31.813  30.561  1.00  0.00     0.029 A 
ATOM     44  N   UNL A   1      43.654  31.626  30.243  1.00  0.00    -0.354 N 
ATOM     45  N   UNL A   1      40.879  32.557  30.270  1.00  0.00    -0.248 NA
ATOM     46  C   UNL A   1      39.291  34.200  30.753  1.00  0.00     0.031 C 
ATOM     47  C   UNL A   1      45.240  33.009  30.959  1.00  0.00     0.029 A 
ATOM     48  C   UNL A   1      43.875  32.897  30.749  1.00  0.00     0.049 A 
ATOM     49  H   UNL A   1      42.773  31.259  30.003  1.00  0.00     0.167 HD
ATOM     50  C   UNL A   1      41.523  33.679  30.768  1.00  0.00     0.074 A 
ATOM     51  C   UNL A   1      40.500  34.670  31.029  1.00  0.00     0.031 C 
ATOM     52  C   UNL A   1      42.846  33.873  30.989  1.00  0.00     0.037 A 
BRANCH  39  53
ATOM     53  C   UNL A   1      46.359  28.995  29.602  1.00  0.00     0.064 A 
ATOM     54  C   UNL A   1      47.172  29.100  28.465  1.00  0.00     0.173 A 
ATOM     55  C   UNL A   1      46.871  28.326  30.722  1.00  0.00     0.173 A 
ATOM     56  F   UNL A   1      46.716  29.718  27.364  1.00  0.00    -0.203 F 
ATOM     57  C   UNL A   1      48.446  28.541  28.445  1.00  0.00     0.198 A 
ATOM     58  C   UNL A   1      48.152  27.783  30.705  1.00  0.00     0.198 A 
ATOM     59  F   UNL A   1      46.129  28.201  31.833  1.00  0.00    -0.203 F 
ATOM     60  F   UNL A   1      49.197  28.623  27.338  1.00  0.00    -0.200 F 
ATOM     61  C   UNL A   1      48.937  27.887  29.566  1.00  0.00     0.200 A 
ATOM     62  F   UNL A   1      48.627  27.156  31.790  1.00  0.00    -0.200 F 
ATOM     63  F   UNL A   1      50.165  27.350  29.547  1.00  0.00    -0.200 F 
ENDBRANCH  39  53
BRANCH  40  64
ATOM     64  C   UNL A   1      37.061  32.563  29.814  1.00  0.00     0.064 A 
ATOM     65  C   UNL A   1      36.537  33.256  28.716  1.00  0.00     0.173 A 
ATOM     66  C   UNL A   1      36.245  32.403  30.942  1.00  0.00     0.173 A 
ATOM     67  F   UNL A   1      37.294  33.453  27.626  1.00  0.00    -0.203 F 
ATOM     68  C   UNL A   1      35.248  33.781  28.747  1.00  0.00     0.198 A 
ATOM     69  C   UNL A   1      34.948  32.913  30.966  1.00  0.00     0.198 A 
ATOM     70  F   UNL A   1      36.706  31.751  32.019  1.00  0.00    -0.203 F 
ATOM     71  F   UNL A   1      34.781  34.471  27.698  1.00  0.00    -0.200 F 
ATOM     72  C   UNL A   1      34.453  33.605  29.871  1.00  0.00     0.200 A 
ATOM     73  F   UNL A   1      34.181  32.737  32.051  1.00  0.00    -0.200 F 
ATOM     74  F   UNL A   1      33.212  34.110  29.901  1.00  0.00    -0.200 F 
ENDBRANCH  40  64
BRANCH  52  75
ATOM     75  C   UNL A   1      43.263  35.213  31.512  1.00  0.00     0.064 A 
ATOM     76  C   UNL A   1      43.232  35.503  32.883  1.00  0.00     0.173 A 
ATOM     77  C   UNL A   1      43.730  36.202  30.636  1.00  0.00     0.173 A 
ATOM     78  F   UNL A   1      42.779  34.591  33.756  1.00  0.00    -0.203 F 
ATOM     79  C   UNL A   1      43.640  36.746  33.357  1.00  0.00     0.198 A 
ATOM     80  C   UNL A   1      44.153  37.439  31.116  1.00  0.00     0.198 A 
ATOM     81  F   UNL A   1      43.780  35.969  29.316  1.00  0.00    -0.203 F 
ATOM     82  F   UNL A   1      43.573  37.016  34.669  1.00  0.00    -0.200 F 
ATOM     83  C   UNL A   1      44.104  37.711  32.475  1.00  0.00     0.200 A 
ATOM     84  F   UNL A   1      44.605  38.369  30.263  1.00  0.00    -0.200 F 
ATOM     85  F   UNL A   1      44.496  38.907  32.935  1.00  0.00    -0.200 F 
ENDBRANCH  52  75
ENDBRANCH  26  27
ENDBRANCH  19  21
ENDBRANCH  18  19
ENDBRANCH  17  18
ENDBRANCH   1  17
TORSDOF 14
ENDMDL
MODEL 3
REMARK VINA RESULT:     -10.6      4.560      7.010
REMARK SMILES C[C@@H](Oc1ccc(N)cc1)C(=O)OCCOC(=O)c1ccc(-c2c3nc(c(-c4c(F)c(F)c(F)c(F)c4F)c4ccc([nH]4)c(-c4c(F)c(F)c(F)c(F)c4F)c4nc(c(-c5c(F)c(F)c(F)c(F)c5F)c5ccc2[nH]5)C=C4)C=C3)cc1
REMARK SMILES IDX 14 1 13 2 11 3 12 4 2 5 1 6 3 7 4 8 5 9 10 10 6 11 9 12 7 13
REMARK SMILES IDX 8 14 15 17 16 18 17 19 18 20 19 21 20 22 81 23 21 24 80 25
REMARK SMILES IDX 22 26 23 27 24 28 74 29 25 30 79 31 73 32 75 33 26 34 78 35
REMARK SMILES IDX 72 36 71 37 27 39 59 40 39 41 58 42 40 43 43 44 57 45 76 46
REMARK SMILES IDX 41 47 42 48 56 50 77 51 44 52 28 53 29 54 37 55 30 56 31 57
REMARK SMILES IDX 35 58 38 59 32 60 33 61 36 62 34 63 60 64 61 65 69 66 62 67
REMARK SMILES IDX 63 68 67 69 70 70 64 71 65 72 68 73 66 74 45 75 46 76 54 77
REMARK SMILES IDX 47 78 48 79 52 80 55 81 49 82 50 83 53 84 51 85
REMARK H PARENT 8 15 8 16 75 38 43 49
REMARK Flexibility Score: inf
ROOT
ATOM      1  C   UNL A   1      44.753  21.326  24.807  1.00  0.00     0.274 C 
ENDROOT
BRANCH   1   2
ATOM      2  O   UNL A   1      43.597  20.469  24.767  1.00  0.00    -0.459 OA
BRANCH   2   3
ATOM      3  C   UNL A   1      43.746  19.218  25.287  1.00  0.00     0.347 C 
ATOM      4  O   UNL A   1      44.678  18.462  25.029  1.00  0.00    -0.248 OA
BRANCH   3   5
ATOM      5  C   UNL A   1      42.617  18.849  26.251  1.00  0.00     0.279 C 
ATOM      6  C   UNL A   1      43.021  17.716  27.191  1.00  0.00     0.066 C 
BRANCH   5   7
ATOM      7  O   UNL A   1      42.242  20.011  27.002  1.00  0.00    -0.479 OA
BRANCH   7   8
ATOM      8  C   UNL A   1      41.029  20.489  26.584  1.00  0.00     0.120 A 
ATOM      9  C   UNL A   1      40.132  19.641  25.941  1.00  0.00     0.048 A 
ATOM     10  C   UNL A   1      40.687  21.814  26.836  1.00  0.00     0.048 A 
ATOM     11  C   UNL A   1      38.905  20.138  25.500  1.00  0.00     0.029 A 
ATOM     12  C   UNL A   1      39.451  22.301  26.401  1.00  0.00     0.029 A 
ATOM     13  C   UNL A   1      38.542  21.465  25.745  1.00  0.00     0.032 A 
BRANCH  13  14
ATOM     14  N   UNL A   1      37.355  21.970  25.242  1.00  0.00    -0.399 N 
ATOM     15  H   UNL A   1      37.313  22.898  24.915  1.00  0.00     0.156 HD
ATOM     16  H   UNL A   1      36.552  21.400  25.210  1.00  0.00     0.156 HD
ENDBRANCH  13  14
ENDBRANCH   7   8
ENDBRANCH   5   7
ENDBRANCH   3   5
ENDBRANCH   2   3
ENDBRANCH   1   2
BRANCH   1  17
ATOM     17  C   UNL A   1      44.546  22.568  23.938  1.00  0.00     0.275 C 
BRANCH  17  18
ATOM     18  O   UNL A   1      43.781  23.565  24.641  1.00  0.00    -0.458 OA
BRANCH  18  19
ATOM     19  C   UNL A   1      44.472  24.663  25.022  1.00  0.00     0.338 C 
ATOM     20  O   UNL A   1      45.551  25.047  24.608  1.00  0.00    -0.246 OA
BRANCH  19  21
ATOM     21  C   UNL A   1      43.674  25.442  25.981  1.00  0.00     0.060 A 
ATOM     22  C   UNL A   1      44.023  26.778  26.196  1.00  0.00     0.016 A 
ATOM     23  C   UNL A   1      42.687  24.828  26.753  1.00  0.00     0.016 A 
ATOM     24  C   UNL A   1      43.402  27.503  27.210  1.00  0.00     0.010 A 
ATOM     25  C   UNL A   1      42.062  25.558  27.770  1.00  0.00     0.010 A 
ATOM     26  C   UNL A   1      42.438  26.890  28.021  1.00  0.00    -0.014 A 
BRANCH  26  27
ATOM     27  C   UNL A   1      41.906  27.623  29.194  1.00  0.00     0.031 A 
ATOM     28  C   UNL A   1      42.635  27.553  30.506  1.00  0.00     0.074 A 
ATOM     29  C   UNL A   1      40.807  28.389  29.073  1.00  0.00     0.049 A 
ATOM     30  N   UNL A   1      42.348  28.128  31.646  1.00  0.00    -0.248 NA
ATOM     31  C   UNL A   1      43.851  26.726  30.537  1.00  0.00     0.031 C 
ATOM     32  C   UNL A   1      40.031  28.563  27.847  1.00  0.00     0.029 A 
ATOM     33  N   UNL A   1      40.161  29.170  29.997  1.00  0.00    -0.354 N 
ATOM     34  C   UNL A   1      43.336  27.723  32.532  1.00  0.00     0.074 A 
ATOM     35  C   UNL A   1      44.226  26.842  31.804  1.00  0.00     0.031 C 
ATOM     36  C   UNL A   1      39.014  29.407  28.092  1.00  0.00     0.029 A 
ATOM     37  C   UNL A   1      39.059  29.815  29.494  1.00  0.00     0.049 A 
ATOM     38  H   UNL A   1      40.458  29.259  30.932  1.00  0.00     0.167 HD
ATOM     39  C   UNL A   1      43.492  28.059  33.834  1.00  0.00     0.037 A 
ATOM     40  C   UNL A   1      38.186  30.641  30.101  1.00  0.00     0.037 A 
ATOM     41  C   UNL A   1      42.624  28.947  34.559  1.00  0.00     0.049 A 
ATOM     42  C   UNL A   1      38.374  30.986  31.553  1.00  0.00     0.074 A 
ATOM     43  C   UNL A   1      42.708  29.353  35.880  1.00  0.00     0.029 A 
ATOM     44  N   UNL A   1      41.511  29.572  34.018  1.00  0.00    -0.354 N 
ATOM     45  N   UNL A   1      39.316  30.604  32.379  1.00  0.00    -0.248 NA
ATOM     46  C   UNL A   1      37.375  31.882  32.154  1.00  0.00     0.031 C 
ATOM     47  C   UNL A   1      41.631  30.207  36.145  1.00  0.00     0.029 A 
ATOM     48  C   UNL A   1      40.893  30.353  34.982  1.00  0.00     0.049 A 
ATOM     49  H   UNL A   1      41.204  29.474  33.088  1.00  0.00     0.167 HD
ATOM     50  C   UNL A   1      39.038  31.224  33.588  1.00  0.00     0.074 A 
ATOM     51  C   UNL A   1      37.843  32.017  33.388  1.00  0.00     0.031 C 
ATOM     52  C   UNL A   1      39.713  31.145  34.760  1.00  0.00     0.037 A 
BRANCH  39  53
ATOM     53  C   UNL A   1      44.642  27.441  34.568  1.00  0.00     0.064 A 
ATOM     54  C   UNL A   1      45.893  28.071  34.631  1.00  0.00     0.173 A 
ATOM     55  C   UNL A   1      44.483  26.218  35.235  1.00  0.00     0.173 A 
ATOM     56  F   UNL A   1      46.096  29.235  33.994  1.00  0.00    -0.203 F 
ATOM     57  C   UNL A   1      46.950  27.490  35.325  1.00  0.00     0.198 A 
ATOM     58  C   UNL A   1      45.538  25.649  35.942  1.00  0.00     0.198 A 
ATOM     59  F   UNL A   1      43.304  25.579  35.202  1.00  0.00    -0.203 F 
ATOM     60  F   UNL A   1      48.148  28.091  35.347  1.00  0.00    -0.200 F 
ATOM     61  C   UNL A   1      46.770  26.282  35.983  1.00  0.00     0.200 A 
ATOM     62  F   UNL A   1      45.361  24.483  36.581  1.00  0.00    -0.200 F 
ATOM     63  F   UNL A   1      47.789  25.723  36.652  1.00  0.00    -0.200 F 
ENDBRANCH  39  53
BRANCH  40  64
ATOM     64  C   UNL A   1      37.056  31.213  29.328  1.00  0.00     0.064 A 
ATOM     65  C   UNL A   1      37.061  32.558  28.939  1.00  0.00     0.173 A 
ATOM     66  C   UNL A   1      35.952  30.427  28.972  1.00  0.00     0.173 A 
ATOM     67  F   UNL A   1      38.086  33.351  29.282  1.00  0.00    -0.203 F 
ATOM     68  C   UNL A   1      35.994  33.102  28.227  1.00  0.00     0.198 A 
ATOM     69  C   UNL A   1      34.894  30.967  28.244  1.00  0.00     0.198 A 
ATOM     70  F   UNL A   1      35.903  29.135  29.328  1.00  0.00    -0.203 F 
ATOM     71  F   UNL A   1      36.004  34.400  27.896  1.00  0.00    -0.200 F 
ATOM     72  C   UNL A   1      34.913  32.305  27.877  1.00  0.00     0.200 A 
ATOM     73  F   UNL A   1      33.854  30.194  27.903  1.00  0.00    -0.200 F 
ATOM     74  F   UNL A   1      33.887  32.828  27.193  1.00  0.00    -0.200 F 
ENDBRANCH  40  64
BRANCH  52  75
ATOM     75  C   UNL A   1      39.191  31.956  35.906  1.00  0.00     0.064 A 
ATOM     76  C   UNL A   1      38.274  31.421  36.821  1.00  0.00     0.173 A 
ATOM     77  C   UNL A   1      39.640  33.269  36.108  1.00  0.00     0.173 A 
ATOM     78  F   UNL A   1      37.808  30.174  36.658  1.00  0.00    -0.203 F 
ATOM     79  C   UNL A   1      37.812  32.180  37.893  1.00  0.00     0.198 A 
ATOM     80  C   UNL A   1      39.188  34.019  37.190  1.00  0.00     0.198 A 
ATOM     81  F   UNL A   1      40.519  33.822  35.259  1.00  0.00    -0.203 F 
ATOM     82  F   UNL A   1      36.911  31.662  38.739  1.00  0.00    -0.200 F 
ATOM     83  C   UNL A   1      38.272  33.476  38.079  1.00  0.00     0.200 A 
ATOM     84  F   UNL A   1      39.636  35.269  37.372  1.00  0.00    -0.200 F 
ATOM     85  F   UNL A   1      37.825  34.204  39.111  1.00  0.00    -0.200 F 
ENDBRANCH  52  75
ENDBRANCH  26  27
ENDBRANCH  19  21
ENDBRANCH  18  19
ENDBRANCH  17  18
ENDBRANCH   1  17
TORSDOF 14
ENDMDL
