MODEL 1
REMARK VINA RESULT:     -11.2      0.000      0.000
REMARK SMILES CC(C)(C)OC(=O)[C@@H](C(=O)OCCOC(=O)c1ccc(-c2c3nc(c(-c4c(F)c(F)c(F)c(F)c4F)c4ccc([nH]4)c(-c4c(F)c(F)c(F)c(F)c4F)c4nc(c(-c5c(F)c(F)c(F)c(F)c5F)c5ccc2[nH]5)C=C4)C=C3)cc1)[C@@H]([NH3+])Cc1cccc(F)c1
REMARK SMILES IDX 12 1 11 2 9 3 10 4 8 5 6 6 7 7 5 8 2 9 1 10 3 11 4 12 80 13
REMARK SMILES IDX 81 14 82 18 83 19 84 20 89 21 85 22 87 23 86 24 88 25 13 26
REMARK SMILES IDX 14 27 15 28 16 29 17 30 18 31 79 32 19 33 78 34 20 35 21 36
REMARK SMILES IDX 22 37 72 38 23 39 77 40 71 41 73 42 24 43 76 44 70 45 69 46
REMARK SMILES IDX 25 48 57 49 37 50 56 51 38 52 41 53 55 54 74 55 39 56 40 57
REMARK SMILES IDX 54 59 75 60 42 61 26 62 27 63 35 64 28 65 29 66 33 67 36 68
REMARK SMILES IDX 30 69 31 70 34 71 32 72 58 73 59 74 67 75 60 76 61 77 65 78
REMARK SMILES IDX 68 79 62 80 63 81 66 82 64 83 43 84 44 85 52 86 45 87 46 88
REMARK SMILES IDX 50 89 53 90 47 91 48 92 51 93 49 94
REMARK H PARENT 81 15 81 16 81 17 73 47 41 58
REMARK Flexibility Score: inf
ROOT
ATOM      1  C   UNL A   1      31.571  28.321  27.182  1.00  0.00     0.274 C 
ENDROOT
BRANCH   1   2
ATOM      2  O   UNL A   1      31.244  26.968  26.774  1.00  0.00    -0.461 OA
BRANCH   2   3
ATOM      3  C   UNL A   1      32.299  26.292  26.262  1.00  0.00     0.326 C 
ATOM      4  O   UNL A   1      33.441  26.672  26.408  1.00  0.00    -0.251 OA
BRANCH   3   5
ATOM      5  C   UNL A   1      31.972  25.039  25.507  1.00  0.00     0.266 C 
BRANCH   5   6
ATOM      6  C   UNL A   1      31.239  25.427  24.232  1.00  0.00     0.327 C 
ATOM      7  O   UNL A   1      30.235  24.845  23.844  1.00  0.00    -0.251 OA
BRANCH   6   8
ATOM      8  O   UNL A   1      31.816  26.490  23.593  1.00  0.00    -0.459 OA
BRANCH   8   9
ATOM      9  C   UNL A   1      32.854  26.285  22.581  1.00  0.00     0.104 C 
ATOM     10  C   UNL A   1      32.140  25.987  21.250  1.00  0.00     0.056 C 
ATOM     11  C   UNL A   1      33.730  25.069  22.898  1.00  0.00     0.056 C 
ATOM     12  C   UNL A   1      33.679  27.565  22.396  1.00  0.00     0.056 C 
ENDBRANCH   8   9
ENDBRANCH   6   8
ENDBRANCH   5   6
BRANCH   5  13
ATOM     13  C   UNL A   1      31.143  24.055  26.405  1.00  0.00     0.211 C 
BRANCH  13  14
ATOM     14  N   UNL A   1      29.747  24.528  26.581  1.00  0.00    -0.354 N 
ATOM     15  H   UNL A   1      29.751  25.415  27.084  1.00  0.00     0.344 HD
ATOM     16  H   UNL A   1      29.220  23.837  27.114  1.00  0.00     0.344 HD
ATOM     17  H   UNL A   1      29.314  24.656  25.666  1.00  0.00     0.344 HD
ENDBRANCH  13  14
BRANCH  13  18
ATOM     18  C   UNL A   1      31.006  22.549  25.936  1.00  0.00     0.102 C 
BRANCH  18  19
ATOM     19  C   UNL A   1      32.210  21.738  25.497  1.00  0.00    -0.039 A 
ATOM     20  C   UNL A   1      32.078  20.665  24.600  1.00  0.00     0.004 A 
ATOM     21  C   UNL A   1      33.477  21.980  26.038  1.00  0.00     0.043 A 
ATOM     22  C   UNL A   1      33.142  19.797  24.322  1.00  0.00     0.003 A 
ATOM     23  C   UNL A   1      34.538  21.120  25.749  1.00  0.00     0.123 A 
ATOM     24  C   UNL A   1      34.378  20.020  24.915  1.00  0.00     0.039 A 
ATOM     25  F   UNL A   1      35.730  21.335  26.324  1.00  0.00    -0.207 F 
ENDBRANCH  18  19
ENDBRANCH  13  18
ENDBRANCH   5  13
ENDBRANCH   3   5
ENDBRANCH   2   3
ENDBRANCH   1   2
BRANCH   1  26
ATOM     26  C   UNL A   1      31.651  29.393  26.065  1.00  0.00     0.275 C 
BRANCH  26  27
ATOM     27  O   UNL A   1      32.945  30.045  25.937  1.00  0.00    -0.458 OA
BRANCH  27  28
ATOM     28  C   UNL A   1      33.179  31.079  26.790  1.00  0.00     0.338 C 
ATOM     29  O   UNL A   1      32.389  31.970  27.059  1.00  0.00    -0.246 OA
BRANCH  28  30
ATOM     30  C   UNL A   1      34.462  30.929  27.534  1.00  0.00     0.060 A 
ATOM     31  C   UNL A   1      34.829  29.646  27.968  1.00  0.00     0.016 A 
ATOM     32  C   UNL A   1      35.281  32.007  27.861  1.00  0.00     0.016 A 
ATOM     33  C   UNL A   1      36.049  29.412  28.615  1.00  0.00     0.010 A 
ATOM     34  C   UNL A   1      36.480  31.784  28.570  1.00  0.00     0.010 A 
ATOM     35  C   UNL A   1      36.892  30.484  28.926  1.00  0.00    -0.014 A 
BRANCH  35  36
ATOM     36  C   UNL A   1      38.104  30.256  29.767  1.00  0.00     0.031 A 
ATOM     37  C   UNL A   1      39.192  29.374  29.223  1.00  0.00     0.074 A 
ATOM     38  C   UNL A   1      38.276  30.832  30.975  1.00  0.00     0.049 A 
ATOM     39  N   UNL A   1      40.284  28.943  29.801  1.00  0.00    -0.248 NA
ATOM     40  C   UNL A   1      39.022  28.923  27.834  1.00  0.00     0.031 C 
ATOM     41  C   UNL A   1      37.365  31.782  31.598  1.00  0.00     0.029 A 
ATOM     42  N   UNL A   1      39.287  30.693  31.902  1.00  0.00    -0.354 N 
ATOM     43  C   UNL A   1      40.928  28.163  28.851  1.00  0.00     0.074 A 
ATOM     44  C   UNL A   1      40.098  28.171  27.664  1.00  0.00     0.031 C 
ATOM     45  C   UNL A   1      37.841  32.135  32.803  1.00  0.00     0.029 A 
ATOM     46  C   UNL A   1      39.064  31.385  33.072  1.00  0.00     0.049 A 
ATOM     47  H   UNL A   1      40.091  30.150  31.744  1.00  0.00     0.167 HD
ATOM     48  C   UNL A   1      42.099  27.494  28.958  1.00  0.00     0.037 A 
ATOM     49  C   UNL A   1      39.735  31.381  34.242  1.00  0.00     0.037 A 
ATOM     50  C   UNL A   1      42.912  27.455  30.145  1.00  0.00     0.049 A 
ATOM     51  C   UNL A   1      40.968  30.523  34.382  1.00  0.00     0.074 A 
ATOM     52  C   UNL A   1      44.097  26.773  30.358  1.00  0.00     0.029 A 
ATOM     53  N   UNL A   1      42.616  28.118  31.328  1.00  0.00    -0.354 N 
ATOM     54  N   UNL A   1      41.559  29.769  33.489  1.00  0.00    -0.248 NA
ATOM     55  C   UNL A   1      41.625  30.512  35.700  1.00  0.00     0.031 C 
ATOM     56  C   UNL A   1      44.488  26.975  31.685  1.00  0.00     0.029 A 
ATOM     57  C   UNL A   1      43.584  27.840  32.281  1.00  0.00     0.049 A 
ATOM     58  H   UNL A   1      41.836  28.701  31.469  1.00  0.00     0.167 HD
ATOM     59  C   UNL A   1      42.669  29.224  34.120  1.00  0.00     0.074 A 
ATOM     60  C   UNL A   1      42.680  29.741  35.471  1.00  0.00     0.031 C 
ATOM     61  C   UNL A   1      43.597  28.370  33.621  1.00  0.00     0.037 A 
BRANCH  48  62
ATOM     62  C   UNL A   1      42.534  26.692  27.766  1.00  0.00     0.064 A 
ATOM     63  C   UNL A   1      42.097  25.375  27.563  1.00  0.00     0.173 A 
ATOM     64  C   UNL A   1      43.408  27.249  26.821  1.00  0.00     0.173 A 
ATOM     65  F   UNL A   1      41.277  24.789  28.450  1.00  0.00    -0.203 F 
ATOM     66  C   UNL A   1      42.549  24.631  26.476  1.00  0.00     0.198 A 
ATOM     67  C   UNL A   1      43.831  26.514  25.717  1.00  0.00     0.198 A 
ATOM     68  F   UNL A   1      43.854  28.505  26.968  1.00  0.00    -0.203 F 
ATOM     69  F   UNL A   1      42.172  23.353  26.337  1.00  0.00    -0.200 F 
ATOM     70  C   UNL A   1      43.412  25.203  25.552  1.00  0.00     0.200 A 
ATOM     71  F   UNL A   1      44.655  27.072  24.820  1.00  0.00    -0.200 F 
ATOM     72  F   UNL A   1      43.848  24.486  24.508  1.00  0.00    -0.200 F 
ENDBRANCH  48  62
BRANCH  49  73
ATOM     73  C   UNL A   1      39.237  32.171  35.405  1.00  0.00     0.064 A 
ATOM     74  C   UNL A   1      39.609  33.511  35.591  1.00  0.00     0.173 A 
ATOM     75  C   UNL A   1      38.422  31.585  36.387  1.00  0.00     0.173 A 
ATOM     76  F   UNL A   1      40.416  34.110  34.702  1.00  0.00    -0.203 F 
ATOM     77  C   UNL A   1      39.208  34.224  36.720  1.00  0.00     0.198 A 
ATOM     78  C   UNL A   1      37.993  32.308  37.498  1.00  0.00     0.198 A 
ATOM     79  F   UNL A   1      38.045  30.303  36.270  1.00  0.00    -0.203 F 
ATOM     80  F   UNL A   1      39.632  35.481  36.902  1.00  0.00    -0.200 F 
ATOM     81  C   UNL A   1      38.395  33.624  37.670  1.00  0.00     0.200 A 
ATOM     82  F   UNL A   1      37.202  31.726  38.410  1.00  0.00    -0.200 F 
ATOM     83  F   UNL A   1      38.013  34.308  38.758  1.00  0.00    -0.200 F 
ENDBRANCH  49  73
BRANCH  61  84
ATOM     84  C   UNL A   1      44.740  27.978  34.517  1.00  0.00     0.064 A 
ATOM     85  C   UNL A   1      45.930  28.718  34.570  1.00  0.00     0.173 A 
ATOM     86  C   UNL A   1      44.618  26.872  35.373  1.00  0.00     0.173 A 
ATOM     87  F   UNL A   1      46.105  29.776  33.763  1.00  0.00    -0.203 F 
ATOM     88  C   UNL A   1      46.964  28.351  35.429  1.00  0.00     0.198 A 
ATOM     89  C   UNL A   1      45.639  26.529  36.255  1.00  0.00     0.198 A 
ATOM     90  F   UNL A   1      43.499  26.132  35.368  1.00  0.00    -0.203 F 
ATOM     91  F   UNL A   1      48.111  29.045  35.428  1.00  0.00    -0.200 F 
ATOM     92  C   UNL A   1      46.815  27.264  36.277  1.00  0.00     0.200 A 
ATOM     93  F   UNL A   1      45.484  25.488  37.084  1.00  0.00    -0.200 F 
ATOM     94  F   UNL A   1      47.805  26.921  37.112  1.00  0.00    -0.200 F 
ENDBRANCH  61  84
ENDBRANCH  35  36
ENDBRANCH  28  30
ENDBRANCH  27  28
ENDBRANCH  26  27
ENDBRANCH   1  26
TORSDOF 18
ENDMDL
MODEL 2
REMARK VINA RESULT:     -11.2      1.208      2.072
REMARK SMILES CC(C)(C)OC(=O)[C@@H](C(=O)OCCOC(=O)c1ccc(-c2c3nc(c(-c4c(F)c(F)c(F)c(F)c4F)c4ccc([nH]4)c(-c4c(F)c(F)c(F)c(F)c4F)c4nc(c(-c5c(F)c(F)c(F)c(F)c5F)c5ccc2[nH]5)C=C4)C=C3)cc1)[C@@H]([NH3+])Cc1cccc(F)c1
REMARK SMILES IDX 12 1 11 2 9 3 10 4 8 5 6 6 7 7 5 8 2 9 1 10 3 11 4 12 80 13
REMARK SMILES IDX 81 14 82 18 83 19 84 20 89 21 85 22 87 23 86 24 88 25 13 26
REMARK SMILES IDX 14 27 15 28 16 29 17 30 18 31 79 32 19 33 78 34 20 35 21 36
REMARK SMILES IDX 22 37 72 38 23 39 77 40 71 41 73 42 24 43 76 44 70 45 69 46
REMARK SMILES IDX 25 48 57 49 37 50 56 51 38 52 41 53 55 54 74 55 39 56 40 57
REMARK SMILES IDX 54 59 75 60 42 61 26 62 27 63 35 64 28 65 29 66 33 67 36 68
REMARK SMILES IDX 30 69 31 70 34 71 32 72 58 73 59 74 67 75 60 76 61 77 65 78
REMARK SMILES IDX 68 79 62 80 63 81 66 82 64 83 43 84 44 85 52 86 45 87 46 88
REMARK SMILES IDX 50 89 53 90 47 91 48 92 51 93 49 94
REMARK H PARENT 81 15 81 16 81 17 73 47 41 58
REMARK Flexibility Score: inf
ROOT
ATOM      1  C   UNL A   1      31.991  27.957  26.481  1.00  0.00     0.274 C 
ENDROOT
BRANCH   1   2
ATOM      2  O   UNL A   1      32.358  26.867  25.598  1.00  0.00    -0.461 OA
BRANCH   2   3
ATOM      3  C   UNL A   1      31.808  25.682  25.951  1.00  0.00     0.326 C 
ATOM      4  O   UNL A   1      30.766  25.612  26.566  1.00  0.00    -0.251 OA
BRANCH   3   5
ATOM      5  C   UNL A   1      32.564  24.458  25.532  1.00  0.00     0.266 C 
BRANCH   5   6
ATOM      6  C   UNL A   1      33.744  24.894  24.677  1.00  0.00     0.327 C 
ATOM      7  O   UNL A   1      33.617  25.274  23.520  1.00  0.00    -0.251 OA
BRANCH   6   8
ATOM      8  O   UNL A   1      34.935  24.825  25.345  1.00  0.00    -0.459 OA
BRANCH   8   9
ATOM      9  C   UNL A   1      35.772  23.626  25.268  1.00  0.00     0.104 C 
ATOM     10  C   UNL A   1      35.163  22.583  26.223  1.00  0.00     0.056 C 
ATOM     11  C   UNL A   1      37.200  23.892  25.752  1.00  0.00     0.056 C 
ATOM     12  C   UNL A   1      35.738  23.041  23.850  1.00  0.00     0.056 C 
ENDBRANCH   8   9
ENDBRANCH   6   8
ENDBRANCH   5   6
BRANCH   5  13
ATOM     13  C   UNL A   1      31.617  23.453  24.787  1.00  0.00     0.211 C 
BRANCH  13  14
ATOM     14  N   UNL A   1      30.538  24.166  24.058  1.00  0.00    -0.354 N 
ATOM     15  H   UNL A   1      30.280  23.633  23.228  1.00  0.00     0.344 HD
ATOM     16  H   UNL A   1      30.871  25.089  23.780  1.00  0.00     0.344 HD
ATOM     17  H   UNL A   1      29.725  24.266  24.665  1.00  0.00     0.344 HD
ENDBRANCH  13  14
BRANCH  13  18
ATOM     18  C   UNL A   1      32.253  22.476  23.717  1.00  0.00     0.102 C 
BRANCH  18  19
ATOM     19  C   UNL A   1      32.278  20.974  23.924  1.00  0.00    -0.039 A 
ATOM     20  C   UNL A   1      32.498  20.417  25.195  1.00  0.00     0.004 A 
ATOM     21  C   UNL A   1      32.167  20.095  22.842  1.00  0.00     0.043 A 
ATOM     22  C   UNL A   1      32.701  19.043  25.377  1.00  0.00     0.003 A 
ATOM     23  C   UNL A   1      32.358  18.725  23.028  1.00  0.00     0.123 A 
ATOM     24  C   UNL A   1      32.645  18.193  24.280  1.00  0.00     0.039 A 
ATOM     25  F   UNL A   1      32.305  17.906  21.968  1.00  0.00    -0.207 F 
ENDBRANCH  18  19
ENDBRANCH  13  18
ENDBRANCH   5  13
ENDBRANCH   3   5
ENDBRANCH   2   3
ENDBRANCH   1   2
BRANCH   1  26
ATOM     26  C   UNL A   1      31.798  29.353  25.834  1.00  0.00     0.275 C 
BRANCH  26  27
ATOM     27  O   UNL A   1      33.000  30.169  25.777  1.00  0.00    -0.458 OA
BRANCH  27  28
ATOM     28  C   UNL A   1      33.146  31.087  26.771  1.00  0.00     0.338 C 
ATOM     29  O   UNL A   1      32.288  31.869  27.146  1.00  0.00    -0.246 OA
BRANCH  28  30
ATOM     30  C   UNL A   1      34.431  30.932  27.511  1.00  0.00     0.060 A 
ATOM     31  C   UNL A   1      34.763  29.659  27.999  1.00  0.00     0.016 A 
ATOM     32  C   UNL A   1      35.285  31.998  27.782  1.00  0.00     0.016 A 
ATOM     33  C   UNL A   1      35.982  29.417  28.645  1.00  0.00     0.010 A 
ATOM     34  C   UNL A   1      36.484  31.771  28.491  1.00  0.00     0.010 A 
ATOM     35  C   UNL A   1      36.859  30.475  28.902  1.00  0.00    -0.014 A 
BRANCH  35  36
ATOM     36  C   UNL A   1      38.072  30.249  29.742  1.00  0.00     0.031 A 
ATOM     37  C   UNL A   1      39.160  29.367  29.198  1.00  0.00     0.074 A 
ATOM     38  C   UNL A   1      38.244  30.825  30.950  1.00  0.00     0.049 A 
ATOM     39  N   UNL A   1      40.253  28.937  29.776  1.00  0.00    -0.248 NA
ATOM     40  C   UNL A   1      38.991  28.916  27.809  1.00  0.00     0.031 C 
ATOM     41  C   UNL A   1      37.333  31.774  31.574  1.00  0.00     0.029 A 
ATOM     42  N   UNL A   1      39.255  30.686  31.877  1.00  0.00    -0.354 N 
ATOM     43  C   UNL A   1      40.897  28.157  28.826  1.00  0.00     0.074 A 
ATOM     44  C   UNL A   1      40.067  28.164  27.639  1.00  0.00     0.031 C 
ATOM     45  C   UNL A   1      37.809  32.128  32.778  1.00  0.00     0.029 A 
ATOM     46  C   UNL A   1      39.032  31.378  33.047  1.00  0.00     0.049 A 
ATOM     47  H   UNL A   1      40.060  30.144  31.718  1.00  0.00     0.167 HD
ATOM     48  C   UNL A   1      42.069  27.489  28.932  1.00  0.00     0.037 A 
ATOM     49  C   UNL A   1      39.704  31.375  34.217  1.00  0.00     0.037 A 
ATOM     50  C   UNL A   1      42.882  27.451  30.119  1.00  0.00     0.049 A 
ATOM     51  C   UNL A   1      40.937  30.518  34.357  1.00  0.00     0.074 A 
ATOM     52  C   UNL A   1      44.068  26.770  30.332  1.00  0.00     0.029 A 
ATOM     53  N   UNL A   1      42.586  28.114  31.302  1.00  0.00    -0.354 N 
ATOM     54  N   UNL A   1      41.528  29.764  33.463  1.00  0.00    -0.248 NA
ATOM     55  C   UNL A   1      41.594  30.507  35.674  1.00  0.00     0.031 C 
ATOM     56  C   UNL A   1      44.459  26.972  31.659  1.00  0.00     0.029 A 
ATOM     57  C   UNL A   1      43.554  27.836  32.255  1.00  0.00     0.049 A 
ATOM     58  H   UNL A   1      41.805  28.696  31.443  1.00  0.00     0.167 HD
ATOM     59  C   UNL A   1      42.639  29.219  34.094  1.00  0.00     0.074 A 
ATOM     60  C   UNL A   1      42.650  29.737  35.445  1.00  0.00     0.031 C 
ATOM     61  C   UNL A   1      43.568  28.366  33.595  1.00  0.00     0.037 A 
BRANCH  48  62
ATOM     62  C   UNL A   1      42.504  26.687  27.741  1.00  0.00     0.064 A 
ATOM     63  C   UNL A   1      42.035  25.385  27.515  1.00  0.00     0.173 A 
ATOM     64  C   UNL A   1      43.410  27.229  26.817  1.00  0.00     0.173 A 
ATOM     65  F   UNL A   1      41.183  24.813  28.381  1.00  0.00    -0.203 F 
ATOM     66  C   UNL A   1      42.487  24.640  26.429  1.00  0.00     0.198 A 
ATOM     67  C   UNL A   1      43.834  26.494  25.714  1.00  0.00     0.198 A 
ATOM     68  F   UNL A   1      43.888  28.471  26.987  1.00  0.00    -0.203 F 
ATOM     69  F   UNL A   1      42.077  23.374  26.270  1.00  0.00    -0.200 F 
ATOM     70  C   UNL A   1      43.382  25.197  25.527  1.00  0.00     0.200 A 
ATOM     71  F   UNL A   1      44.690  27.038  24.839  1.00  0.00    -0.200 F 
ATOM     72  F   UNL A   1      43.818  24.478  24.484  1.00  0.00    -0.200 F 
ENDBRANCH  48  62
BRANCH  49  73
ATOM     73  C   UNL A   1      39.205  32.165  35.379  1.00  0.00     0.064 A 
ATOM     74  C   UNL A   1      39.591  33.499  35.575  1.00  0.00     0.173 A 
ATOM     75  C   UNL A   1      38.376  31.583  36.352  1.00  0.00     0.173 A 
ATOM     76  F   UNL A   1      40.411  34.094  34.695  1.00  0.00    -0.203 F 
ATOM     77  C   UNL A   1      39.188  34.211  36.704  1.00  0.00     0.198 A 
ATOM     78  C   UNL A   1      37.947  32.305  37.463  1.00  0.00     0.198 A 
ATOM     79  F   UNL A   1      37.986  30.306  36.226  1.00  0.00    -0.203 F 
ATOM     80  F   UNL A   1      39.625  35.463  36.896  1.00  0.00    -0.200 F 
ATOM     81  C   UNL A   1      38.361  33.615  37.646  1.00  0.00     0.200 A 
ATOM     82  F   UNL A   1      37.142  31.727  38.367  1.00  0.00    -0.200 F 
ATOM     83  F   UNL A   1      37.979  34.298  38.734  1.00  0.00    -0.200 F 
ENDBRANCH  49  73
BRANCH  61  84
ATOM     84  C   UNL A   1      44.710  27.976  34.491  1.00  0.00     0.064 A 
ATOM     85  C   UNL A   1      44.668  26.825  35.291  1.00  0.00     0.173 A 
ATOM     86  C   UNL A   1      45.887  28.742  34.508  1.00  0.00     0.173 A 
ATOM     87  F   UNL A   1      43.563  26.064  35.323  1.00  0.00    -0.203 F 
ATOM     88  C   UNL A   1      45.751  26.469  36.091  1.00  0.00     0.198 A 
ATOM     89  C   UNL A   1      46.980  28.364  35.283  1.00  0.00     0.198 A 
ATOM     90  F   UNL A   1      45.984  29.850  33.758  1.00  0.00    -0.203 F 
ATOM     91  F   UNL A   1      45.670  25.390  36.883  1.00  0.00    -0.200 F 
ATOM     92  C   UNL A   1      46.909  27.232  36.080  1.00  0.00     0.200 A 
ATOM     93  F   UNL A   1      48.103  29.095  35.256  1.00  0.00    -0.200 F 
ATOM     94  F   UNL A   1      47.955  26.880  36.841  1.00  0.00    -0.200 F 
ENDBRANCH  61  84
ENDBRANCH  35  36
ENDBRANCH  28  30
ENDBRANCH  27  28
ENDBRANCH  26  27
ENDBRANCH   1  26
TORSDOF 18
ENDMDL
MODEL 3
REMARK VINA RESULT:     -11.1      4.849      9.598
REMARK SMILES CC(C)(C)OC(=O)[C@@H](C(=O)OCCOC(=O)c1ccc(-c2c3nc(c(-c4c(F)c(F)c(F)c(F)c4F)c4ccc([nH]4)c(-c4c(F)c(F)c(F)c(F)c4F)c4nc(c(-c5c(F)c(F)c(F)c(F)c5F)c5ccc2[nH]5)C=C4)C=C3)cc1)[C@@H]([NH3+])Cc1cccc(F)c1
REMARK SMILES IDX 12 1 11 2 9 3 10 4 8 5 6 6 7 7 5 8 2 9 1 10 3 11 4 12 80 13
REMARK SMILES IDX 81 14 82 18 83 19 84 20 89 21 85 22 87 23 86 24 88 25 13 26
REMARK SMILES IDX 14 27 15 28 16 29 17 30 18 31 79 32 19 33 78 34 20 35 21 36
REMARK SMILES IDX 22 37 72 38 23 39 77 40 71 41 73 42 24 43 76 44 70 45 69 46
REMARK SMILES IDX 25 48 57 49 37 50 56 51 38 52 41 53 55 54 74 55 39 56 40 57
REMARK SMILES IDX 54 59 75 60 42 61 26 62 27 63 35 64 28 65 29 66 33 67 36 68
REMARK SMILES IDX 30 69 31 70 34 71 32 72 58 73 59 74 67 75 60 76 61 77 65 78
REMARK SMILES IDX 68 79 62 80 63 81 66 82 64 83 43 84 44 85 52 86 45 87 46 88
REMARK SMILES IDX 50 89 53 90 47 91 48 92 51 93 49 94
REMARK H PARENT 81 15 81 16 81 17 73 47 41 58
REMARK Flexibility Score: inf
ROOT
ATOM      1  C   UNL A   1      38.190  21.071  25.126  1.00  0.00     0.274 C 
ENDROOT
BRANCH   1   2
ATOM      2  O   UNL A   1      37.425  22.256  25.461  1.00  0.00    -0.461 OA
BRANCH   2   3
ATOM      3  C   UNL A   1      36.553  22.623  24.492  1.00  0.00     0.326 C 
ATOM      4  O   UNL A   1      36.922  23.091  23.437  1.00  0.00    -0.251 OA
BRANCH   3   5
ATOM      5  C   UNL A   1      35.102  22.412  24.801  1.00  0.00     0.266 C 
BRANCH   5   6
ATOM      6  C   UNL A   1      34.486  23.760  25.144  1.00  0.00     0.327 C 
ATOM      7  O   UNL A   1      35.158  24.733  25.457  1.00  0.00    -0.251 OA
BRANCH   6   8
ATOM      8  O   UNL A   1      33.121  23.757  25.049  1.00  0.00    -0.459 OA
BRANCH   8   9
ATOM      9  C   UNL A   1      32.450  24.285  23.861  1.00  0.00     0.104 C 
ATOM     10  C   UNL A   1      31.204  23.414  23.616  1.00  0.00     0.056 C 
ATOM     11  C   UNL A   1      33.325  24.170  22.609  1.00  0.00     0.056 C 
ATOM     12  C   UNL A   1      31.976  25.723  24.110  1.00  0.00     0.056 C 
ENDBRANCH   8   9
ENDBRANCH   6   8
ENDBRANCH   5   6
BRANCH   5  13
ATOM     13  C   UNL A   1      34.931  21.359  25.951  1.00  0.00     0.211 C 
BRANCH  13  14
ATOM     14  N   UNL A   1      34.793  22.019  27.274  1.00  0.00    -0.354 N 
ATOM     15  H   UNL A   1      34.317  22.913  27.158  1.00  0.00     0.344 HD
ATOM     16  H   UNL A   1      35.718  22.175  27.673  1.00  0.00     0.344 HD
ATOM     17  H   UNL A   1      34.249  21.422  27.897  1.00  0.00     0.344 HD
ENDBRANCH  13  14
BRANCH  13  18
ATOM     18  C   UNL A   1      33.711  20.353  25.870  1.00  0.00     0.102 C 
BRANCH  18  19
ATOM     19  C   UNL A   1      33.455  19.510  24.636  1.00  0.00    -0.039 A 
ATOM     20  C   UNL A   1      32.489  19.882  23.687  1.00  0.00     0.004 A 
ATOM     21  C   UNL A   1      34.113  18.290  24.449  1.00  0.00     0.043 A 
ATOM     22  C   UNL A   1      32.114  19.031  22.639  1.00  0.00     0.003 A 
ATOM     23  C   UNL A   1      33.746  17.449  23.396  1.00  0.00     0.123 A 
ATOM     24  C   UNL A   1      32.739  17.797  22.503  1.00  0.00     0.039 A 
ATOM     25  F   UNL A   1      34.348  16.259  23.268  1.00  0.00    -0.207 F 
ENDBRANCH  18  19
ENDBRANCH  13  18
ENDBRANCH   5  13
ENDBRANCH   3   5
ENDBRANCH   2   3
ENDBRANCH   1   2
BRANCH   1  26
ATOM     26  C   UNL A   1      39.456  20.787  25.975  1.00  0.00     0.275 C 
BRANCH  26  27
ATOM     27  O   UNL A   1      40.092  19.506  25.712  1.00  0.00    -0.458 OA
BRANCH  27  28
ATOM     28  C   UNL A   1      41.396  19.399  26.088  1.00  0.00     0.338 C 
ATOM     29  O   UNL A   1      42.070  18.383  26.030  1.00  0.00    -0.246 OA
BRANCH  28  30
ATOM     30  C   UNL A   1      42.006  20.717  26.423  1.00  0.00     0.060 A 
ATOM     31  C   UNL A   1      42.017  21.118  27.768  1.00  0.00     0.016 A 
ATOM     32  C   UNL A   1      42.515  21.585  25.461  1.00  0.00     0.016 A 
ATOM     33  C   UNL A   1      42.630  22.311  28.172  1.00  0.00     0.010 A 
ATOM     34  C   UNL A   1      43.076  22.817  25.857  1.00  0.00     0.010 A 
ATOM     35  C   UNL A   1      43.167  23.179  27.216  1.00  0.00    -0.014 A 
BRANCH  35  36
ATOM     36  C   UNL A   1      43.662  24.525  27.630  1.00  0.00     0.031 A 
ATOM     37  C   UNL A   1      42.649  25.571  28.004  1.00  0.00     0.074 A 
ATOM     38  C   UNL A   1      44.973  24.830  27.713  1.00  0.00     0.049 A 
ATOM     39  N   UNL A   1      42.823  26.836  28.293  1.00  0.00    -0.248 NA
ATOM     40  C   UNL A   1      41.250  25.122  28.063  1.00  0.00     0.031 C 
ATOM     41  C   UNL A   1      46.074  23.907  27.479  1.00  0.00     0.029 A 
ATOM     42  N   UNL A   1      45.604  26.019  28.015  1.00  0.00    -0.354 N 
ATOM     43  C   UNL A   1      41.557  27.337  28.559  1.00  0.00     0.074 A 
ATOM     44  C   UNL A   1      40.624  26.243  28.386  1.00  0.00     0.031 C 
ATOM     45  C   UNL A   1      47.242  24.553  27.631  1.00  0.00     0.029 A 
ATOM     46  C   UNL A   1      46.975  25.960  27.910  1.00  0.00     0.049 A 
ATOM     47  H   UNL A   1      45.119  26.833  28.279  1.00  0.00     0.167 HD
ATOM     48  C   UNL A   1      41.201  28.595  28.909  1.00  0.00     0.037 A 
ATOM     49  C   UNL A   1      47.909  26.931  27.982  1.00  0.00     0.037 A 
ATOM     50  C   UNL A   1      42.119  29.694  29.051  1.00  0.00     0.049 A 
ATOM     51  C   UNL A   1      47.476  28.353  28.243  1.00  0.00     0.074 A 
ATOM     52  C   UNL A   1      41.845  31.013  29.366  1.00  0.00     0.029 A 
ATOM     53  N   UNL A   1      43.493  29.605  28.873  1.00  0.00    -0.354 N 
ATOM     54  N   UNL A   1      46.276  28.825  28.470  1.00  0.00    -0.248 NA
ATOM     55  C   UNL A   1      48.531  29.379  28.250  1.00  0.00     0.031 C 
ATOM     56  C   UNL A   1      43.042  31.733  29.321  1.00  0.00     0.029 A 
ATOM     57  C   UNL A   1      44.075  30.851  29.047  1.00  0.00     0.049 A 
ATOM     58  H   UNL A   1      43.982  28.778  28.656  1.00  0.00     0.167 HD
ATOM     59  C   UNL A   1      46.433  30.189  28.680  1.00  0.00     0.074 A 
ATOM     60  C   UNL A   1      47.847  30.471  28.566  1.00  0.00     0.031 C 
ATOM     61  C   UNL A   1      45.487  31.123  28.946  1.00  0.00     0.037 A 
BRANCH  48  62
ATOM     62  C   UNL A   1      39.736  28.858  29.097  1.00  0.00     0.064 A 
ATOM     63  C   UNL A   1      39.114  28.713  30.346  1.00  0.00     0.173 A 
ATOM     64  C   UNL A   1      38.942  29.251  28.009  1.00  0.00     0.173 A 
ATOM     65  F   UNL A   1      39.825  28.318  31.414  1.00  0.00    -0.203 F 
ATOM     66  C   UNL A   1      37.744  28.915  30.491  1.00  0.00     0.198 A 
ATOM     67  C   UNL A   1      37.580  29.486  28.165  1.00  0.00     0.198 A 
ATOM     68  F   UNL A   1      39.488  29.405  26.794  1.00  0.00    -0.203 F 
ATOM     69  F   UNL A   1      37.159  28.707  31.678  1.00  0.00    -0.200 F 
ATOM     70  C   UNL A   1      36.979  29.306  29.402  1.00  0.00     0.200 A 
ATOM     71  F   UNL A   1      36.845  29.874  27.113  1.00  0.00    -0.200 F 
ATOM     72  F   UNL A   1      35.661  29.498  29.542  1.00  0.00    -0.200 F 
ENDBRANCH  48  62
BRANCH  49  73
ATOM     73  C   UNL A   1      49.348  26.618  27.752  1.00  0.00     0.064 A 
ATOM     74  C   UNL A   1      50.224  26.379  28.821  1.00  0.00     0.173 A 
ATOM     75  C   UNL A   1      49.892  26.606  26.457  1.00  0.00     0.173 A 
ATOM     76  F   UNL A   1      49.765  26.414  30.082  1.00  0.00    -0.203 F 
ATOM     77  C   UNL A   1      51.586  26.165  28.609  1.00  0.00     0.198 A 
ATOM     78  C   UNL A   1      51.247  26.359  26.243  1.00  0.00     0.198 A 
ATOM     79  F   UNL A   1      49.107  26.841  25.396  1.00  0.00    -0.203 F 
ATOM     80  F   UNL A   1      52.408  26.003  29.654  1.00  0.00    -0.200 F 
ATOM     81  C   UNL A   1      52.095  26.149  27.319  1.00  0.00     0.200 A 
ATOM     82  F   UNL A   1      51.733  26.338  24.994  1.00  0.00    -0.200 F 
ATOM     83  F   UNL A   1      53.405  25.949  27.115  1.00  0.00    -0.200 F 
ENDBRANCH  49  73
BRANCH  61  84
ATOM     84  C   UNL A   1      45.946  32.534  29.189  1.00  0.00     0.064 A 
ATOM     85  C   UNL A   1      46.322  32.985  30.463  1.00  0.00     0.173 A 
ATOM     86  C   UNL A   1      46.058  33.433  28.116  1.00  0.00     0.173 A 
ATOM     87  F   UNL A   1      46.220  32.171  31.525  1.00  0.00    -0.203 F 
ATOM     88  C   UNL A   1      46.771  34.289  30.657  1.00  0.00     0.198 A 
ATOM     89  C   UNL A   1      46.541  34.725  28.309  1.00  0.00     0.198 A 
ATOM     90  F   UNL A   1      45.718  33.053  26.876  1.00  0.00    -0.203 F 
ATOM     91  F   UNL A   1      47.080  34.712  31.891  1.00  0.00    -0.200 F 
ATOM     92  C   UNL A   1      46.889  35.155  29.580  1.00  0.00     0.200 A 
ATOM     93  F   UNL A   1      46.670  35.553  27.263  1.00  0.00    -0.200 F 
ATOM     94  F   UNL A   1      47.335  36.405  29.767  1.00  0.00    -0.200 F 
ENDBRANCH  61  84
ENDBRANCH  35  36
ENDBRANCH  28  30
ENDBRANCH  27  28
ENDBRANCH  26  27
ENDBRANCH   1  26
TORSDOF 18
ENDMDL
