MODEL 1
REMARK VINA RESULT:     -10.3      0.000      0.000
REMARK SMILES CCC(C)(C)c1ccc(O[C@H](F)C(=O)OCCOC(=O)c2ccc(-c3c4nc(c(-c5c(F)c(F)c(F)c(F)c5F)c5ccc([nH]5)c(-c5c(F)c(F)c(F)c(F)c5F)c5nc(c(-c6c(F)c(F)c(F)c(F)c6F)c6ccc3[nH]6)C=C5)C=C4)cc2)cc1
REMARK SMILES IDX 16 1 15 2 13 3 14 4 11 5 12 6 10 7 9 8 6 9 7 10 85 11 8 12
REMARK SMILES IDX 84 13 3 14 4 15 5 16 2 17 1 18 17 19 18 20 19 21 20 22 21 23
REMARK SMILES IDX 22 24 83 25 23 26 82 27 24 28 25 29 26 30 76 31 27 32 81 33
REMARK SMILES IDX 75 34 77 35 28 36 80 37 74 38 73 39 29 41 61 42 41 43 60 44
REMARK SMILES IDX 42 45 45 46 59 47 78 48 43 49 44 50 58 52 79 53 46 54 30 55
REMARK SMILES IDX 31 56 39 57 32 58 33 59 37 60 40 61 34 62 35 63 38 64 36 65
REMARK SMILES IDX 62 66 63 67 71 68 64 69 65 70 69 71 72 72 66 73 67 74 70 75
REMARK SMILES IDX 68 76 47 77 48 78 56 79 49 80 50 81 54 82 57 83 51 84 52 85
REMARK SMILES IDX 55 86 53 87
REMARK H PARENT 77 40 45 51
REMARK Flexibility Score: inf
ROOT
ATOM      1  C   UNL A   1      41.131  19.796  26.341  1.00  0.00     0.274 C 
ENDROOT
BRANCH   1   2
ATOM      2  O   UNL A   1      42.052  19.293  25.361  1.00  0.00    -0.457 OA
BRANCH   2   3
ATOM      3  C   UNL A   1      43.221  18.753  25.816  1.00  0.00     0.381 C 
ATOM      4  O   UNL A   1      43.298  17.726  26.483  1.00  0.00    -0.244 OA
BRANCH   3   5
ATOM      5  C   UNL A   1      44.419  19.537  25.280  1.00  0.00     0.461 C 
ATOM      6  F   UNL A   1      45.330  18.728  24.663  1.00  0.00    -0.189 F 
BRANCH   5   7
ATOM      7  O   UNL A   1      43.982  20.528  24.352  1.00  0.00    -0.451 OA
BRANCH   7   8
ATOM      8  C   UNL A   1      44.505  21.776  24.540  1.00  0.00     0.123 A 
ATOM      9  C   UNL A   1      45.837  24.229  25.018  1.00  0.00    -0.042 A 
ATOM     10  C   UNL A   1      44.456  24.097  25.230  1.00  0.00     0.008 A 
ATOM     11  C   UNL A   1      46.520  23.114  24.496  1.00  0.00     0.008 A 
ATOM     12  C   UNL A   1      43.797  22.885  24.994  1.00  0.00     0.047 A 
ATOM     13  C   UNL A   1      45.860  21.906  24.252  1.00  0.00     0.047 A 
BRANCH   9  14
ATOM     14  C   UNL A   1      46.612  25.499  25.414  1.00  0.00    -0.011 C 
ATOM     15  C   UNL A   1      47.981  25.643  24.706  1.00  0.00     0.016 C 
ATOM     16  C   UNL A   1      46.915  25.467  26.932  1.00  0.00     0.016 C 
BRANCH  14  17
ATOM     17  C   UNL A   1      45.746  26.760  25.110  1.00  0.00     0.008 C 
ATOM     18  C   UNL A   1      46.424  27.828  24.253  1.00  0.00     0.005 C 
ENDBRANCH  14  17
ENDBRANCH   9  14
ENDBRANCH   7   8
ENDBRANCH   5   7
ENDBRANCH   3   5
ENDBRANCH   2   3
ENDBRANCH   1   2
BRANCH   1  19
ATOM     19  C   UNL A   1      40.959  21.309  26.175  1.00  0.00     0.275 C 
BRANCH  19  20
ATOM     20  O   UNL A   1      39.899  21.825  27.008  1.00  0.00    -0.458 OA
BRANCH  20  21
ATOM     21  C   UNL A   1      39.105  22.758  26.437  1.00  0.00     0.338 C 
ATOM     22  O   UNL A   1      38.156  22.569  25.694  1.00  0.00    -0.246 OA
BRANCH  21  23
ATOM     23  C   UNL A   1      39.449  24.096  26.949  1.00  0.00     0.060 A 
ATOM     24  C   UNL A   1      39.990  25.021  26.050  1.00  0.00     0.016 A 
ATOM     25  C   UNL A   1      39.304  24.419  28.301  1.00  0.00     0.016 A 
ATOM     26  C   UNL A   1      40.406  26.270  26.503  1.00  0.00     0.010 A 
ATOM     27  C   UNL A   1      39.712  25.677  28.751  1.00  0.00     0.010 A 
ATOM     28  C   UNL A   1      40.277  26.604  27.858  1.00  0.00    -0.014 A 
BRANCH  28  29
ATOM     29  C   UNL A   1      40.759  27.919  28.338  1.00  0.00     0.031 A 
ATOM     30  C   UNL A   1      42.230  28.182  28.453  1.00  0.00     0.074 A 
ATOM     31  C   UNL A   1      39.870  28.877  28.656  1.00  0.00     0.049 A 
ATOM     32  N   UNL A   1      42.851  29.241  28.909  1.00  0.00    -0.248 NA
ATOM     33  C   UNL A   1      43.126  27.109  27.997  1.00  0.00     0.031 C 
ATOM     34  C   UNL A   1      38.417  28.743  28.557  1.00  0.00     0.029 A 
ATOM     35  N   UNL A   1      40.061  30.150  29.132  1.00  0.00    -0.354 N 
ATOM     36  C   UNL A   1      44.205  28.958  28.808  1.00  0.00     0.074 A 
ATOM     37  C   UNL A   1      44.318  27.618  28.269  1.00  0.00     0.031 C 
ATOM     38  C   UNL A   1      37.845  29.886  28.966  1.00  0.00     0.029 A 
ATOM     39  C   UNL A   1      38.889  30.814  29.393  1.00  0.00     0.049 A 
ATOM     40  H   UNL A   1      40.950  30.547  29.272  1.00  0.00     0.167 HD
ATOM     41  C   UNL A   1      45.257  29.749  29.132  1.00  0.00     0.037 A 
ATOM     42  C   UNL A   1      38.681  32.025  29.943  1.00  0.00     0.037 A 
ATOM     43  C   UNL A   1      45.136  31.083  29.661  1.00  0.00     0.049 A 
ATOM     44  C   UNL A   1      39.863  32.867  30.335  1.00  0.00     0.074 A 
ATOM     45  C   UNL A   1      46.141  31.971  30.004  1.00  0.00     0.029 A 
ATOM     46  N   UNL A   1      43.932  31.719  29.927  1.00  0.00    -0.354 N 
ATOM     47  N   UNL A   1      41.142  32.597  30.228  1.00  0.00    -0.248 NA
ATOM     48  C   UNL A   1      39.575  34.183  30.923  1.00  0.00     0.031 C 
ATOM     49  C   UNL A   1      45.545  33.128  30.518  1.00  0.00     0.029 A 
ATOM     50  C   UNL A   1      44.168  32.980  30.452  1.00  0.00     0.049 A 
ATOM     51  H   UNL A   1      43.041  31.332  29.768  1.00  0.00     0.167 HD
ATOM     52  C   UNL A   1      41.811  33.709  30.720  1.00  0.00     0.074 A 
ATOM     53  C   UNL A   1      40.795  34.666  31.110  1.00  0.00     0.031 C 
ATOM     54  C   UNL A   1      43.144  33.917  30.841  1.00  0.00     0.037 A 
BRANCH  41  55
ATOM     55  C   UNL A   1      46.632  29.174  28.949  1.00  0.00     0.064 A 
ATOM     56  C   UNL A   1      47.305  28.522  29.993  1.00  0.00     0.173 A 
ATOM     57  C   UNL A   1      47.278  29.266  27.707  1.00  0.00     0.173 A 
ATOM     58  F   UNL A   1      46.736  28.421  31.204  1.00  0.00    -0.203 F 
ATOM     59  C   UNL A   1      48.587  28.011  29.809  1.00  0.00     0.198 A 
ATOM     60  C   UNL A   1      48.549  28.730  27.519  1.00  0.00     0.198 A 
ATOM     61  F   UNL A   1      46.677  29.877  26.676  1.00  0.00    -0.203 F 
ATOM     62  F   UNL A   1      49.232  27.437  30.834  1.00  0.00    -0.200 F 
ATOM     63  C   UNL A   1      49.206  28.110  28.571  1.00  0.00     0.200 A 
ATOM     64  F   UNL A   1      49.141  28.819  26.320  1.00  0.00    -0.200 F 
ATOM     65  F   UNL A   1      50.440  27.618  28.396  1.00  0.00    -0.200 F 
ENDBRANCH  41  55
BRANCH  42  66
ATOM     66  C   UNL A   1      37.291  32.494  30.173  1.00  0.00     0.064 A 
ATOM     67  C   UNL A   1      36.638  32.260  31.389  1.00  0.00     0.173 A 
ATOM     68  C   UNL A   1      36.597  33.204  29.182  1.00  0.00     0.173 A 
ATOM     69  F   UNL A   1      37.252  31.564  32.356  1.00  0.00    -0.203 F 
ATOM     70  C   UNL A   1      35.338  32.714  31.604  1.00  0.00     0.198 A 
ATOM     71  C   UNL A   1      35.308  33.680  29.408  1.00  0.00     0.198 A 
ATOM     72  F   UNL A   1      37.180  33.453  28.000  1.00  0.00    -0.203 F 
ATOM     73  F   UNL A   1      34.721  32.448  32.764  1.00  0.00    -0.200 F 
ATOM     74  C   UNL A   1      34.677  33.431  30.617  1.00  0.00     0.200 A 
ATOM     75  F   UNL A   1      34.678  34.384  28.455  1.00  0.00    -0.200 F 
ATOM     76  F   UNL A   1      33.431  33.876  30.829  1.00  0.00    -0.200 F 
ENDBRANCH  42  66
BRANCH  54  77
ATOM     77  C   UNL A   1      43.582  35.238  31.403  1.00  0.00     0.064 A 
ATOM     78  C   UNL A   1      43.781  36.355  30.580  1.00  0.00     0.173 A 
ATOM     79  C   UNL A   1      43.771  35.395  32.784  1.00  0.00     0.173 A 
ATOM     80  F   UNL A   1      43.627  36.250  29.250  1.00  0.00    -0.203 F 
ATOM     81  C   UNL A   1      44.173  37.578  31.116  1.00  0.00     0.198 A 
ATOM     82  C   UNL A   1      44.138  36.626  33.321  1.00  0.00     0.198 A 
ATOM     83  F   UNL A   1      43.589  34.357  33.615  1.00  0.00    -0.203 F 
ATOM     84  F   UNL A   1      44.398  38.622  30.306  1.00  0.00    -0.200 F 
ATOM     85  C   UNL A   1      44.345  37.715  32.486  1.00  0.00     0.200 A 
ATOM     86  F   UNL A   1      44.294  36.759  34.645  1.00  0.00    -0.200 F 
ATOM     87  F   UNL A   1      44.718  38.894  33.002  1.00  0.00    -0.200 F 
ENDBRANCH  54  77
ENDBRANCH  28  29
ENDBRANCH  21  23
ENDBRANCH  20  21
ENDBRANCH  19  20
ENDBRANCH   1  19
TORSDOF 15
ENDMDL
MODEL 2
REMARK VINA RESULT:     -10.3      4.050      6.323
REMARK SMILES CCC(C)(C)c1ccc(O[C@H](F)C(=O)OCCOC(=O)c2ccc(-c3c4nc(c(-c5c(F)c(F)c(F)c(F)c5F)c5ccc([nH]5)c(-c5c(F)c(F)c(F)c(F)c5F)c5nc(c(-c6c(F)c(F)c(F)c(F)c6F)c6ccc3[nH]6)C=C5)C=C4)cc2)cc1
REMARK SMILES IDX 16 1 15 2 13 3 14 4 11 5 12 6 10 7 9 8 6 9 7 10 85 11 8 12
REMARK SMILES IDX 84 13 3 14 4 15 5 16 2 17 1 18 17 19 18 20 19 21 20 22 21 23
REMARK SMILES IDX 22 24 83 25 23 26 82 27 24 28 25 29 26 30 76 31 27 32 81 33
REMARK SMILES IDX 75 34 77 35 28 36 80 37 74 38 73 39 29 41 61 42 41 43 60 44
REMARK SMILES IDX 42 45 45 46 59 47 78 48 43 49 44 50 58 52 79 53 46 54 30 55
REMARK SMILES IDX 31 56 39 57 32 58 33 59 37 60 40 61 34 62 35 63 38 64 36 65
REMARK SMILES IDX 62 66 63 67 71 68 64 69 65 70 69 71 72 72 66 73 67 74 70 75
REMARK SMILES IDX 68 76 47 77 48 78 56 79 49 80 50 81 54 82 57 83 51 84 52 85
REMARK SMILES IDX 55 86 53 87
REMARK H PARENT 77 40 45 51
REMARK Flexibility Score: inf
ROOT
ATOM      1  C   UNL A   1      43.782  20.544  25.434  1.00  0.00     0.274 C 
ENDROOT
BRANCH   1   2
ATOM      2  O   UNL A   1      42.352  20.549  25.567  1.00  0.00    -0.457 OA
BRANCH   2   3
ATOM      3  C   UNL A   1      41.831  20.149  26.765  1.00  0.00     0.381 C 
ATOM      4  O   UNL A   1      42.274  19.226  27.441  1.00  0.00    -0.244 OA
BRANCH   3   5
ATOM      5  C   UNL A   1      40.703  21.085  27.198  1.00  0.00     0.461 C 
ATOM      6  F   UNL A   1      41.040  21.826  28.295  1.00  0.00    -0.189 F 
BRANCH   5   7
ATOM      7  O   UNL A   1      40.361  21.969  26.133  1.00  0.00    -0.451 OA
BRANCH   7   8
ATOM      8  C   UNL A   1      39.059  22.384  26.113  1.00  0.00     0.123 A 
ATOM      9  C   UNL A   1      36.326  23.072  25.832  1.00  0.00    -0.042 A 
ATOM     10  C   UNL A   1      37.264  23.996  26.318  1.00  0.00     0.008 A 
ATOM     11  C   UNL A   1      36.787  21.772  25.553  1.00  0.00     0.008 A 
ATOM     12  C   UNL A   1      38.615  23.657  26.458  1.00  0.00     0.047 A 
ATOM     13  C   UNL A   1      38.134  21.430  25.701  1.00  0.00     0.047 A 
BRANCH   9  14
ATOM     14  C   UNL A   1      34.870  23.463  25.524  1.00  0.00    -0.011 C 
ATOM     15  C   UNL A   1      34.672  24.973  25.251  1.00  0.00     0.016 C 
ATOM     16  C   UNL A   1      33.975  23.127  26.742  1.00  0.00     0.016 C 
BRANCH  14  17
ATOM     17  C   UNL A   1      34.356  22.652  24.295  1.00  0.00     0.008 C 
ATOM     18  C   UNL A   1      34.571  23.316  22.936  1.00  0.00     0.005 C 
ENDBRANCH  14  17
ENDBRANCH   9  14
ENDBRANCH   7   8
ENDBRANCH   5   7
ENDBRANCH   3   5
ENDBRANCH   2   3
ENDBRANCH   1   2
BRANCH   1  19
ATOM     19  C   UNL A   1      44.256  21.849  24.786  1.00  0.00     0.275 C 
BRANCH  19  20
ATOM     20  O   UNL A   1      43.379  22.953  25.093  1.00  0.00    -0.458 OA
BRANCH  20  21
ATOM     21  C   UNL A   1      43.951  24.178  25.080  1.00  0.00     0.338 C 
ATOM     22  O   UNL A   1      44.741  24.618  24.263  1.00  0.00    -0.246 OA
BRANCH  21  23
ATOM     23  C   UNL A   1      43.375  25.015  26.147  1.00  0.00     0.060 A 
ATOM     24  C   UNL A   1      43.835  26.331  26.266  1.00  0.00     0.016 A 
ATOM     25  C   UNL A   1      42.448  24.501  27.057  1.00  0.00     0.016 A 
ATOM     26  C   UNL A   1      43.382  27.135  27.307  1.00  0.00     0.010 A 
ATOM     27  C   UNL A   1      41.986  25.314  28.096  1.00  0.00     0.010 A 
ATOM     28  C   UNL A   1      42.460  26.631  28.234  1.00  0.00    -0.014 A 
BRANCH  28  29
ATOM     29  C   UNL A   1      42.014  27.480  29.362  1.00  0.00     0.031 A 
ATOM     30  C   UNL A   1      42.747  27.436  30.669  1.00  0.00     0.074 A 
ATOM     31  C   UNL A   1      40.959  28.298  29.201  1.00  0.00     0.049 A 
ATOM     32  N   UNL A   1      42.478  28.053  31.792  1.00  0.00    -0.248 NA
ATOM     33  C   UNL A   1      43.942  26.580  30.723  1.00  0.00     0.031 C 
ATOM     34  C   UNL A   1      40.188  28.444  27.967  1.00  0.00     0.029 A 
ATOM     35  N   UNL A   1      40.351  29.156  30.083  1.00  0.00    -0.354 N 
ATOM     36  C   UNL A   1      43.458  27.651  32.688  1.00  0.00     0.074 A 
ATOM     37  C   UNL A   1      44.316  26.719  31.986  1.00  0.00     0.031 C 
ATOM     38  C   UNL A   1      39.204  29.334  28.170  1.00  0.00     0.029 A 
ATOM     39  C   UNL A   1      39.252  29.787  29.558  1.00  0.00     0.049 A 
ATOM     40  H   UNL A   1      40.673  29.304  31.001  1.00  0.00     0.167 HD
ATOM     41  C   UNL A   1      43.628  28.032  33.977  1.00  0.00     0.037 A 
ATOM     42  C   UNL A   1      38.366  30.616  30.141  1.00  0.00     0.037 A 
ATOM     43  C   UNL A   1      42.774  28.965  34.666  1.00  0.00     0.049 A 
ATOM     44  C   UNL A   1      38.549  30.990  31.585  1.00  0.00     0.074 A 
ATOM     45  C   UNL A   1      42.871  29.429  35.967  1.00  0.00     0.029 A 
ATOM     46  N   UNL A   1      41.659  29.574  34.108  1.00  0.00    -0.354 N 
ATOM     47  N   UNL A   1      39.484  30.614  32.423  1.00  0.00    -0.248 NA
ATOM     48  C   UNL A   1      37.555  31.905  32.165  1.00  0.00     0.031 C 
ATOM     49  C   UNL A   1      41.792  30.285  36.208  1.00  0.00     0.029 A 
ATOM     50  C   UNL A   1      41.047  30.392  35.044  1.00  0.00     0.049 A 
ATOM     51  H   UNL A   1      41.348  29.444  33.183  1.00  0.00     0.167 HD
ATOM     52  C   UNL A   1      39.203  31.253  33.623  1.00  0.00     0.074 A 
ATOM     53  C   UNL A   1      38.018  32.056  33.398  1.00  0.00     0.031 C 
ATOM     54  C   UNL A   1      39.863  31.179  34.804  1.00  0.00     0.037 A 
BRANCH  41  55
ATOM     55  C   UNL A   1      44.766  27.413  34.734  1.00  0.00     0.064 A 
ATOM     56  C   UNL A   1      44.623  26.196  35.419  1.00  0.00     0.173 A 
ATOM     57  C   UNL A   1      46.022  28.038  34.762  1.00  0.00     0.173 A 
ATOM     58  F   UNL A   1      43.439  25.566  35.435  1.00  0.00    -0.203 F 
ATOM     59  C   UNL A   1      45.687  25.646  36.130  1.00  0.00     0.198 A 
ATOM     60  C   UNL A   1      47.090  27.471  35.451  1.00  0.00     0.198 A 
ATOM     61  F   UNL A   1      46.212  29.200  34.121  1.00  0.00    -0.203 F 
ATOM     62  F   UNL A   1      45.514  24.509  36.819  1.00  0.00    -0.200 F 
ATOM     63  C   UNL A   1      46.921  26.280  36.141  1.00  0.00     0.200 A 
ATOM     64  F   UNL A   1      48.284  28.081  35.453  1.00  0.00    -0.200 F 
ATOM     65  F   UNL A   1      47.943  25.749  36.826  1.00  0.00    -0.200 F 
ENDBRANCH  41  55
BRANCH  42  66
ATOM     66  C   UNL A   1      37.214  31.124  29.353  1.00  0.00     0.064 A 
ATOM     67  C   UNL A   1      36.132  30.295  29.031  1.00  0.00     0.173 A 
ATOM     68  C   UNL A   1      37.167  32.459  28.924  1.00  0.00     0.173 A 
ATOM     69  F   UNL A   1      36.144  29.006  29.399  1.00  0.00    -0.203 F 
ATOM     70  C   UNL A   1      35.048  30.781  28.304  1.00  0.00     0.198 A 
ATOM     71  C   UNL A   1      36.071  32.950  28.220  1.00  0.00     0.198 A 
ATOM     72  F   UNL A   1      38.179  33.292  29.207  1.00  0.00    -0.203 F 
ATOM     73  F   UNL A   1      34.040  29.959  27.978  1.00  0.00    -0.200 F 
ATOM     74  C   UNL A   1      35.014  32.109  27.906  1.00  0.00     0.200 A 
ATOM     75  F   UNL A   1      36.037  34.238  27.848  1.00  0.00    -0.200 F 
ATOM     76  F   UNL A   1      33.966  32.578  27.215  1.00  0.00    -0.200 F 
ENDBRANCH  42  66
BRANCH  54  77
ATOM     77  C   UNL A   1      39.328  32.002  35.939  1.00  0.00     0.064 A 
ATOM     78  C   UNL A   1      39.758  33.319  36.156  1.00  0.00     0.173 A 
ATOM     79  C   UNL A   1      38.350  31.478  36.798  1.00  0.00     0.173 A 
ATOM     80  F   UNL A   1      40.703  33.858  35.371  1.00  0.00    -0.203 F 
ATOM     81  C   UNL A   1      39.242  34.076  37.205  1.00  0.00     0.198 A 
ATOM     82  C   UNL A   1      37.818  32.246  37.830  1.00  0.00     0.198 A 
ATOM     83  F   UNL A   1      37.903  30.224  36.629  1.00  0.00    -0.203 F 
ATOM     84  F   UNL A   1      39.698  35.317  37.419  1.00  0.00    -0.200 F 
ATOM     85  C   UNL A   1      38.269  33.541  38.037  1.00  0.00     0.200 A 
ATOM     86  F   UNL A   1      36.871  31.732  38.626  1.00  0.00    -0.200 F 
ATOM     87  F   UNL A   1      37.771  34.272  39.043  1.00  0.00    -0.200 F 
ENDBRANCH  54  77
ENDBRANCH  28  29
ENDBRANCH  21  23
ENDBRANCH  20  21
ENDBRANCH  19  20
ENDBRANCH   1  19
TORSDOF 15
ENDMDL
MODEL 3
REMARK VINA RESULT:     -10.3      4.437     11.886
REMARK SMILES CCC(C)(C)c1ccc(O[C@H](F)C(=O)OCCOC(=O)c2ccc(-c3c4nc(c(-c5c(F)c(F)c(F)c(F)c5F)c5ccc([nH]5)c(-c5c(F)c(F)c(F)c(F)c5F)c5nc(c(-c6c(F)c(F)c(F)c(F)c6F)c6ccc3[nH]6)C=C5)C=C4)cc2)cc1
REMARK SMILES IDX 16 1 15 2 13 3 14 4 11 5 12 6 10 7 9 8 6 9 7 10 85 11 8 12
REMARK SMILES IDX 84 13 3 14 4 15 5 16 2 17 1 18 17 19 18 20 19 21 20 22 21 23
REMARK SMILES IDX 22 24 83 25 23 26 82 27 24 28 25 29 26 30 76 31 27 32 81 33
REMARK SMILES IDX 75 34 77 35 28 36 80 37 74 38 73 39 29 41 61 42 41 43 60 44
REMARK SMILES IDX 42 45 45 46 59 47 78 48 43 49 44 50 58 52 79 53 46 54 30 55
REMARK SMILES IDX 31 56 39 57 32 58 33 59 37 60 40 61 34 62 35 63 38 64 36 65
REMARK SMILES IDX 62 66 63 67 71 68 64 69 65 70 69 71 72 72 66 73 67 74 70 75
REMARK SMILES IDX 68 76 47 77 48 78 56 79 49 80 50 81 54 82 57 83 51 84 52 85
REMARK SMILES IDX 55 86 53 87
REMARK H PARENT 77 40 45 51
REMARK Flexibility Score: inf
ROOT
ATOM      1  C   UNL A   1      34.089  34.130  27.937  1.00  0.00     0.274 C 
ENDROOT
BRANCH   1   2
ATOM      2  O   UNL A   1      34.372  35.011  29.036  1.00  0.00    -0.457 OA
BRANCH   2   3
ATOM      3  C   UNL A   1      33.325  35.709  29.567  1.00  0.00     0.381 C 
ATOM      4  O   UNL A   1      32.407  36.190  28.909  1.00  0.00    -0.244 OA
BRANCH   3   5
ATOM      5  C   UNL A   1      33.394  35.702  31.093  1.00  0.00     0.461 C 
ATOM      6  F   UNL A   1      32.443  36.505  31.657  1.00  0.00    -0.189 F 
BRANCH   5   7
ATOM      7  O   UNL A   1      33.227  34.375  31.587  1.00  0.00    -0.451 OA
BRANCH   7   8
ATOM      8  C   UNL A   1      34.226  33.925  32.404  1.00  0.00     0.123 A 
ATOM      9  C   UNL A   1      36.370  33.274  34.137  1.00  0.00    -0.042 A 
ATOM     10  C   UNL A   1      36.012  32.433  33.071  1.00  0.00     0.008 A 
ATOM     11  C   UNL A   1      35.578  34.419  34.347  1.00  0.00     0.008 A 
ATOM     12  C   UNL A   1      34.953  32.753  32.216  1.00  0.00     0.047 A 
ATOM     13  C   UNL A   1      34.514  34.735  33.498  1.00  0.00     0.047 A 
BRANCH   9  14
ATOM     14  C   UNL A   1      37.622  33.027  34.996  1.00  0.00    -0.011 C 
ATOM     15  C   UNL A   1      37.460  33.453  36.475  1.00  0.00     0.016 C 
ATOM     16  C   UNL A   1      38.805  33.854  34.438  1.00  0.00     0.016 C 
BRANCH  14  17
ATOM     17  C   UNL A   1      38.007  31.516  34.941  1.00  0.00     0.008 C 
ATOM     18  C   UNL A   1      38.155  30.828  36.298  1.00  0.00     0.005 C 
ENDBRANCH  14  17
ENDBRANCH   9  14
ENDBRANCH   7   8
ENDBRANCH   5   7
ENDBRANCH   3   5
ENDBRANCH   2   3
ENDBRANCH   1   2
BRANCH   1  19
ATOM     19  C   UNL A   1      34.222  32.670  28.383  1.00  0.00     0.275 C 
BRANCH  19  20
ATOM     20  O   UNL A   1      34.460  31.786  27.268  1.00  0.00    -0.458 OA
BRANCH  20  21
ATOM     21  C   UNL A   1      34.491  30.467  27.561  1.00  0.00     0.338 C 
ATOM     22  O   UNL A   1      33.657  29.625  27.273  1.00  0.00    -0.246 OA
BRANCH  21  23
ATOM     23  C   UNL A   1      35.780  30.117  28.182  1.00  0.00     0.060 A 
ATOM     24  C   UNL A   1      36.924  30.150  27.377  1.00  0.00     0.016 A 
ATOM     25  C   UNL A   1      35.860  29.701  29.513  1.00  0.00     0.016 A 
ATOM     26  C   UNL A   1      38.152  29.751  27.896  1.00  0.00     0.010 A 
ATOM     27  C   UNL A   1      37.095  29.311  30.036  1.00  0.00     0.010 A 
ATOM     28  C   UNL A   1      38.245  29.321  29.227  1.00  0.00    -0.014 A 
BRANCH  28  29
ATOM     29  C   UNL A   1      39.548  28.859  29.759  1.00  0.00     0.031 A 
ATOM     30  C   UNL A   1      40.219  29.618  30.863  1.00  0.00     0.074 A 
ATOM     31  C   UNL A   1      40.114  27.748  29.255  1.00  0.00     0.049 A 
ATOM     32  N   UNL A   1      41.386  29.413  31.421  1.00  0.00    -0.248 NA
ATOM     33  C   UNL A   1      39.482  30.766  31.412  1.00  0.00     0.031 C 
ATOM     34  C   UNL A   1      39.539  26.914  28.200  1.00  0.00     0.029 A 
ATOM     35  N   UNL A   1      41.303  27.135  29.561  1.00  0.00    -0.354 N 
ATOM     36  C   UNL A   1      41.529  30.411  32.375  1.00  0.00     0.074 A 
ATOM     37  C   UNL A   1      40.340  31.235  32.305  1.00  0.00     0.031 C 
ATOM     38  C   UNL A   1      40.379  25.900  27.940  1.00  0.00     0.029 A 
ATOM     39  C   UNL A   1      41.565  26.037  28.780  1.00  0.00     0.049 A 
ATOM     40  H   UNL A   1      41.908  27.451  30.270  1.00  0.00     0.167 HD
ATOM     41  C   UNL A   1      42.557  30.613  33.233  1.00  0.00     0.037 A 
ATOM     42  C   UNL A   1      42.655  25.249  28.729  1.00  0.00     0.037 A 
ATOM     43  C   UNL A   1      43.733  29.784  33.301  1.00  0.00     0.049 A 
ATOM     44  C   UNL A   1      43.803  25.519  29.661  1.00  0.00     0.074 A 
ATOM     45  C   UNL A   1      44.822  29.895  34.147  1.00  0.00     0.029 A 
ATOM     46  N   UNL A   1      43.972  28.688  32.484  1.00  0.00    -0.354 N 
ATOM     47  N   UNL A   1      43.927  26.458  30.567  1.00  0.00    -0.248 NA
ATOM     48  C   UNL A   1      44.962  24.620  29.565  1.00  0.00     0.031 C 
ATOM     49  C   UNL A   1      45.740  28.894  33.814  1.00  0.00     0.029 A 
ATOM     50  C   UNL A   1      45.203  28.128  32.790  1.00  0.00     0.049 A 
ATOM     51  H   UNL A   1      43.360  28.357  31.788  1.00  0.00     0.167 HD
ATOM     52  C   UNL A   1      45.167  26.258  31.158  1.00  0.00     0.074 A 
ATOM     53  C   UNL A   1      45.750  25.096  30.519  1.00  0.00     0.031 C 
ATOM     54  C   UNL A   1      45.770  26.974  32.139  1.00  0.00     0.037 A 
BRANCH  41  55
ATOM     55  C   UNL A   1      42.466  31.799  34.149  1.00  0.00     0.064 A 
ATOM     56  C   UNL A   1      42.957  33.059  33.776  1.00  0.00     0.173 A 
ATOM     57  C   UNL A   1      41.867  31.676  35.411  1.00  0.00     0.173 A 
ATOM     58  F   UNL A   1      43.553  33.227  32.585  1.00  0.00    -0.203 F 
ATOM     59  C   UNL A   1      42.879  34.145  34.646  1.00  0.00     0.198 A 
ATOM     60  C   UNL A   1      41.766  32.769  36.267  1.00  0.00     0.198 A 
ATOM     61  F   UNL A   1      41.378  30.494  35.814  1.00  0.00    -0.203 F 
ATOM     62  F   UNL A   1      43.401  35.327  34.289  1.00  0.00    -0.200 F 
ATOM     63  C   UNL A   1      42.279  34.000  35.888  1.00  0.00     0.200 A 
ATOM     64  F   UNL A   1      41.177  32.629  37.463  1.00  0.00    -0.200 F 
ATOM     65  F   UNL A   1      42.205  35.045  36.724  1.00  0.00    -0.200 F 
ENDBRANCH  41  55
BRANCH  42  66
ATOM     66  C   UNL A   1      42.711  24.143  27.738  1.00  0.00     0.064 A 
ATOM     67  C   UNL A   1      43.159  24.364  26.430  1.00  0.00     0.173 A 
ATOM     68  C   UNL A   1      42.333  22.839  28.091  1.00  0.00     0.173 A 
ATOM     69  F   UNL A   1      43.507  25.598  26.039  1.00  0.00    -0.203 F 
ATOM     70  C   UNL A   1      43.222  23.320  25.508  1.00  0.00     0.198 A 
ATOM     71  C   UNL A   1      42.422  21.793  27.177  1.00  0.00     0.198 A 
ATOM     72  F   UNL A   1      41.898  22.578  29.332  1.00  0.00    -0.203 F 
ATOM     73  F   UNL A   1      43.622  23.562  24.252  1.00  0.00    -0.200 F 
ATOM     74  C   UNL A   1      42.862  22.035  25.884  1.00  0.00     0.200 A 
ATOM     75  F   UNL A   1      42.085  20.549  27.549  1.00  0.00    -0.200 F 
ATOM     76  F   UNL A   1      42.933  21.030  25.000  1.00  0.00    -0.200 F 
ENDBRANCH  42  66
BRANCH  54  77
ATOM     77  C   UNL A   1      47.122  26.509  32.592  1.00  0.00     0.064 A 
ATOM     78  C   UNL A   1      47.266  25.529  33.584  1.00  0.00     0.173 A 
ATOM     79  C   UNL A   1      48.286  27.025  32.003  1.00  0.00     0.173 A 
ATOM     80  F   UNL A   1      46.182  25.017  34.189  1.00  0.00    -0.203 F 
ATOM     81  C   UNL A   1      48.527  25.096  33.985  1.00  0.00     0.198 A 
ATOM     82  C   UNL A   1      49.545  26.572  32.387  1.00  0.00     0.198 A 
ATOM     83  F   UNL A   1      48.202  27.962  31.046  1.00  0.00    -0.203 F 
ATOM     84  F   UNL A   1      48.642  24.189  34.965  1.00  0.00    -0.200 F 
ATOM     85  C   UNL A   1      49.664  25.614  33.383  1.00  0.00     0.200 A 
ATOM     86  F   UNL A   1      50.643  27.065  31.797  1.00  0.00    -0.200 F 
ATOM     87  F   UNL A   1      50.877  25.193  33.766  1.00  0.00    -0.200 F 
ENDBRANCH  54  77
ENDBRANCH  28  29
ENDBRANCH  21  23
ENDBRANCH  20  21
ENDBRANCH  19  20
ENDBRANCH   1  19
TORSDOF 15
ENDMDL
