MODEL 1
REMARK VINA RESULT:      -9.8      0.000      0.000
REMARK SMILES C/C(=N\O)[C@@H]1C[C@@H](CC(=O)OCCOC(=O)c2ccc(-c3c4nc(c(-c5c(F)c(F)c(F)c(F)c5F)c5ccc([nH]5)c(-c5c(F)c(F)c(F)c(F)c5F)c5nc(c(-c6c(F)c(F)c(F)c(F)c6F)c6ccc3[nH]6)C=C5)C=C4)cc2)C1(C)C
REMARK SMILES IDX 12 1 11 2 9 3 10 4 8 5 7 6 5 7 6 8 80 9 81 10 82 11 2 12
REMARK SMILES IDX 1 13 3 14 4 15 13 17 14 18 15 19 16 20 17 21 18 22 79 23
REMARK SMILES IDX 19 24 78 25 20 26 21 27 22 28 72 29 23 30 77 31 71 32 73 33
REMARK SMILES IDX 24 34 76 35 70 36 69 37 25 39 57 40 37 41 56 42 38 43 41 44
REMARK SMILES IDX 55 45 74 46 39 47 40 48 54 50 75 51 42 52 26 53 27 54 35 55
REMARK SMILES IDX 28 56 29 57 33 58 36 59 30 60 31 61 34 62 32 63 58 64 59 65
REMARK SMILES IDX 67 66 60 67 61 68 65 69 68 70 62 71 63 72 66 73 64 74 43 75
REMARK SMILES IDX 44 76 52 77 45 78 46 79 50 80 53 81 47 82 48 83 51 84 49 85
REMARK H PARENT 4 16 73 38 41 49
REMARK Flexibility Score: inf
ROOT
ATOM      1  C   UNL A   1      34.647  33.625  29.752  1.00  0.00     0.274 C 
ENDROOT
BRANCH   1   2
ATOM      2  O   UNL A   1      34.190  33.275  31.072  1.00  0.00    -0.462 OA
BRANCH   2   3
ATOM      3  C   UNL A   1      34.079  34.284  31.968  1.00  0.00     0.306 C 
ATOM      4  O   UNL A   1      33.042  34.881  32.235  1.00  0.00    -0.252 OA
BRANCH   3   5
ATOM      5  C   UNL A   1      35.402  34.638  32.599  1.00  0.00     0.127 C 
BRANCH   5   6
ATOM      6  C   UNL A   1      36.055  33.553  33.456  1.00  0.00     0.007 C 
ATOM      7  C   UNL A   1      38.030  32.868  34.101  1.00  0.00     0.043 C 
ATOM      8  C   UNL A   1      37.139  34.090  34.413  1.00  0.00     0.015 C 
ATOM      9  C   UNL A   1      37.122  32.566  32.855  1.00  0.00    -0.024 C 
ATOM     10  C   UNL A   1      37.795  32.999  31.550  1.00  0.00     0.012 C 
ATOM     11  C   UNL A   1      36.618  31.124  32.740  1.00  0.00     0.012 C 
BRANCH   7  12
ATOM     12  C   UNL A   1      38.208  31.755  35.193  1.00  0.00     0.058 C 
ATOM     13  C   UNL A   1      39.337  30.770  34.975  1.00  0.00     0.066 C 
ATOM     14  N   UNL A   1      37.413  31.759  36.222  1.00  0.00    -0.099 NA
BRANCH  14  15
ATOM     15  O   UNL A   1      37.691  30.714  37.106  1.00  0.00    -0.411 OA
ATOM     16  H   UNL A   1      37.541  30.824  38.024  1.00  0.00     0.330 HD
ENDBRANCH  14  15
ENDBRANCH   7  12
ENDBRANCH   5   6
ENDBRANCH   3   5
ENDBRANCH   2   3
ENDBRANCH   1   2
BRANCH   1  17
ATOM     17  C   UNL A   1      33.950  32.765  28.697  1.00  0.00     0.275 C 
BRANCH  17  18
ATOM     18  O   UNL A   1      34.918  32.055  27.903  1.00  0.00    -0.458 OA
BRANCH  18  19
ATOM     19  C   UNL A   1      34.813  30.707  27.924  1.00  0.00     0.338 C 
ATOM     20  O   UNL A   1      33.842  30.027  27.650  1.00  0.00    -0.246 OA
BRANCH  19  21
ATOM     21  C   UNL A   1      36.124  30.135  28.254  1.00  0.00     0.060 A 
ATOM     22  C   UNL A   1      36.309  29.569  29.518  1.00  0.00     0.016 A 
ATOM     23  C   UNL A   1      37.183  30.224  27.350  1.00  0.00     0.016 A 
ATOM     24  C   UNL A   1      37.563  29.084  29.886  1.00  0.00     0.010 A 
ATOM     25  C   UNL A   1      38.439  29.734  27.719  1.00  0.00     0.010 A 
ATOM     26  C   UNL A   1      38.639  29.170  28.992  1.00  0.00    -0.014 A 
BRANCH  26  27
ATOM     27  C   UNL A   1      39.987  28.715  29.405  1.00  0.00     0.031 A 
ATOM     28  C   UNL A   1      40.807  29.562  30.335  1.00  0.00     0.074 A 
ATOM     29  C   UNL A   1      40.472  27.544  28.953  1.00  0.00     0.049 A 
ATOM     30  N   UNL A   1      42.045  29.403  30.729  1.00  0.00    -0.248 NA
ATOM     31  C   UNL A   1      40.142  30.748  30.900  1.00  0.00     0.031 C 
ATOM     32  C   UNL A   1      39.753  26.613  28.083  1.00  0.00     0.029 A 
ATOM     33  N   UNL A   1      41.688  26.942  29.157  1.00  0.00    -0.354 N 
ATOM     34  C   UNL A   1      42.312  30.469  31.577  1.00  0.00     0.074 A 
ATOM     35  C   UNL A   1      41.114  31.281  31.628  1.00  0.00     0.031 C 
ATOM     36  C   UNL A   1      40.546  25.561  27.820  1.00  0.00     0.029 A 
ATOM     37  C   UNL A   1      41.839  25.763  28.468  1.00  0.00     0.049 A 
ATOM     38  H   UNL A   1      42.384  27.317  29.742  1.00  0.00     0.167 HD
ATOM     39  C   UNL A   1      43.452  30.740  32.255  1.00  0.00     0.037 A 
ATOM     40  C   UNL A   1      42.911  24.959  28.348  1.00  0.00     0.037 A 
ATOM     41  C   UNL A   1      44.640  29.929  32.207  1.00  0.00     0.049 A 
ATOM     42  C   UNL A   1      44.186  25.318  29.064  1.00  0.00     0.074 A 
ATOM     43  C   UNL A   1      45.855  30.136  32.837  1.00  0.00     0.029 A 
ATOM     44  N   UNL A   1      44.758  28.749  31.489  1.00  0.00    -0.354 N 
ATOM     45  N   UNL A   1      44.438  26.341  29.844  1.00  0.00    -0.248 NA
ATOM     46  C   UNL A   1      45.329  24.411  28.879  1.00  0.00     0.031 C 
ATOM     47  C   UNL A   1      46.717  29.094  32.481  1.00  0.00     0.029 A 
ATOM     48  C   UNL A   1      46.027  28.219  31.657  1.00  0.00     0.049 A 
ATOM     49  H   UNL A   1      44.046  28.347  30.940  1.00  0.00     0.167 HD
ATOM     50  C   UNL A   1      45.753  26.189  30.260  1.00  0.00     0.074 A 
ATOM     51  C   UNL A   1      46.245  24.968  29.659  1.00  0.00     0.031 C 
ATOM     52  C   UNL A   1      46.490  26.992  31.064  1.00  0.00     0.037 A 
BRANCH  39  53
ATOM     53  C   UNL A   1      43.477  31.973  33.106  1.00  0.00     0.064 A 
ATOM     54  C   UNL A   1      43.827  33.221  32.573  1.00  0.00     0.173 A 
ATOM     55  C   UNL A   1      43.092  31.917  34.454  1.00  0.00     0.173 A 
ATOM     56  F   UNL A   1      44.215  33.323  31.293  1.00  0.00    -0.203 F 
ATOM     57  C   UNL A   1      43.802  34.368  33.362  1.00  0.00     0.198 A 
ATOM     58  C   UNL A   1      43.047  33.069  35.234  1.00  0.00     0.198 A 
ATOM     59  F   UNL A   1      42.744  30.746  35.010  1.00  0.00    -0.203 F 
ATOM     60  F   UNL A   1      44.168  35.548  32.839  1.00  0.00    -0.200 F 
ATOM     61  C   UNL A   1      43.405  34.292  34.689  1.00  0.00     0.200 A 
ATOM     62  F   UNL A   1      42.654  32.996  36.513  1.00  0.00    -0.200 F 
ATOM     63  F   UNL A   1      43.370  35.400  35.443  1.00  0.00    -0.200 F 
ENDBRANCH  39  53
BRANCH  40  64
ATOM     64  C   UNL A   1      42.842  23.746  27.494  1.00  0.00     0.064 A 
ATOM     65  C   UNL A   1      42.408  22.519  28.015  1.00  0.00     0.173 A 
ATOM     66  C   UNL A   1      43.242  23.780  26.150  1.00  0.00     0.173 A 
ATOM     67  F   UNL A   1      42.042  22.429  29.302  1.00  0.00    -0.203 F 
ATOM     68  C   UNL A   1      42.397  21.368  27.228  1.00  0.00     0.198 A 
ATOM     69  C   UNL A   1      43.205  22.635  25.358  1.00  0.00     0.198 A 
ATOM     70  F   UNL A   1      43.671  24.928  25.606  1.00  0.00    -0.203 F 
ATOM     71  F   UNL A   1      42.028  20.197  27.766  1.00  0.00    -0.200 F 
ATOM     72  C   UNL A   1      42.791  21.428  25.900  1.00  0.00     0.200 A 
ATOM     73  F   UNL A   1      43.579  22.699  24.073  1.00  0.00    -0.200 F 
ATOM     74  F   UNL A   1      42.786  20.319  25.147  1.00  0.00    -0.200 F 
ENDBRANCH  40  64
BRANCH  52  75
ATOM     75  C   UNL A   1      47.891  26.554  31.372  1.00  0.00     0.064 A 
ATOM     76  C   UNL A   1      48.977  26.965  30.588  1.00  0.00     0.173 A 
ATOM     77  C   UNL A   1      48.151  25.741  32.485  1.00  0.00     0.173 A 
ATOM     78  F   UNL A   1      48.776  27.730  29.504  1.00  0.00    -0.203 F 
ATOM     79  C   UNL A   1      50.273  26.560  30.894  1.00  0.00     0.198 A 
ATOM     80  C   UNL A   1      49.450  25.357  32.803  1.00  0.00     0.198 A 
ATOM     81  F   UNL A   1      47.144  25.326  33.269  1.00  0.00    -0.203 F 
ATOM     82  F   UNL A   1      51.293  26.930  30.108  1.00  0.00    -0.200 F 
ATOM     83  C   UNL A   1      50.509  25.762  32.004  1.00  0.00     0.200 A 
ATOM     84  F   UNL A   1      49.677  24.593  33.880  1.00  0.00    -0.200 F 
ATOM     85  F   UNL A   1      51.758  25.376  32.299  1.00  0.00    -0.200 F 
ENDBRANCH  52  75
ENDBRANCH  26  27
ENDBRANCH  19  21
ENDBRANCH  18  19
ENDBRANCH  17  18
ENDBRANCH   1  17
TORSDOF 14
ENDMDL
MODEL 2
REMARK VINA RESULT:      -9.7      6.030     10.013
REMARK SMILES C/C(=N\O)[C@@H]1C[C@@H](CC(=O)OCCOC(=O)c2ccc(-c3c4nc(c(-c5c(F)c(F)c(F)c(F)c5F)c5ccc([nH]5)c(-c5c(F)c(F)c(F)c(F)c5F)c5nc(c(-c6c(F)c(F)c(F)c(F)c6F)c6ccc3[nH]6)C=C5)C=C4)cc2)C1(C)C
REMARK SMILES IDX 12 1 11 2 9 3 10 4 8 5 7 6 5 7 6 8 80 9 81 10 82 11 2 12
REMARK SMILES IDX 1 13 3 14 4 15 13 17 14 18 15 19 16 20 17 21 18 22 79 23
REMARK SMILES IDX 19 24 78 25 20 26 21 27 22 28 72 29 23 30 77 31 71 32 73 33
REMARK SMILES IDX 24 34 76 35 70 36 69 37 25 39 57 40 37 41 56 42 38 43 41 44
REMARK SMILES IDX 55 45 74 46 39 47 40 48 54 50 75 51 42 52 26 53 27 54 35 55
REMARK SMILES IDX 28 56 29 57 33 58 36 59 30 60 31 61 34 62 32 63 58 64 59 65
REMARK SMILES IDX 67 66 60 67 61 68 65 69 68 70 62 71 63 72 66 73 64 74 43 75
REMARK SMILES IDX 44 76 52 77 45 78 46 79 50 80 53 81 47 82 48 83 51 84 49 85
REMARK H PARENT 4 16 73 38 41 49
REMARK Flexibility Score: inf
ROOT
ATOM      1  C   UNL A   1      34.909  21.581  24.912  1.00  0.00     0.274 C 
ENDROOT
BRANCH   1   2
ATOM      2  O   UNL A   1      33.887  20.935  25.694  1.00  0.00    -0.462 OA
BRANCH   2   3
ATOM      3  C   UNL A   1      32.696  20.719  25.087  1.00  0.00     0.306 C 
ATOM      4  O   UNL A   1      31.625  21.193  25.446  1.00  0.00    -0.252 OA
BRANCH   3   5
ATOM      5  C   UNL A   1      32.815  19.779  23.913  1.00  0.00     0.127 C 
BRANCH   5   6
ATOM      6  C   UNL A   1      32.718  18.287  24.229  1.00  0.00     0.007 C 
ATOM      7  C   UNL A   1      33.514  16.798  25.621  1.00  0.00     0.043 C 
ATOM      8  C   UNL A   1      32.530  17.984  25.730  1.00  0.00     0.015 C 
ATOM      9  C   UNL A   1      33.994  17.367  24.237  1.00  0.00    -0.024 C 
ATOM     10  C   UNL A   1      35.346  18.075  24.359  1.00  0.00     0.012 C 
ATOM     11  C   UNL A   1      34.023  16.359  23.085  1.00  0.00     0.012 C 
BRANCH   7  12
ATOM     12  C   UNL A   1      32.953  15.333  25.682  1.00  0.00     0.058 C 
ATOM     13  C   UNL A   1      31.460  15.191  25.881  1.00  0.00     0.066 C 
ATOM     14  N   UNL A   1      33.782  14.342  25.529  1.00  0.00    -0.099 NA
BRANCH  14  15
ATOM     15  O   UNL A   1      33.139  13.104  25.606  1.00  0.00    -0.411 OA
ATOM     16  H   UNL A   1      33.480  12.370  25.134  1.00  0.00     0.330 HD
ENDBRANCH  14  15
ENDBRANCH   7  12
ENDBRANCH   5   6
ENDBRANCH   3   5
ENDBRANCH   2   3
ENDBRANCH   1   2
BRANCH   1  17
ATOM     17  C   UNL A   1      36.286  21.010  25.250  1.00  0.00     0.275 C 
BRANCH  17  18
ATOM     18  O   UNL A   1      37.122  22.021  25.843  1.00  0.00    -0.458 OA
BRANCH  18  19
ATOM     19  C   UNL A   1      38.419  21.678  26.013  1.00  0.00     0.338 C 
ATOM     20  O   UNL A   1      38.958  20.624  25.730  1.00  0.00    -0.246 OA
BRANCH  19  21
ATOM     21  C   UNL A   1      39.151  22.839  26.532  1.00  0.00     0.060 A 
ATOM     22  C   UNL A   1      38.735  24.118  26.153  1.00  0.00     0.016 A 
ATOM     23  C   UNL A   1      40.285  22.665  27.326  1.00  0.00     0.016 A 
ATOM     24  C   UNL A   1      39.454  25.236  26.571  1.00  0.00     0.010 A 
ATOM     25  C   UNL A   1      41.004  23.787  27.747  1.00  0.00     0.010 A 
ATOM     26  C   UNL A   1      40.598  25.078  27.365  1.00  0.00    -0.014 A 
BRANCH  26  27
ATOM     27  C   UNL A   1      41.402  26.260  27.756  1.00  0.00     0.031 A 
ATOM     28  C   UNL A   1      40.782  27.335  28.602  1.00  0.00     0.074 A 
ATOM     29  C   UNL A   1      42.684  26.366  27.360  1.00  0.00     0.049 A 
ATOM     30  N   UNL A   1      41.272  28.494  28.960  1.00  0.00    -0.248 NA
ATOM     31  C   UNL A   1      39.430  27.067  29.116  1.00  0.00     0.031 C 
ATOM     32  C   UNL A   1      43.409  25.367  26.575  1.00  0.00     0.029 A 
ATOM     33  N   UNL A   1      43.600  27.368  27.556  1.00  0.00    -0.354 N 
ATOM     34  C   UNL A   1      40.289  29.099  29.731  1.00  0.00     0.074 A 
ATOM     35  C   UNL A   1      39.164  28.187  29.774  1.00  0.00     0.031 C 
ATOM     36  C   UNL A   1      44.656  25.811  26.349  1.00  0.00     0.029 A 
ATOM     37  C   UNL A   1      44.803  27.141  26.935  1.00  0.00     0.049 A 
ATOM     38  H   UNL A   1      43.412  28.172  28.092  1.00  0.00     0.167 HD
ATOM     39  C   UNL A   1      40.325  30.302  30.350  1.00  0.00     0.037 A 
ATOM     40  C   UNL A   1      45.888  27.931  26.827  1.00  0.00     0.037 A 
ATOM     41  C   UNL A   1      41.445  31.206  30.309  1.00  0.00     0.049 A 
ATOM     42  C   UNL A   1      45.877  29.290  27.473  1.00  0.00     0.074 A 
ATOM     43  C   UNL A   1      41.566  32.460  30.881  1.00  0.00     0.029 A 
ATOM     44  N   UNL A   1      42.643  30.944  29.661  1.00  0.00    -0.354 N 
ATOM     45  N   UNL A   1      44.933  29.864  28.180  1.00  0.00    -0.248 NA
ATOM     46  C   UNL A   1      47.082  30.115  27.303  1.00  0.00     0.031 C 
ATOM     47  C   UNL A   1      42.829  32.969  30.558  1.00  0.00     0.029 A 
ATOM     48  C   UNL A   1      43.507  32.015  29.815  1.00  0.00     0.049 A 
ATOM     49  H   UNL A   1      42.848  30.120  29.164  1.00  0.00     0.167 HD
ATOM     50  C   UNL A   1      45.437  31.101  28.556  1.00  0.00     0.074 A 
ATOM     51  C   UNL A   1      46.776  31.192  28.014  1.00  0.00     0.031 C 
ATOM     52  C   UNL A   1      44.842  32.078  29.283  1.00  0.00     0.037 A 
BRANCH  39  53
ATOM     53  C   UNL A   1      39.111  30.723  31.122  1.00  0.00     0.064 A 
ATOM     54  C   UNL A   1      38.993  30.466  32.495  1.00  0.00     0.173 A 
ATOM     55  C   UNL A   1      38.081  31.438  30.494  1.00  0.00     0.173 A 
ATOM     56  F   UNL A   1      39.947  29.773  33.135  1.00  0.00    -0.203 F 
ATOM     57  C   UNL A   1      37.882  30.902  33.211  1.00  0.00     0.198 A 
ATOM     58  C   UNL A   1      36.981  31.892  31.217  1.00  0.00     0.198 A 
ATOM     59  F   UNL A   1      38.148  31.712  29.182  1.00  0.00    -0.203 F 
ATOM     60  F   UNL A   1      37.776  30.622  34.518  1.00  0.00    -0.200 F 
ATOM     61  C   UNL A   1      36.881  31.621  32.574  1.00  0.00     0.200 A 
ATOM     62  F   UNL A   1      36.019  32.594  30.603  1.00  0.00    -0.200 F 
ATOM     63  F   UNL A   1      35.817  32.050  33.268  1.00  0.00    -0.200 F 
ENDBRANCH  39  53
BRANCH  40  64
ATOM     64  C   UNL A   1      47.069  27.473  26.052  1.00  0.00     0.064 A 
ATOM     65  C   UNL A   1      48.169  26.884  26.691  1.00  0.00     0.173 A 
ATOM     66  C   UNL A   1      47.138  27.648  24.662  1.00  0.00     0.173 A 
ATOM     67  F   UNL A   1      48.163  26.722  28.022  1.00  0.00    -0.203 F 
ATOM     68  C   UNL A   1      49.302  26.507  25.971  1.00  0.00     0.198 A 
ATOM     69  C   UNL A   1      48.259  27.246  23.941  1.00  0.00     0.198 A 
ATOM     70  F   UNL A   1      46.114  28.212  24.005  1.00  0.00    -0.203 F 
ATOM     71  F   UNL A   1      50.360  25.995  26.614  1.00  0.00    -0.200 F 
ATOM     72  C   UNL A   1      49.344  26.684  24.597  1.00  0.00     0.200 A 
ATOM     73  F   UNL A   1      48.293  27.412  22.611  1.00  0.00    -0.200 F 
ATOM     74  F   UNL A   1      50.436  26.327  23.906  1.00  0.00    -0.200 F 
ENDBRANCH  40  64
BRANCH  52  75
ATOM     75  C   UNL A   1      45.650  33.308  29.566  1.00  0.00     0.064 A 
ATOM     76  C   UNL A   1      46.493  33.391  30.683  1.00  0.00     0.173 A 
ATOM     77  C   UNL A   1      45.606  34.402  28.690  1.00  0.00     0.173 A 
ATOM     78  F   UNL A   1      46.556  32.376  31.558  1.00  0.00    -0.203 F 
ATOM     79  C   UNL A   1      47.248  34.536  30.925  1.00  0.00     0.198 A 
ATOM     80  C   UNL A   1      46.380  35.536  28.922  1.00  0.00     0.198 A 
ATOM     81  F   UNL A   1      44.819  34.367  27.604  1.00  0.00    -0.203 F 
ATOM     82  F   UNL A   1      48.015  34.612  32.021  1.00  0.00    -0.200 F 
ATOM     83  C   UNL A   1      47.194  35.605  30.042  1.00  0.00     0.200 A 
ATOM     84  F   UNL A   1      46.334  36.564  28.062  1.00  0.00    -0.200 F 
ATOM     85  F   UNL A   1      47.923  36.704  30.275  1.00  0.00    -0.200 F 
ENDBRANCH  52  75
ENDBRANCH  26  27
ENDBRANCH  19  21
ENDBRANCH  18  19
ENDBRANCH  17  18
ENDBRANCH   1  17
TORSDOF 14
ENDMDL
MODEL 3
REMARK VINA RESULT:      -9.7      3.973      9.851
REMARK SMILES C/C(=N\O)[C@@H]1C[C@@H](CC(=O)OCCOC(=O)c2ccc(-c3c4nc(c(-c5c(F)c(F)c(F)c(F)c5F)c5ccc([nH]5)c(-c5c(F)c(F)c(F)c(F)c5F)c5nc(c(-c6c(F)c(F)c(F)c(F)c6F)c6ccc3[nH]6)C=C5)C=C4)cc2)C1(C)C
REMARK SMILES IDX 12 1 11 2 9 3 10 4 8 5 7 6 5 7 6 8 80 9 81 10 82 11 2 12
REMARK SMILES IDX 1 13 3 14 4 15 13 17 14 18 15 19 16 20 17 21 18 22 79 23
REMARK SMILES IDX 19 24 78 25 20 26 21 27 22 28 72 29 23 30 77 31 71 32 73 33
REMARK SMILES IDX 24 34 76 35 70 36 69 37 25 39 57 40 37 41 56 42 38 43 41 44
REMARK SMILES IDX 55 45 74 46 39 47 40 48 54 50 75 51 42 52 26 53 27 54 35 55
REMARK SMILES IDX 28 56 29 57 33 58 36 59 30 60 31 61 34 62 32 63 58 64 59 65
REMARK SMILES IDX 67 66 60 67 61 68 65 69 68 70 62 71 63 72 66 73 64 74 43 75
REMARK SMILES IDX 44 76 52 77 45 78 46 79 50 80 53 81 47 82 48 83 51 84 49 85
REMARK H PARENT 4 16 73 38 41 49
REMARK Flexibility Score: inf
ROOT
ATOM      1  C   UNL A   1      31.278  28.631  25.045  1.00  0.00     0.274 C 
ENDROOT
BRANCH   1   2
ATOM      2  O   UNL A   1      31.804  28.261  23.757  1.00  0.00    -0.462 OA
BRANCH   2   3
ATOM      3  C   UNL A   1      30.980  27.570  22.934  1.00  0.00     0.306 C 
ATOM      4  O   UNL A   1      30.335  28.053  22.011  1.00  0.00    -0.252 OA
BRANCH   3   5
ATOM      5  C   UNL A   1      30.901  26.109  23.301  1.00  0.00     0.127 C 
BRANCH   5   6
ATOM      6  C   UNL A   1      32.226  25.347  23.332  1.00  0.00     0.007 C 
ATOM      7  C   UNL A   1      33.103  23.514  24.143  1.00  0.00     0.043 C 
ATOM      8  C   UNL A   1      32.080  23.840  23.033  1.00  0.00     0.015 C 
ATOM      9  C   UNL A   1      32.925  24.976  24.691  1.00  0.00    -0.024 C 
ATOM     10  C   UNL A   1      32.043  25.003  25.943  1.00  0.00     0.012 C 
ATOM     11  C   UNL A   1      34.223  25.750  24.938  1.00  0.00     0.012 C 
BRANCH   7  12
ATOM     12  C   UNL A   1      34.540  23.030  23.737  1.00  0.00     0.058 C 
ATOM     13  C   UNL A   1      35.142  21.923  24.577  1.00  0.00     0.066 C 
ATOM     14  N   UNL A   1      35.110  23.572  22.702  1.00  0.00    -0.099 NA
BRANCH  14  15
ATOM     15  O   UNL A   1      36.380  23.041  22.463  1.00  0.00    -0.411 OA
ATOM     16  H   UNL A   1      36.757  22.436  23.072  1.00  0.00     0.330 HD
ENDBRANCH  14  15
ENDBRANCH   7  12
ENDBRANCH   5   6
ENDBRANCH   3   5
ENDBRANCH   2   3
ENDBRANCH   1   2
BRANCH   1  17
ATOM     17  C   UNL A   1      31.617  30.087  25.366  1.00  0.00     0.275 C 
BRANCH  17  18
ATOM     18  O   UNL A   1      32.959  30.195  25.873  1.00  0.00    -0.458 OA
BRANCH  18  19
ATOM     19  C   UNL A   1      33.150  31.144  26.818  1.00  0.00     0.338 C 
ATOM     20  O   UNL A   1      32.387  32.030  27.154  1.00  0.00    -0.246 OA
BRANCH  19  21
ATOM     21  C   UNL A   1      34.436  30.898  27.483  1.00  0.00     0.060 A 
ATOM     22  C   UNL A   1      34.764  29.589  27.842  1.00  0.00     0.016 A 
ATOM     23  C   UNL A   1      35.276  31.961  27.815  1.00  0.00     0.016 A 
ATOM     24  C   UNL A   1      35.944  29.334  28.539  1.00  0.00     0.010 A 
ATOM     25  C   UNL A   1      36.460  31.704  28.511  1.00  0.00     0.010 A 
ATOM     26  C   UNL A   1      36.797  30.390  28.885  1.00  0.00    -0.014 A 
BRANCH  26  27
ATOM     27  C   UNL A   1      38.019  30.130  29.683  1.00  0.00     0.031 A 
ATOM     28  C   UNL A   1      39.094  29.241  29.128  1.00  0.00     0.074 A 
ATOM     29  C   UNL A   1      38.166  30.695  30.895  1.00  0.00     0.049 A 
ATOM     30  N   UNL A   1      40.183  28.799  29.704  1.00  0.00    -0.248 NA
ATOM     31  C   UNL A   1      38.921  28.791  27.738  1.00  0.00     0.031 C 
ATOM     32  C   UNL A   1      37.212  31.611  31.520  1.00  0.00     0.029 A 
ATOM     33  N   UNL A   1      39.170  30.572  31.822  1.00  0.00    -0.354 N 
ATOM     34  C   UNL A   1      40.820  28.012  28.754  1.00  0.00     0.074 A 
ATOM     35  C   UNL A   1      39.988  28.020  27.569  1.00  0.00     0.031 C 
ATOM     36  C   UNL A   1      37.673  31.961  32.732  1.00  0.00     0.029 A 
ATOM     37  C   UNL A   1      38.931  31.262  32.985  1.00  0.00     0.049 A 
ATOM     38  H   UNL A   1      39.984  30.041  31.668  1.00  0.00     0.167 HD
ATOM     39  C   UNL A   1      41.995  27.349  28.861  1.00  0.00     0.037 A 
ATOM     40  C   UNL A   1      39.632  31.298  34.133  1.00  0.00     0.037 A 
ATOM     41  C   UNL A   1      42.824  27.345  30.038  1.00  0.00     0.049 A 
ATOM     42  C   UNL A   1      40.903  30.501  34.246  1.00  0.00     0.074 A 
ATOM     43  C   UNL A   1      44.019  26.681  30.253  1.00  0.00     0.029 A 
ATOM     44  N   UNL A   1      42.542  28.048  31.200  1.00  0.00    -0.354 N 
ATOM     45  N   UNL A   1      41.486  29.740  33.351  1.00  0.00    -0.248 NA
ATOM     46  C   UNL A   1      41.615  30.564  35.531  1.00  0.00     0.031 C 
ATOM     47  C   UNL A   1      44.449  26.962  31.555  1.00  0.00     0.029 A 
ATOM     48  C   UNL A   1      43.539  27.830  32.137  1.00  0.00     0.049 A 
ATOM     49  H   UNL A   1      41.751  28.617  31.339  1.00  0.00     0.167 HD
ATOM     50  C   UNL A   1      42.638  29.255  33.955  1.00  0.00     0.074 A 
ATOM     51  C   UNL A   1      42.683  29.819  35.287  1.00  0.00     0.031 C 
ATOM     52  C   UNL A   1      43.574  28.415  33.451  1.00  0.00     0.037 A 
BRANCH  39  53
ATOM     53  C   UNL A   1      42.458  26.560  27.674  1.00  0.00     0.064 A 
ATOM     54  C   UNL A   1      43.386  27.084  26.765  1.00  0.00     0.173 A 
ATOM     55  C   UNL A   1      42.010  25.246  27.475  1.00  0.00     0.173 A 
ATOM     56  F   UNL A   1      43.833  28.341  26.906  1.00  0.00    -0.203 F 
ATOM     57  C   UNL A   1      43.843  26.324  25.691  1.00  0.00     0.198 A 
ATOM     58  C   UNL A   1      42.485  24.481  26.413  1.00  0.00     0.198 A 
ATOM     59  F   UNL A   1      41.123  24.697  28.320  1.00  0.00    -0.203 F 
ATOM     60  F   UNL A   1      44.711  26.855  24.817  1.00  0.00    -0.200 F 
ATOM     61  C   UNL A   1      43.399  25.022  25.521  1.00  0.00     0.200 A 
ATOM     62  F   UNL A   1      42.062  23.219  26.255  1.00  0.00    -0.200 F 
ATOM     63  F   UNL A   1      43.849  24.288  24.494  1.00  0.00    -0.200 F 
ENDBRANCH  39  53
BRANCH  40  64
ATOM     64  C   UNL A   1      39.136  32.095  35.285  1.00  0.00     0.064 A 
ATOM     65  C   UNL A   1      39.443  33.457  35.407  1.00  0.00     0.173 A 
ATOM     66  C   UNL A   1      38.376  31.502  36.304  1.00  0.00     0.173 A 
ATOM     67  F   UNL A   1      40.191  34.062  34.473  1.00  0.00    -0.203 F 
ATOM     68  C   UNL A   1      39.026  34.191  36.517  1.00  0.00     0.198 A 
ATOM     69  C   UNL A   1      37.937  32.243  37.398  1.00  0.00     0.198 A 
ATOM     70  F   UNL A   1      38.061  30.200  36.236  1.00  0.00    -0.203 F 
ATOM     71  F   UNL A   1      39.379  35.478  36.636  1.00  0.00    -0.200 F 
ATOM     72  C   UNL A   1      38.270  33.584  37.509  1.00  0.00     0.200 A 
ATOM     73  F   UNL A   1      37.201  31.655  38.351  1.00  0.00    -0.200 F 
ATOM     74  F   UNL A   1      37.876  34.289  38.578  1.00  0.00    -0.200 F 
ENDBRANCH  40  64
BRANCH  52  75
ATOM     75  C   UNL A   1      44.743  28.087  34.330  1.00  0.00     0.064 A 
ATOM     76  C   UNL A   1      44.737  26.966  35.172  1.00  0.00     0.173 A 
ATOM     77  C   UNL A   1      45.897  28.884  34.302  1.00  0.00     0.173 A 
ATOM     78  F   UNL A   1      43.650  26.182  35.245  1.00  0.00    -0.203 F 
ATOM     79  C   UNL A   1      45.836  26.668  35.973  1.00  0.00     0.198 A 
ATOM     80  C   UNL A   1      47.003  28.570  35.087  1.00  0.00     0.198 A 
ATOM     81  F   UNL A   1      45.952  29.964  33.508  1.00  0.00    -0.203 F 
ATOM     82  F   UNL A   1      45.793  25.616  36.802  1.00  0.00    -0.200 F 
ATOM     83  C   UNL A   1      46.970  27.466  35.925  1.00  0.00     0.200 A 
ATOM     84  F   UNL A   1      48.100  29.337  35.032  1.00  0.00    -0.200 F 
ATOM     85  F   UNL A   1      48.027  27.176  36.694  1.00  0.00    -0.200 F 
ENDBRANCH  52  75
ENDBRANCH  26  27
ENDBRANCH  19  21
ENDBRANCH  18  19
ENDBRANCH  17  18
ENDBRANCH   1  17
TORSDOF 14
ENDMDL
