MODEL 1
REMARK VINA RESULT:     -10.7      0.000      0.000
REMARK SMILES CC(=O)N[C@@H](C(=O)N(CC(=O)OCCOC(=O)c1ccc(-c2c3nc(c(-c4c(F)c(F)c(F)c(F)c4F)c4ccc([nH]4)c(-c4c(F)c(F)c(F)c(F)c4F)c4nc(c(-c5c(F)c(F)c(F)c(F)c5F)c5ccc2[nH]5)C=C4)C=C3)cc1)CC(F)(F)F)C(C)C
REMARK SMILES IDX 13 1 12 2 10 3 11 4 9 5 8 6 6 7 7 8 5 9 4 10 1 11 2 12 3 13
REMARK SMILES IDX 86 15 87 16 88 17 81 18 82 19 83 20 84 21 85 22 14 23 15 24
REMARK SMILES IDX 16 25 17 26 18 27 19 28 80 29 20 30 79 31 21 32 22 33 23 34
REMARK SMILES IDX 73 35 24 36 78 37 72 38 74 39 25 40 77 41 71 42 70 43 26 45
REMARK SMILES IDX 58 46 38 47 57 48 39 49 42 50 56 51 75 52 40 53 41 54 55 56
REMARK SMILES IDX 76 57 43 58 27 59 28 60 36 61 29 62 30 63 34 64 37 65 31 66
REMARK SMILES IDX 32 67 35 68 33 69 59 70 60 71 68 72 61 73 62 74 66 75 69 76
REMARK SMILES IDX 63 77 64 78 67 79 65 80 44 81 45 82 53 83 46 84 47 85 51 86
REMARK SMILES IDX 54 87 48 88 49 89 52 90 50 91
REMARK H PARENT 4 14 74 44 42 55
REMARK Flexibility Score: inf
ROOT
ATOM      1  C   UNL A   1      31.291  29.277  24.570  1.00  0.00     0.274 C 
ENDROOT
BRANCH   1   2
ATOM      2  O   UNL A   1      31.219  27.925  25.063  1.00  0.00    -0.461 OA
BRANCH   2   3
ATOM      3  C   UNL A   1      30.210  27.158  24.593  1.00  0.00     0.325 C 
ATOM      4  O   UNL A   1      29.523  27.419  23.609  1.00  0.00    -0.250 OA
BRANCH   3   5
ATOM      5  C   UNL A   1      30.043  25.849  25.362  1.00  0.00     0.242 C 
BRANCH   5   6
ATOM      6  N   UNL A   1      30.890  24.693  25.035  1.00  0.00    -0.321 N 
BRANCH   6   7
ATOM      7  C   UNL A   1      31.591  23.932  25.962  1.00  0.00     0.246 C 
ATOM      8  O   UNL A   1      31.199  23.874  27.130  1.00  0.00    -0.272 OA
BRANCH   7   9
ATOM      9  C   UNL A   1      32.838  23.119  25.499  1.00  0.00     0.174 C 
BRANCH   9  10
ATOM     10  N   UNL A   1      32.497  21.715  25.739  1.00  0.00    -0.344 N 
ATOM     11  C   UNL A   1      32.450  20.979  23.381  1.00  0.00     0.114 C 
ATOM     12  C   UNL A   1      32.292  20.704  24.851  1.00  0.00     0.217 C 
ATOM     13  O   UNL A   1      31.940  19.602  25.266  1.00  0.00    -0.275 OA
ATOM     14  H   UNL A   1      32.401  21.464  26.686  1.00  0.00     0.164 HD
ENDBRANCH   9  10
BRANCH   9  15
ATOM     15  C   UNL A   1      34.106  23.555  26.285  1.00  0.00     0.015 C 
ATOM     16  C   UNL A   1      34.978  22.380  26.737  1.00  0.00     0.010 C 
ATOM     17  C   UNL A   1      34.970  24.499  25.435  1.00  0.00     0.010 C 
ENDBRANCH   9  15
ENDBRANCH   7   9
ENDBRANCH   6   7
BRANCH   6  18
ATOM     18  C   UNL A   1      30.940  24.259  23.616  1.00  0.00     0.235 C 
BRANCH  18  19
ATOM     19  C   UNL A   1      32.003  24.885  22.691  1.00  0.00     0.406 C 
ATOM     20  F   UNL A   1      32.810  23.967  22.120  1.00  0.00    -0.169 F 
ATOM     21  F   UNL A   1      31.390  25.544  21.674  1.00  0.00    -0.169 F 
ATOM     22  F   UNL A   1      32.793  25.779  23.320  1.00  0.00    -0.169 F 
ENDBRANCH  18  19
ENDBRANCH   6  18
ENDBRANCH   5   6
ENDBRANCH   3   5
ENDBRANCH   2   3
ENDBRANCH   1   2
BRANCH   1  23
ATOM     23  C   UNL A   1      31.574  30.267  25.708  1.00  0.00     0.275 C 
BRANCH  23  24
ATOM     24  O   UNL A   1      32.976  30.332  26.045  1.00  0.00    -0.458 OA
BRANCH  24  25
ATOM     25  C   UNL A   1      33.320  31.311  26.910  1.00  0.00     0.338 C 
ATOM     26  O   UNL A   1      32.665  32.286  27.239  1.00  0.00    -0.246 OA
BRANCH  25  27
ATOM     27  C   UNL A   1      34.597  30.983  27.556  1.00  0.00     0.060 A 
ATOM     28  C   UNL A   1      34.839  29.646  27.879  1.00  0.00     0.016 A 
ATOM     29  C   UNL A   1      35.487  31.986  27.949  1.00  0.00     0.016 A 
ATOM     30  C   UNL A   1      35.968  29.303  28.612  1.00  0.00     0.010 A 
ATOM     31  C   UNL A   1      36.624  31.640  28.688  1.00  0.00     0.010 A 
ATOM     32  C   UNL A   1      36.860  30.299  29.035  1.00  0.00    -0.014 A 
BRANCH  32  33
ATOM     33  C   UNL A   1      38.010  29.905  29.878  1.00  0.00     0.031 A 
ATOM     34  C   UNL A   1      39.130  29.096  29.294  1.00  0.00     0.074 A 
ATOM     35  C   UNL A   1      38.101  30.375  31.135  1.00  0.00     0.049 A 
ATOM     36  N   UNL A   1      40.225  28.667  29.869  1.00  0.00    -0.248 NA
ATOM     37  C   UNL A   1      39.011  28.733  27.874  1.00  0.00     0.031 C 
ATOM     38  C   UNL A   1      37.112  31.230  31.789  1.00  0.00     0.029 A 
ATOM     39  N   UNL A   1      39.096  30.233  32.068  1.00  0.00    -0.354 N 
ATOM     40  C   UNL A   1      40.913  27.966  28.892  1.00  0.00     0.074 A 
ATOM     41  C   UNL A   1      40.128  28.045  27.677  1.00  0.00     0.031 C 
ATOM     42  C   UNL A   1      37.571  31.577  33.004  1.00  0.00     0.029 A 
ATOM     43  C   UNL A   1      38.872  30.948  33.216  1.00  0.00     0.049 A 
ATOM     44  H   UNL A   1      39.893  29.673  31.927  1.00  0.00     0.167 HD
ATOM     45  C   UNL A   1      42.088  27.303  29.003  1.00  0.00     0.037 A 
ATOM     46  C   UNL A   1      39.636  31.086  34.314  1.00  0.00     0.037 A 
ATOM     47  C   UNL A   1      42.875  27.227  30.201  1.00  0.00     0.049 A 
ATOM     48  C   UNL A   1      40.942  30.354  34.407  1.00  0.00     0.074 A 
ATOM     49  C   UNL A   1      44.022  26.490  30.444  1.00  0.00     0.029 A 
ATOM     50  N   UNL A   1      42.603  27.937  31.359  1.00  0.00    -0.354 N 
ATOM     51  N   UNL A   1      41.524  29.591  33.516  1.00  0.00    -0.248 NA
ATOM     52  C   UNL A   1      41.684  30.485  35.670  1.00  0.00     0.031 C 
ATOM     53  C   UNL A   1      44.451  26.766  31.749  1.00  0.00     0.029 A 
ATOM     54  C   UNL A   1      43.569  27.671  32.314  1.00  0.00     0.049 A 
ATOM     55  H   UNL A   1      41.835  28.542  31.485  1.00  0.00     0.167 HD
ATOM     56  C   UNL A   1      42.682  29.124  34.117  1.00  0.00     0.074 A 
ATOM     57  C   UNL A   1      42.741  29.716  35.438  1.00  0.00     0.031 C 
ATOM     58  C   UNL A   1      43.603  28.263  33.624  1.00  0.00     0.037 A 
BRANCH  45  59
ATOM     59  C   UNL A   1      42.571  26.574  27.791  1.00  0.00     0.064 A 
ATOM     60  C   UNL A   1      43.463  27.173  26.893  1.00  0.00     0.173 A 
ATOM     61  C   UNL A   1      42.151  25.261  27.537  1.00  0.00     0.173 A 
ATOM     62  F   UNL A   1      43.875  28.434  27.090  1.00  0.00    -0.203 F 
ATOM     63  C   UNL A   1      43.919  26.479  25.775  1.00  0.00     0.198 A 
ATOM     64  C   UNL A   1      42.610  24.570  26.420  1.00  0.00     0.198 A 
ATOM     65  F   UNL A   1      41.289  24.656  28.367  1.00  0.00    -0.203 F 
ATOM     66  F   UNL A   1      44.762  27.072  24.918  1.00  0.00    -0.200 F 
ATOM     67  C   UNL A   1      43.494  25.178  25.541  1.00  0.00     0.200 A 
ATOM     68  F   UNL A   1      42.191  23.319  26.190  1.00  0.00    -0.200 F 
ATOM     69  F   UNL A   1      43.930  24.514  24.461  1.00  0.00    -0.200 F 
ENDBRANCH  45  59
BRANCH  46  70
ATOM     70  C   UNL A   1      39.175  31.954  35.418  1.00  0.00     0.064 A 
ATOM     71  C   UNL A   1      39.501  33.314  35.443  1.00  0.00     0.173 A 
ATOM     72  C   UNL A   1      38.384  31.444  36.455  1.00  0.00     0.173 A 
ATOM     73  F   UNL A   1      40.272  33.837  34.478  1.00  0.00    -0.203 F 
ATOM     74  C   UNL A   1      39.049  34.139  36.471  1.00  0.00     0.198 A 
ATOM     75  C   UNL A   1      37.929  32.271  37.479  1.00  0.00     0.198 A 
ATOM     76  F   UNL A   1      38.054  30.144  36.470  1.00  0.00    -0.203 F 
ATOM     77  F   UNL A   1      39.381  35.437  36.478  1.00  0.00    -0.200 F 
ATOM     78  C   UNL A   1      38.261  33.618  37.486  1.00  0.00     0.200 A 
ATOM     79  F   UNL A   1      37.170  31.763  38.460  1.00  0.00    -0.200 F 
ATOM     80  F   UNL A   1      37.827  34.412  38.475  1.00  0.00    -0.200 F 
ENDBRANCH  46  70
BRANCH  58  81
ATOM     81  C   UNL A   1      44.725  27.883  34.531  1.00  0.00     0.064 A 
ATOM     82  C   UNL A   1      44.612  26.767  35.373  1.00  0.00     0.173 A 
ATOM     83  C   UNL A   1      45.924  28.607  34.541  1.00  0.00     0.173 A 
ATOM     84  F   UNL A   1      43.475  26.056  35.401  1.00  0.00    -0.203 F 
ATOM     85  C   UNL A   1      45.666  26.390  36.198  1.00  0.00     0.198 A 
ATOM     86  C   UNL A   1      46.976  28.225  35.369  1.00  0.00     0.198 A 
ATOM     87  F   UNL A   1      46.068  29.685  33.758  1.00  0.00    -0.203 F 
ATOM     88  F   UNL A   1      45.535  25.327  37.004  1.00  0.00    -0.200 F 
ATOM     89  C   UNL A   1      46.847  27.117  36.195  1.00  0.00     0.200 A 
ATOM     90  F   UNL A   1      48.114  28.933  35.373  1.00  0.00    -0.200 F 
ATOM     91  F   UNL A   1      47.859  26.756  36.996  1.00  0.00    -0.200 F 
ENDBRANCH  58  81
ENDBRANCH  32  33
ENDBRANCH  25  27
ENDBRANCH  24  25
ENDBRANCH  23  24
ENDBRANCH   1  23
TORSDOF 18
ENDMDL
MODEL 2
REMARK VINA RESULT:     -10.5      1.137      2.150
REMARK SMILES CC(=O)N[C@@H](C(=O)N(CC(=O)OCCOC(=O)c1ccc(-c2c3nc(c(-c4c(F)c(F)c(F)c(F)c4F)c4ccc([nH]4)c(-c4c(F)c(F)c(F)c(F)c4F)c4nc(c(-c5c(F)c(F)c(F)c(F)c5F)c5ccc2[nH]5)C=C4)C=C3)cc1)CC(F)(F)F)C(C)C
REMARK SMILES IDX 13 1 12 2 10 3 11 4 9 5 8 6 6 7 7 8 5 9 4 10 1 11 2 12 3 13
REMARK SMILES IDX 86 15 87 16 88 17 81 18 82 19 83 20 84 21 85 22 14 23 15 24
REMARK SMILES IDX 16 25 17 26 18 27 19 28 80 29 20 30 79 31 21 32 22 33 23 34
REMARK SMILES IDX 73 35 24 36 78 37 72 38 74 39 25 40 77 41 71 42 70 43 26 45
REMARK SMILES IDX 58 46 38 47 57 48 39 49 42 50 56 51 75 52 40 53 41 54 55 56
REMARK SMILES IDX 76 57 43 58 27 59 28 60 36 61 29 62 30 63 34 64 37 65 31 66
REMARK SMILES IDX 32 67 35 68 33 69 59 70 60 71 68 72 61 73 62 74 66 75 69 76
REMARK SMILES IDX 63 77 64 78 67 79 65 80 44 81 45 82 53 83 46 84 47 85 51 86
REMARK SMILES IDX 54 87 48 88 49 89 52 90 50 91
REMARK H PARENT 4 14 74 44 42 55
REMARK Flexibility Score: inf
ROOT
ATOM      1  C   UNL A   1      31.026  29.866  24.741  1.00  0.00     0.274 C 
ENDROOT
BRANCH   1   2
ATOM      2  O   UNL A   1      30.825  28.530  24.241  1.00  0.00    -0.461 OA
BRANCH   2   3
ATOM      3  C   UNL A   1      31.538  28.176  23.147  1.00  0.00     0.325 C 
ATOM      4  O   UNL A   1      32.360  28.888  22.578  1.00  0.00    -0.250 OA
BRANCH   3   5
ATOM      5  C   UNL A   1      31.292  26.732  22.714  1.00  0.00     0.242 C 
BRANCH   5   6
ATOM      6  N   UNL A   1      31.955  25.630  23.424  1.00  0.00    -0.321 N 
BRANCH   6   7
ATOM      7  C   UNL A   1      31.374  24.400  23.706  1.00  0.00     0.246 C 
ATOM      8  O   UNL A   1      30.312  24.085  23.164  1.00  0.00    -0.272 OA
BRANCH   7   9
ATOM      9  C   UNL A   1      32.101  23.412  24.669  1.00  0.00     0.174 C 
BRANCH   9  10
ATOM     10  N   UNL A   1      31.883  22.082  24.096  1.00  0.00    -0.344 N 
ATOM     11  C   UNL A   1      34.149  21.178  24.489  1.00  0.00     0.114 C 
ATOM     12  C   UNL A   1      32.746  21.038  23.964  1.00  0.00     0.217 C 
ATOM     13  O   UNL A   1      32.375  20.021  23.382  1.00  0.00    -0.275 OA
ATOM     14  H   UNL A   1      30.974  21.918  23.754  1.00  0.00     0.164 HD
ENDBRANCH   9  10
BRANCH   9  15
ATOM     15  C   UNL A   1      31.534  23.527  26.111  1.00  0.00     0.015 C 
ATOM     16  C   UNL A   1      30.341  22.604  26.374  1.00  0.00     0.010 C 
ATOM     17  C   UNL A   1      32.626  23.211  27.146  1.00  0.00     0.010 C 
ENDBRANCH   9  15
ENDBRANCH   7   9
ENDBRANCH   6   7
BRANCH   6  18
ATOM     18  C   UNL A   1      33.379  25.816  23.802  1.00  0.00     0.235 C 
BRANCH  18  19
ATOM     19  C   UNL A   1      33.701  26.456  25.167  1.00  0.00     0.406 C 
ATOM     20  F   UNL A   1      34.220  27.697  25.057  1.00  0.00    -0.169 F 
ATOM     21  F   UNL A   1      32.560  26.580  25.893  1.00  0.00    -0.169 F 
ATOM     22  F   UNL A   1      34.561  25.727  25.907  1.00  0.00    -0.169 F 
ENDBRANCH  18  19
ENDBRANCH   6  18
ENDBRANCH   5   6
ENDBRANCH   3   5
ENDBRANCH   2   3
ENDBRANCH   1   2
BRANCH   1  23
ATOM     23  C   UNL A   1      31.740  29.848  26.100  1.00  0.00     0.275 C 
BRANCH  23  24
ATOM     24  O   UNL A   1      33.081  30.375  26.024  1.00  0.00    -0.458 OA
BRANCH  24  25
ATOM     25  C   UNL A   1      33.387  31.316  26.944  1.00  0.00     0.338 C 
ATOM     26  O   UNL A   1      32.702  32.256  27.313  1.00  0.00    -0.246 OA
BRANCH  25  27
ATOM     27  C   UNL A   1      34.663  30.986  27.592  1.00  0.00     0.060 A 
ATOM     28  C   UNL A   1      34.902  29.649  27.918  1.00  0.00     0.016 A 
ATOM     29  C   UNL A   1      35.554  31.989  27.984  1.00  0.00     0.016 A 
ATOM     30  C   UNL A   1      36.030  29.307  28.653  1.00  0.00     0.010 A 
ATOM     31  C   UNL A   1      36.690  31.642  28.725  1.00  0.00     0.010 A 
ATOM     32  C   UNL A   1      36.924  30.302  29.075  1.00  0.00    -0.014 A 
BRANCH  32  33
ATOM     33  C   UNL A   1      38.071  29.907  29.920  1.00  0.00     0.031 A 
ATOM     34  C   UNL A   1      39.183  29.082  29.343  1.00  0.00     0.074 A 
ATOM     35  C   UNL A   1      38.169  30.391  31.171  1.00  0.00     0.049 A 
ATOM     36  N   UNL A   1      40.276  28.651  29.920  1.00  0.00    -0.248 NA
ATOM     37  C   UNL A   1      39.058  28.705  27.926  1.00  0.00     0.031 C 
ATOM     38  C   UNL A   1      37.189  31.261  31.818  1.00  0.00     0.029 A 
ATOM     39  N   UNL A   1      39.165  30.251  32.103  1.00  0.00    -0.354 N 
ATOM     40  C   UNL A   1      40.956  27.933  28.949  1.00  0.00     0.074 A 
ATOM     41  C   UNL A   1      40.169  28.004  27.735  1.00  0.00     0.031 C 
ATOM     42  C   UNL A   1      37.654  31.618  33.028  1.00  0.00     0.029 A 
ATOM     43  C   UNL A   1      38.950  30.980  33.244  1.00  0.00     0.049 A 
ATOM     44  H   UNL A   1      39.957  29.682  31.967  1.00  0.00     0.167 HD
ATOM     45  C   UNL A   1      42.126  27.261  29.065  1.00  0.00     0.037 A 
ATOM     46  C   UNL A   1      39.718  31.123  34.339  1.00  0.00     0.037 A 
ATOM     47  C   UNL A   1      42.915  27.191  30.263  1.00  0.00     0.049 A 
ATOM     48  C   UNL A   1      41.018  30.381  34.437  1.00  0.00     0.074 A 
ATOM     49  C   UNL A   1      44.055  26.448  30.511  1.00  0.00     0.029 A 
ATOM     50  N   UNL A   1      42.651  27.917  31.413  1.00  0.00    -0.354 N 
ATOM     51  N   UNL A   1      41.591  29.603  33.554  1.00  0.00    -0.248 NA
ATOM     52  C   UNL A   1      41.763  30.520  35.697  1.00  0.00     0.031 C 
ATOM     53  C   UNL A   1      44.489  26.734  31.812  1.00  0.00     0.029 A 
ATOM     54  C   UNL A   1      43.617  27.653  32.369  1.00  0.00     0.049 A 
ATOM     55  H   UNL A   1      41.888  28.529  31.534  1.00  0.00     0.167 HD
ATOM     56  C   UNL A   1      42.746  29.133  34.157  1.00  0.00     0.074 A 
ATOM     57  C   UNL A   1      42.813  29.740  35.472  1.00  0.00     0.031 C 
ATOM     58  C   UNL A   1      43.659  28.259  33.672  1.00  0.00     0.037 A 
BRANCH  45  59
ATOM     59  C   UNL A   1      42.600  26.514  27.861  1.00  0.00     0.064 A 
ATOM     60  C   UNL A   1      42.183  25.200  27.614  1.00  0.00     0.173 A 
ATOM     61  C   UNL A   1      43.463  27.123  26.940  1.00  0.00     0.173 A 
ATOM     62  F   UNL A   1      41.372  24.575  28.480  1.00  0.00    -0.203 F 
ATOM     63  C   UNL A   1      42.619  24.518  26.481  1.00  0.00     0.198 A 
ATOM     64  C   UNL A   1      43.895  26.439  25.808  1.00  0.00     0.198 A 
ATOM     65  F   UNL A   1      43.894  28.376  27.146  1.00  0.00    -0.203 F 
ATOM     66  F   UNL A   1      42.221  23.256  26.267  1.00  0.00    -0.200 F 
ATOM     67  C   UNL A   1      43.472  25.138  25.578  1.00  0.00     0.200 A 
ATOM     68  F   UNL A   1      44.727  27.035  24.944  1.00  0.00    -0.200 F 
ATOM     69  F   UNL A   1      43.895  24.477  24.491  1.00  0.00    -0.200 F 
ENDBRANCH  45  59
BRANCH  46  70
ATOM     70  C   UNL A   1      39.266  32.007  35.435  1.00  0.00     0.064 A 
ATOM     71  C   UNL A   1      38.483  31.507  36.481  1.00  0.00     0.173 A 
ATOM     72  C   UNL A   1      39.624  33.361  35.465  1.00  0.00     0.173 A 
ATOM     73  F   UNL A   1      38.105  30.220  36.479  1.00  0.00    -0.203 F 
ATOM     74  C   UNL A   1      38.074  32.331  37.526  1.00  0.00     0.198 A 
ATOM     75  C   UNL A   1      39.218  34.183  36.514  1.00  0.00     0.198 A 
ATOM     76  F   UNL A   1      40.368  33.880  34.478  1.00  0.00    -0.203 F 
ATOM     77  F   UNL A   1      37.319  31.832  38.513  1.00  0.00    -0.200 F 
ATOM     78  C   UNL A   1      38.444  33.668  37.543  1.00  0.00     0.200 A 
ATOM     79  F   UNL A   1      39.575  35.474  36.524  1.00  0.00    -0.200 F 
ATOM     80  F   UNL A   1      38.050  34.462  38.548  1.00  0.00    -0.200 F 
ENDBRANCH  46  70
BRANCH  58  81
ATOM     81  C   UNL A   1      44.779  27.879  34.581  1.00  0.00     0.064 A 
ATOM     82  C   UNL A   1      44.659  26.775  35.435  1.00  0.00     0.173 A 
ATOM     83  C   UNL A   1      45.985  28.593  34.580  1.00  0.00     0.173 A 
ATOM     84  F   UNL A   1      43.516  26.074  35.474  1.00  0.00    -0.203 F 
ATOM     85  C   UNL A   1      45.711  26.398  36.263  1.00  0.00     0.198 A 
ATOM     86  C   UNL A   1      47.035  28.211  35.410  1.00  0.00     0.198 A 
ATOM     87  F   UNL A   1      46.137  29.661  33.784  1.00  0.00    -0.203 F 
ATOM     88  F   UNL A   1      45.573  25.345  37.081  1.00  0.00    -0.200 F 
ATOM     89  C   UNL A   1      46.899  27.114  36.249  1.00  0.00     0.200 A 
ATOM     90  F   UNL A   1      48.179  28.910  35.403  1.00  0.00    -0.200 F 
ATOM     91  F   UNL A   1      47.909  26.753  37.051  1.00  0.00    -0.200 F 
ENDBRANCH  58  81
ENDBRANCH  32  33
ENDBRANCH  25  27
ENDBRANCH  24  25
ENDBRANCH  23  24
ENDBRANCH   1  23
TORSDOF 18
ENDMDL
MODEL 3
REMARK VINA RESULT:     -10.5      4.106      6.667
REMARK SMILES CC(=O)N[C@@H](C(=O)N(CC(=O)OCCOC(=O)c1ccc(-c2c3nc(c(-c4c(F)c(F)c(F)c(F)c4F)c4ccc([nH]4)c(-c4c(F)c(F)c(F)c(F)c4F)c4nc(c(-c5c(F)c(F)c(F)c(F)c5F)c5ccc2[nH]5)C=C4)C=C3)cc1)CC(F)(F)F)C(C)C
REMARK SMILES IDX 13 1 12 2 10 3 11 4 9 5 8 6 6 7 7 8 5 9 4 10 1 11 2 12 3 13
REMARK SMILES IDX 86 15 87 16 88 17 81 18 82 19 83 20 84 21 85 22 14 23 15 24
REMARK SMILES IDX 16 25 17 26 18 27 19 28 80 29 20 30 79 31 21 32 22 33 23 34
REMARK SMILES IDX 73 35 24 36 78 37 72 38 74 39 25 40 77 41 71 42 70 43 26 45
REMARK SMILES IDX 58 46 38 47 57 48 39 49 42 50 56 51 75 52 40 53 41 54 55 56
REMARK SMILES IDX 76 57 43 58 27 59 28 60 36 61 29 62 30 63 34 64 37 65 31 66
REMARK SMILES IDX 32 67 35 68 33 69 59 70 60 71 68 72 61 73 62 74 66 75 69 76
REMARK SMILES IDX 63 77 64 78 67 79 65 80 44 81 45 82 53 83 46 84 47 85 51 86
REMARK SMILES IDX 54 87 48 88 49 89 52 90 50 91
REMARK H PARENT 4 14 74 44 42 55
REMARK Flexibility Score: inf
ROOT
ATOM      1  C   UNL A   1      35.198  20.878  24.680  1.00  0.00     0.274 C 
ENDROOT
BRANCH   1   2
ATOM      2  O   UNL A   1      34.930  22.266  24.960  1.00  0.00    -0.461 OA
BRANCH   2   3
ATOM      3  C   UNL A   1      34.299  22.971  23.995  1.00  0.00     0.325 C 
ATOM      4  O   UNL A   1      34.746  23.190  22.873  1.00  0.00    -0.250 OA
BRANCH   3   5
ATOM      5  C   UNL A   1      32.895  23.417  24.399  1.00  0.00     0.242 C 
BRANCH   5   6
ATOM      6  N   UNL A   1      32.713  24.642  25.190  1.00  0.00    -0.321 N 
BRANCH   6   7
ATOM      7  C   UNL A   1      33.466  25.801  25.048  1.00  0.00     0.246 C 
ATOM      8  O   UNL A   1      34.445  25.989  25.773  1.00  0.00    -0.272 OA
BRANCH   7   9
ATOM      9  C   UNL A   1      33.088  26.827  23.937  1.00  0.00     0.174 C 
BRANCH   9  10
ATOM     10  N   UNL A   1      33.511  26.208  22.678  1.00  0.00    -0.344 N 
ATOM     11  C   UNL A   1      31.307  26.193  21.561  1.00  0.00     0.114 C 
ATOM     12  C   UNL A   1      32.777  25.879  21.580  1.00  0.00     0.217 C 
ATOM     13  O   UNL A   1      33.323  25.294  20.646  1.00  0.00    -0.275 OA
ATOM     14  H   UNL A   1      34.471  25.998  22.618  1.00  0.00     0.164 HD
ENDBRANCH   9  10
BRANCH   9  15
ATOM     15  C   UNL A   1      33.791  28.192  24.181  1.00  0.00     0.015 C 
ATOM     16  C   UNL A   1      34.135  28.941  22.890  1.00  0.00     0.010 C 
ATOM     17  C   UNL A   1      32.910  29.104  25.049  1.00  0.00     0.010 C 
ENDBRANCH   9  15
ENDBRANCH   7   9
ENDBRANCH   6   7
BRANCH   6  18
ATOM     18  C   UNL A   1      31.591  24.671  26.163  1.00  0.00     0.235 C 
BRANCH  18  19
ATOM     19  C   UNL A   1      30.364  25.549  25.846  1.00  0.00     0.406 C 
ATOM     20  F   UNL A   1      29.253  25.157  26.504  1.00  0.00    -0.169 F 
ATOM     21  F   UNL A   1      30.608  26.828  26.231  1.00  0.00    -0.169 F 
ATOM     22  F   UNL A   1      30.061  25.584  24.533  1.00  0.00    -0.169 F 
ENDBRANCH  18  19
ENDBRANCH   6  18
ENDBRANCH   5   6
ENDBRANCH   3   5
ENDBRANCH   2   3
ENDBRANCH   1   2
BRANCH   1  23
ATOM     23  C   UNL A   1      36.636  20.503  25.064  1.00  0.00     0.275 C 
BRANCH  23  24
ATOM     24  O   UNL A   1      37.392  21.636  25.541  1.00  0.00    -0.458 OA
BRANCH  24  25
ATOM     25  C   UNL A   1      38.663  21.370  25.912  1.00  0.00     0.338 C 
ATOM     26  O   UNL A   1      39.319  20.367  25.682  1.00  0.00    -0.246 OA
BRANCH  25  27
ATOM     27  C   UNL A   1      39.257  22.552  26.550  1.00  0.00     0.060 A 
ATOM     28  C   UNL A   1      38.806  23.809  26.139  1.00  0.00     0.016 A 
ATOM     29  C   UNL A   1      40.322  22.432  27.446  1.00  0.00     0.016 A 
ATOM     30  C   UNL A   1      39.431  24.957  26.611  1.00  0.00     0.010 A 
ATOM     31  C   UNL A   1      40.951  23.589  27.920  1.00  0.00     0.010 A 
ATOM     32  C   UNL A   1      40.516  24.855  27.492  1.00  0.00    -0.014 A 
BRANCH  32  33
ATOM     33  C   UNL A   1      41.203  26.095  27.912  1.00  0.00     0.031 A 
ATOM     34  C   UNL A   1      42.607  26.369  27.459  1.00  0.00     0.074 A 
ATOM     35  C   UNL A   1      40.523  27.028  28.603  1.00  0.00     0.049 A 
ATOM     36  N   UNL A   1      43.368  27.404  27.710  1.00  0.00    -0.248 NA
ATOM     37  C   UNL A   1      43.232  25.354  26.597  1.00  0.00     0.031 C 
ATOM     38  C   UNL A   1      39.133  26.908  29.038  1.00  0.00     0.029 A 
ATOM     39  N   UNL A   1      40.902  28.278  29.019  1.00  0.00    -0.354 N 
ATOM     40  C   UNL A   1      44.567  27.156  27.060  1.00  0.00     0.074 A 
ATOM     41  C   UNL A   1      44.429  25.884  26.381  1.00  0.00     0.031 C 
ATOM     42  C   UNL A   1      38.757  28.059  29.621  1.00  0.00     0.029 A 
ATOM     43  C   UNL A   1      39.890  28.982  29.618  1.00  0.00     0.049 A 
ATOM     44  H   UNL A   1      41.812  28.635  28.900  1.00  0.00     0.167 HD
ATOM     45  C   UNL A   1      45.688  27.915  27.045  1.00  0.00     0.037 A 
ATOM     46  C   UNL A   1      39.876  30.236  30.105  1.00  0.00     0.037 A 
ATOM     47  C   UNL A   1      45.830  29.179  27.710  1.00  0.00     0.049 A 
ATOM     48  C   UNL A   1      41.126  31.063  30.062  1.00  0.00     0.074 A 
ATOM     49  C   UNL A   1      46.958  29.970  27.846  1.00  0.00     0.029 A 
ATOM     50  N   UNL A   1      44.793  29.850  28.338  1.00  0.00    -0.354 N 
ATOM     51  N   UNL A   1      42.295  30.765  29.551  1.00  0.00    -0.248 NA
ATOM     52  C   UNL A   1      41.060  32.393  30.687  1.00  0.00     0.031 C 
ATOM     53  C   UNL A   1      46.599  31.129  28.547  1.00  0.00     0.029 A 
ATOM     54  C   UNL A   1      45.249  31.054  28.846  1.00  0.00     0.049 A 
ATOM     55  H   UNL A   1      43.867  29.520  28.412  1.00  0.00     0.167 HD
ATOM     56  C   UNL A   1      43.112  31.852  29.818  1.00  0.00     0.074 A 
ATOM     57  C   UNL A   1      42.299  32.833  30.508  1.00  0.00     0.031 C 
ATOM     58  C   UNL A   1      44.427  32.011  29.536  1.00  0.00     0.037 A 
BRANCH  45  59
ATOM     59  C   UNL A   1      46.866  27.367  26.307  1.00  0.00     0.064 A 
ATOM     60  C   UNL A   1      47.094  27.693  24.964  1.00  0.00     0.173 A 
ATOM     61  C   UNL A   1      47.781  26.525  26.953  1.00  0.00     0.173 A 
ATOM     62  F   UNL A   1      46.233  28.481  24.304  1.00  0.00    -0.203 F 
ATOM     63  C   UNL A   1      48.205  27.190  24.290  1.00  0.00     0.198 A 
ATOM     64  C   UNL A   1      48.890  26.025  26.276  1.00  0.00     0.198 A 
ATOM     65  F   UNL A   1      47.592  26.180  28.235  1.00  0.00    -0.203 F 
ATOM     66  F   UNL A   1      48.401  27.500  23.001  1.00  0.00    -0.200 F 
ATOM     67  C   UNL A   1      49.101  26.358  24.947  1.00  0.00     0.200 A 
ATOM     68  F   UNL A   1      49.748  25.215  26.909  1.00  0.00    -0.200 F 
ATOM     69  F   UNL A   1      50.166  25.870  24.294  1.00  0.00    -0.200 F 
ENDBRANCH  45  59
BRANCH  46  70
ATOM     70  C   UNL A   1      38.628  30.780  30.681  1.00  0.00     0.064 A 
ATOM     71  C   UNL A   1      38.394  30.728  32.060  1.00  0.00     0.173 A 
ATOM     72  C   UNL A   1      37.657  31.378  29.868  1.00  0.00     0.173 A 
ATOM     73  F   UNL A   1      39.291  30.147  32.870  1.00  0.00    -0.203 F 
ATOM     74  C   UNL A   1      37.229  31.259  32.608  1.00  0.00     0.198 A 
ATOM     75  C   UNL A   1      36.495  31.913  30.418  1.00  0.00     0.198 A 
ATOM     76  F   UNL A   1      37.841  31.442  28.541  1.00  0.00    -0.203 F 
ATOM     77  F   UNL A   1      37.023  31.190  33.930  1.00  0.00    -0.200 F 
ATOM     78  C   UNL A   1      36.282  31.853  31.788  1.00  0.00     0.200 A 
ATOM     79  F   UNL A   1      35.581  32.483  29.622  1.00  0.00    -0.200 F 
ATOM     80  F   UNL A   1      35.161  32.364  32.316  1.00  0.00    -0.200 F 
ENDBRANCH  46  70
BRANCH  58  81
ATOM     81  C   UNL A   1      45.070  33.271  30.008  1.00  0.00     0.064 A 
ATOM     82  C   UNL A   1      45.084  34.411  29.193  1.00  0.00     0.173 A 
ATOM     83  C   UNL A   1      45.645  33.356  31.283  1.00  0.00     0.173 A 
ATOM     84  F   UNL A   1      44.554  34.366  27.962  1.00  0.00    -0.203 F 
ATOM     85  C   UNL A   1      45.655  35.598  29.640  1.00  0.00     0.198 A 
ATOM     86  C   UNL A   1      46.215  34.546  31.726  1.00  0.00     0.198 A 
ATOM     87  F   UNL A   1      45.661  32.285  32.089  1.00  0.00    -0.203 F 
ATOM     88  F   UNL A   1      45.668  36.675  28.843  1.00  0.00    -0.200 F 
ATOM     89  C   UNL A   1      46.219  35.665  30.906  1.00  0.00     0.200 A 
ATOM     90  F   UNL A   1      46.768  34.608  32.945  1.00  0.00    -0.200 F 
ATOM     91  F   UNL A   1      46.774  36.808  31.333  1.00  0.00    -0.200 F 
ENDBRANCH  58  81
ENDBRANCH  32  33
ENDBRANCH  25  27
ENDBRANCH  24  25
ENDBRANCH  23  24
ENDBRANCH   1  23
TORSDOF 18
ENDMDL
