MODEL 1
REMARK VINA RESULT:     -11.6      0.000      0.000
REMARK SMILES CS(=O)(=O)CCCNC(=O)N[C@H]1C=C[C@@H](C(=O)OCCOC(=O)c2ccc(-c3c4nc(c(-c5c(F)c(F)c(F)c(F)c5F)c5ccc([nH]5)c(-c5c(F)c(F)c(F)c(F)c5F)c5nc(c(-c6c(F)c(F)c(F)c(F)c6F)c6ccc3[nH]6)C=C5)C=C4)cc2)C1
REMARK SMILES IDX 18 1 16 2 17 3 15 4 12 5 13 6 87 7 14 8 11 9 8 10 9 11 10 13
REMARK SMILES IDX 7 15 6 16 5 17 2 18 1 19 3 20 4 21 19 22 20 23 21 24 22 25
REMARK SMILES IDX 23 26 24 27 25 28 86 29 26 30 85 31 27 32 28 33 29 34 79 35
REMARK SMILES IDX 30 36 84 37 78 38 80 39 31 40 83 41 77 42 76 43 32 45 64 46
REMARK SMILES IDX 44 47 63 48 45 49 48 50 62 51 81 52 46 53 47 54 61 56 82 57
REMARK SMILES IDX 49 58 33 59 34 60 42 61 35 62 36 63 40 64 43 65 37 66 38 67
REMARK SMILES IDX 41 68 39 69 65 70 66 71 74 72 67 73 68 74 72 75 75 76 69 77
REMARK SMILES IDX 70 78 73 79 71 80 50 81 51 82 59 83 52 84 53 85 57 86 60 87
REMARK SMILES IDX 54 88 55 89 58 90 56 91
REMARK H PARENT 8 12 11 14 80 44 48 55
REMARK Flexibility Score: inf
ROOT
ATOM      1  O   UNL A   1      35.274  21.700  25.099  1.00  0.00    -0.462 OA
ENDROOT
BRANCH   1   2
ATOM      2  C   UNL A   1      34.074  21.837  25.714  1.00  0.00     0.312 C 
ATOM      3  O   UNL A   1      33.803  21.394  26.827  1.00  0.00    -0.252 OA
BRANCH   2   4
ATOM      4  C   UNL A   1      33.059  22.608  24.893  1.00  0.00     0.124 C 
ATOM      5  C   UNL A   1      32.462  23.861  22.935  1.00  0.00     0.107 C 
ATOM      6  C   UNL A   1      32.039  22.432  22.806  1.00  0.00    -0.006 C 
ATOM      7  C   UNL A   1      33.555  23.756  24.006  1.00  0.00     0.048 C 
ATOM      8  C   UNL A   1      32.354  21.732  23.902  1.00  0.00    -0.014 C 
BRANCH   5   9
ATOM      9  N   UNL A   1      32.914  24.351  21.664  1.00  0.00    -0.332 N 
ATOM     10  N   UNL A   1      31.719  26.372  21.370  1.00  0.00    -0.338 N 
ATOM     11  C   UNL A   1      32.571  25.425  20.940  1.00  0.00     0.315 C 
ATOM     12  H   UNL A   1      31.475  27.028  20.677  1.00  0.00     0.165 HD
ATOM     13  O   UNL A   1      33.052  25.555  19.814  1.00  0.00    -0.249 OA
ATOM     14  H   UNL A   1      33.606  23.791  21.244  1.00  0.00     0.165 HD
BRANCH  10  15
ATOM     15  C   UNL A   1      31.086  26.618  22.652  1.00  0.00     0.119 C 
BRANCH  15  16
ATOM     16  C   UNL A   1      30.577  28.047  22.802  1.00  0.00     0.037 C 
BRANCH  16  17
ATOM     17  C   UNL A   1      29.131  28.190  23.260  1.00  0.00     0.138 C 
BRANCH  17  18
ATOM     18  S   UNL A   1      28.276  29.642  22.670  1.00  0.00     0.147 S 
ATOM     19  C   UNL A   1      29.030  31.005  23.527  1.00  0.00     0.158 C 
ATOM     20  O   UNL A   1      26.911  29.549  23.156  1.00  0.00    -0.229 OA
ATOM     21  O   UNL A   1      28.543  29.802  21.255  1.00  0.00    -0.229 OA
ENDBRANCH  17  18
ENDBRANCH  16  17
ENDBRANCH  15  16
ENDBRANCH  10  15
ENDBRANCH   5   9
ENDBRANCH   2   4
ENDBRANCH   1   2
BRANCH   1  22
ATOM     22  C   UNL A   1      35.781  20.356  25.001  1.00  0.00     0.274 C 
BRANCH  22  23
ATOM     23  C   UNL A   1      37.305  20.355  24.845  1.00  0.00     0.275 C 
BRANCH  23  24
ATOM     24  O   UNL A   1      37.926  21.467  25.521  1.00  0.00    -0.458 OA
BRANCH  24  25
ATOM     25  C   UNL A   1      39.070  21.176  26.182  1.00  0.00     0.338 C 
ATOM     26  O   UNL A   1      39.610  20.087  26.280  1.00  0.00    -0.246 OA
BRANCH  25  27
ATOM     27  C   UNL A   1      39.699  22.408  26.682  1.00  0.00     0.060 A 
ATOM     28  C   UNL A   1      39.229  23.627  26.186  1.00  0.00     0.016 A 
ATOM     29  C   UNL A   1      40.792  22.375  27.549  1.00  0.00     0.016 A 
ATOM     30  C   UNL A   1      39.845  24.820  26.548  1.00  0.00     0.010 A 
ATOM     31  C   UNL A   1      41.412  23.576  27.916  1.00  0.00     0.010 A 
ATOM     32  C   UNL A   1      40.947  24.805  27.410  1.00  0.00    -0.014 A 
BRANCH  32  33
ATOM     33  C   UNL A   1      41.629  26.078  27.749  1.00  0.00     0.031 A 
ATOM     34  C   UNL A   1      40.900  27.137  28.522  1.00  0.00     0.074 A 
ATOM     35  C   UNL A   1      42.907  26.270  27.375  1.00  0.00     0.049 A 
ATOM     36  N   UNL A   1      41.281  28.352  28.824  1.00  0.00    -0.248 NA
ATOM     37  C   UNL A   1      39.562  26.783  29.022  1.00  0.00     0.031 C 
ATOM     38  C   UNL A   1      43.732  25.296  26.660  1.00  0.00     0.029 A 
ATOM     39  N   UNL A   1      43.733  27.353  27.538  1.00  0.00    -0.354 N 
ATOM     40  C   UNL A   1      40.220  28.920  29.516  1.00  0.00     0.074 A 
ATOM     41  C   UNL A   1      39.178  27.918  29.591  1.00  0.00     0.031 C 
ATOM     42  C   UNL A   1      44.945  25.829  26.437  1.00  0.00     0.029 A 
ATOM     43  C   UNL A   1      44.963  27.196  26.948  1.00  0.00     0.049 A 
ATOM     44  H   UNL A   1      43.471  28.164  28.030  1.00  0.00     0.167 HD
ATOM     45  C   UNL A   1      40.127  30.167  30.034  1.00  0.00     0.037 A 
ATOM     46  C   UNL A   1      45.977  28.071  26.802  1.00  0.00     0.037 A 
ATOM     47  C   UNL A   1      41.183  31.146  29.989  1.00  0.00     0.049 A 
ATOM     48  C   UNL A   1      45.834  29.460  27.363  1.00  0.00     0.074 A 
ATOM     49  C   UNL A   1      41.200  32.422  30.526  1.00  0.00     0.029 A 
ATOM     50  N   UNL A   1      42.410  30.955  29.372  1.00  0.00    -0.354 N 
ATOM     51  N   UNL A   1      44.829  29.989  28.017  1.00  0.00    -0.248 NA
ATOM     52  C   UNL A   1      46.964  30.378  27.157  1.00  0.00     0.031 C 
ATOM     53  C   UNL A   1      42.421  33.018  30.198  1.00  0.00     0.029 A 
ATOM     54  C   UNL A   1      43.182  32.099  29.493  1.00  0.00     0.049 A 
ATOM     55  H   UNL A   1      42.691  30.130  28.916  1.00  0.00     0.167 HD
ATOM     56  C   UNL A   1      45.209  31.289  28.315  1.00  0.00     0.074 A 
ATOM     57  C   UNL A   1      46.545  31.467  27.786  1.00  0.00     0.031 C 
ATOM     58  C   UNL A   1      44.512  32.253  28.964  1.00  0.00     0.037 A 
BRANCH  45  59
ATOM     59  C   UNL A   1      38.830  30.567  30.668  1.00  0.00     0.064 A 
ATOM     60  C   UNL A   1      38.635  30.518  32.055  1.00  0.00     0.173 A 
ATOM     61  C   UNL A   1      37.784  31.063  29.873  1.00  0.00     0.173 A 
ATOM     62  F   UNL A   1      39.600  30.040  32.856  1.00  0.00    -0.203 F 
ATOM     63  C   UNL A   1      37.435  30.939  32.623  1.00  0.00     0.198 A 
ATOM     64  C   UNL A   1      36.596  31.504  30.446  1.00  0.00     0.198 A 
ATOM     65  F   UNL A   1      37.923  31.132  28.541  1.00  0.00    -0.203 F 
ATOM     66  F   UNL A   1      37.257  30.857  33.949  1.00  0.00    -0.200 F 
ATOM     67  C   UNL A   1      36.421  31.439  31.820  1.00  0.00     0.200 A 
ATOM     68  F   UNL A   1      35.620  31.995  29.669  1.00  0.00    -0.200 F 
ATOM     69  F   UNL A   1      35.270  31.854  32.369  1.00  0.00    -0.200 F 
ENDBRANCH  45  59
BRANCH  46  70
ATOM     70  C   UNL A   1      47.198  27.674  26.054  1.00  0.00     0.064 A 
ATOM     71  C   UNL A   1      47.241  27.726  24.655  1.00  0.00     0.173 A 
ATOM     72  C   UNL A   1      48.342  27.219  26.727  1.00  0.00     0.173 A 
ATOM     73  F   UNL A   1      46.163  28.128  23.966  1.00  0.00    -0.203 F 
ATOM     74  C   UNL A   1      48.377  27.321  23.956  1.00  0.00     0.198 A 
ATOM     75  C   UNL A   1      49.486  26.842  26.029  1.00  0.00     0.198 A 
ATOM     76  F   UNL A   1      48.350  27.147  28.066  1.00  0.00    -0.203 F 
ATOM     77  F   UNL A   1      48.376  27.333  22.616  1.00  0.00    -0.200 F 
ATOM     78  C   UNL A   1      49.500  26.885  24.643  1.00  0.00     0.200 A 
ATOM     79  F   UNL A   1      50.573  26.433  26.697  1.00  0.00    -0.200 F 
ATOM     80  F   UNL A   1      50.592  26.497  23.970  1.00  0.00    -0.200 F 
ENDBRANCH  46  70
BRANCH  58  81
ATOM     81  C   UNL A   1      45.193  33.576  29.159  1.00  0.00     0.064 A 
ATOM     82  C   UNL A   1      46.016  33.819  30.268  1.00  0.00     0.173 A 
ATOM     83  C   UNL A   1      45.050  34.596  28.207  1.00  0.00     0.173 A 
ATOM     84  F   UNL A   1      46.171  32.880  31.213  1.00  0.00    -0.203 F 
ATOM     85  C   UNL A   1      46.655  35.046  30.427  1.00  0.00     0.198 A 
ATOM     86  C   UNL A   1      45.711  35.811  28.356  1.00  0.00     0.198 A 
ATOM     87  F   UNL A   1      44.277  34.409  27.126  1.00  0.00    -0.203 F 
ATOM     88  F   UNL A   1      47.404  35.273  31.515  1.00  0.00    -0.200 F 
ATOM     89  C   UNL A   1      46.508  36.038  29.468  1.00  0.00     0.200 A 
ATOM     90  F   UNL A   1      45.577  36.765  27.423  1.00  0.00    -0.200 F 
ATOM     91  F   UNL A   1      47.130  37.215  29.620  1.00  0.00    -0.200 F 
ENDBRANCH  58  81
ENDBRANCH  32  33
ENDBRANCH  25  27
ENDBRANCH  24  25
ENDBRANCH  23  24
ENDBRANCH  22  23
ENDBRANCH   1  22
TORSDOF 16
ENDMDL
MODEL 2
REMARK VINA RESULT:     -11.6      5.125     10.280
REMARK SMILES CS(=O)(=O)CCCNC(=O)N[C@H]1C=C[C@@H](C(=O)OCCOC(=O)c2ccc(-c3c4nc(c(-c5c(F)c(F)c(F)c(F)c5F)c5ccc([nH]5)c(-c5c(F)c(F)c(F)c(F)c5F)c5nc(c(-c6c(F)c(F)c(F)c(F)c6F)c6ccc3[nH]6)C=C5)C=C4)cc2)C1
REMARK SMILES IDX 18 1 16 2 17 3 15 4 12 5 13 6 87 7 14 8 11 9 8 10 9 11 10 13
REMARK SMILES IDX 7 15 6 16 5 17 2 18 1 19 3 20 4 21 19 22 20 23 21 24 22 25
REMARK SMILES IDX 23 26 24 27 25 28 86 29 26 30 85 31 27 32 28 33 29 34 79 35
REMARK SMILES IDX 30 36 84 37 78 38 80 39 31 40 83 41 77 42 76 43 32 45 64 46
REMARK SMILES IDX 44 47 63 48 45 49 48 50 62 51 81 52 46 53 47 54 61 56 82 57
REMARK SMILES IDX 49 58 33 59 34 60 42 61 35 62 36 63 40 64 43 65 37 66 38 67
REMARK SMILES IDX 41 68 39 69 65 70 66 71 74 72 67 73 68 74 72 75 75 76 69 77
REMARK SMILES IDX 70 78 73 79 71 80 50 81 51 82 59 83 52 84 53 85 57 86 60 87
REMARK SMILES IDX 54 88 55 89 58 90 56 91
REMARK H PARENT 8 12 11 14 80 44 48 55
REMARK Flexibility Score: inf
ROOT
ATOM      1  O   UNL A   1      33.750  31.366  27.651  1.00  0.00    -0.462 OA
ENDROOT
BRANCH   1   2
ATOM      2  C   UNL A   1      33.843  30.058  27.307  1.00  0.00     0.312 C 
ATOM      3  O   UNL A   1      34.834  29.356  27.486  1.00  0.00    -0.252 OA
BRANCH   2   4
ATOM      4  C   UNL A   1      32.583  29.511  26.666  1.00  0.00     0.124 C 
ATOM      5  C   UNL A   1      31.487  28.074  25.087  1.00  0.00     0.107 C 
ATOM      6  C   UNL A   1      31.513  27.453  26.449  1.00  0.00    -0.006 C 
ATOM      7  C   UNL A   1      32.637  29.083  25.195  1.00  0.00     0.048 C 
ATOM      8  C   UNL A   1      32.108  28.257  27.336  1.00  0.00    -0.014 C 
BRANCH   5   9
ATOM      9  N   UNL A   1      31.671  27.060  24.088  1.00  0.00    -0.332 N 
ATOM     10  N   UNL A   1      30.657  27.970  22.153  1.00  0.00    -0.338 N 
ATOM     11  C   UNL A   1      31.279  26.976  22.809  1.00  0.00     0.315 C 
ATOM     12  H   UNL A   1      30.325  27.710  21.263  1.00  0.00     0.165 HD
ATOM     13  O   UNL A   1      31.489  25.928  22.196  1.00  0.00    -0.249 OA
ATOM     14  H   UNL A   1      32.181  26.279  24.401  1.00  0.00     0.165 HD
BRANCH  10  15
ATOM     15  C   UNL A   1      30.377  29.352  22.497  1.00  0.00     0.119 C 
BRANCH  15  16
ATOM     16  C   UNL A   1      29.012  29.823  22.009  1.00  0.00     0.037 C 
BRANCH  16  17
ATOM     17  C   UNL A   1      28.987  31.185  21.328  1.00  0.00     0.138 C 
BRANCH  17  18
ATOM     18  S   UNL A   1      28.105  32.468  22.203  1.00  0.00     0.147 S 
ATOM     19  C   UNL A   1      29.340  33.307  23.166  1.00  0.00     0.158 C 
ATOM     20  O   UNL A   1      27.224  31.801  23.144  1.00  0.00    -0.229 OA
ATOM     21  O   UNL A   1      27.572  33.412  21.241  1.00  0.00    -0.229 OA
ENDBRANCH  17  18
ENDBRANCH  16  17
ENDBRANCH  15  16
ENDBRANCH  10  15
ENDBRANCH   5   9
ENDBRANCH   2   4
ENDBRANCH   1   2
BRANCH   1  22
ATOM     22  C   UNL A   1      32.484  31.998  27.387  1.00  0.00     0.274 C 
BRANCH  22  23
ATOM     23  C   UNL A   1      32.655  33.508  27.195  1.00  0.00     0.275 C 
BRANCH  23  24
ATOM     24  O   UNL A   1      32.245  34.258  28.357  1.00  0.00    -0.458 OA
BRANCH  24  25
ATOM     25  C   UNL A   1      33.154  35.145  28.822  1.00  0.00     0.338 C 
ATOM     26  O   UNL A   1      33.019  36.352  28.937  1.00  0.00    -0.246 OA
BRANCH  25  27
ATOM     27  C   UNL A   1      34.342  34.440  29.331  1.00  0.00     0.060 A 
ATOM     28  C   UNL A   1      34.172  33.585  30.423  1.00  0.00     0.016 A 
ATOM     29  C   UNL A   1      35.615  34.680  28.815  1.00  0.00     0.016 A 
ATOM     30  C   UNL A   1      35.270  32.963  31.008  1.00  0.00     0.010 A 
ATOM     31  C   UNL A   1      36.721  34.053  29.403  1.00  0.00     0.010 A 
ATOM     32  C   UNL A   1      36.555  33.198  30.508  1.00  0.00    -0.014 A 
BRANCH  32  33
ATOM     33  C   UNL A   1      37.725  32.572  31.172  1.00  0.00     0.031 A 
ATOM     34  C   UNL A   1      38.460  31.452  30.496  1.00  0.00     0.074 A 
ATOM     35  C   UNL A   1      38.132  33.024  32.372  1.00  0.00     0.049 A 
ATOM     36  N   UNL A   1      39.435  30.707  30.953  1.00  0.00    -0.248 NA
ATOM     37  C   UNL A   1      38.044  31.125  29.123  1.00  0.00     0.031 C 
ATOM     38  C   UNL A   1      37.524  34.134  33.106  1.00  0.00     0.029 A 
ATOM     39  N   UNL A   1      39.148  32.598  33.190  1.00  0.00    -0.354 N 
ATOM     40  C   UNL A   1      39.723  29.802  29.941  1.00  0.00     0.074 A 
ATOM     41  C   UNL A   1      38.823  30.089  28.844  1.00  0.00     0.031 C 
ATOM     42  C   UNL A   1      38.174  34.298  34.270  1.00  0.00     0.029 A 
ATOM     43  C   UNL A   1      39.207  33.273  34.385  1.00  0.00     0.049 A 
ATOM     44  H   UNL A   1      39.774  31.880  32.945  1.00  0.00     0.167 HD
ATOM     45  C   UNL A   1      40.654  28.818  29.935  1.00  0.00     0.037 A 
ATOM     46  C   UNL A   1      39.982  33.062  35.466  1.00  0.00     0.037 A 
ATOM     47  C   UNL A   1      41.572  28.562  31.014  1.00  0.00     0.049 A 
ATOM     48  C   UNL A   1      40.986  31.942  35.443  1.00  0.00     0.074 A 
ATOM     49  C   UNL A   1      42.581  27.617  31.084  1.00  0.00     0.029 A 
ATOM     50  N   UNL A   1      41.594  29.258  32.214  1.00  0.00    -0.354 N 
ATOM     51  N   UNL A   1      41.255  31.092  34.482  1.00  0.00    -0.248 NA
ATOM     52  C   UNL A   1      41.791  31.747  36.658  1.00  0.00     0.031 C 
ATOM     53  C   UNL A   1      43.185  27.713  32.341  1.00  0.00     0.029 A 
ATOM     54  C   UNL A   1      42.582  28.746  33.039  1.00  0.00     0.049 A 
ATOM     55  H   UNL A   1      40.996  30.005  32.445  1.00  0.00     0.167 HD
ATOM     56  C   UNL A   1      42.266  30.275  34.967  1.00  0.00     0.074 A 
ATOM     57  C   UNL A   1      42.577  30.741  36.302  1.00  0.00     0.031 C 
ATOM     58  C   UNL A   1      42.879  29.228  34.363  1.00  0.00     0.037 A 
BRANCH  45  59
ATOM     59  C   UNL A   1      40.710  27.915  28.741  1.00  0.00     0.064 A 
ATOM     60  C   UNL A   1      39.934  26.751  28.654  1.00  0.00     0.173 A 
ATOM     61  C   UNL A   1      41.511  28.256  27.640  1.00  0.00     0.173 A 
ATOM     62  F   UNL A   1      39.162  26.375  29.685  1.00  0.00    -0.203 F 
ATOM     63  C   UNL A   1      39.970  25.953  27.513  1.00  0.00     0.198 A 
ATOM     64  C   UNL A   1      41.526  27.469  26.493  1.00  0.00     0.198 A 
ATOM     65  F   UNL A   1      42.269  29.362  27.674  1.00  0.00    -0.203 F 
ATOM     66  F   UNL A   1      39.244  24.827  27.461  1.00  0.00    -0.200 F 
ATOM     67  C   UNL A   1      40.758  26.316  26.431  1.00  0.00     0.200 A 
ATOM     68  F   UNL A   1      42.282  27.827  25.445  1.00  0.00    -0.200 F 
ATOM     69  F   UNL A   1      40.782  25.553  25.330  1.00  0.00    -0.200 F 
ENDBRANCH  45  59
BRANCH  46  70
ATOM     70  C   UNL A   1      39.805  33.901  36.680  1.00  0.00     0.064 A 
ATOM     71  C   UNL A   1      38.932  33.518  37.707  1.00  0.00     0.173 A 
ATOM     72  C   UNL A   1      40.497  35.113  36.828  1.00  0.00     0.173 A 
ATOM     73  F   UNL A   1      38.229  32.381  37.598  1.00  0.00    -0.203 F 
ATOM     74  C   UNL A   1      38.745  34.324  38.828  1.00  0.00     0.198 A 
ATOM     75  C   UNL A   1      40.331  35.903  37.963  1.00  0.00     0.198 A 
ATOM     76  F   UNL A   1      41.341  35.526  35.872  1.00  0.00    -0.203 F 
ATOM     77  F   UNL A   1      37.868  33.959  39.774  1.00  0.00    -0.200 F 
ATOM     78  C   UNL A   1      39.448  35.512  38.958  1.00  0.00     0.200 A 
ATOM     79  F   UNL A   1      41.020  37.045  38.088  1.00  0.00    -0.200 F 
ATOM     80  F   UNL A   1      39.268  36.286  40.037  1.00  0.00    -0.200 F 
ENDBRANCH  46  70
BRANCH  58  81
ATOM     81  C   UNL A   1      43.963  28.534  35.132  1.00  0.00     0.064 A 
ATOM     82  C   UNL A   1      45.298  28.956  35.060  1.00  0.00     0.173 A 
ATOM     83  C   UNL A   1      43.656  27.459  35.980  1.00  0.00     0.173 A 
ATOM     84  F   UNL A   1      45.643  29.969  34.251  1.00  0.00    -0.203 F 
ATOM     85  C   UNL A   1      46.292  28.313  35.793  1.00  0.00     0.198 A 
ATOM     86  C   UNL A   1      44.648  26.835  36.732  1.00  0.00     0.198 A 
ATOM     87  F   UNL A   1      42.393  27.022  36.088  1.00  0.00    -0.203 F 
ATOM     88  F   UNL A   1      47.568  28.705  35.677  1.00  0.00    -0.200 F 
ATOM     89  C   UNL A   1      45.965  27.258  36.633  1.00  0.00     0.200 A 
ATOM     90  F   UNL A   1      44.329  25.823  37.551  1.00  0.00    -0.200 F 
ATOM     91  F   UNL A   1      46.922  26.645  37.343  1.00  0.00    -0.200 F 
ENDBRANCH  58  81
ENDBRANCH  32  33
ENDBRANCH  25  27
ENDBRANCH  24  25
ENDBRANCH  23  24
ENDBRANCH  22  23
ENDBRANCH   1  22
TORSDOF 16
ENDMDL
MODEL 3
REMARK VINA RESULT:     -11.5      4.652     10.006
REMARK SMILES CS(=O)(=O)CCCNC(=O)N[C@H]1C=C[C@@H](C(=O)OCCOC(=O)c2ccc(-c3c4nc(c(-c5c(F)c(F)c(F)c(F)c5F)c5ccc([nH]5)c(-c5c(F)c(F)c(F)c(F)c5F)c5nc(c(-c6c(F)c(F)c(F)c(F)c6F)c6ccc3[nH]6)C=C5)C=C4)cc2)C1
REMARK SMILES IDX 18 1 16 2 17 3 15 4 12 5 13 6 87 7 14 8 11 9 8 10 9 11 10 13
REMARK SMILES IDX 7 15 6 16 5 17 2 18 1 19 3 20 4 21 19 22 20 23 21 24 22 25
REMARK SMILES IDX 23 26 24 27 25 28 86 29 26 30 85 31 27 32 28 33 29 34 79 35
REMARK SMILES IDX 30 36 84 37 78 38 80 39 31 40 83 41 77 42 76 43 32 45 64 46
REMARK SMILES IDX 44 47 63 48 45 49 48 50 62 51 81 52 46 53 47 54 61 56 82 57
REMARK SMILES IDX 49 58 33 59 34 60 42 61 35 62 36 63 40 64 43 65 37 66 38 67
REMARK SMILES IDX 41 68 39 69 65 70 66 71 74 72 67 73 68 74 72 75 75 76 69 77
REMARK SMILES IDX 70 78 73 79 71 80 50 81 51 82 59 83 52 84 53 85 57 86 60 87
REMARK SMILES IDX 54 88 55 89 58 90 56 91
REMARK H PARENT 8 12 11 14 80 44 48 55
REMARK Flexibility Score: inf
ROOT
ATOM      1  O   UNL A   1      30.731  27.908  25.439  1.00  0.00    -0.462 OA
ENDROOT
BRANCH   1   2
ATOM      2  C   UNL A   1      31.380  27.410  26.519  1.00  0.00     0.312 C 
ATOM      3  O   UNL A   1      31.288  27.858  27.659  1.00  0.00    -0.252 OA
BRANCH   2   4
ATOM      4  C   UNL A   1      32.257  26.215  26.199  1.00  0.00     0.124 C 
ATOM      5  C   UNL A   1      33.285  24.732  24.618  1.00  0.00     0.107 C 
ATOM      6  C   UNL A   1      34.244  25.792  25.059  1.00  0.00    -0.006 C 
ATOM      7  C   UNL A   1      31.938  25.387  24.949  1.00  0.00     0.048 C 
ATOM      8  C   UNL A   1      33.682  26.612  25.954  1.00  0.00    -0.014 C 
BRANCH   5   9
ATOM      9  N   UNL A   1      33.485  24.445  23.226  1.00  0.00    -0.332 N 
ATOM     10  N   UNL A   1      32.777  22.199  22.994  1.00  0.00    -0.338 N 
ATOM     11  C   UNL A   1      33.310  23.331  22.502  1.00  0.00     0.315 C 
ATOM     12  H   UNL A   1      32.829  21.436  22.374  1.00  0.00     0.165 HD
ATOM     13  O   UNL A   1      33.662  23.333  21.322  1.00  0.00    -0.249 OA
ATOM     14  H   UNL A   1      33.814  25.212  22.704  1.00  0.00     0.165 HD
BRANCH  10  15
ATOM     15  C   UNL A   1      32.141  21.880  24.258  1.00  0.00     0.119 C 
BRANCH  15  16
ATOM     16  C   UNL A   1      32.291  20.413  24.648  1.00  0.00     0.037 C 
BRANCH  16  17
ATOM     17  C   UNL A   1      32.532  19.445  23.496  1.00  0.00     0.138 C 
BRANCH  17  18
ATOM     18  S   UNL A   1      32.978  17.782  23.969  1.00  0.00     0.147 S 
ATOM     19  C   UNL A   1      34.679  17.883  24.474  1.00  0.00     0.158 C 
ATOM     20  O   UNL A   1      32.950  16.982  22.758  1.00  0.00    -0.229 OA
ATOM     21  O   UNL A   1      32.192  17.394  25.123  1.00  0.00    -0.229 OA
ENDBRANCH  17  18
ENDBRANCH  16  17
ENDBRANCH  15  16
ENDBRANCH  10  15
ENDBRANCH   5   9
ENDBRANCH   2   4
ENDBRANCH   1   2
BRANCH   1  22
ATOM     22  C   UNL A   1      31.417  28.947  24.715  1.00  0.00     0.274 C 
BRANCH  22  23
ATOM     23  C   UNL A   1      31.659  30.169  25.605  1.00  0.00     0.275 C 
BRANCH  23  24
ATOM     24  O   UNL A   1      33.046  30.313  25.973  1.00  0.00    -0.458 OA
BRANCH  24  25
ATOM     25  C   UNL A   1      33.303  31.270  26.895  1.00  0.00     0.338 C 
ATOM     26  O   UNL A   1      32.564  32.174  27.247  1.00  0.00    -0.246 OA
BRANCH  25  27
ATOM     27  C   UNL A   1      34.587  31.005  27.562  1.00  0.00     0.060 A 
ATOM     28  C   UNL A   1      34.853  29.694  27.967  1.00  0.00     0.016 A 
ATOM     29  C   UNL A   1      35.479  32.033  27.873  1.00  0.00     0.016 A 
ATOM     30  C   UNL A   1      36.006  29.398  28.685  1.00  0.00     0.010 A 
ATOM     31  C   UNL A   1      36.642  31.735  28.594  1.00  0.00     0.010 A 
ATOM     32  C   UNL A   1      36.908  30.417  29.011  1.00  0.00    -0.014 A 
BRANCH  32  33
ATOM     33  C   UNL A   1      38.108  30.100  29.822  1.00  0.00     0.031 A 
ATOM     34  C   UNL A   1      39.165  29.187  29.273  1.00  0.00     0.074 A 
ATOM     35  C   UNL A   1      38.253  30.648  31.042  1.00  0.00     0.049 A 
ATOM     36  N   UNL A   1      40.230  28.706  29.861  1.00  0.00    -0.248 NA
ATOM     37  C   UNL A   1      39.001  28.757  27.875  1.00  0.00     0.031 C 
ATOM     38  C   UNL A   1      37.316  31.584  31.664  1.00  0.00     0.029 A 
ATOM     39  N   UNL A   1      39.241  30.490  31.983  1.00  0.00    -0.354 N 
ATOM     40  C   UNL A   1      40.843  27.889  28.921  1.00  0.00     0.074 A 
ATOM     41  C   UNL A   1      40.033  27.939  27.722  1.00  0.00     0.031 C 
ATOM     42  C   UNL A   1      37.768  31.911  32.885  1.00  0.00     0.029 A 
ATOM     43  C   UNL A   1      38.996  31.168  33.152  1.00  0.00     0.049 A 
ATOM     44  H   UNL A   1      40.045  29.943  31.834  1.00  0.00     0.167 HD
ATOM     45  C   UNL A   1      41.978  27.160  29.054  1.00  0.00     0.037 A 
ATOM     46  C   UNL A   1      39.669  31.162  34.318  1.00  0.00     0.037 A 
ATOM     47  C   UNL A   1      42.799  27.145  30.236  1.00  0.00     0.049 A 
ATOM     48  C   UNL A   1      40.909  30.320  34.446  1.00  0.00     0.074 A 
ATOM     49  C   UNL A   1      43.991  26.475  30.451  1.00  0.00     0.029 A 
ATOM     50  N   UNL A   1      42.514  27.837  31.405  1.00  0.00    -0.354 N 
ATOM     51  N   UNL A   1      41.484  29.553  33.553  1.00  0.00    -0.248 NA
ATOM     52  C   UNL A   1      41.591  30.337  35.749  1.00  0.00     0.031 C 
ATOM     53  C   UNL A   1      44.404  26.725  31.763  1.00  0.00     0.029 A 
ATOM     54  C   UNL A   1      43.494  27.587  32.352  1.00  0.00     0.049 A 
ATOM     55  H   UNL A   1      41.731  28.418  31.541  1.00  0.00     0.167 HD
ATOM     56  C   UNL A   1      42.598  29.010  34.176  1.00  0.00     0.074 A 
ATOM     57  C   UNL A   1      42.632  29.549  35.519  1.00  0.00     0.031 C 
ATOM     58  C   UNL A   1      43.511  28.138  33.682  1.00  0.00     0.037 A 
BRANCH  45  59
ATOM     59  C   UNL A   1      42.387  26.288  27.907  1.00  0.00     0.064 A 
ATOM     60  C   UNL A   1      41.951  24.961  27.792  1.00  0.00     0.173 A 
ATOM     61  C   UNL A   1      43.181  26.812  26.875  1.00  0.00     0.173 A 
ATOM     62  F   UNL A   1      41.201  24.410  28.759  1.00  0.00    -0.203 F 
ATOM     63  C   UNL A   1      42.308  24.184  26.692  1.00  0.00     0.198 A 
ATOM     64  C   UNL A   1      43.517  26.041  25.766  1.00  0.00     0.198 A 
ATOM     65  F   UNL A   1      43.620  28.077  26.937  1.00  0.00    -0.203 F 
ATOM     66  F   UNL A   1      41.907  22.908  26.615  1.00  0.00    -0.200 F 
ATOM     67  C   UNL A   1      43.082  24.727  25.677  1.00  0.00     0.200 A 
ATOM     68  F   UNL A   1      44.257  26.570  24.782  1.00  0.00    -0.200 F 
ATOM     69  F   UNL A   1      43.416  23.982  24.613  1.00  0.00    -0.200 F 
ENDBRANCH  45  59
BRANCH  46  70
ATOM     70  C   UNL A   1      39.156  31.944  35.474  1.00  0.00     0.064 A 
ATOM     71  C   UNL A   1      39.491  33.294  35.643  1.00  0.00     0.173 A 
ATOM     72  C   UNL A   1      38.333  31.348  36.442  1.00  0.00     0.173 A 
ATOM     73  F   UNL A   1      40.298  33.899  34.759  1.00  0.00    -0.203 F 
ATOM     74  C   UNL A   1      39.036  34.014  36.746  1.00  0.00     0.198 A 
ATOM     75  C   UNL A   1      37.855  32.077  37.527  1.00  0.00     0.198 A 
ATOM     76  F   UNL A   1      37.987  30.057  36.327  1.00  0.00    -0.203 F 
ATOM     77  F   UNL A   1      39.410  35.290  36.911  1.00  0.00    -0.200 F 
ATOM     78  C   UNL A   1      38.214  33.407  37.684  1.00  0.00     0.200 A 
ATOM     79  F   UNL A   1      37.052  31.489  38.424  1.00  0.00    -0.200 F 
ATOM     80  F   UNL A   1      37.775  34.101  38.743  1.00  0.00    -0.200 F 
ENDBRANCH  46  70
BRANCH  58  81
ATOM     81  C   UNL A   1      44.634  27.735  34.590  1.00  0.00     0.064 A 
ATOM     82  C   UNL A   1      45.786  28.523  34.726  1.00  0.00     0.173 A 
ATOM     83  C   UNL A   1      44.539  26.568  35.362  1.00  0.00     0.173 A 
ATOM     84  F   UNL A   1      45.929  29.640  33.997  1.00  0.00    -0.203 F 
ATOM     85  C   UNL A   1      46.813  28.146  35.586  1.00  0.00     0.198 A 
ATOM     86  C   UNL A   1      45.556  26.207  36.241  1.00  0.00     0.198 A 
ATOM     87  F   UNL A   1      43.455  25.783  35.272  1.00  0.00    -0.203 F 
ATOM     88  F   UNL A   1      47.923  28.891  35.669  1.00  0.00    -0.200 F 
ATOM     89  C   UNL A   1      46.694  26.992  36.348  1.00  0.00     0.200 A 
ATOM     90  F   UNL A   1      45.436  25.098  36.985  1.00  0.00    -0.200 F 
ATOM     91  F   UNL A   1      47.681  26.634  37.181  1.00  0.00    -0.200 F 
ENDBRANCH  58  81
ENDBRANCH  32  33
ENDBRANCH  25  27
ENDBRANCH  24  25
ENDBRANCH  23  24
ENDBRANCH  22  23
ENDBRANCH   1  22
TORSDOF 16
ENDMDL
