MODEL 1
REMARK VINA RESULT:     -11.2      0.000      0.000
REMARK SMILES CC(C)CCCNC(=O)N1CC[C@H](C(=O)OCCOC(=O)c2ccc(-c3c4nc(c(-c5c(F)c(F)c(F)c(F)c5F)c5ccc([nH]5)c(-c5c(F)c(F)c(F)c(F)c5F)c5nc(c(-c6c(F)c(F)c(F)c(F)c6F)c6ccc3[nH]6)C=C5)C=C4)cc2)[C@H]1C
REMARK SMILES IDX 16 1 14 2 15 3 13 4 10 5 11 6 85 7 12 8 86 9 8 10 7 11 9 13
REMARK SMILES IDX 6 14 5 15 4 16 2 17 1 18 3 19 17 20 18 21 19 22 20 23 21 24
REMARK SMILES IDX 22 25 23 26 84 27 24 28 83 29 25 30 26 31 27 32 77 33 28 34
REMARK SMILES IDX 82 35 76 36 78 37 29 38 81 39 75 40 74 41 30 43 62 44 42 45
REMARK SMILES IDX 61 46 43 47 46 48 60 49 79 50 44 51 45 52 59 54 80 55 47 56
REMARK SMILES IDX 31 57 32 58 40 59 33 60 34 61 38 62 41 63 35 64 36 65 39 66
REMARK SMILES IDX 37 67 63 68 64 69 72 70 65 71 66 72 70 73 73 74 67 75 68 76
REMARK SMILES IDX 71 77 69 78 48 79 49 80 57 81 50 82 51 83 55 84 58 85 52 86
REMARK SMILES IDX 53 87 56 88 54 89
REMARK H PARENT 7 12 78 42 46 53
REMARK Flexibility Score: inf
ROOT
ATOM      1  O   UNL A   1      30.671  27.883  24.952  1.00  0.00    -0.462 OA
ENDROOT
BRANCH   1   2
ATOM      2  C   UNL A   1      31.348  27.009  25.739  1.00  0.00     0.311 C 
ATOM      3  O   UNL A   1      31.079  26.771  26.912  1.00  0.00    -0.252 OA
BRANCH   2   4
ATOM      4  C   UNL A   1      32.280  26.148  24.930  1.00  0.00     0.123 C 
ATOM      5  N   UNL A   1      32.225  23.890  25.605  1.00  0.00    -0.321 N 
ATOM      6  C   UNL A   1      33.384  24.493  26.247  1.00  0.00     0.122 C 
ATOM      7  C   UNL A   1      31.626  24.804  24.610  1.00  0.00     0.098 C 
ATOM      8  C   UNL A   1      33.644  25.780  25.498  1.00  0.00     0.039 C 
ATOM      9  C   UNL A   1      31.910  24.489  23.129  1.00  0.00     0.032 C 
BRANCH   5  10
ATOM     10  C   UNL A   1      31.536  22.948  26.335  1.00  0.00     0.317 C 
ATOM     11  N   UNL A   1      31.616  21.647  25.974  1.00  0.00    -0.338 N 
ATOM     12  H   UNL A   1      30.857  21.071  26.220  1.00  0.00     0.165 HD
ATOM     13  O   UNL A   1      30.848  23.233  27.315  1.00  0.00    -0.249 OA
BRANCH  11  14
ATOM     14  C   UNL A   1      32.698  21.020  25.266  1.00  0.00     0.117 C 
BRANCH  14  15
ATOM     15  C   UNL A   1      32.598  19.506  25.196  1.00  0.00     0.022 C 
BRANCH  15  16
ATOM     16  C   UNL A   1      33.846  18.792  24.700  1.00  0.00     0.005 C 
BRANCH  16  17
ATOM     17  C   UNL A   1      33.692  18.026  23.375  1.00  0.00    -0.017 C 
ATOM     18  C   UNL A   1      33.930  16.522  23.527  1.00  0.00     0.007 C 
ATOM     19  C   UNL A   1      32.294  18.286  22.815  1.00  0.00     0.007 C 
ENDBRANCH  16  17
ENDBRANCH  15  16
ENDBRANCH  14  15
ENDBRANCH  11  14
ENDBRANCH   5  10
ENDBRANCH   2   4
ENDBRANCH   1   2
BRANCH   1  20
ATOM     20  C   UNL A   1      31.485  28.937  24.424  1.00  0.00     0.274 C 
BRANCH  20  21
ATOM     21  C   UNL A   1      31.715  30.032  25.476  1.00  0.00     0.275 C 
BRANCH  21  22
ATOM     22  O   UNL A   1      33.082  30.137  25.934  1.00  0.00    -0.458 OA
BRANCH  22  23
ATOM     23  C   UNL A   1      33.315  31.126  26.836  1.00  0.00     0.338 C 
ATOM     24  O   UNL A   1      32.564  32.052  27.106  1.00  0.00    -0.246 OA
BRANCH  23  25
ATOM     25  C   UNL A   1      34.574  30.889  27.587  1.00  0.00     0.060 A 
ATOM     26  C   UNL A   1      34.854  29.577  27.999  1.00  0.00     0.016 A 
ATOM     27  C   UNL A   1      35.467  31.916  27.903  1.00  0.00     0.016 A 
ATOM     28  C   UNL A   1      36.040  29.278  28.669  1.00  0.00     0.010 A 
ATOM     29  C   UNL A   1      36.637  31.624  28.619  1.00  0.00     0.010 A 
ATOM     30  C   UNL A   1      36.932  30.304  29.001  1.00  0.00    -0.014 A 
BRANCH  30  31
ATOM     31  C   UNL A   1      38.102  29.990  29.857  1.00  0.00     0.031 A 
ATOM     32  C   UNL A   1      39.165  29.076  29.324  1.00  0.00     0.074 A 
ATOM     33  C   UNL A   1      38.246  30.566  31.064  1.00  0.00     0.049 A 
ATOM     34  N   UNL A   1      40.279  28.676  29.883  1.00  0.00    -0.248 NA
ATOM     35  C   UNL A   1      38.948  28.549  27.967  1.00  0.00     0.031 C 
ATOM     36  C   UNL A   1      37.315  31.520  31.660  1.00  0.00     0.029 A 
ATOM     37  N   UNL A   1      39.239  30.433  32.005  1.00  0.00    -0.354 N 
ATOM     38  C   UNL A   1      40.897  27.859  28.947  1.00  0.00     0.074 A 
ATOM     39  C   UNL A   1      40.025  27.798  27.794  1.00  0.00     0.031 C 
ATOM     40  C   UNL A   1      37.775  31.883  32.870  1.00  0.00     0.029 A 
ATOM     41  C   UNL A   1      39.016  31.161  33.148  1.00  0.00     0.049 A 
ATOM     42  H   UNL A   1      40.035  29.869  31.872  1.00  0.00     0.167 HD
ATOM     43  C   UNL A   1      42.089  27.221  29.041  1.00  0.00     0.037 A 
ATOM     44  C   UNL A   1      39.723  31.217  34.294  1.00  0.00     0.037 A 
ATOM     45  C   UNL A   1      42.940  27.264  30.202  1.00  0.00     0.049 A 
ATOM     46  C   UNL A   1      40.994  30.409  34.414  1.00  0.00     0.074 A 
ATOM     47  C   UNL A   1      44.158  26.641  30.402  1.00  0.00     0.029 A 
ATOM     48  N   UNL A   1      42.650  27.961  31.367  1.00  0.00    -0.354 N 
ATOM     49  N   UNL A   1      41.582  29.651  33.520  1.00  0.00    -0.248 NA
ATOM     50  C   UNL A   1      41.699  30.466  35.703  1.00  0.00     0.031 C 
ATOM     51  C   UNL A   1      44.575  26.908  31.711  1.00  0.00     0.029 A 
ATOM     52  C   UNL A   1      43.651  27.754  32.303  1.00  0.00     0.049 A 
ATOM     53  H   UNL A   1      41.852  28.518  31.508  1.00  0.00     0.167 HD
ATOM     54  C   UNL A   1      42.736  29.167  34.126  1.00  0.00     0.074 A 
ATOM     55  C   UNL A   1      42.774  29.732  35.458  1.00  0.00     0.031 C 
ATOM     56  C   UNL A   1      43.678  28.330  33.624  1.00  0.00     0.037 A 
BRANCH  43  57
ATOM     57  C   UNL A   1      42.515  26.380  27.873  1.00  0.00     0.064 A 
ATOM     58  C   UNL A   1      43.380  26.870  26.883  1.00  0.00     0.173 A 
ATOM     59  C   UNL A   1      42.063  25.057  27.750  1.00  0.00     0.173 A 
ATOM     60  F   UNL A   1      43.829  28.134  26.944  1.00  0.00    -0.203 F 
ATOM     61  C   UNL A   1      43.752  26.078  25.800  1.00  0.00     0.198 A 
ATOM     62  C   UNL A   1      42.462  24.258  26.682  1.00  0.00     0.198 A 
ATOM     63  F   UNL A   1      41.235  24.536  28.669  1.00  0.00    -0.203 F 
ATOM     64  F   UNL A   1      44.536  26.587  24.838  1.00  0.00    -0.200 F 
ATOM     65  C   UNL A   1      43.298  24.772  25.704  1.00  0.00     0.200 A 
ATOM     66  F   UNL A   1      42.031  22.991  26.598  1.00  0.00    -0.200 F 
ATOM     67  F   UNL A   1      43.660  24.010  24.661  1.00  0.00    -0.200 F 
ENDBRANCH  43  57
BRANCH  44  68
ATOM     68  C   UNL A   1      39.242  32.042  35.437  1.00  0.00     0.064 A 
ATOM     69  C   UNL A   1      39.602  33.392  35.566  1.00  0.00     0.173 A 
ATOM     70  C   UNL A   1      38.442  31.485  36.447  1.00  0.00     0.173 A 
ATOM     71  F   UNL A   1      40.388  33.965  34.644  1.00  0.00    -0.203 F 
ATOM     72  C   UNL A   1      39.201  34.143  36.671  1.00  0.00     0.198 A 
ATOM     73  C   UNL A   1      38.014  32.246  37.533  1.00  0.00     0.198 A 
ATOM     74  F   UNL A   1      38.073  30.197  36.379  1.00  0.00    -0.203 F 
ATOM     75  F   UNL A   1      39.606  35.413  36.796  1.00  0.00    -0.200 F 
ATOM     76  C   UNL A   1      38.402  33.572  37.649  1.00  0.00     0.200 A 
ATOM     77  F   UNL A   1      37.232  31.692  38.469  1.00  0.00    -0.200 F 
ATOM     78  F   UNL A   1      38.017  34.294  38.710  1.00  0.00    -0.200 F 
ENDBRANCH  44  68
BRANCH  56  79
ATOM     79  C   UNL A   1      44.854  28.003  34.503  1.00  0.00     0.064 A 
ATOM     80  C   UNL A   1      46.003  28.806  34.534  1.00  0.00     0.173 A 
ATOM     81  C   UNL A   1      44.808  26.892  35.362  1.00  0.00     0.173 A 
ATOM     82  F   UNL A   1      46.104  29.871  33.724  1.00  0.00    -0.203 F 
ATOM     83  C   UNL A   1      47.073  28.495  35.369  1.00  0.00     0.198 A 
ATOM     84  C   UNL A   1      45.865  26.606  36.223  1.00  0.00     0.198 A 
ATOM     85  F   UNL A   1      43.730  26.095  35.380  1.00  0.00    -0.203 F 
ATOM     86  F   UNL A   1      48.182  29.248  35.343  1.00  0.00    -0.200 F 
ATOM     87  C   UNL A   1      46.999  27.402  36.219  1.00  0.00     0.200 A 
ATOM     88  F   UNL A   1      45.783  25.559  37.055  1.00  0.00    -0.200 F 
ATOM     89  F   UNL A   1      48.026  27.111  37.030  1.00  0.00    -0.200 F 
ENDBRANCH  56  79
ENDBRANCH  30  31
ENDBRANCH  23  25
ENDBRANCH  22  23
ENDBRANCH  21  22
ENDBRANCH  20  21
ENDBRANCH   1  20
TORSDOF 16
ENDMDL
MODEL 2
REMARK VINA RESULT:     -11.2      0.641      7.475
REMARK SMILES CC(C)CCCNC(=O)N1CC[C@H](C(=O)OCCOC(=O)c2ccc(-c3c4nc(c(-c5c(F)c(F)c(F)c(F)c5F)c5ccc([nH]5)c(-c5c(F)c(F)c(F)c(F)c5F)c5nc(c(-c6c(F)c(F)c(F)c(F)c6F)c6ccc3[nH]6)C=C5)C=C4)cc2)[C@H]1C
REMARK SMILES IDX 16 1 14 2 15 3 13 4 10 5 11 6 85 7 12 8 86 9 8 10 7 11 9 13
REMARK SMILES IDX 6 14 5 15 4 16 2 17 1 18 3 19 17 20 18 21 19 22 20 23 21 24
REMARK SMILES IDX 22 25 23 26 84 27 24 28 83 29 25 30 26 31 27 32 77 33 28 34
REMARK SMILES IDX 82 35 76 36 78 37 29 38 81 39 75 40 74 41 30 43 62 44 42 45
REMARK SMILES IDX 61 46 43 47 46 48 60 49 79 50 44 51 45 52 59 54 80 55 47 56
REMARK SMILES IDX 31 57 32 58 40 59 33 60 34 61 38 62 41 63 35 64 36 65 39 66
REMARK SMILES IDX 37 67 63 68 64 69 72 70 65 71 66 72 70 73 73 74 67 75 68 76
REMARK SMILES IDX 71 77 69 78 48 79 49 80 57 81 50 82 51 83 55 84 58 85 52 86
REMARK SMILES IDX 53 87 56 88 54 89
REMARK H PARENT 7 12 78 42 46 53
REMARK Flexibility Score: inf
ROOT
ATOM      1  O   UNL A   1      32.765  28.295  26.211  1.00  0.00    -0.462 OA
ENDROOT
BRANCH   1   2
ATOM      2  C   UNL A   1      32.173  27.074  26.240  1.00  0.00     0.311 C 
ATOM      3  O   UNL A   1      31.163  26.801  26.880  1.00  0.00    -0.252 OA
BRANCH   2   4
ATOM      4  C   UNL A   1      32.724  26.170  25.170  1.00  0.00     0.123 C 
ATOM      5  N   UNL A   1      32.399  23.890  25.669  1.00  0.00    -0.321 N 
ATOM      6  C   UNL A   1      33.764  24.215  26.058  1.00  0.00     0.122 C 
ATOM      7  C   UNL A   1      31.776  24.999  24.917  1.00  0.00     0.098 C 
ATOM      8  C   UNL A   1      34.087  25.520  25.366  1.00  0.00     0.039 C 
ATOM      9  C   UNL A   1      31.660  24.814  23.392  1.00  0.00     0.032 C 
BRANCH   5  10
ATOM     10  C   UNL A   1      31.727  22.996  26.471  1.00  0.00     0.317 C 
ATOM     11  N   UNL A   1      31.453  21.760  25.995  1.00  0.00    -0.338 N 
ATOM     12  H   UNL A   1      30.673  21.299  26.380  1.00  0.00     0.165 HD
ATOM     13  O   UNL A   1      31.363  23.266  27.616  1.00  0.00    -0.249 OA
BRANCH  11  14
ATOM     14  C   UNL A   1      32.186  21.051  24.982  1.00  0.00     0.117 C 
BRANCH  14  15
ATOM     15  C   UNL A   1      32.903  19.811  25.489  1.00  0.00     0.022 C 
BRANCH  15  16
ATOM     16  C   UNL A   1      33.779  19.102  24.469  1.00  0.00     0.005 C 
BRANCH  16  17
ATOM     17  C   UNL A   1      33.848  17.571  24.602  1.00  0.00    -0.017 C 
ATOM     18  C   UNL A   1      32.677  16.991  25.400  1.00  0.00     0.007 C 
ATOM     19  C   UNL A   1      33.892  16.954  23.204  1.00  0.00     0.007 C 
ENDBRANCH  16  17
ENDBRANCH  15  16
ENDBRANCH  14  15
ENDBRANCH  11  14
ENDBRANCH   5  10
ENDBRANCH   2   4
ENDBRANCH   1   2
BRANCH   1  20
ATOM     20  C   UNL A   1      32.141  29.219  25.312  1.00  0.00     0.274 C 
BRANCH  20  21
ATOM     21  C   UNL A   1      31.906  30.576  25.995  1.00  0.00     0.275 C 
BRANCH  21  22
ATOM     22  O   UNL A   1      32.541  30.707  27.287  1.00  0.00    -0.458 OA
BRANCH  22  23
ATOM     23  C   UNL A   1      33.386  31.763  27.410  1.00  0.00     0.338 C 
ATOM     24  O   UNL A   1      33.122  32.935  27.177  1.00  0.00    -0.246 OA
BRANCH  23  25
ATOM     25  C   UNL A   1      34.682  31.353  28.007  1.00  0.00     0.060 A 
ATOM     26  C   UNL A   1      34.799  30.036  28.479  1.00  0.00     0.016 A 
ATOM     27  C   UNL A   1      35.767  32.225  28.122  1.00  0.00     0.016 A 
ATOM     28  C   UNL A   1      36.003  29.573  29.009  1.00  0.00     0.010 A 
ATOM     29  C   UNL A   1      36.963  31.775  28.700  1.00  0.00     0.010 A 
ATOM     30  C   UNL A   1      37.089  30.446  29.141  1.00  0.00    -0.014 A 
BRANCH  30  31
ATOM     31  C   UNL A   1      38.301  29.981  29.858  1.00  0.00     0.031 A 
ATOM     32  C   UNL A   1      38.559  30.486  31.247  1.00  0.00     0.074 A 
ATOM     33  C   UNL A   1      39.122  29.069  29.306  1.00  0.00     0.049 A 
ATOM     34  N   UNL A   1      39.538  30.206  32.068  1.00  0.00    -0.248 NA
ATOM     35  C   UNL A   1      37.567  31.429  31.790  1.00  0.00     0.031 C 
ATOM     36  C   UNL A   1      38.940  28.456  27.992  1.00  0.00     0.029 A 
ATOM     37  N   UNL A   1      40.275  28.497  29.786  1.00  0.00    -0.354 N 
ATOM     38  C   UNL A   1      39.279  30.930  33.224  1.00  0.00     0.074 A 
ATOM     39  C   UNL A   1      38.064  31.682  32.990  1.00  0.00     0.031 C 
ATOM     40  C   UNL A   1      39.949  27.597  27.767  1.00  0.00     0.029 A 
ATOM     41  C   UNL A   1      40.867  27.625  28.906  1.00  0.00     0.049 A 
ATOM     42  H   UNL A   1      40.642  28.693  30.679  1.00  0.00     0.167 HD
ATOM     43  C   UNL A   1      39.989  30.960  34.377  1.00  0.00     0.037 A 
ATOM     44  C   UNL A   1      42.028  26.947  29.002  1.00  0.00     0.037 A 
ATOM     45  C   UNL A   1      41.210  30.229  34.594  1.00  0.00     0.049 A 
ATOM     46  C   UNL A   1      42.857  27.084  30.257  1.00  0.00     0.074 A 
ATOM     47  C   UNL A   1      42.012  30.204  35.720  1.00  0.00     0.029 A 
ATOM     48  N   UNL A   1      41.815  29.406  33.654  1.00  0.00    -0.354 N 
ATOM     49  N   UNL A   1      42.599  27.757  31.352  1.00  0.00    -0.248 NA
ATOM     50  C   UNL A   1      44.138  26.364  30.289  1.00  0.00     0.031 C 
ATOM     51  C   UNL A   1      43.134  29.417  35.440  1.00  0.00     0.029 A 
ATOM     52  C   UNL A   1      42.998  28.895  34.164  1.00  0.00     0.049 A 
ATOM     53  H   UNL A   1      41.457  29.214  32.758  1.00  0.00     0.167 HD
ATOM     54  C   UNL A   1      43.666  27.519  32.210  1.00  0.00     0.074 A 
ATOM     55  C   UNL A   1      44.567  26.625  31.515  1.00  0.00     0.031 C 
ATOM     56  C   UNL A   1      43.881  27.999  33.461  1.00  0.00     0.037 A 
BRANCH  43  57
ATOM     57  C   UNL A   1      39.485  31.853  35.474  1.00  0.00     0.064 A 
ATOM     58  C   UNL A   1      39.886  33.193  35.582  1.00  0.00     0.173 A 
ATOM     59  C   UNL A   1      38.574  31.364  36.423  1.00  0.00     0.173 A 
ATOM     60  F   UNL A   1      40.768  33.706  34.710  1.00  0.00    -0.203 F 
ATOM     61  C   UNL A   1      39.417  34.000  36.615  1.00  0.00     0.198 A 
ATOM     62  C   UNL A   1      38.083  32.183  37.436  1.00  0.00     0.198 A 
ATOM     63  F   UNL A   1      38.155  30.090  36.365  1.00  0.00    -0.203 F 
ATOM     64  F   UNL A   1      39.857  35.262  36.730  1.00  0.00    -0.200 F 
ATOM     65  C   UNL A   1      38.512  33.497  37.537  1.00  0.00     0.200 A 
ATOM     66  F   UNL A   1      37.198  31.697  38.319  1.00  0.00    -0.200 F 
ATOM     67  F   UNL A   1      38.060  34.276  38.529  1.00  0.00    -0.200 F 
ENDBRANCH  43  57
BRANCH  44  68
ATOM     68  C   UNL A   1      42.501  26.099  27.872  1.00  0.00     0.064 A 
ATOM     69  C   UNL A   1      42.082  24.767  27.734  1.00  0.00     0.173 A 
ATOM     70  C   UNL A   1      43.414  26.593  26.927  1.00  0.00     0.173 A 
ATOM     71  F   UNL A   1      41.233  24.237  28.626  1.00  0.00    -0.203 F 
ATOM     72  C   UNL A   1      42.576  23.958  26.712  1.00  0.00     0.198 A 
ATOM     73  C   UNL A   1      43.881  25.792  25.886  1.00  0.00     0.198 A 
ATOM     74  F   UNL A   1      43.854  27.857  27.014  1.00  0.00    -0.203 F 
ATOM     75  F   UNL A   1      42.203  22.674  26.638  1.00  0.00    -0.200 F 
ATOM     76  C   UNL A   1      43.470  24.473  25.785  1.00  0.00     0.200 A 
ATOM     77  F   UNL A   1      44.735  26.299  24.987  1.00  0.00    -0.200 F 
ATOM     78  F   UNL A   1      43.944  23.694  24.803  1.00  0.00    -0.200 F 
ENDBRANCH  44  68
BRANCH  56  79
ATOM     79  C   UNL A   1      45.120  27.537  34.177  1.00  0.00     0.064 A 
ATOM     80  C   UNL A   1      46.329  28.243  34.097  1.00  0.00     0.173 A 
ATOM     81  C   UNL A   1      45.082  26.394  34.993  1.00  0.00     0.173 A 
ATOM     82  F   UNL A   1      46.424  29.333  33.321  1.00  0.00    -0.203 F 
ATOM     83  C   UNL A   1      47.461  27.807  34.783  1.00  0.00     0.198 A 
ATOM     84  C   UNL A   1      46.205  25.982  35.706  1.00  0.00     0.198 A 
ATOM     85  F   UNL A   1      43.949  25.686  35.113  1.00  0.00    -0.203 F 
ATOM     86  F   UNL A   1      48.619  28.468  34.649  1.00  0.00    -0.200 F 
ATOM     87  C   UNL A   1      47.395  26.684  35.594  1.00  0.00     0.200 A 
ATOM     88  F   UNL A   1      46.133  24.907  36.502  1.00  0.00    -0.200 F 
ATOM     89  F   UNL A   1      48.482  26.273  36.262  1.00  0.00    -0.200 F 
ENDBRANCH  56  79
ENDBRANCH  30  31
ENDBRANCH  23  25
ENDBRANCH  22  23
ENDBRANCH  21  22
ENDBRANCH  20  21
ENDBRANCH   1  20
TORSDOF 16
ENDMDL
MODEL 3
REMARK VINA RESULT:     -11.1      4.480      9.962
REMARK SMILES CC(C)CCCNC(=O)N1CC[C@H](C(=O)OCCOC(=O)c2ccc(-c3c4nc(c(-c5c(F)c(F)c(F)c(F)c5F)c5ccc([nH]5)c(-c5c(F)c(F)c(F)c(F)c5F)c5nc(c(-c6c(F)c(F)c(F)c(F)c6F)c6ccc3[nH]6)C=C5)C=C4)cc2)[C@H]1C
REMARK SMILES IDX 16 1 14 2 15 3 13 4 10 5 11 6 85 7 12 8 86 9 8 10 7 11 9 13
REMARK SMILES IDX 6 14 5 15 4 16 2 17 1 18 3 19 17 20 18 21 19 22 20 23 21 24
REMARK SMILES IDX 22 25 23 26 84 27 24 28 83 29 25 30 26 31 27 32 77 33 28 34
REMARK SMILES IDX 82 35 76 36 78 37 29 38 81 39 75 40 74 41 30 43 62 44 42 45
REMARK SMILES IDX 61 46 43 47 46 48 60 49 79 50 44 51 45 52 59 54 80 55 47 56
REMARK SMILES IDX 31 57 32 58 40 59 33 60 34 61 38 62 41 63 35 64 36 65 39 66
REMARK SMILES IDX 37 67 63 68 64 69 72 70 65 71 66 72 70 73 73 74 67 75 68 76
REMARK SMILES IDX 71 77 69 78 48 79 49 80 57 81 50 82 51 83 55 84 58 85 52 86
REMARK SMILES IDX 53 87 56 88 54 89
REMARK H PARENT 7 12 78 42 46 53
REMARK Flexibility Score: inf
ROOT
ATOM      1  O   UNL A   1      35.582  23.656  24.136  1.00  0.00    -0.462 OA
ENDROOT
BRANCH   1   2
ATOM      2  C   UNL A   1      34.479  23.823  23.363  1.00  0.00     0.311 C 
ATOM      3  O   UNL A   1      34.321  23.325  22.254  1.00  0.00    -0.252 OA
BRANCH   2   4
ATOM      4  C   UNL A   1      33.351  24.446  24.140  1.00  0.00     0.123 C 
ATOM      5  N   UNL A   1      32.874  26.641  23.424  1.00  0.00    -0.321 N 
ATOM      6  C   UNL A   1      33.716  26.757  24.606  1.00  0.00     0.122 C 
ATOM      7  C   UNL A   1      32.436  25.245  23.212  1.00  0.00     0.098 C 
ATOM      8  C   UNL A   1      33.665  25.406  25.280  1.00  0.00     0.039 C 
ATOM      9  C   UNL A   1      30.981  24.916  23.595  1.00  0.00     0.032 C 
BRANCH   5  10
ATOM     10  C   UNL A   1      33.076  27.570  22.429  1.00  0.00     0.317 C 
ATOM     11  N   UNL A   1      32.073  28.420  22.108  1.00  0.00    -0.338 N 
ATOM     12  H   UNL A   1      32.072  28.778  21.192  1.00  0.00     0.165 HD
ATOM     13  O   UNL A   1      34.137  27.673  21.814  1.00  0.00    -0.249 OA
BRANCH  11  14
ATOM     14  C   UNL A   1      31.007  28.851  22.970  1.00  0.00     0.117 C 
BRANCH  14  15
ATOM     15  C   UNL A   1      29.619  28.653  22.386  1.00  0.00     0.022 C 
BRANCH  15  16
ATOM     16  C   UNL A   1      28.472  29.169  23.241  1.00  0.00     0.005 C 
BRANCH  16  17
ATOM     17  C   UNL A   1      27.653  30.320  22.630  1.00  0.00    -0.017 C 
ATOM     18  C   UNL A   1      27.655  31.578  23.502  1.00  0.00     0.007 C 
ATOM     19  C   UNL A   1      28.207  30.637  21.242  1.00  0.00     0.007 C 
ENDBRANCH  16  17
ENDBRANCH  15  16
ENDBRANCH  14  15
ENDBRANCH  11  14
ENDBRANCH   5  10
ENDBRANCH   2   4
ENDBRANCH   1   2
BRANCH   1  20
ATOM     20  C   UNL A   1      36.537  22.740  23.591  1.00  0.00     0.274 C 
BRANCH  20  21
ATOM     21  C   UNL A   1      36.709  21.517  24.505  1.00  0.00     0.275 C 
BRANCH  21  22
ATOM     22  O   UNL A   1      37.206  21.829  25.826  1.00  0.00    -0.458 OA
BRANCH  22  23
ATOM     23  C   UNL A   1      38.514  21.529  26.038  1.00  0.00     0.338 C 
ATOM     24  O   UNL A   1      39.059  20.460  25.801  1.00  0.00    -0.246 OA
BRANCH  23  25
ATOM     25  C   UNL A   1      39.279  22.721  26.483  1.00  0.00     0.060 A 
ATOM     26  C   UNL A   1      38.899  23.972  25.973  1.00  0.00     0.016 A 
ATOM     27  C   UNL A   1      40.354  22.636  27.371  1.00  0.00     0.016 A 
ATOM     28  C   UNL A   1      39.547  25.136  26.385  1.00  0.00     0.010 A 
ATOM     29  C   UNL A   1      41.037  23.802  27.749  1.00  0.00     0.010 A 
ATOM     30  C   UNL A   1      40.633  25.057  27.262  1.00  0.00    -0.014 A 
BRANCH  30  31
ATOM     31  C   UNL A   1      41.411  26.286  27.556  1.00  0.00     0.031 A 
ATOM     32  C   UNL A   1      40.761  27.382  28.348  1.00  0.00     0.074 A 
ATOM     33  C   UNL A   1      42.698  26.393  27.180  1.00  0.00     0.049 A 
ATOM     34  N   UNL A   1      41.250  28.532  28.737  1.00  0.00    -0.248 NA
ATOM     35  C   UNL A   1      39.372  27.143  28.770  1.00  0.00     0.031 C 
ATOM     36  C   UNL A   1      43.456  25.368  26.466  1.00  0.00     0.029 A 
ATOM     37  N   UNL A   1      43.598  27.417  27.353  1.00  0.00    -0.354 N 
ATOM     38  C   UNL A   1      40.234  29.150  29.453  1.00  0.00     0.074 A 
ATOM     39  C   UNL A   1      39.093  28.260  29.424  1.00  0.00     0.031 C 
ATOM     40  C   UNL A   1      44.706  25.817  26.255  1.00  0.00     0.029 A 
ATOM     41  C   UNL A   1      44.826  27.173  26.789  1.00  0.00     0.049 A 
ATOM     42  H   UNL A   1      43.383  28.247  27.838  1.00  0.00     0.167 HD
ATOM     43  C   UNL A   1      40.254  30.349  30.081  1.00  0.00     0.037 A 
ATOM     44  C   UNL A   1      45.912  27.966  26.696  1.00  0.00     0.037 A 
ATOM     45  C   UNL A   1      41.384  31.242  30.084  1.00  0.00     0.049 A 
ATOM     46  C   UNL A   1      45.871  29.344  27.312  1.00  0.00     0.074 A 
ATOM     47  C   UNL A   1      41.500  32.485  30.679  1.00  0.00     0.029 A 
ATOM     48  N   UNL A   1      42.591  30.989  29.446  1.00  0.00    -0.354 N 
ATOM     49  N   UNL A   1      44.913  29.916  28.002  1.00  0.00    -0.248 NA
ATOM     50  C   UNL A   1      47.064  30.186  27.138  1.00  0.00     0.031 C 
ATOM     51  C   UNL A   1      42.752  33.012  30.347  1.00  0.00     0.029 A 
ATOM     52  C   UNL A   1      43.445  32.069  29.604  1.00  0.00     0.049 A 
ATOM     53  H   UNL A   1      42.807  30.165  28.954  1.00  0.00     0.167 HD
ATOM     54  C   UNL A   1      45.397  31.167  28.366  1.00  0.00     0.074 A 
ATOM     55  C   UNL A   1      46.740  31.264  27.837  1.00  0.00     0.031 C 
ATOM     56  C   UNL A   1      44.783  32.148  29.076  1.00  0.00     0.037 A 
BRANCH  43  57
ATOM     57  C   UNL A   1      38.997  30.785  30.775  1.00  0.00     0.064 A 
ATOM     58  C   UNL A   1      38.791  30.564  32.146  1.00  0.00     0.173 A 
ATOM     59  C   UNL A   1      37.987  31.449  30.062  1.00  0.00     0.173 A 
ATOM     60  F   UNL A   1      39.718  29.920  32.872  1.00  0.00    -0.203 F 
ATOM     61  C   UNL A   1      37.611  30.965  32.767  1.00  0.00     0.198 A 
ATOM     62  C   UNL A   1      36.822  31.876  30.693  1.00  0.00     0.198 A 
ATOM     63  F   UNL A   1      38.132  31.688  28.749  1.00  0.00    -0.203 F 
ATOM     64  F   UNL A   1      37.415  30.694  34.066  1.00  0.00    -0.200 F 
ATOM     65  C   UNL A   1      36.631  31.625  32.043  1.00  0.00     0.200 A 
ATOM     66  F   UNL A   1      35.881  32.525  29.993  1.00  0.00    -0.200 F 
ATOM     67  F   UNL A   1      35.497  32.012  32.644  1.00  0.00    -0.200 F 
ENDBRANCH  43  57
BRANCH  44  68
ATOM     68  C   UNL A   1      47.125  27.499  25.969  1.00  0.00     0.064 A 
ATOM     69  C   UNL A   1      48.209  26.925  26.650  1.00  0.00     0.173 A 
ATOM     70  C   UNL A   1      47.242  27.654  24.579  1.00  0.00     0.173 A 
ATOM     71  F   UNL A   1      48.161  26.780  27.982  1.00  0.00    -0.203 F 
ATOM     72  C   UNL A   1      49.369  26.548  25.974  1.00  0.00     0.198 A 
ATOM     73  C   UNL A   1      48.389  27.245  23.899  1.00  0.00     0.198 A 
ATOM     74  F   UNL A   1      46.240  28.203  23.877  1.00  0.00    -0.203 F 
ATOM     75  F   UNL A   1      50.410  26.055  26.658  1.00  0.00    -0.200 F 
ATOM     76  C   UNL A   1      49.455  26.702  24.599  1.00  0.00     0.200 A 
ATOM     77  F   UNL A   1      48.461  27.386  22.569  1.00  0.00    -0.200 F 
ATOM     78  F   UNL A   1      50.569  26.338  23.949  1.00  0.00    -0.200 F 
ENDBRANCH  44  68
BRANCH  56  79
ATOM     79  C   UNL A   1      45.571  33.398  29.356  1.00  0.00     0.064 A 
ATOM     80  C   UNL A   1      46.405  33.512  30.478  1.00  0.00     0.173 A 
ATOM     81  C   UNL A   1      45.525  34.480  28.461  1.00  0.00     0.173 A 
ATOM     82  F   UNL A   1      46.477  32.513  31.371  1.00  0.00    -0.203 F 
ATOM     83  C   UNL A   1      47.141  34.672  30.708  1.00  0.00     0.198 A 
ATOM     84  C   UNL A   1      46.289  35.623  28.676  1.00  0.00     0.198 A 
ATOM     85  F   UNL A   1      44.750  34.420  27.368  1.00  0.00    -0.203 F 
ATOM     86  F   UNL A   1      47.891  34.778  31.814  1.00  0.00    -0.200 F 
ATOM     87  C   UNL A   1      47.090  35.722  29.804  1.00  0.00     0.200 A 
ATOM     88  F   UNL A   1      46.251  36.628  27.791  1.00  0.00    -0.200 F 
ATOM     89  F   UNL A   1      47.807  36.833  30.022  1.00  0.00    -0.200 F 
ENDBRANCH  56  79
ENDBRANCH  30  31
ENDBRANCH  23  25
ENDBRANCH  22  23
ENDBRANCH  21  22
ENDBRANCH  20  21
ENDBRANCH   1  20
TORSDOF 16
ENDMDL
