MODEL 1
REMARK VINA RESULT:     -10.5      0.000      0.000
REMARK SMILES Cc1nc2n(n1)[C@@H](c1ccc([N+](=O)[O-])o1)CC(C(=O)OCCOC(=O)c1ccc(-c3c4nc(c(-c5c(F)c(F)c(F)c(F)c5F)c5ccc([nH]5)c(-c5c(F)c(F)c(F)c(F)c5F)c5nc(c(-c6c(F)c(F)c(F)c(F)c6F)c6ccc3[nH]6)C=C5)C=C4)cc1)=N2
REMARK SMILES IDX 21 1 20 2 18 3 19 4 17 5 1 6 2 7 3 8 6 9 4 10 5 11 89 12
REMARK SMILES IDX 7 13 16 14 8 15 9 16 15 17 10 18 11 19 12 20 13 21 14 22
REMARK SMILES IDX 22 23 23 24 24 25 25 26 26 27 27 28 88 29 28 30 87 31 29 32
REMARK SMILES IDX 30 33 31 34 81 35 32 36 86 37 80 38 82 39 33 40 85 41 79 42
REMARK SMILES IDX 78 43 34 45 66 46 46 47 65 48 47 49 50 50 64 51 83 52 48 53
REMARK SMILES IDX 49 54 63 56 84 57 51 58 35 59 36 60 44 61 37 62 38 63 42 64
REMARK SMILES IDX 45 65 39 66 40 67 43 68 41 69 67 70 68 71 76 72 69 73 70 74
REMARK SMILES IDX 74 75 77 76 71 77 72 78 75 79 73 80 52 81 53 82 61 83 54 84
REMARK SMILES IDX 55 85 59 86 62 87 56 88 57 89 60 90 58 91
REMARK H PARENT 82 44 50 55
REMARK Flexibility Score: inf
ROOT
ATOM      1  C   UNL A   1      42.444  20.516  26.280  1.00  0.00     0.275 C 
ENDROOT
BRANCH   1   2
ATOM      2  O   UNL A   1      42.745  21.579  25.360  1.00  0.00    -0.458 OA
BRANCH   2   3
ATOM      3  C   UNL A   1      44.022  21.656  24.934  1.00  0.00     0.353 C 
ATOM      4  O   UNL A   1      44.551  20.992  24.071  1.00  0.00    -0.245 OA
BRANCH   3   5
ATOM      5  C   UNL A   1      44.708  22.865  25.583  1.00  0.00     0.132 C 
ATOM      6  C   UNL A   1      46.100  28.484  25.751  1.00  0.00     0.092 C 
ATOM      7  C   UNL A   1      45.889  27.031  25.907  1.00  0.00     0.149 A 
ATOM      8  N   UNL A   1      45.326  26.274  24.916  1.00  0.00    -0.195 NA
ATOM      9  N   UNL A   1      46.208  26.354  27.016  1.00  0.00    -0.154 NA
ATOM     10  C   UNL A   1      45.287  25.060  25.421  1.00  0.00     0.249 A 
ATOM     11  N   UNL A   1      45.752  25.121  26.706  1.00  0.00    -0.219 N 
ATOM     12  N   UNL A   1      44.809  23.933  24.853  1.00  0.00    -0.209 NA
ATOM     13  C   UNL A   1      45.872  23.969  27.579  1.00  0.00     0.184 C 
ATOM     14  C   UNL A   1      45.146  22.735  27.021  1.00  0.00     0.100 C 
BRANCH  13  15
ATOM     15  C   UNL A   1      45.408  24.254  28.984  1.00  0.00     0.136 A 
ATOM     16  C   UNL A   1      44.292  23.936  29.743  1.00  0.00     0.056 A 
ATOM     17  O   UNL A   1      46.273  25.003  29.743  1.00  0.00    -0.404 OA
ATOM     18  C   UNL A   1      44.478  24.512  31.026  1.00  0.00     0.134 A 
ATOM     19  C   UNL A   1      45.701  25.132  30.970  1.00  0.00     0.433 A 
BRANCH  19  20
ATOM     20  N   UNL A   1      46.447  25.862  31.946  1.00  0.00     0.102 N 
ATOM     21  O   UNL A   1      46.599  25.313  33.046  1.00  0.00    -0.256 OA
ATOM     22  O   UNL A   1      46.885  26.974  31.624  1.00  0.00    -0.256 OA
ENDBRANCH  19  20
ENDBRANCH  13  15
ENDBRANCH   3   5
ENDBRANCH   2   3
ENDBRANCH   1   2
BRANCH   1  23
ATOM     23  C   UNL A   1      40.935  20.455  26.549  1.00  0.00     0.275 C 
BRANCH  23  24
ATOM     24  O   UNL A   1      40.489  21.401  27.542  1.00  0.00    -0.458 OA
BRANCH  24  25
ATOM     25  C   UNL A   1      39.744  22.415  27.046  1.00  0.00     0.338 C 
ATOM     26  O   UNL A   1      38.735  22.331  26.364  1.00  0.00    -0.246 OA
BRANCH  25  27
ATOM     27  C   UNL A   1      40.286  23.724  27.414  1.00  0.00     0.060 A 
ATOM     28  C   UNL A   1      39.387  24.739  27.734  1.00  0.00     0.016 A 
ATOM     29  C   UNL A   1      41.631  24.006  27.183  1.00  0.00     0.016 A 
ATOM     30  C   UNL A   1      39.808  26.060  27.757  1.00  0.00     0.010 A 
ATOM     31  C   UNL A   1      42.060  25.332  27.223  1.00  0.00     0.010 A 
ATOM     32  C   UNL A   1      41.143  26.363  27.483  1.00  0.00    -0.014 A 
BRANCH  32  33
ATOM     33  C   UNL A   1      41.541  27.777  27.547  1.00  0.00     0.031 A 
ATOM     34  C   UNL A   1      40.411  28.736  27.655  1.00  0.00     0.074 A 
ATOM     35  C   UNL A   1      42.749  28.168  28.002  1.00  0.00     0.049 A 
ATOM     36  N   UNL A   1      39.820  28.978  28.788  1.00  0.00    -0.248 NA
ATOM     37  C   UNL A   1      39.718  29.281  26.492  1.00  0.00     0.031 C 
ATOM     38  C   UNL A   1      43.553  27.397  28.957  1.00  0.00     0.029 A 
ATOM     39  N   UNL A   1      43.384  29.387  27.925  1.00  0.00    -0.354 N 
ATOM     40  C   UNL A   1      38.638  29.624  28.497  1.00  0.00     0.074 A 
ATOM     41  C   UNL A   1      38.631  29.823  27.063  1.00  0.00     0.031 C 
ATOM     42  C   UNL A   1      44.454  28.227  29.524  1.00  0.00     0.029 A 
ATOM     43  C   UNL A   1      44.406  29.528  28.859  1.00  0.00     0.049 A 
ATOM     44  H   UNL A   1      43.140  30.086  27.276  1.00  0.00     0.167 HD
ATOM     45  C   UNL A   1      37.721  29.927  29.451  1.00  0.00     0.037 A 
ATOM     46  C   UNL A   1      44.752  30.698  29.461  1.00  0.00     0.037 A 
ATOM     47  C   UNL A   1      38.052  29.540  30.789  1.00  0.00     0.049 A 
ATOM     48  C   UNL A   1      43.524  31.006  30.275  1.00  0.00     0.074 A 
ATOM     49  C   UNL A   1      37.825  28.452  31.605  1.00  0.00     0.029 A 
ATOM     50  N   UNL A   1      38.873  30.363  31.525  1.00  0.00    -0.354 N 
ATOM     51  N   UNL A   1      43.233  30.496  31.443  1.00  0.00    -0.248 NA
ATOM     52  C   UNL A   1      42.405  31.673  29.607  1.00  0.00     0.031 C 
ATOM     53  C   UNL A   1      38.876  28.475  32.576  1.00  0.00     0.029 A 
ATOM     54  C   UNL A   1      39.707  29.541  32.242  1.00  0.00     0.049 A 
ATOM     55  H   UNL A   1      38.863  31.347  31.536  1.00  0.00     0.167 HD
ATOM     56  C   UNL A   1      41.841  30.562  31.539  1.00  0.00     0.074 A 
ATOM     57  C   UNL A   1      41.400  31.337  30.400  1.00  0.00     0.031 C 
ATOM     58  C   UNL A   1      41.112  29.822  32.423  1.00  0.00     0.037 A 
BRANCH  45  59
ATOM     59  C   UNL A   1      36.488  30.691  29.211  1.00  0.00     0.064 A 
ATOM     60  C   UNL A   1      35.506  30.120  28.392  1.00  0.00     0.173 A 
ATOM     61  C   UNL A   1      36.357  32.032  29.579  1.00  0.00     0.173 A 
ATOM     62  F   UNL A   1      35.613  28.833  28.016  1.00  0.00    -0.203 F 
ATOM     63  C   UNL A   1      34.447  30.878  27.913  1.00  0.00     0.198 A 
ATOM     64  C   UNL A   1      35.289  32.790  29.103  1.00  0.00     0.198 A 
ATOM     65  F   UNL A   1      37.284  32.618  30.351  1.00  0.00    -0.203 F 
ATOM     66  F   UNL A   1      33.549  30.321  27.089  1.00  0.00    -0.200 F 
ATOM     67  C   UNL A   1      34.345  32.217  28.259  1.00  0.00     0.200 A 
ATOM     68  F   UNL A   1      35.190  34.085  29.430  1.00  0.00    -0.200 F 
ATOM     69  F   UNL A   1      33.345  32.959  27.764  1.00  0.00    -0.200 F 
ENDBRANCH  45  59
BRANCH  46  70
ATOM     70  C   UNL A   1      45.449  31.688  28.577  1.00  0.00     0.064 A 
ATOM     71  C   UNL A   1      46.721  32.153  28.975  1.00  0.00     0.173 A 
ATOM     72  C   UNL A   1      44.954  32.218  27.376  1.00  0.00     0.173 A 
ATOM     73  F   UNL A   1      47.230  31.790  30.163  1.00  0.00    -0.203 F 
ATOM     74  C   UNL A   1      47.489  32.998  28.170  1.00  0.00     0.198 A 
ATOM     75  C   UNL A   1      45.736  33.037  26.555  1.00  0.00     0.198 A 
ATOM     76  F   UNL A   1      43.708  31.958  26.961  1.00  0.00    -0.203 F 
ATOM     77  F   UNL A   1      48.702  33.393  28.582  1.00  0.00    -0.200 F 
ATOM     78  C   UNL A   1      47.007  33.414  26.945  1.00  0.00     0.200 A 
ATOM     79  F   UNL A   1      45.250  33.445  25.374  1.00  0.00    -0.200 F 
ATOM     80  F   UNL A   1      47.758  34.185  26.146  1.00  0.00    -0.200 F 
ENDBRANCH  46  70
BRANCH  58  81
ATOM     81  C   UNL A   1      41.902  29.072  33.435  1.00  0.00     0.064 A 
ATOM     82  C   UNL A   1      42.085  29.600  34.720  1.00  0.00     0.173 A 
ATOM     83  C   UNL A   1      42.460  27.816  33.152  1.00  0.00     0.173 A 
ATOM     84  F   UNL A   1      41.566  30.797  35.041  1.00  0.00    -0.203 F 
ATOM     85  C   UNL A   1      42.780  28.888  35.692  1.00  0.00     0.198 A 
ATOM     86  C   UNL A   1      43.130  27.094  34.135  1.00  0.00     0.198 A 
ATOM     87  F   UNL A   1      42.339  27.271  31.931  1.00  0.00    -0.203 F 
ATOM     88  F   UNL A   1      42.939  29.407  36.918  1.00  0.00    -0.200 F 
ATOM     89  C   UNL A   1      43.289  27.630  35.403  1.00  0.00     0.200 A 
ATOM     90  F   UNL A   1      43.605  25.872  33.859  1.00  0.00    -0.200 F 
ATOM     91  F   UNL A   1      43.924  26.927  36.351  1.00  0.00    -0.200 F 
ENDBRANCH  58  81
ENDBRANCH  32  33
ENDBRANCH  25  27
ENDBRANCH  24  25
ENDBRANCH  23  24
ENDBRANCH   1  23
TORSDOF 13
ENDMDL
MODEL 2
REMARK VINA RESULT:     -10.4      4.064      7.183
REMARK SMILES Cc1nc2n(n1)[C@@H](c1ccc([N+](=O)[O-])o1)CC(C(=O)OCCOC(=O)c1ccc(-c3c4nc(c(-c5c(F)c(F)c(F)c(F)c5F)c5ccc([nH]5)c(-c5c(F)c(F)c(F)c(F)c5F)c5nc(c(-c6c(F)c(F)c(F)c(F)c6F)c6ccc3[nH]6)C=C5)C=C4)cc1)=N2
REMARK SMILES IDX 21 1 20 2 18 3 19 4 17 5 1 6 2 7 3 8 6 9 4 10 5 11 89 12
REMARK SMILES IDX 7 13 16 14 8 15 9 16 15 17 10 18 11 19 12 20 13 21 14 22
REMARK SMILES IDX 22 23 23 24 24 25 25 26 26 27 27 28 88 29 28 30 87 31 29 32
REMARK SMILES IDX 30 33 31 34 81 35 32 36 86 37 80 38 82 39 33 40 85 41 79 42
REMARK SMILES IDX 78 43 34 45 66 46 46 47 65 48 47 49 50 50 64 51 83 52 48 53
REMARK SMILES IDX 49 54 63 56 84 57 51 58 35 59 36 60 44 61 37 62 38 63 42 64
REMARK SMILES IDX 45 65 39 66 40 67 43 68 41 69 67 70 68 71 76 72 69 73 70 74
REMARK SMILES IDX 74 75 77 76 71 77 72 78 75 79 73 80 52 81 53 82 61 83 54 84
REMARK SMILES IDX 55 85 59 86 62 87 56 88 57 89 60 90 58 91
REMARK H PARENT 82 44 50 55
REMARK Flexibility Score: inf
ROOT
ATOM      1  C   UNL A   1      38.053  23.295  26.077  1.00  0.00     0.275 C 
ENDROOT
BRANCH   1   2
ATOM      2  O   UNL A   1      36.622  23.262  25.944  1.00  0.00    -0.458 OA
BRANCH   2   3
ATOM      3  C   UNL A   1      36.129  23.556  24.724  1.00  0.00     0.353 C 
ATOM      4  O   UNL A   1      36.711  23.506  23.664  1.00  0.00    -0.245 OA
BRANCH   3   5
ATOM      5  C   UNL A   1      34.617  23.802  24.826  1.00  0.00     0.132 C 
ATOM      6  C   UNL A   1      29.429  22.882  27.227  1.00  0.00     0.092 C 
ATOM      7  C   UNL A   1      30.629  23.256  26.454  1.00  0.00     0.149 A 
ATOM      8  N   UNL A   1      31.819  22.600  26.607  1.00  0.00    -0.195 NA
ATOM      9  N   UNL A   1      30.654  24.262  25.570  1.00  0.00    -0.154 NA
ATOM     10  C   UNL A   1      32.637  23.217  25.782  1.00  0.00     0.249 A 
ATOM     11  N   UNL A   1      31.956  24.258  25.212  1.00  0.00    -0.219 N 
ATOM     12  N   UNL A   1      33.944  22.969  25.558  1.00  0.00    -0.209 NA
ATOM     13  C   UNL A   1      32.530  25.161  24.232  1.00  0.00     0.184 C 
ATOM     14  C   UNL A   1      34.056  25.016  24.127  1.00  0.00     0.100 C 
BRANCH  13  15
ATOM     15  C   UNL A   1      32.160  26.601  24.482  1.00  0.00     0.136 A 
ATOM     16  C   UNL A   1      32.504  27.564  25.418  1.00  0.00     0.056 A 
ATOM     17  O   UNL A   1      31.275  27.139  23.582  1.00  0.00    -0.404 OA
ATOM     18  C   UNL A   1      31.800  28.749  25.079  1.00  0.00     0.134 A 
ATOM     19  C   UNL A   1      31.084  28.434  23.951  1.00  0.00     0.433 A 
BRANCH  19  20
ATOM     20  N   UNL A   1      30.208  29.208  23.130  1.00  0.00     0.102 N 
ATOM     21  O   UNL A   1      29.603  30.132  23.690  1.00  0.00    -0.256 OA
ATOM     22  O   UNL A   1      30.123  28.905  21.933  1.00  0.00    -0.256 OA
ENDBRANCH  19  20
ENDBRANCH  13  15
ENDBRANCH   3   5
ENDBRANCH   2   3
ENDBRANCH   1   2
BRANCH   1  23
ATOM     23  C   UNL A   1      38.623  21.870  26.063  1.00  0.00     0.275 C 
BRANCH  23  24
ATOM     24  O   UNL A   1      40.060  21.827  25.941  1.00  0.00    -0.458 OA
BRANCH  24  25
ATOM     25  C   UNL A   1      40.718  21.908  27.119  1.00  0.00     0.338 C 
ATOM     26  O   UNL A   1      40.744  21.079  28.016  1.00  0.00    -0.246 OA
BRANCH  25  27
ATOM     27  C   UNL A   1      41.451  23.168  27.250  1.00  0.00     0.060 A 
ATOM     28  C   UNL A   1      41.225  23.943  28.386  1.00  0.00     0.016 A 
ATOM     29  C   UNL A   1      42.133  23.689  26.152  1.00  0.00     0.016 A 
ATOM     30  C   UNL A   1      41.616  25.273  28.411  1.00  0.00     0.010 A 
ATOM     31  C   UNL A   1      42.542  25.022  26.182  1.00  0.00     0.010 A 
ATOM     32  C   UNL A   1      42.260  25.823  27.301  1.00  0.00    -0.014 A 
BRANCH  32  33
ATOM     33  C   UNL A   1      42.675  27.230  27.391  1.00  0.00     0.031 A 
ATOM     34  C   UNL A   1      41.559  28.210  27.370  1.00  0.00     0.074 A 
ATOM     35  C   UNL A   1      43.837  27.605  27.966  1.00  0.00     0.049 A 
ATOM     36  N   UNL A   1      40.857  28.477  28.432  1.00  0.00    -0.248 NA
ATOM     37  C   UNL A   1      41.002  28.753  26.135  1.00  0.00     0.031 C 
ATOM     38  C   UNL A   1      44.522  26.832  29.008  1.00  0.00     0.029 A 
ATOM     39  N   UNL A   1      44.499  28.811  27.944  1.00  0.00    -0.354 N 
ATOM     40  C   UNL A   1      39.725  29.141  28.012  1.00  0.00     0.074 A 
ATOM     41  C   UNL A   1      39.872  29.322  26.583  1.00  0.00     0.031 C 
ATOM     42  C   UNL A   1      45.374  27.652  29.658  1.00  0.00     0.029 A 
ATOM     43  C   UNL A   1      45.420  28.946  28.978  1.00  0.00     0.049 A 
ATOM     44  H   UNL A   1      44.338  29.506  27.266  1.00  0.00     0.167 HD
ATOM     45  C   UNL A   1      38.719  29.472  28.861  1.00  0.00     0.037 A 
ATOM     46  C   UNL A   1      45.724  30.117  29.601  1.00  0.00     0.037 A 
ATOM     47  C   UNL A   1      38.901  29.095  30.231  1.00  0.00     0.049 A 
ATOM     48  C   UNL A   1      44.423  30.456  30.278  1.00  0.00     0.074 A 
ATOM     49  C   UNL A   1      38.569  28.021  31.029  1.00  0.00     0.029 A 
ATOM     50  N   UNL A   1      39.656  29.912  31.040  1.00  0.00    -0.354 N 
ATOM     51  N   UNL A   1      44.002  29.967  31.415  1.00  0.00    -0.248 NA
ATOM     52  C   UNL A   1      43.394  31.135  29.489  1.00  0.00     0.031 C 
ATOM     53  C   UNL A   1      39.512  28.037  32.105  1.00  0.00     0.029 A 
ATOM     54  C   UNL A   1      40.394  29.085  31.849  1.00  0.00     0.049 A 
ATOM     55  H   UNL A   1      39.663  30.896  31.040  1.00  0.00     0.167 HD
ATOM     56  C   UNL A   1      42.609  30.058  31.363  1.00  0.00     0.074 A 
ATOM     57  C   UNL A   1      42.304  30.827  30.176  1.00  0.00     0.031 C 
ATOM     58  C   UNL A   1      41.777  29.343  32.174  1.00  0.00     0.037 A 
BRANCH  45  59
ATOM     59  C   UNL A   1      37.533  30.255  28.486  1.00  0.00     0.064 A 
ATOM     60  C   UNL A   1      37.507  31.615  28.820  1.00  0.00     0.173 A 
ATOM     61  C   UNL A   1      36.361  29.657  28.018  1.00  0.00     0.173 A 
ATOM     62  F   UNL A   1      38.620  32.213  29.280  1.00  0.00    -0.203 F 
ATOM     63  C   UNL A   1      36.332  32.348  28.735  1.00  0.00     0.198 A 
ATOM     64  C   UNL A   1      35.183  30.396  27.927  1.00  0.00     0.198 A 
ATOM     65  F   UNL A   1      36.343  28.354  27.701  1.00  0.00    -0.203 F 
ATOM     66  F   UNL A   1      36.321  33.634  29.110  1.00  0.00    -0.200 F 
ATOM     67  C   UNL A   1      35.167  31.735  28.301  1.00  0.00     0.200 A 
ATOM     68  F   UNL A   1      34.054  29.807  27.514  1.00  0.00    -0.200 F 
ATOM     69  F   UNL A   1      34.023  32.432  28.258  1.00  0.00    -0.200 F 
ENDBRANCH  45  59
BRANCH  46  70
ATOM     70  C   UNL A   1      46.528  31.083  28.785  1.00  0.00     0.064 A 
ATOM     71  C   UNL A   1      47.887  31.266  29.120  1.00  0.00     0.173 A 
ATOM     72  C   UNL A   1      46.059  31.847  27.705  1.00  0.00     0.173 A 
ATOM     73  F   UNL A   1      48.400  30.664  30.206  1.00  0.00    -0.203 F 
ATOM     74  C   UNL A   1      48.741  32.067  28.359  1.00  0.00     0.198 A 
ATOM     75  C   UNL A   1      46.919  32.623  26.923  1.00  0.00     0.198 A 
ATOM     76  F   UNL A   1      44.761  31.862  27.374  1.00  0.00    -0.203 F 
ATOM     77  F   UNL A   1      50.029  32.190  28.705  1.00  0.00    -0.200 F 
ATOM     78  C   UNL A   1      48.261  32.722  27.241  1.00  0.00     0.200 A 
ATOM     79  F   UNL A   1      46.439  33.264  25.848  1.00  0.00    -0.200 F 
ATOM     80  F   UNL A   1      49.085  33.453  26.478  1.00  0.00    -0.200 F 
ENDBRANCH  46  70
BRANCH  58  81
ATOM     81  C   UNL A   1      42.443  28.591  33.271  1.00  0.00     0.064 A 
ATOM     82  C   UNL A   1      42.463  29.112  34.572  1.00  0.00     0.173 A 
ATOM     83  C   UNL A   1      43.041  27.341  33.051  1.00  0.00     0.173 A 
ATOM     84  F   UNL A   1      41.900  30.303  34.833  1.00  0.00    -0.203 F 
ATOM     85  C   UNL A   1      43.039  28.397  35.617  1.00  0.00     0.198 A 
ATOM     86  C   UNL A   1      43.591  26.617  34.104  1.00  0.00     0.198 A 
ATOM     87  F   UNL A   1      43.075  26.803  31.822  1.00  0.00    -0.203 F 
ATOM     88  F   UNL A   1      43.042  28.910  36.856  1.00  0.00    -0.200 F 
ATOM     89  C   UNL A   1      43.588  27.146  35.386  1.00  0.00     0.200 A 
ATOM     90  F   UNL A   1      44.105  25.400  33.882  1.00  0.00    -0.200 F 
ATOM     91  F   UNL A   1      44.108  26.440  36.401  1.00  0.00    -0.200 F 
ENDBRANCH  58  81
ENDBRANCH  32  33
ENDBRANCH  25  27
ENDBRANCH  24  25
ENDBRANCH  23  24
ENDBRANCH   1  23
TORSDOF 13
ENDMDL
MODEL 3
REMARK VINA RESULT:     -10.3      4.746     10.028
REMARK SMILES Cc1nc2n(n1)[C@@H](c1ccc([N+](=O)[O-])o1)CC(C(=O)OCCOC(=O)c1ccc(-c3c4nc(c(-c5c(F)c(F)c(F)c(F)c5F)c5ccc([nH]5)c(-c5c(F)c(F)c(F)c(F)c5F)c5nc(c(-c6c(F)c(F)c(F)c(F)c6F)c6ccc3[nH]6)C=C5)C=C4)cc1)=N2
REMARK SMILES IDX 21 1 20 2 18 3 19 4 17 5 1 6 2 7 3 8 6 9 4 10 5 11 89 12
REMARK SMILES IDX 7 13 16 14 8 15 9 16 15 17 10 18 11 19 12 20 13 21 14 22
REMARK SMILES IDX 22 23 23 24 24 25 25 26 26 27 27 28 88 29 28 30 87 31 29 32
REMARK SMILES IDX 30 33 31 34 81 35 32 36 86 37 80 38 82 39 33 40 85 41 79 42
REMARK SMILES IDX 78 43 34 45 66 46 46 47 65 48 47 49 50 50 64 51 83 52 48 53
REMARK SMILES IDX 49 54 63 56 84 57 51 58 35 59 36 60 44 61 37 62 38 63 42 64
REMARK SMILES IDX 45 65 39 66 40 67 43 68 41 69 67 70 68 71 76 72 69 73 70 74
REMARK SMILES IDX 74 75 77 76 71 77 72 78 75 79 73 80 52 81 53 82 61 83 54 84
REMARK SMILES IDX 55 85 59 86 62 87 56 88 57 89 60 90 58 91
REMARK H PARENT 82 44 50 55
REMARK Flexibility Score: inf
ROOT
ATOM      1  C   UNL A   1      32.773  29.880  27.242  1.00  0.00     0.275 C 
ENDROOT
BRANCH   1   2
ATOM      2  O   UNL A   1      33.050  28.601  26.647  1.00  0.00    -0.458 OA
BRANCH   2   3
ATOM      3  C   UNL A   1      32.134  27.634  26.857  1.00  0.00     0.353 C 
ATOM      4  O   UNL A   1      31.332  27.565  27.761  1.00  0.00    -0.245 OA
BRANCH   3   5
ATOM      5  C   UNL A   1      32.111  26.678  25.657  1.00  0.00     0.132 C 
ATOM      6  C   UNL A   1      32.549  25.557  19.992  1.00  0.00     0.092 C 
ATOM      7  C   UNL A   1      32.378  25.605  21.458  1.00  0.00     0.149 A 
ATOM      8  N   UNL A   1      32.295  26.790  22.135  1.00  0.00    -0.195 NA
ATOM      9  N   UNL A   1      32.309  24.514  22.229  1.00  0.00    -0.154 NA
ATOM     10  C   UNL A   1      32.167  26.434  23.395  1.00  0.00     0.249 A 
ATOM     11  N   UNL A   1      32.245  25.070  23.458  1.00  0.00    -0.219 N 
ATOM     12  N   UNL A   1      32.060  27.226  24.482  1.00  0.00    -0.209 NA
ATOM     13  C   UNL A   1      32.131  24.308  24.687  1.00  0.00     0.184 C 
ATOM     14  C   UNL A   1      32.215  25.199  25.937  1.00  0.00     0.100 C 
BRANCH  13  15
ATOM     15  C   UNL A   1      33.139  23.192  24.776  1.00  0.00     0.136 A 
ATOM     16  C   UNL A   1      34.519  23.109  24.879  1.00  0.00     0.056 A 
ATOM     17  O   UNL A   1      32.609  21.925  24.764  1.00  0.00    -0.404 OA
ATOM     18  C   UNL A   1      34.855  21.731  24.935  1.00  0.00     0.134 A 
ATOM     19  C   UNL A   1      33.657  21.065  24.876  1.00  0.00     0.433 A 
BRANCH  19  20
ATOM     20  N   UNL A   1      33.335  19.673  24.911  1.00  0.00     0.102 N 
ATOM     21  O   UNL A   1      34.256  18.889  24.644  1.00  0.00    -0.256 OA
ATOM     22  O   UNL A   1      32.176  19.356  25.208  1.00  0.00    -0.256 OA
ENDBRANCH  19  20
ENDBRANCH  13  15
ENDBRANCH   3   5
ENDBRANCH   2   3
ENDBRANCH   1   2
BRANCH   1  23
ATOM     23  C   UNL A   1      33.992  30.803  27.114  1.00  0.00     0.275 C 
BRANCH  23  24
ATOM     24  O   UNL A   1      34.233  31.604  28.290  1.00  0.00    -0.458 OA
BRANCH  24  25
ATOM     25  C   UNL A   1      35.278  32.454  28.176  1.00  0.00     0.338 C 
ATOM     26  O   UNL A   1      35.325  33.494  27.538  1.00  0.00    -0.246 OA
BRANCH  25  27
ATOM     27  C   UNL A   1      36.443  31.993  28.933  1.00  0.00     0.060 A 
ATOM     28  C   UNL A   1      37.386  31.208  28.272  1.00  0.00     0.016 A 
ATOM     29  C   UNL A   1      36.457  32.111  30.322  1.00  0.00     0.016 A 
ATOM     30  C   UNL A   1      38.311  30.472  28.997  1.00  0.00     0.010 A 
ATOM     31  C   UNL A   1      37.398  31.386  31.052  1.00  0.00     0.010 A 
ATOM     32  C   UNL A   1      38.309  30.544  30.392  1.00  0.00    -0.014 A 
BRANCH  32  33
ATOM     33  C   UNL A   1      39.328  29.765  31.109  1.00  0.00     0.031 A 
ATOM     34  C   UNL A   1      39.478  28.361  30.644  1.00  0.00     0.074 A 
ATOM     35  C   UNL A   1      40.380  30.344  31.724  1.00  0.00     0.049 A 
ATOM     36  N   UNL A   1      40.166  28.057  29.584  1.00  0.00    -0.248 NA
ATOM     37  C   UNL A   1      38.677  27.261  31.173  1.00  0.00     0.031 C 
ATOM     38  C   UNL A   1      40.951  31.636  31.328  1.00  0.00     0.029 A 
ATOM     39  N   UNL A   1      41.288  29.828  32.620  1.00  0.00    -0.354 N 
ATOM     40  C   UNL A   1      39.833  26.763  29.244  1.00  0.00     0.074 A 
ATOM     41  C   UNL A   1      38.933  26.295  30.276  1.00  0.00     0.031 C 
ATOM     42  C   UNL A   1      42.203  31.719  31.824  1.00  0.00     0.029 A 
ATOM     43  C   UNL A   1      42.457  30.579  32.703  1.00  0.00     0.049 A 
ATOM     44  H   UNL A   1      41.127  29.013  33.148  1.00  0.00     0.167 HD
ATOM     45  C   UNL A   1      40.294  26.167  28.115  1.00  0.00     0.037 A 
ATOM     46  C   UNL A   1      43.695  30.066  32.938  1.00  0.00     0.037 A 
ATOM     47  C   UNL A   1      41.156  26.959  27.291  1.00  0.00     0.049 A 
ATOM     48  C   UNL A   1      43.929  29.238  31.703  1.00  0.00     0.074 A 
ATOM     49  C   UNL A   1      41.014  27.800  26.207  1.00  0.00     0.029 A 
ATOM     50  N   UNL A   1      42.489  27.034  27.619  1.00  0.00    -0.354 N 
ATOM     51  N   UNL A   1      44.340  29.687  30.546  1.00  0.00    -0.248 NA
ATOM     52  C   UNL A   1      43.369  27.886  31.666  1.00  0.00     0.031 C 
ATOM     53  C   UNL A   1      42.154  28.665  26.242  1.00  0.00     0.029 A 
ATOM     54  C   UNL A   1      42.876  28.331  27.384  1.00  0.00     0.049 A 
ATOM     55  H   UNL A   1      43.055  26.302  27.955  1.00  0.00     0.167 HD
ATOM     56  C   UNL A   1      43.860  28.776  29.604  1.00  0.00     0.074 A 
ATOM     57  C   UNL A   1      43.314  27.671  30.360  1.00  0.00     0.031 C 
ATOM     58  C   UNL A   1      43.755  29.055  28.272  1.00  0.00     0.037 A 
BRANCH  45  59
ATOM     59  C   UNL A   1      40.044  24.766  27.750  1.00  0.00     0.064 A 
ATOM     60  C   UNL A   1      41.030  23.817  28.053  1.00  0.00     0.173 A 
ATOM     61  C   UNL A   1      38.981  24.386  26.927  1.00  0.00     0.173 A 
ATOM     62  F   UNL A   1      42.069  24.159  28.835  1.00  0.00    -0.203 F 
ATOM     63  C   UNL A   1      40.982  22.540  27.512  1.00  0.00     0.198 A 
ATOM     64  C   UNL A   1      38.930  23.101  26.391  1.00  0.00     0.198 A 
ATOM     65  F   UNL A   1      38.024  25.270  26.604  1.00  0.00    -0.203 F 
ATOM     66  F   UNL A   1      41.965  21.669  27.776  1.00  0.00    -0.200 F 
ATOM     67  C   UNL A   1      39.939  22.186  26.671  1.00  0.00     0.200 A 
ATOM     68  F   UNL A   1      37.927  22.757  25.573  1.00  0.00    -0.200 F 
ATOM     69  F   UNL A   1      39.914  20.967  26.116  1.00  0.00    -0.200 F 
ENDBRANCH  45  59
BRANCH  46  70
ATOM     70  C   UNL A   1      43.930  29.582  34.336  1.00  0.00     0.064 A 
ATOM     71  C   UNL A   1      44.986  30.161  35.072  1.00  0.00     0.173 A 
ATOM     72  C   UNL A   1      43.199  28.584  35.001  1.00  0.00     0.173 A 
ATOM     73  F   UNL A   1      45.810  31.044  34.485  1.00  0.00    -0.203 F 
ATOM     74  C   UNL A   1      45.219  29.848  36.413  1.00  0.00     0.198 A 
ATOM     75  C   UNL A   1      43.412  28.293  36.352  1.00  0.00     0.198 A 
ATOM     76  F   UNL A   1      42.262  27.868  34.368  1.00  0.00    -0.203 F 
ATOM     77  F   UNL A   1      46.220  30.444  37.075  1.00  0.00    -0.200 F 
ATOM     78  C   UNL A   1      44.410  28.935  37.061  1.00  0.00     0.200 A 
ATOM     79  F   UNL A   1      42.628  27.396  36.966  1.00  0.00    -0.200 F 
ATOM     80  F   UNL A   1      44.597  28.664  38.360  1.00  0.00    -0.200 F 
ENDBRANCH  46  70
BRANCH  58  81
ATOM     81  C   UNL A   1      44.372  30.336  27.836  1.00  0.00     0.064 A 
ATOM     82  C   UNL A   1      45.649  30.343  27.259  1.00  0.00     0.173 A 
ATOM     83  C   UNL A   1      43.697  31.559  27.959  1.00  0.00     0.173 A 
ATOM     84  F   UNL A   1      46.334  29.196  27.115  1.00  0.00    -0.203 F 
ATOM     85  C   UNL A   1      46.219  31.526  26.802  1.00  0.00     0.198 A 
ATOM     86  C   UNL A   1      44.258  32.737  27.475  1.00  0.00     0.198 A 
ATOM     87  F   UNL A   1      42.481  31.619  28.526  1.00  0.00    -0.203 F 
ATOM     88  F   UNL A   1      47.439  31.511  26.247  1.00  0.00    -0.200 F 
ATOM     89  C   UNL A   1      45.517  32.719  26.897  1.00  0.00     0.200 A 
ATOM     90  F   UNL A   1      43.571  33.885  27.551  1.00  0.00    -0.200 F 
ATOM     91  F   UNL A   1      46.050  33.853  26.419  1.00  0.00    -0.200 F 
ENDBRANCH  58  81
ENDBRANCH  32  33
ENDBRANCH  25  27
ENDBRANCH  24  25
ENDBRANCH  23  24
ENDBRANCH   1  23
TORSDOF 13
ENDMDL
