MODEL 1
REMARK VINA RESULT:     -10.6      0.000      0.000
REMARK SMILES C[C@@H](c1ccccc1)[C@@H]1[NH2+][C@@H](C(=O)OCCOC(=O)c2ccc(-c3c4nc(c(-c5c(F)c(F)c(F)c(F)c5F)c5ccc([nH]5)c(-c5c(F)c(F)c(F)c(F)c5F)c5nc(c(-c6c(F)c(F)c(F)c(F)c6F)c6ccc3[nH]6)C=C5)C=C4)cc2)CS1
REMARK SMILES IDX 15 1 14 2 12 3 13 4 11 5 9 6 10 7 84 8 83 11 2 12 1 13 3 14
REMARK SMILES IDX 4 15 8 16 5 17 7 18 6 19 16 20 17 21 18 22 19 23 20 24 21 25
REMARK SMILES IDX 82 26 22 27 81 28 23 29 24 30 25 31 75 32 26 33 80 34 74 35
REMARK SMILES IDX 76 36 27 37 79 38 73 39 72 40 28 42 60 43 40 44 59 45 41 46
REMARK SMILES IDX 44 47 58 48 77 49 42 50 43 51 57 53 78 54 45 55 29 56 30 57
REMARK SMILES IDX 38 58 31 59 32 60 36 61 39 62 33 63 34 64 37 65 35 66 61 67
REMARK SMILES IDX 62 68 70 69 63 70 64 71 68 72 71 73 65 74 66 75 69 76 67 77
REMARK SMILES IDX 46 78 47 79 55 80 48 81 49 82 53 83 56 84 50 85 51 86 54 87
REMARK SMILES IDX 52 88
REMARK H PARENT 10 9 10 10 76 41 44 52
REMARK Flexibility Score: inf
ROOT
ATOM      1  C   UNL A   1      42.014  18.847  25.981  1.00  0.00     0.274 C 
ENDROOT
BRANCH   1   2
ATOM      2  O   UNL A   1      42.749  19.615  25.003  1.00  0.00    -0.458 OA
BRANCH   2   3
ATOM      3  C   UNL A   1      44.088  19.362  24.914  1.00  0.00     0.365 C 
ATOM      4  O   UNL A   1      44.579  18.420  24.300  1.00  0.00    -0.245 OA
BRANCH   3   5
ATOM      5  C   UNL A   1      44.947  20.416  25.633  1.00  0.00     0.304 C 
ATOM      6  C   UNL A   1      44.771  22.793  26.055  1.00  0.00     0.249 C 
ATOM      7  N   UNL A   1      44.128  21.488  26.280  1.00  0.00    -0.322 N 
ATOM      8  S   UNL A   1      45.395  22.681  24.358  1.00  0.00    -0.092 SA
ATOM      9  H   UNL A   1      43.192  21.495  25.872  1.00  0.00     0.348 HD
ATOM     10  H   UNL A   1      44.058  21.309  27.281  1.00  0.00     0.348 HD
ATOM     11  C   UNL A   1      45.950  20.984  24.628  1.00  0.00     0.153 C 
BRANCH   6  12
ATOM     12  C   UNL A   1      45.804  23.251  27.159  1.00  0.00     0.085 C 
ATOM     13  C   UNL A   1      46.835  24.239  26.584  1.00  0.00     0.020 C 
BRANCH  12  14
ATOM     14  C   UNL A   1      45.235  23.698  28.507  1.00  0.00    -0.038 A 
ATOM     15  C   UNL A   1      44.292  22.953  29.229  1.00  0.00     0.004 A 
ATOM     16  C   UNL A   1      45.727  24.884  29.088  1.00  0.00     0.004 A 
ATOM     17  C   UNL A   1      43.898  23.353  30.511  1.00  0.00     0.000 A 
ATOM     18  C   UNL A   1      45.342  25.277  30.370  1.00  0.00     0.000 A 
ATOM     19  C   UNL A   1      44.433  24.505  31.086  1.00  0.00     0.000 A 
ENDBRANCH  12  14
ENDBRANCH   6  12
ENDBRANCH   3   5
ENDBRANCH   2   3
ENDBRANCH   1   2
BRANCH   1  20
ATOM     20  C   UNL A   1      40.601  19.403  26.123  1.00  0.00     0.275 C 
BRANCH  20  21
ATOM     21  O   UNL A   1      40.682  20.746  26.632  1.00  0.00    -0.458 OA
BRANCH  21  22
ATOM     22  C   UNL A   1      39.613  21.539  26.385  1.00  0.00     0.338 C 
ATOM     23  O   UNL A   1      38.562  21.213  25.862  1.00  0.00    -0.246 OA
BRANCH  22  24
ATOM     24  C   UNL A   1      39.881  22.909  26.879  1.00  0.00     0.060 A 
ATOM     25  C   UNL A   1      39.296  24.011  26.260  1.00  0.00     0.016 A 
ATOM     26  C   UNL A   1      40.819  23.111  27.890  1.00  0.00     0.016 A 
ATOM     27  C   UNL A   1      39.745  25.302  26.545  1.00  0.00     0.010 A 
ATOM     28  C   UNL A   1      41.172  24.414  28.265  1.00  0.00     0.010 A 
ATOM     29  C   UNL A   1      40.681  25.531  27.562  1.00  0.00    -0.014 A 
BRANCH  29  30
ATOM     30  C   UNL A   1      41.196  26.904  27.863  1.00  0.00     0.031 A 
ATOM     31  C   UNL A   1      42.628  27.260  27.537  1.00  0.00     0.074 A 
ATOM     32  C   UNL A   1      40.420  27.851  28.429  1.00  0.00     0.049 A 
ATOM     33  N   UNL A   1      43.363  28.249  27.985  1.00  0.00    -0.248 NA
ATOM     34  C   UNL A   1      43.333  26.368  26.605  1.00  0.00     0.031 C 
ATOM     35  C   UNL A   1      39.001  27.713  28.753  1.00  0.00     0.029 A 
ATOM     36  N   UNL A   1      40.724  29.132  28.832  1.00  0.00    -0.354 N 
ATOM     37  C   UNL A   1      44.637  28.037  27.473  1.00  0.00     0.074 A 
ATOM     38  C   UNL A   1      44.570  26.841  26.659  1.00  0.00     0.031 C 
ATOM     39  C   UNL A   1      38.547  28.871  29.253  1.00  0.00     0.029 A 
ATOM     40  C   UNL A   1      39.663  29.799  29.393  1.00  0.00     0.049 A 
ATOM     41  H   UNL A   1      41.618  29.531  28.727  1.00  0.00     0.167 HD
ATOM     42  C   UNL A   1      45.762  28.765  27.677  1.00  0.00     0.037 A 
ATOM     43  C   UNL A   1      39.597  30.998  30.003  1.00  0.00     0.037 A 
ATOM     44  C   UNL A   1      45.807  30.014  28.393  1.00  0.00     0.049 A 
ATOM     45  C   UNL A   1      40.846  31.807  30.198  1.00  0.00     0.074 A 
ATOM     46  C   UNL A   1      46.898  30.836  28.631  1.00  0.00     0.029 A 
ATOM     47  N   UNL A   1      44.706  30.643  28.952  1.00  0.00    -0.354 N 
ATOM     48  N   UNL A   1      42.071  31.536  29.826  1.00  0.00    -0.248 NA
ATOM     49  C   UNL A   1      40.706  33.074  30.932  1.00  0.00     0.031 C 
ATOM     50  C   UNL A   1      46.456  31.954  29.349  1.00  0.00     0.029 A 
ATOM     51  C   UNL A   1      45.089  31.842  29.531  1.00  0.00     0.049 A 
ATOM     52  H   UNL A   1      43.787  30.289  28.940  1.00  0.00     0.167 HD
ATOM     53  C   UNL A   1      42.850  32.589  30.284  1.00  0.00     0.074 A 
ATOM     54  C   UNL A   1      41.956  33.520  30.939  1.00  0.00     0.031 C 
ATOM     55  C   UNL A   1      44.191  32.759  30.182  1.00  0.00     0.037 A 
BRANCH  42  56
ATOM     56  C   UNL A   1      47.054  28.209  27.155  1.00  0.00     0.064 A 
ATOM     57  C   UNL A   1      47.972  27.547  27.981  1.00  0.00     0.173 A 
ATOM     58  C   UNL A   1      47.356  28.313  25.788  1.00  0.00     0.173 A 
ATOM     59  F   UNL A   1      47.737  27.432  29.296  1.00  0.00    -0.203 F 
ATOM     60  C   UNL A   1      49.158  27.031  27.462  1.00  0.00     0.198 A 
ATOM     61  C   UNL A   1      48.529  27.774  25.268  1.00  0.00     0.198 A 
ATOM     62  F   UNL A   1      46.506  28.930  24.953  1.00  0.00    -0.203 F 
ATOM     63  F   UNL A   1      50.043  26.440  28.276  1.00  0.00    -0.200 F 
ATOM     64  C   UNL A   1      49.433  27.140  26.106  1.00  0.00     0.200 A 
ATOM     65  F   UNL A   1      48.785  27.869  23.955  1.00  0.00    -0.200 F 
ATOM     66  F   UNL A   1      50.571  26.637  25.608  1.00  0.00    -0.200 F 
ENDBRANCH  42  56
BRANCH  43  67
ATOM     67  C   UNL A   1      38.291  31.476  30.529  1.00  0.00     0.064 A 
ATOM     68  C   UNL A   1      37.337  32.040  29.673  1.00  0.00     0.173 A 
ATOM     69  C   UNL A   1      37.961  31.346  31.886  1.00  0.00     0.173 A 
ATOM     70  F   UNL A   1      37.621  32.211  28.374  1.00  0.00    -0.203 F 
ATOM     71  C   UNL A   1      36.096  32.450  30.155  1.00  0.00     0.198 A 
ATOM     72  C   UNL A   1      36.710  31.731  32.361  1.00  0.00     0.198 A 
ATOM     73  F   UNL A   1      38.844  30.815  32.745  1.00  0.00    -0.203 F 
ATOM     74  F   UNL A   1      35.208  33.009  29.321  1.00  0.00    -0.200 F 
ATOM     75  C   UNL A   1      35.779  32.284  31.496  1.00  0.00     0.200 A 
ATOM     76  F   UNL A   1      36.402  31.555  33.653  1.00  0.00    -0.200 F 
ATOM     77  F   UNL A   1      34.577  32.660  31.953  1.00  0.00    -0.200 F 
ENDBRANCH  43  67
BRANCH  55  78
ATOM     78  C   UNL A   1      44.770  34.004  30.783  1.00  0.00     0.064 A 
ATOM     79  C   UNL A   1      45.135  34.058  32.135  1.00  0.00     0.173 A 
ATOM     80  C   UNL A   1      44.988  35.141  29.992  1.00  0.00     0.173 A 
ATOM     81  F   UNL A   1      44.928  33.000  32.934  1.00  0.00    -0.203 F 
ATOM     82  C   UNL A   1      45.684  35.216  32.680  1.00  0.00     0.198 A 
ATOM     83  C   UNL A   1      45.555  36.290  30.536  1.00  0.00     0.198 A 
ATOM     84  F   UNL A   1      44.657  35.135  28.693  1.00  0.00    -0.203 F 
ATOM     85  F   UNL A   1      45.994  35.260  33.983  1.00  0.00    -0.200 F 
ATOM     86  C   UNL A   1      45.898  36.329  31.879  1.00  0.00     0.200 A 
ATOM     87  F   UNL A   1      45.766  37.363  29.761  1.00  0.00    -0.200 F 
ATOM     88  F   UNL A   1      46.427  37.442  32.405  1.00  0.00    -0.200 F 
ENDBRANCH  55  78
ENDBRANCH  29  30
ENDBRANCH  22  24
ENDBRANCH  21  22
ENDBRANCH  20  21
ENDBRANCH   1  20
TORSDOF 13
ENDMDL
MODEL 2
REMARK VINA RESULT:     -10.5      5.163      8.479
REMARK SMILES C[C@@H](c1ccccc1)[C@@H]1[NH2+][C@@H](C(=O)OCCOC(=O)c2ccc(-c3c4nc(c(-c5c(F)c(F)c(F)c(F)c5F)c5ccc([nH]5)c(-c5c(F)c(F)c(F)c(F)c5F)c5nc(c(-c6c(F)c(F)c(F)c(F)c6F)c6ccc3[nH]6)C=C5)C=C4)cc2)CS1
REMARK SMILES IDX 15 1 14 2 12 3 13 4 11 5 9 6 10 7 84 8 83 11 2 12 1 13 3 14
REMARK SMILES IDX 4 15 8 16 5 17 7 18 6 19 16 20 17 21 18 22 19 23 20 24 21 25
REMARK SMILES IDX 82 26 22 27 81 28 23 29 24 30 25 31 75 32 26 33 80 34 74 35
REMARK SMILES IDX 76 36 27 37 79 38 73 39 72 40 28 42 60 43 40 44 59 45 41 46
REMARK SMILES IDX 44 47 58 48 77 49 42 50 43 51 57 53 78 54 45 55 29 56 30 57
REMARK SMILES IDX 38 58 31 59 32 60 36 61 39 62 33 63 34 64 37 65 35 66 61 67
REMARK SMILES IDX 62 68 70 69 63 70 64 71 68 72 71 73 65 74 66 75 69 76 67 77
REMARK SMILES IDX 46 78 47 79 55 80 48 81 49 82 53 83 56 84 50 85 51 86 54 87
REMARK SMILES IDX 52 88
REMARK H PARENT 10 9 10 10 76 41 44 52
REMARK Flexibility Score: inf
ROOT
ATOM      1  C   UNL A   1      31.706  28.623  27.213  1.00  0.00     0.274 C 
ENDROOT
BRANCH   1   2
ATOM      2  O   UNL A   1      32.264  27.573  26.392  1.00  0.00    -0.458 OA
BRANCH   2   3
ATOM      3  C   UNL A   1      31.544  26.416  26.314  1.00  0.00     0.365 C 
ATOM      4  O   UNL A   1      30.386  26.291  26.698  1.00  0.00    -0.245 OA
BRANCH   3   5
ATOM      5  C   UNL A   1      32.320  25.270  25.644  1.00  0.00     0.304 C 
ATOM      6  C   UNL A   1      34.516  25.014  24.658  1.00  0.00     0.249 C 
ATOM      7  N   UNL A   1      33.793  25.341  25.898  1.00  0.00    -0.322 N 
ATOM      8  S   UNL A   1      33.527  25.804  23.361  1.00  0.00    -0.092 SA
ATOM      9  H   UNL A   1      34.042  26.283  26.200  1.00  0.00     0.348 HD
ATOM     10  H   UNL A   1      34.047  24.675  26.627  1.00  0.00     0.348 HD
ATOM     11  C   UNL A   1      31.991  25.278  24.150  1.00  0.00     0.153 C 
BRANCH   6  12
ATOM     12  C   UNL A   1      34.870  23.489  24.447  1.00  0.00     0.085 C 
ATOM     13  C   UNL A   1      34.529  23.029  23.019  1.00  0.00     0.020 C 
BRANCH  12  14
ATOM     14  C   UNL A   1      36.249  23.020  24.913  1.00  0.00    -0.038 A 
ATOM     15  C   UNL A   1      37.108  23.810  25.691  1.00  0.00     0.004 A 
ATOM     16  C   UNL A   1      36.655  21.707  24.605  1.00  0.00     0.004 A 
ATOM     17  C   UNL A   1      38.305  23.283  26.187  1.00  0.00     0.000 A 
ATOM     18  C   UNL A   1      37.844  21.179  25.109  1.00  0.00     0.000 A 
ATOM     19  C   UNL A   1      38.666  21.966  25.909  1.00  0.00     0.000 A 
ENDBRANCH  12  14
ENDBRANCH   6  12
ENDBRANCH   3   5
ENDBRANCH   2   3
ENDBRANCH   1   2
BRANCH   1  20
ATOM     20  C   UNL A   1      31.632  29.922  26.417  1.00  0.00     0.275 C 
BRANCH  20  21
ATOM     21  O   UNL A   1      32.968  30.417  26.218  1.00  0.00    -0.458 OA
BRANCH  21  22
ATOM     22  C   UNL A   1      33.367  31.401  27.059  1.00  0.00     0.338 C 
ATOM     23  O   UNL A   1      32.731  32.388  27.387  1.00  0.00    -0.246 OA
BRANCH  22  24
ATOM     24  C   UNL A   1      34.720  31.099  27.578  1.00  0.00     0.060 A 
ATOM     25  C   UNL A   1      35.108  29.784  27.819  1.00  0.00     0.016 A 
ATOM     26  C   UNL A   1      35.571  32.142  27.944  1.00  0.00     0.016 A 
ATOM     27  C   UNL A   1      36.268  29.511  28.548  1.00  0.00     0.010 A 
ATOM     28  C   UNL A   1      36.797  31.857  28.559  1.00  0.00     0.010 A 
ATOM     29  C   UNL A   1      37.142  30.541  28.920  1.00  0.00    -0.014 A 
BRANCH  29  30
ATOM     30  C   UNL A   1      38.375  30.272  29.726  1.00  0.00     0.031 A 
ATOM     31  C   UNL A   1      39.484  29.425  29.148  1.00  0.00     0.074 A 
ATOM     32  C   UNL A   1      38.535  30.762  30.973  1.00  0.00     0.049 A 
ATOM     33  N   UNL A   1      40.470  28.813  29.759  1.00  0.00    -0.248 NA
ATOM     34  C   UNL A   1      39.464  29.217  27.692  1.00  0.00     0.031 C 
ATOM     35  C   UNL A   1      37.605  31.649  31.670  1.00  0.00     0.029 A 
ATOM     36  N   UNL A   1      39.553  30.578  31.881  1.00  0.00    -0.354 N 
ATOM     37  C   UNL A   1      41.119  28.069  28.780  1.00  0.00     0.074 A 
ATOM     38  C   UNL A   1      40.432  28.327  27.532  1.00  0.00     0.031 C 
ATOM     39  C   UNL A   1      38.115  31.974  32.866  1.00  0.00     0.029 A 
ATOM     40  C   UNL A   1      39.353  31.230  33.073  1.00  0.00     0.049 A 
ATOM     41  H   UNL A   1      40.350  30.031  31.693  1.00  0.00     0.167 HD
ATOM     42  C   UNL A   1      42.179  27.237  28.917  1.00  0.00     0.037 A 
ATOM     43  C   UNL A   1      40.048  31.196  34.226  1.00  0.00     0.037 A 
ATOM     44  C   UNL A   1      42.932  27.066  30.133  1.00  0.00     0.049 A 
ATOM     45  C   UNL A   1      41.238  30.290  34.354  1.00  0.00     0.074 A 
ATOM     46  C   UNL A   1      44.037  26.261  30.360  1.00  0.00     0.029 A 
ATOM     47  N   UNL A   1      42.681  27.741  31.317  1.00  0.00    -0.354 N 
ATOM     48  N   UNL A   1      41.765  29.489  33.463  1.00  0.00    -0.248 NA
ATOM     49  C   UNL A   1      41.906  30.257  35.664  1.00  0.00     0.031 C 
ATOM     50  C   UNL A   1      44.444  26.439  31.688  1.00  0.00     0.029 A 
ATOM     51  C   UNL A   1      43.611  27.375  32.277  1.00  0.00     0.049 A 
ATOM     52  H   UNL A   1      41.949  28.385  31.455  1.00  0.00     0.167 HD
ATOM     53  C   UNL A   1      42.820  28.852  34.101  1.00  0.00     0.074 A 
ATOM     54  C   UNL A   1      42.876  29.378  35.449  1.00  0.00     0.031 C 
ATOM     55  C   UNL A   1      43.656  27.902  33.615  1.00  0.00     0.037 A 
BRANCH  42  56
ATOM     56  C   UNL A   1      42.568  26.406  27.729  1.00  0.00     0.064 A 
ATOM     57  C   UNL A   1      43.585  26.792  26.846  1.00  0.00     0.173 A 
ATOM     58  C   UNL A   1      41.928  25.178  27.498  1.00  0.00     0.173 A 
ATOM     59  F   UNL A   1      44.219  27.962  27.015  1.00  0.00    -0.203 F 
ATOM     60  C   UNL A   1      43.929  25.991  25.759  1.00  0.00     0.198 A 
ATOM     61  C   UNL A   1      42.292  24.368  26.427  1.00  0.00     0.198 A 
ATOM     62  F   UNL A   1      40.954  24.759  28.320  1.00  0.00    -0.203 F 
ATOM     63  F   UNL A   1      44.875  26.399  24.901  1.00  0.00    -0.200 F 
ATOM     64  C   UNL A   1      43.287  24.778  25.554  1.00  0.00     0.200 A 
ATOM     65  F   UNL A   1      41.679  23.191  26.239  1.00  0.00    -0.200 F 
ATOM     66  F   UNL A   1      43.625  24.006  24.511  1.00  0.00    -0.200 F 
ENDBRANCH  42  56
BRANCH  43  67
ATOM     67  C   UNL A   1      39.589  32.016  35.377  1.00  0.00     0.064 A 
ATOM     68  C   UNL A   1      38.656  31.510  36.292  1.00  0.00     0.173 A 
ATOM     69  C   UNL A   1      40.097  33.304  35.603  1.00  0.00     0.173 A 
ATOM     70  F   UNL A   1      38.121  30.296  36.099  1.00  0.00    -0.203 F 
ATOM     71  C   UNL A   1      38.256  32.260  37.396  1.00  0.00     0.198 A 
ATOM     72  C   UNL A   1      39.716  34.041  36.721  1.00  0.00     0.198 A 
ATOM     73  F   UNL A   1      40.989  33.833  34.753  1.00  0.00    -0.203 F 
ATOM     74  F   UNL A   1      37.344  31.763  38.244  1.00  0.00    -0.200 F 
ATOM     75  C   UNL A   1      38.795  33.519  37.616  1.00  0.00     0.200 A 
ATOM     76  F   UNL A   1      40.250  35.250  36.939  1.00  0.00    -0.200 F 
ATOM     77  F   UNL A   1      38.423  34.230  38.689  1.00  0.00    -0.200 F 
ENDBRANCH  43  67
BRANCH  55  78
ATOM     78  C   UNL A   1      44.712  27.382  34.542  1.00  0.00     0.064 A 
ATOM     79  C   UNL A   1      44.492  26.243  35.329  1.00  0.00     0.173 A 
ATOM     80  C   UNL A   1      45.964  28.009  34.621  1.00  0.00     0.173 A 
ATOM     81  F   UNL A   1      43.304  25.621  35.300  1.00  0.00    -0.203 F 
ATOM     82  C   UNL A   1      45.484  25.760  36.177  1.00  0.00     0.198 A 
ATOM     83  C   UNL A   1      46.960  27.512  35.456  1.00  0.00     0.198 A 
ATOM     84  F   UNL A   1      46.220  29.100  33.884  1.00  0.00    -0.203 F 
ATOM     85  F   UNL A   1      45.242  24.690  36.949  1.00  0.00    -0.200 F 
ATOM     86  C   UNL A   1      46.719  26.391  36.237  1.00  0.00     0.200 A 
ATOM     87  F   UNL A   1      48.153  28.119  35.509  1.00  0.00    -0.200 F 
ATOM     88  F   UNL A   1      47.673  25.924  37.053  1.00  0.00    -0.200 F 
ENDBRANCH  55  78
ENDBRANCH  29  30
ENDBRANCH  22  24
ENDBRANCH  21  22
ENDBRANCH  20  21
ENDBRANCH   1  20
TORSDOF 13
ENDMDL
MODEL 3
REMARK VINA RESULT:     -10.5      4.774     11.029
REMARK SMILES C[C@@H](c1ccccc1)[C@@H]1[NH2+][C@@H](C(=O)OCCOC(=O)c2ccc(-c3c4nc(c(-c5c(F)c(F)c(F)c(F)c5F)c5ccc([nH]5)c(-c5c(F)c(F)c(F)c(F)c5F)c5nc(c(-c6c(F)c(F)c(F)c(F)c6F)c6ccc3[nH]6)C=C5)C=C4)cc2)CS1
REMARK SMILES IDX 15 1 14 2 12 3 13 4 11 5 9 6 10 7 84 8 83 11 2 12 1 13 3 14
REMARK SMILES IDX 4 15 8 16 5 17 7 18 6 19 16 20 17 21 18 22 19 23 20 24 21 25
REMARK SMILES IDX 82 26 22 27 81 28 23 29 24 30 25 31 75 32 26 33 80 34 74 35
REMARK SMILES IDX 76 36 27 37 79 38 73 39 72 40 28 42 60 43 40 44 59 45 41 46
REMARK SMILES IDX 44 47 58 48 77 49 42 50 43 51 57 53 78 54 45 55 29 56 30 57
REMARK SMILES IDX 38 58 31 59 32 60 36 61 39 62 33 63 34 64 37 65 35 66 61 67
REMARK SMILES IDX 62 68 70 69 63 70 64 71 68 72 71 73 65 74 66 75 69 76 67 77
REMARK SMILES IDX 46 78 47 79 55 80 48 81 49 82 53 83 56 84 50 85 51 86 54 87
REMARK SMILES IDX 52 88
REMARK H PARENT 10 9 10 10 76 41 44 52
REMARK Flexibility Score: inf
ROOT
ATOM      1  C   UNL A   1      33.830  34.426  28.655  1.00  0.00     0.274 C 
ENDROOT
BRANCH   1   2
ATOM      2  O   UNL A   1      32.729  34.831  29.499  1.00  0.00    -0.458 OA
BRANCH   2   3
ATOM      3  C   UNL A   1      33.052  35.263  30.753  1.00  0.00     0.365 C 
ATOM      4  O   UNL A   1      32.353  36.004  31.435  1.00  0.00    -0.245 OA
BRANCH   3   5
ATOM      5  C   UNL A   1      34.383  34.685  31.262  1.00  0.00     0.304 C 
ATOM      6  C   UNL A   1      35.032  33.032  32.907  1.00  0.00     0.249 C 
ATOM      7  N   UNL A   1      34.275  33.247  31.663  1.00  0.00    -0.322 N 
ATOM      8  S   UNL A   1      34.708  34.529  33.875  1.00  0.00    -0.092 SA
ATOM      9  H   UNL A   1      33.295  33.009  31.815  1.00  0.00     0.348 HD
ATOM     10  H   UNL A   1      34.656  32.656  30.925  1.00  0.00     0.348 HD
ATOM     11  C   UNL A   1      34.881  35.567  32.408  1.00  0.00     0.153 C 
BRANCH   6  12
ATOM     12  C   UNL A   1      36.546  32.618  32.730  1.00  0.00     0.085 C 
ATOM     13  C   UNL A   1      36.713  31.089  32.743  1.00  0.00     0.020 C 
BRANCH  12  14
ATOM     14  C   UNL A   1      37.329  33.295  31.603  1.00  0.00    -0.038 A 
ATOM     15  C   UNL A   1      38.250  34.330  31.820  1.00  0.00     0.004 A 
ATOM     16  C   UNL A   1      37.170  32.816  30.288  1.00  0.00     0.004 A 
ATOM     17  C   UNL A   1      39.023  34.828  30.765  1.00  0.00     0.000 A 
ATOM     18  C   UNL A   1      37.949  33.306  29.239  1.00  0.00     0.000 A 
ATOM     19  C   UNL A   1      38.883  34.307  29.480  1.00  0.00     0.000 A 
ENDBRANCH  12  14
ENDBRANCH   6  12
ENDBRANCH   3   5
ENDBRANCH   2   3
ENDBRANCH   1   2
BRANCH   1  20
ATOM     20  C   UNL A   1      33.546  33.055  28.051  1.00  0.00     0.275 C 
BRANCH  20  21
ATOM     21  O   UNL A   1      34.518  32.120  28.551  1.00  0.00    -0.458 OA
BRANCH  21  22
ATOM     22  C   UNL A   1      34.503  30.890  27.985  1.00  0.00     0.338 C 
ATOM     23  O   UNL A   1      33.603  30.394  27.330  1.00  0.00    -0.246 OA
BRANCH  22  24
ATOM     24  C   UNL A   1      35.788  30.202  28.246  1.00  0.00     0.060 A 
ATOM     25  C   UNL A   1      35.995  29.522  29.443  1.00  0.00     0.016 A 
ATOM     26  C   UNL A   1      36.843  30.338  27.344  1.00  0.00     0.016 A 
ATOM     27  C   UNL A   1      37.278  29.104  29.805  1.00  0.00     0.010 A 
ATOM     28  C   UNL A   1      38.099  29.801  27.655  1.00  0.00     0.010 A 
ATOM     29  C   UNL A   1      38.352  29.222  28.914  1.00  0.00    -0.014 A 
BRANCH  29  30
ATOM     30  C   UNL A   1      39.740  28.806  29.294  1.00  0.00     0.031 A 
ATOM     31  C   UNL A   1      40.562  29.678  30.213  1.00  0.00     0.074 A 
ATOM     32  C   UNL A   1      40.295  27.666  28.834  1.00  0.00     0.049 A 
ATOM     33  N   UNL A   1      41.858  29.685  30.417  1.00  0.00    -0.248 NA
ATOM     34  C   UNL A   1      39.833  30.696  30.983  1.00  0.00     0.031 C 
ATOM     35  C   UNL A   1      39.634  26.670  27.994  1.00  0.00     0.029 A 
ATOM     36  N   UNL A   1      41.559  27.152  29.019  1.00  0.00    -0.354 N 
ATOM     37  C   UNL A   1      42.105  30.767  31.253  1.00  0.00     0.074 A 
ATOM     38  C   UNL A   1      40.824  31.377  31.540  1.00  0.00     0.031 C 
ATOM     39  C   UNL A   1      40.472  25.646  27.779  1.00  0.00     0.029 A 
ATOM     40  C   UNL A   1      41.768  25.961  28.369  1.00  0.00     0.049 A 
ATOM     41  H   UNL A   1      42.247  27.596  29.565  1.00  0.00     0.167 HD
ATOM     42  C   UNL A   1      43.294  31.216  31.723  1.00  0.00     0.037 A 
ATOM     43  C   UNL A   1      42.886  25.225  28.210  1.00  0.00     0.037 A 
ATOM     44  C   UNL A   1      44.554  30.547  31.531  1.00  0.00     0.049 A 
ATOM     45  C   UNL A   1      44.191  25.721  28.761  1.00  0.00     0.074 A 
ATOM     46  C   UNL A   1      45.808  30.915  31.990  1.00  0.00     0.029 A 
ATOM     47  N   UNL A   1      44.715  29.348  30.854  1.00  0.00    -0.354 N 
ATOM     48  N   UNL A   1      44.438  26.814  29.438  1.00  0.00    -0.248 NA
ATOM     49  C   UNL A   1      45.379  24.898  28.492  1.00  0.00     0.031 C 
ATOM     50  C   UNL A   1      46.730  29.946  31.577  1.00  0.00     0.029 A 
ATOM     51  C   UNL A   1      46.045  28.961  30.886  1.00  0.00     0.049 A 
ATOM     52  H   UNL A   1      43.990  28.846  30.415  1.00  0.00     0.167 HD
ATOM     53  C   UNL A   1      45.807  26.816  29.670  1.00  0.00     0.074 A 
ATOM     54  C   UNL A   1      46.334  25.601  29.085  1.00  0.00     0.031 C 
ATOM     55  C   UNL A   1      46.559  27.752  30.299  1.00  0.00     0.037 A 
BRANCH  42  56
ATOM     56  C   UNL A   1      43.300  32.524  32.460  1.00  0.00     0.064 A 
ATOM     57  C   UNL A   1      43.318  33.758  31.796  1.00  0.00     0.173 A 
ATOM     58  C   UNL A   1      43.249  32.533  33.863  1.00  0.00     0.173 A 
ATOM     59  F   UNL A   1      43.379  33.803  30.457  1.00  0.00    -0.203 F 
ATOM     60  C   UNL A   1      43.311  34.953  32.510  1.00  0.00     0.198 A 
ATOM     61  C   UNL A   1      43.216  33.730  34.573  1.00  0.00     0.198 A 
ATOM     62  F   UNL A   1      43.221  31.379  34.546  1.00  0.00    -0.203 F 
ATOM     63  F   UNL A   1      43.373  36.122  31.858  1.00  0.00    -0.200 F 
ATOM     64  C   UNL A   1      43.254  34.939  33.897  1.00  0.00     0.200 A 
ATOM     65  F   UNL A   1      43.147  33.712  35.912  1.00  0.00    -0.200 F 
ATOM     66  F   UNL A   1      43.241  36.091  34.582  1.00  0.00    -0.200 F 
ENDBRANCH  42  56
BRANCH  43  67
ATOM     67  C   UNL A   1      42.819  23.956  27.440  1.00  0.00     0.064 A 
ATOM     68  C   UNL A   1      43.127  23.930  26.073  1.00  0.00     0.173 A 
ATOM     69  C   UNL A   1      42.480  22.744  28.059  1.00  0.00     0.173 A 
ATOM     70  F   UNL A   1      43.427  25.069  25.433  1.00  0.00    -0.203 F 
ATOM     71  C   UNL A   1      43.107  22.735  25.357  1.00  0.00     0.198 A 
ATOM     72  C   UNL A   1      42.487  21.547  27.348  1.00  0.00     0.198 A 
ATOM     73  F   UNL A   1      42.173  22.720  29.365  1.00  0.00    -0.203 F 
ATOM     74  F   UNL A   1      43.383  22.739  24.045  1.00  0.00    -0.200 F 
ATOM     75  C   UNL A   1      42.799  21.544  25.997  1.00  0.00     0.200 A 
ATOM     76  F   UNL A   1      42.204  20.397  27.973  1.00  0.00    -0.200 F 
ATOM     77  F   UNL A   1      42.800  20.393  25.311  1.00  0.00    -0.200 F 
ENDBRANCH  43  67
BRANCH  55  78
ATOM     78  C   UNL A   1      48.031  27.492  30.399  1.00  0.00     0.064 A 
ATOM     79  C   UNL A   1      48.924  27.984  29.437  1.00  0.00     0.173 A 
ATOM     80  C   UNL A   1      48.556  26.769  31.480  1.00  0.00     0.173 A 
ATOM     81  F   UNL A   1      48.466  28.665  28.376  1.00  0.00    -0.203 F 
ATOM     82  C   UNL A   1      50.292  27.748  29.546  1.00  0.00     0.198 A 
ATOM     83  C   UNL A   1      49.925  26.551  31.596  1.00  0.00     0.198 A 
ATOM     84  F   UNL A   1      47.740  26.281  32.426  1.00  0.00    -0.203 F 
ATOM     85  F   UNL A   1      51.126  28.197  28.598  1.00  0.00    -0.200 F 
ATOM     86  C   UNL A   1      50.792  27.036  30.627  1.00  0.00     0.200 A 
ATOM     87  F   UNL A   1      50.408  25.868  32.642  1.00  0.00    -0.200 F 
ATOM     88  F   UNL A   1      52.108  26.810  30.731  1.00  0.00    -0.200 F 
ENDBRANCH  55  78
ENDBRANCH  29  30
ENDBRANCH  22  24
ENDBRANCH  21  22
ENDBRANCH  20  21
ENDBRANCH   1  20
TORSDOF 13
ENDMDL
