MODEL 1
REMARK VINA RESULT:     -12.3      0.000      0.000
REMARK SMILES C[C@H](c1cnccn1)[N@@H+]1[C@@H](C(=O)OCCOC(=O)c2ccc(-c3c4nc(c(-c5c(F)c(F)c(F)c(F)c5F)c5ccc([nH]5)c(-c5c(F)c(F)c(F)c(F)c5F)c5nc(c(-c6c(F)c(F)c(F)c(F)c6F)c6ccc3[nH]6)C=C5)C=C4)cc2)CC[C@H]2CCCC[C@H]21
REMARK SMILES IDX 14 1 13 2 11 3 12 4 10 5 9 6 89 7 82 9 84 10 88 11 83 12
REMARK SMILES IDX 85 13 87 14 86 15 2 16 1 17 3 18 4 19 8 20 5 21 7 22 6 23
REMARK SMILES IDX 15 24 16 25 17 26 18 27 19 28 20 29 81 30 21 31 80 32 22 33
REMARK SMILES IDX 23 34 24 35 74 36 25 37 79 38 73 39 75 40 26 41 78 42 72 43
REMARK SMILES IDX 71 44 27 46 59 47 39 48 58 49 40 50 43 51 57 52 76 53 41 54
REMARK SMILES IDX 42 55 56 57 77 58 44 59 28 60 29 61 37 62 30 63 31 64 35 65
REMARK SMILES IDX 38 66 32 67 33 68 36 69 34 70 60 71 61 72 69 73 62 74 63 75
REMARK SMILES IDX 67 76 70 77 64 78 65 79 68 80 66 81 45 82 46 83 54 84 47 85
REMARK SMILES IDX 48 86 52 87 55 88 49 89 50 90 53 91 51 92
REMARK H PARENT 9 8 75 45 43 56
REMARK Flexibility Score: inf
ROOT
ATOM      1  C   UNL A   1      31.425  29.813  25.234  1.00  0.00     0.274 C 
ENDROOT
BRANCH   1   2
ATOM      2  O   UNL A   1      32.106  28.559  25.455  1.00  0.00    -0.458 OA
BRANCH   2   3
ATOM      3  C   UNL A   1      32.961  28.181  24.468  1.00  0.00     0.365 C 
ATOM      4  O   UNL A   1      33.496  28.974  23.697  1.00  0.00    -0.245 OA
BRANCH   3   5
ATOM      5  C   UNL A   1      33.276  26.677  24.434  1.00  0.00     0.295 C 
ATOM      6  N   UNL A   1      32.109  25.729  24.193  1.00  0.00    -0.313 N 
ATOM      7  C   UNL A   1      32.676  24.307  24.245  1.00  0.00     0.188 C 
ATOM      8  H   UNL A   1      31.386  25.876  24.897  1.00  0.00     0.349 HD
ATOM      9  C   UNL A   1      34.067  26.382  25.722  1.00  0.00     0.078 C 
ATOM     10  C   UNL A   1      33.519  23.978  25.513  1.00  0.00     0.048 C 
ATOM     11  C   UNL A   1      31.692  23.120  24.162  1.00  0.00     0.065 C 
ATOM     12  C   UNL A   1      34.642  24.985  25.704  1.00  0.00     0.016 C 
ATOM     13  C   UNL A   1      32.685  23.830  26.801  1.00  0.00     0.010 C 
ATOM     14  C   UNL A   1      30.708  23.100  25.320  1.00  0.00     0.006 C 
ATOM     15  C   UNL A   1      31.390  23.033  26.677  1.00  0.00     0.001 C 
BRANCH   6  16
ATOM     16  C   UNL A   1      31.468  25.974  22.822  1.00  0.00     0.233 C 
ATOM     17  C   UNL A   1      32.380  26.359  21.638  1.00  0.00     0.083 C 
BRANCH  16  18
ATOM     18  C   UNL A   1      30.398  27.066  22.777  1.00  0.00     0.116 A 
ATOM     19  C   UNL A   1      29.236  26.986  23.541  1.00  0.00     0.141 A 
ATOM     20  N   UNL A   1      30.669  28.173  22.027  1.00  0.00    -0.252 NA
ATOM     21  N   UNL A   1      28.293  27.960  23.553  1.00  0.00    -0.261 NA
ATOM     22  C   UNL A   1      29.723  29.138  22.032  1.00  0.00     0.131 A 
ATOM     23  C   UNL A   1      28.561  29.031  22.774  1.00  0.00     0.131 A 
ENDBRANCH  16  18
ENDBRANCH   6  16
ENDBRANCH   3   5
ENDBRANCH   2   3
ENDBRANCH   1   2
BRANCH   1  24
ATOM     24  C   UNL A   1      31.680  30.867  26.326  1.00  0.00     0.275 C 
BRANCH  24  25
ATOM     25  O   UNL A   1      32.862  30.583  27.104  1.00  0.00    -0.458 OA
BRANCH  25  26
ATOM     26  C   UNL A   1      33.581  31.668  27.472  1.00  0.00     0.338 C 
ATOM     27  O   UNL A   1      33.161  32.804  27.628  1.00  0.00    -0.246 OA
BRANCH  26  28
ATOM     28  C   UNL A   1      34.959  31.292  27.852  1.00  0.00     0.060 A 
ATOM     29  C   UNL A   1      35.200  29.942  28.124  1.00  0.00     0.016 A 
ATOM     30  C   UNL A   1      35.968  32.235  28.050  1.00  0.00     0.016 A 
ATOM     31  C   UNL A   1      36.429  29.520  28.608  1.00  0.00     0.010 A 
ATOM     32  C   UNL A   1      37.205  31.815  28.563  1.00  0.00     0.010 A 
ATOM     33  C   UNL A   1      37.429  30.460  28.869  1.00  0.00    -0.014 A 
BRANCH  33  34
ATOM     34  C   UNL A   1      38.625  30.010  29.620  1.00  0.00     0.031 A 
ATOM     35  C   UNL A   1      38.815  30.487  31.032  1.00  0.00     0.074 A 
ATOM     36  C   UNL A   1      39.462  29.098  29.095  1.00  0.00     0.049 A 
ATOM     37  N   UNL A   1      39.771  30.213  31.882  1.00  0.00    -0.248 NA
ATOM     38  C   UNL A   1      37.781  31.391  31.560  1.00  0.00     0.031 C 
ATOM     39  C   UNL A   1      39.333  28.497  27.769  1.00  0.00     0.029 A 
ATOM     40  N   UNL A   1      40.581  28.506  29.626  1.00  0.00    -0.354 N 
ATOM     41  C   UNL A   1      39.462  30.918  33.037  1.00  0.00     0.074 A 
ATOM     42  C   UNL A   1      38.239  31.647  32.776  1.00  0.00     0.031 C 
ATOM     43  C   UNL A   1      40.336  27.621  27.588  1.00  0.00     0.029 A 
ATOM     44  C   UNL A   1      41.193  27.623  28.773  1.00  0.00     0.049 A 
ATOM     45  H   UNL A   1      40.913  28.699  30.533  1.00  0.00     0.167 HD
ATOM     46  C   UNL A   1      40.136  30.953  34.211  1.00  0.00     0.037 A 
ATOM     47  C   UNL A   1      42.326  26.912  28.928  1.00  0.00     0.037 A 
ATOM     48  C   UNL A   1      41.346  30.220  34.473  1.00  0.00     0.049 A 
ATOM     49  C   UNL A   1      43.091  27.016  30.221  1.00  0.00     0.074 A 
ATOM     50  C   UNL A   1      42.112  30.198  35.625  1.00  0.00     0.029 A 
ATOM     51  N   UNL A   1      41.965  29.374  33.565  1.00  0.00    -0.354 N 
ATOM     52  N   UNL A   1      42.804  27.703  31.301  1.00  0.00    -0.248 NA
ATOM     53  C   UNL A   1      44.339  26.246  30.315  1.00  0.00     0.031 C 
ATOM     54  C   UNL A   1      43.216  29.369  35.401  1.00  0.00     0.029 A 
ATOM     55  C   UNL A   1      43.114  28.838  34.126  1.00  0.00     0.049 A 
ATOM     56  H   UNL A   1      41.638  29.182  32.657  1.00  0.00     0.167 HD
ATOM     57  C   UNL A   1      43.821  27.431  32.207  1.00  0.00     0.074 A 
ATOM     58  C   UNL A   1      44.722  26.501  31.558  1.00  0.00     0.031 C 
ATOM     59  C   UNL A   1      43.996  27.910  33.464  1.00  0.00     0.037 A 
BRANCH  46  60
ATOM     60  C   UNL A   1      39.594  31.846  35.287  1.00  0.00     0.064 A 
ATOM     61  C   UNL A   1      38.678  31.382  36.242  1.00  0.00     0.173 A 
ATOM     62  C   UNL A   1      40.007  33.184  35.367  1.00  0.00     0.173 A 
ATOM     63  F   UNL A   1      38.238  30.116  36.195  1.00  0.00    -0.203 F 
ATOM     64  C   UNL A   1      38.177  32.233  37.224  1.00  0.00     0.198 A 
ATOM     65  C   UNL A   1      39.524  34.025  36.366  1.00  0.00     0.198 A 
ATOM     66  F   UNL A   1      40.882  33.676  34.477  1.00  0.00    -0.203 F 
ATOM     67  F   UNL A   1      37.266  31.782  38.098  1.00  0.00    -0.200 F 
ATOM     68  C   UNL A   1      38.604  33.551  37.289  1.00  0.00     0.200 A 
ATOM     69  F   UNL A   1      39.944  35.295  36.431  1.00  0.00    -0.200 F 
ATOM     70  F   UNL A   1      38.121  34.368  38.234  1.00  0.00    -0.200 F 
ENDBRANCH  46  60
BRANCH  47  71
ATOM     71  C   UNL A   1      42.820  26.051  27.822  1.00  0.00     0.064 A 
ATOM     72  C   UNL A   1      43.702  26.548  26.853  1.00  0.00     0.173 A 
ATOM     73  C   UNL A   1      42.396  24.720  27.697  1.00  0.00     0.173 A 
ATOM     74  F   UNL A   1      44.113  27.823  26.912  1.00  0.00    -0.203 F 
ATOM     75  C   UNL A   1      44.128  25.751  25.792  1.00  0.00     0.198 A 
ATOM     76  C   UNL A   1      42.845  23.916  26.651  1.00  0.00     0.198 A 
ATOM     77  F   UNL A   1      41.547  24.198  28.594  1.00  0.00    -0.203 F 
ATOM     78  F   UNL A   1      44.933  26.266  24.852  1.00  0.00    -0.200 F 
ATOM     79  C   UNL A   1      43.703  24.434  25.695  1.00  0.00     0.200 A 
ATOM     80  F   UNL A   1      42.437  22.642  26.566  1.00  0.00    -0.200 F 
ATOM     81  F   UNL A   1      44.113  23.669  24.674  1.00  0.00    -0.200 F 
ENDBRANCH  47  71
BRANCH  59  82
ATOM     82  C   UNL A   1      45.189  27.413  34.226  1.00  0.00     0.064 A 
ATOM     83  C   UNL A   1      46.417  28.091  34.193  1.00  0.00     0.173 A 
ATOM     84  C   UNL A   1      45.097  26.259  35.019  1.00  0.00     0.173 A 
ATOM     85  F   UNL A   1      46.560  29.192  33.439  1.00  0.00    -0.203 F 
ATOM     86  C   UNL A   1      47.517  27.614  34.900  1.00  0.00     0.198 A 
ATOM     87  C   UNL A   1      46.191  25.801  35.747  1.00  0.00     0.198 A 
ATOM     88  F   UNL A   1      43.943  25.579  35.091  1.00  0.00    -0.203 F 
ATOM     89  F   UNL A   1      48.694  28.249  34.814  1.00  0.00    -0.200 F 
ATOM     90  C   UNL A   1      47.402  26.473  35.681  1.00  0.00     0.200 A 
ATOM     91  F   UNL A   1      46.075  24.705  36.510  1.00  0.00    -0.200 F 
ATOM     92  F   UNL A   1      48.461  26.016  36.363  1.00  0.00    -0.200 F 
ENDBRANCH  59  82
ENDBRANCH  33  34
ENDBRANCH  26  28
ENDBRANCH  25  26
ENDBRANCH  24  25
ENDBRANCH   1  24
TORSDOF 13
ENDMDL
MODEL 2
REMARK VINA RESULT:     -12.2      0.812      1.546
REMARK SMILES C[C@H](c1cnccn1)[N@@H+]1[C@@H](C(=O)OCCOC(=O)c2ccc(-c3c4nc(c(-c5c(F)c(F)c(F)c(F)c5F)c5ccc([nH]5)c(-c5c(F)c(F)c(F)c(F)c5F)c5nc(c(-c6c(F)c(F)c(F)c(F)c6F)c6ccc3[nH]6)C=C5)C=C4)cc2)CC[C@H]2CCCC[C@H]21
REMARK SMILES IDX 14 1 13 2 11 3 12 4 10 5 9 6 89 7 82 9 84 10 88 11 83 12
REMARK SMILES IDX 85 13 87 14 86 15 2 16 1 17 3 18 4 19 8 20 5 21 7 22 6 23
REMARK SMILES IDX 15 24 16 25 17 26 18 27 19 28 20 29 81 30 21 31 80 32 22 33
REMARK SMILES IDX 23 34 24 35 74 36 25 37 79 38 73 39 75 40 26 41 78 42 72 43
REMARK SMILES IDX 71 44 27 46 59 47 39 48 58 49 40 50 43 51 57 52 76 53 41 54
REMARK SMILES IDX 42 55 56 57 77 58 44 59 28 60 29 61 37 62 30 63 31 64 35 65
REMARK SMILES IDX 38 66 32 67 33 68 36 69 34 70 60 71 61 72 69 73 62 74 63 75
REMARK SMILES IDX 67 76 70 77 64 78 65 79 68 80 66 81 45 82 46 83 54 84 47 85
REMARK SMILES IDX 48 86 52 87 55 88 49 89 50 90 53 91 51 92
REMARK H PARENT 9 8 75 45 43 56
REMARK Flexibility Score: inf
ROOT
ATOM      1  C   UNL A   1      32.792  29.342  24.874  1.00  0.00     0.274 C 
ENDROOT
BRANCH   1   2
ATOM      2  O   UNL A   1      33.576  28.283  25.467  1.00  0.00    -0.458 OA
BRANCH   2   3
ATOM      3  C   UNL A   1      32.979  27.062  25.490  1.00  0.00     0.365 C 
ATOM      4  O   UNL A   1      31.903  26.846  26.042  1.00  0.00    -0.245 OA
BRANCH   3   5
ATOM      5  C   UNL A   1      33.721  25.972  24.701  1.00  0.00     0.295 C 
ATOM      6  N   UNL A   1      32.909  25.173  23.690  1.00  0.00    -0.313 N 
ATOM      7  C   UNL A   1      33.861  24.139  23.077  1.00  0.00     0.188 C 
ATOM      8  H   UNL A   1      32.114  24.731  24.150  1.00  0.00     0.349 HD
ATOM      9  C   UNL A   1      34.442  25.107  25.751  1.00  0.00     0.078 C 
ATOM     10  C   UNL A   1      34.642  23.269  24.106  1.00  0.00     0.048 C 
ATOM     11  C   UNL A   1      33.278  23.092  22.104  1.00  0.00     0.065 C 
ATOM     12  C   UNL A   1      35.399  24.136  25.099  1.00  0.00     0.016 C 
ATOM     13  C   UNL A   1      33.772  22.226  24.835  1.00  0.00     0.010 C 
ATOM     14  C   UNL A   1      32.240  22.200  22.764  1.00  0.00     0.006 C 
ATOM     15  C   UNL A   1      32.784  21.450  23.970  1.00  0.00     0.001 C 
BRANCH   6  16
ATOM     16  C   UNL A   1      32.354  26.076  22.584  1.00  0.00     0.233 C 
ATOM     17  C   UNL A   1      33.205  27.274  22.111  1.00  0.00     0.083 C 
BRANCH  16  18
ATOM     18  C   UNL A   1      31.006  26.733  22.879  1.00  0.00     0.116 A 
ATOM     19  C   UNL A   1      30.676  27.989  22.376  1.00  0.00     0.141 A 
ATOM     20  N   UNL A   1      30.096  25.999  23.582  1.00  0.00    -0.252 NA
ATOM     21  N   UNL A   1      29.472  28.576  22.585  1.00  0.00    -0.261 NA
ATOM     22  C   UNL A   1      28.899  26.589  23.799  1.00  0.00     0.131 A 
ATOM     23  C   UNL A   1      28.598  27.850  23.316  1.00  0.00     0.131 A 
ENDBRANCH  16  18
ENDBRANCH   6  16
ENDBRANCH   3   5
ENDBRANCH   2   3
ENDBRANCH   1   2
BRANCH   1  24
ATOM     24  C   UNL A   1      32.062  30.230  25.896  1.00  0.00     0.275 C 
BRANCH  24  25
ATOM     25  O   UNL A   1      32.733  30.272  27.173  1.00  0.00    -0.458 OA
BRANCH  25  26
ATOM     26  C   UNL A   1      33.459  31.391  27.402  1.00  0.00     0.338 C 
ATOM     27  O   UNL A   1      33.043  32.538  27.434  1.00  0.00    -0.246 OA
BRANCH  26  28
ATOM     28  C   UNL A   1      34.842  31.058  27.799  1.00  0.00     0.060 A 
ATOM     29  C   UNL A   1      35.124  29.713  28.063  1.00  0.00     0.016 A 
ATOM     30  C   UNL A   1      35.818  32.031  28.020  1.00  0.00     0.016 A 
ATOM     31  C   UNL A   1      36.360  29.328  28.563  1.00  0.00     0.010 A 
ATOM     32  C   UNL A   1      37.060  31.648  28.548  1.00  0.00     0.010 A 
ATOM     33  C   UNL A   1      37.324  30.298  28.846  1.00  0.00    -0.014 A 
BRANCH  33  34
ATOM     34  C   UNL A   1      38.523  29.881  29.611  1.00  0.00     0.031 A 
ATOM     35  C   UNL A   1      38.698  30.386  31.015  1.00  0.00     0.074 A 
ATOM     36  C   UNL A   1      39.378  28.974  29.106  1.00  0.00     0.049 A 
ATOM     37  N   UNL A   1      39.654  30.143  31.875  1.00  0.00    -0.248 NA
ATOM     38  C   UNL A   1      37.646  31.282  31.521  1.00  0.00     0.031 C 
ATOM     39  C   UNL A   1      39.266  28.348  27.790  1.00  0.00     0.029 A 
ATOM     40  N   UNL A   1      40.504  28.410  29.654  1.00  0.00    -0.354 N 
ATOM     41  C   UNL A   1      39.327  30.863  33.015  1.00  0.00     0.074 A 
ATOM     42  C   UNL A   1      38.094  31.567  32.735  1.00  0.00     0.031 C 
ATOM     43  C   UNL A   1      40.284  27.485  27.630  1.00  0.00     0.029 A 
ATOM     44  C   UNL A   1      41.134  27.522  28.819  1.00  0.00     0.049 A 
ATOM     45  H   UNL A   1      40.828  28.624  30.559  1.00  0.00     0.167 HD
ATOM     46  C   UNL A   1      39.994  30.930  34.192  1.00  0.00     0.037 A 
ATOM     47  C   UNL A   1      42.278  26.833  28.993  1.00  0.00     0.037 A 
ATOM     48  C   UNL A   1      41.215  30.221  34.473  1.00  0.00     0.049 A 
ATOM     49  C   UNL A   1      43.034  26.973  30.287  1.00  0.00     0.074 A 
ATOM     50  C   UNL A   1      41.974  30.233  35.629  1.00  0.00     0.029 A 
ATOM     51  N   UNL A   1      41.852  29.370  33.584  1.00  0.00    -0.354 N 
ATOM     52  N   UNL A   1      42.731  27.673  31.353  1.00  0.00    -0.248 NA
ATOM     53  C   UNL A   1      44.294  26.224  30.402  1.00  0.00     0.031 C 
ATOM     54  C   UNL A   1      43.093  29.418  35.426  1.00  0.00     0.029 A 
ATOM     55  C   UNL A   1      43.006  28.863  34.159  1.00  0.00     0.049 A 
ATOM     56  H   UNL A   1      41.533  29.157  32.677  1.00  0.00     0.167 HD
ATOM     57  C   UNL A   1      43.747  27.434  32.270  1.00  0.00     0.074 A 
ATOM     58  C   UNL A   1      44.666  26.508  31.642  1.00  0.00     0.031 C 
ATOM     59  C   UNL A   1      43.907  27.938  33.519  1.00  0.00     0.037 A 
BRANCH  46  60
ATOM     60  C   UNL A   1      39.432  31.833  35.249  1.00  0.00     0.064 A 
ATOM     61  C   UNL A   1      38.549  31.361  36.232  1.00  0.00     0.173 A 
ATOM     62  C   UNL A   1      39.790  33.189  35.282  1.00  0.00     0.173 A 
ATOM     63  F   UNL A   1      38.161  30.078  36.231  1.00  0.00    -0.203 F 
ATOM     64  C   UNL A   1      38.029  32.221  37.196  1.00  0.00     0.198 A 
ATOM     65  C   UNL A   1      39.288  34.039  36.263  1.00  0.00     0.198 A 
ATOM     66  F   UNL A   1      40.631  33.689  34.364  1.00  0.00    -0.203 F 
ATOM     67  F   UNL A   1      37.151  31.761  38.098  1.00  0.00    -0.200 F 
ATOM     68  C   UNL A   1      38.402  33.557  37.214  1.00  0.00     0.200 A 
ATOM     69  F   UNL A   1      39.656  35.327  36.283  1.00  0.00    -0.200 F 
ATOM     70  F   UNL A   1      37.900  34.383  38.142  1.00  0.00    -0.200 F 
ENDBRANCH  46  60
BRANCH  47  71
ATOM     71  C   UNL A   1      42.792  25.960  27.905  1.00  0.00     0.064 A 
ATOM     72  C   UNL A   1      42.433  24.608  27.828  1.00  0.00     0.173 A 
ATOM     73  C   UNL A   1      43.676  26.456  26.936  1.00  0.00     0.173 A 
ATOM     74  F   UNL A   1      41.613  24.079  28.748  1.00  0.00    -0.203 F 
ATOM     75  C   UNL A   1      42.951  23.781  26.833  1.00  0.00     0.198 A 
ATOM     76  C   UNL A   1      44.172  25.636  25.925  1.00  0.00     0.198 A 
ATOM     77  F   UNL A   1      44.057  27.742  26.969  1.00  0.00    -0.203 F 
ATOM     78  F   UNL A   1      42.630  22.481  26.811  1.00  0.00    -0.200 F 
ATOM     79  C   UNL A   1      43.816  24.298  25.879  1.00  0.00     0.200 A 
ATOM     80  F   UNL A   1      45.002  26.141  25.002  1.00  0.00    -0.200 F 
ATOM     81  F   UNL A   1      44.315  23.502  24.923  1.00  0.00    -0.200 F 
ENDBRANCH  47  71
BRANCH  59  82
ATOM     82  C   UNL A   1      45.104  27.475  34.296  1.00  0.00     0.064 A 
ATOM     83  C   UNL A   1      46.318  28.177  34.263  1.00  0.00     0.173 A 
ATOM     84  C   UNL A   1      45.029  26.329  35.101  1.00  0.00     0.173 A 
ATOM     85  F   UNL A   1      46.445  29.271  33.497  1.00  0.00    -0.203 F 
ATOM     86  C   UNL A   1      47.422  27.731  34.985  1.00  0.00     0.198 A 
ATOM     87  C   UNL A   1      46.126  25.901  35.843  1.00  0.00     0.198 A 
ATOM     88  F   UNL A   1      43.889  25.626  35.173  1.00  0.00    -0.203 F 
ATOM     89  F   UNL A   1      48.587  28.388  34.899  1.00  0.00    -0.200 F 
ATOM     90  C   UNL A   1      47.324  26.597  35.778  1.00  0.00     0.200 A 
ATOM     91  F   UNL A   1      46.027  24.812  36.619  1.00  0.00    -0.200 F 
ATOM     92  F   UNL A   1      48.387  26.169  36.473  1.00  0.00    -0.200 F 
ENDBRANCH  59  82
ENDBRANCH  33  34
ENDBRANCH  26  28
ENDBRANCH  25  26
ENDBRANCH  24  25
ENDBRANCH   1  24
TORSDOF 13
ENDMDL
MODEL 3
REMARK VINA RESULT:     -12.2      0.919      7.482
REMARK SMILES C[C@H](c1cnccn1)[N@@H+]1[C@@H](C(=O)OCCOC(=O)c2ccc(-c3c4nc(c(-c5c(F)c(F)c(F)c(F)c5F)c5ccc([nH]5)c(-c5c(F)c(F)c(F)c(F)c5F)c5nc(c(-c6c(F)c(F)c(F)c(F)c6F)c6ccc3[nH]6)C=C5)C=C4)cc2)CC[C@H]2CCCC[C@H]21
REMARK SMILES IDX 14 1 13 2 11 3 12 4 10 5 9 6 89 7 82 9 84 10 88 11 83 12
REMARK SMILES IDX 85 13 87 14 86 15 2 16 1 17 3 18 4 19 8 20 5 21 7 22 6 23
REMARK SMILES IDX 15 24 16 25 17 26 18 27 19 28 20 29 81 30 21 31 80 32 22 33
REMARK SMILES IDX 23 34 24 35 74 36 25 37 79 38 73 39 75 40 26 41 78 42 72 43
REMARK SMILES IDX 71 44 27 46 59 47 39 48 58 49 40 50 43 51 57 52 76 53 41 54
REMARK SMILES IDX 42 55 56 57 77 58 44 59 28 60 29 61 37 62 30 63 31 64 35 65
REMARK SMILES IDX 38 66 32 67 33 68 36 69 34 70 60 71 61 72 69 73 62 74 63 75
REMARK SMILES IDX 67 76 70 77 64 78 65 79 68 80 66 81 45 82 46 83 54 84 47 85
REMARK SMILES IDX 48 86 52 87 55 88 49 89 50 90 53 91 51 92
REMARK H PARENT 9 8 75 45 43 56
REMARK Flexibility Score: inf
ROOT
ATOM      1  C   UNL A   1      32.900  29.293  24.708  1.00  0.00     0.274 C 
ENDROOT
BRANCH   1   2
ATOM      2  O   UNL A   1      33.669  28.257  25.358  1.00  0.00    -0.458 OA
BRANCH   2   3
ATOM      3  C   UNL A   1      33.064  27.042  25.427  1.00  0.00     0.365 C 
ATOM      4  O   UNL A   1      31.996  26.849  26.003  1.00  0.00    -0.245 OA
BRANCH   3   5
ATOM      5  C   UNL A   1      33.784  25.924  24.655  1.00  0.00     0.295 C 
ATOM      6  N   UNL A   1      32.944  25.093  23.694  1.00  0.00    -0.313 N 
ATOM      7  C   UNL A   1      33.878  24.038  23.090  1.00  0.00     0.188 C 
ATOM      8  H   UNL A   1      32.161  24.668  24.189  1.00  0.00     0.349 HD
ATOM      9  C   UNL A   1      34.532  25.094  25.713  1.00  0.00     0.078 C 
ATOM     10  C   UNL A   1      34.686  23.201  24.127  1.00  0.00     0.048 C 
ATOM     11  C   UNL A   1      33.269  22.959  22.169  1.00  0.00     0.065 C 
ATOM     12  C   UNL A   1      35.470  24.100  25.069  1.00  0.00     0.016 C 
ATOM     13  C   UNL A   1      33.836  22.185  24.914  1.00  0.00     0.010 C 
ATOM     14  C   UNL A   1      32.249  22.091  22.887  1.00  0.00     0.006 C 
ATOM     15  C   UNL A   1      32.824  21.382  24.102  1.00  0.00     0.001 C 
BRANCH   6  16
ATOM     16  C   UNL A   1      32.360  25.959  22.573  1.00  0.00     0.233 C 
ATOM     17  C   UNL A   1      33.209  27.124  22.021  1.00  0.00     0.083 C 
BRANCH  16  18
ATOM     18  C   UNL A   1      31.033  26.648  22.891  1.00  0.00     0.116 A 
ATOM     19  C   UNL A   1      30.715  27.902  22.376  1.00  0.00     0.141 A 
ATOM     20  N   UNL A   1      30.126  25.944  23.628  1.00  0.00    -0.252 NA
ATOM     21  N   UNL A   1      29.529  28.516  22.606  1.00  0.00    -0.261 NA
ATOM     22  C   UNL A   1      28.948  26.561  23.865  1.00  0.00     0.131 A 
ATOM     23  C   UNL A   1      28.659  27.820  23.370  1.00  0.00     0.131 A 
ENDBRANCH  16  18
ENDBRANCH   6  16
ENDBRANCH   3   5
ENDBRANCH   2   3
ENDBRANCH   1   2
BRANCH   1  24
ATOM     24  C   UNL A   1      32.016  30.112  25.665  1.00  0.00     0.275 C 
BRANCH  24  25
ATOM     25  O   UNL A   1      32.570  30.196  26.995  1.00  0.00    -0.458 OA
BRANCH  25  26
ATOM     26  C   UNL A   1      33.270  31.325  27.255  1.00  0.00     0.338 C 
ATOM     27  O   UNL A   1      32.848  32.469  27.222  1.00  0.00    -0.246 OA
BRANCH  26  28
ATOM     28  C   UNL A   1      34.617  31.009  27.774  1.00  0.00     0.060 A 
ATOM     29  C   UNL A   1      34.872  29.678  28.121  1.00  0.00     0.016 A 
ATOM     30  C   UNL A   1      35.575  31.992  28.027  1.00  0.00     0.016 A 
ATOM     31  C   UNL A   1      36.063  29.316  28.733  1.00  0.00     0.010 A 
ATOM     32  C   UNL A   1      36.771  31.633  28.667  1.00  0.00     0.010 A 
ATOM     33  C   UNL A   1      37.005  30.298  29.047  1.00  0.00    -0.014 A 
BRANCH  33  34
ATOM     34  C   UNL A   1      38.140  29.916  29.921  1.00  0.00     0.031 A 
ATOM     35  C   UNL A   1      39.207  29.014  29.369  1.00  0.00     0.074 A 
ATOM     36  C   UNL A   1      38.277  30.459  31.143  1.00  0.00     0.049 A 
ATOM     37  N   UNL A   1      40.294  28.564  29.941  1.00  0.00    -0.248 NA
ATOM     38  C   UNL A   1      39.028  28.567  27.979  1.00  0.00     0.031 C 
ATOM     39  C   UNL A   1      37.352  31.412  31.754  1.00  0.00     0.029 A 
ATOM     40  N   UNL A   1      39.263  30.295  32.085  1.00  0.00    -0.354 N 
ATOM     41  C   UNL A   1      40.920  27.772  28.989  1.00  0.00     0.074 A 
ATOM     42  C   UNL A   1      40.085  27.788  27.806  1.00  0.00     0.031 C 
ATOM     43  C   UNL A   1      37.813  31.748  32.970  1.00  0.00     0.029 A 
ATOM     44  C   UNL A   1      39.048  31.012  33.235  1.00  0.00     0.049 A 
ATOM     45  H   UNL A   1      40.048  29.717  31.947  1.00  0.00     0.167 HD
ATOM     46  C   UNL A   1      42.088  27.094  29.089  1.00  0.00     0.037 A 
ATOM     47  C   UNL A   1      39.762  31.053  34.376  1.00  0.00     0.037 A 
ATOM     48  C   UNL A   1      42.923  27.087  30.262  1.00  0.00     0.049 A 
ATOM     49  C   UNL A   1      41.025  30.240  34.486  1.00  0.00     0.074 A 
ATOM     50  C   UNL A   1      44.118  26.421  30.468  1.00  0.00     0.029 A 
ATOM     51  N   UNL A   1      42.647  27.785  31.427  1.00  0.00    -0.354 N 
ATOM     52  N   UNL A   1      41.599  29.476  33.588  1.00  0.00    -0.248 NA
ATOM     53  C   UNL A   1      41.739  30.297  35.769  1.00  0.00     0.031 C 
ATOM     54  C   UNL A   1      44.546  26.685  31.774  1.00  0.00     0.029 A 
ATOM     55  C   UNL A   1      43.641  27.553  32.364  1.00  0.00     0.049 A 
ATOM     56  H   UNL A   1      41.861  28.360  31.569  1.00  0.00     0.167 HD
ATOM     57  C   UNL A   1      42.749  28.979  34.189  1.00  0.00     0.074 A 
ATOM     58  C   UNL A   1      42.802  29.545  35.521  1.00  0.00     0.031 C 
ATOM     59  C   UNL A   1      43.678  28.128  33.685  1.00  0.00     0.037 A 
BRANCH  46  60
ATOM     60  C   UNL A   1      42.508  26.272  27.908  1.00  0.00     0.064 A 
ATOM     61  C   UNL A   1      41.997  24.986  27.682  1.00  0.00     0.173 A 
ATOM     62  C   UNL A   1      43.430  26.785  26.982  1.00  0.00     0.173 A 
ATOM     63  F   UNL A   1      41.128  24.444  28.548  1.00  0.00    -0.203 F 
ATOM     64  C   UNL A   1      42.411  24.234  26.585  1.00  0.00     0.198 A 
ATOM     65  C   UNL A   1      43.822  26.041  25.873  1.00  0.00     0.198 A 
ATOM     66  F   UNL A   1      43.948  28.011  27.153  1.00  0.00    -0.203 F 
ATOM     67  F   UNL A   1      41.946  22.989  26.414  1.00  0.00    -0.200 F 
ATOM     68  C   UNL A   1      43.318  24.764  25.680  1.00  0.00     0.200 A 
ATOM     69  F   UNL A   1      44.692  26.558  24.996  1.00  0.00    -0.200 F 
ATOM     70  F   UNL A   1      43.716  24.039  24.625  1.00  0.00    -0.200 F 
ENDBRANCH  46  60
BRANCH  47  71
ATOM     71  C   UNL A   1      39.290  31.879  35.519  1.00  0.00     0.064 A 
ATOM     72  C   UNL A   1      38.427  31.351  36.488  1.00  0.00     0.173 A 
ATOM     73  C   UNL A   1      39.671  33.222  35.646  1.00  0.00     0.173 A 
ATOM     74  F   UNL A   1      38.010  30.079  36.394  1.00  0.00    -0.203 F 
ATOM     75  C   UNL A   1      37.951  32.140  37.534  1.00  0.00     0.198 A 
ATOM     76  C   UNL A   1      39.217  34.003  36.707  1.00  0.00     0.198 A 
ATOM     77  F   UNL A   1      40.490  33.778  34.740  1.00  0.00    -0.203 F 
ATOM     78  F   UNL A   1      37.089  31.625  38.420  1.00  0.00    -0.200 F 
ATOM     79  C   UNL A   1      38.351  33.464  37.644  1.00  0.00     0.200 A 
ATOM     80  F   UNL A   1      39.611  35.279  36.813  1.00  0.00    -0.200 F 
ATOM     81  F   UNL A   1      37.892  34.223  38.649  1.00  0.00    -0.200 F 
ENDBRANCH  47  71
BRANCH  59  82
ATOM     82  C   UNL A   1      44.841  27.783  34.567  1.00  0.00     0.064 A 
ATOM     83  C   UNL A   1      44.812  26.669  35.420  1.00  0.00     0.173 A 
ATOM     84  C   UNL A   1      46.008  28.562  34.543  1.00  0.00     0.173 A 
ATOM     85  F   UNL A   1      43.715  25.902  35.490  1.00  0.00    -0.203 F 
ATOM     86  C   UNL A   1      45.898  26.366  36.237  1.00  0.00     0.198 A 
ATOM     87  C   UNL A   1      47.102  28.240  35.340  1.00  0.00     0.198 A 
ATOM     88  F   UNL A   1      46.089  29.633  33.739  1.00  0.00    -0.203 F 
ATOM     89  F   UNL A   1      45.829  25.328  37.081  1.00  0.00    -0.200 F 
ATOM     90  C   UNL A   1      47.043  27.148  36.193  1.00  0.00     0.200 A 
ATOM     91  F   UNL A   1      48.212  28.989  35.288  1.00  0.00    -0.200 F 
ATOM     92  F   UNL A   1      48.087  26.854  36.980  1.00  0.00    -0.200 F 
ENDBRANCH  59  82
ENDBRANCH  33  34
ENDBRANCH  26  28
ENDBRANCH  25  26
ENDBRANCH  24  25
ENDBRANCH   1  24
TORSDOF 13
ENDMDL
