MODEL 1
REMARK VINA RESULT:     -13.2      0.000      0.000
REMARK SMILES CCc1ccc(NC(=O)c2cnn3c2N=C(C(=O)OCCOC(=O)c2ccc(-c4c5nc(c(-c6c(F)c(F)c(F)c(F)c6F)c6ccc([nH]6)c(-c6c(F)c(F)c(F)c(F)c6F)c6nc(c(-c7c(F)c(F)c(F)c(F)c7F)c7ccc4[nH]7)C=C6)C=C5)cc2)C[C@H]3c2ccccc2Cl)cc1
REMARK SMILES IDX 20 1 19 2 17 3 18 4 16 5 10 6 11 7 14 8 12 9 13 10 15 11
REMARK SMILES IDX 89 12 88 13 8 14 7 15 9 17 6 18 3 19 4 20 98 21 5 22 97 23
REMARK SMILES IDX 2 24 1 25 90 26 91 27 95 28 92 29 94 30 96 31 93 32 21 33
REMARK SMILES IDX 22 34 23 35 24 36 25 37 26 38 87 39 27 40 86 41 28 42 29 43
REMARK SMILES IDX 30 44 80 45 31 46 85 47 79 48 81 49 32 50 84 51 78 52 77 53
REMARK SMILES IDX 33 55 65 56 45 57 64 58 46 59 49 60 63 61 82 62 47 63 48 64
REMARK SMILES IDX 62 66 83 67 50 68 34 69 35 70 43 71 36 72 37 73 41 74 44 75
REMARK SMILES IDX 38 76 39 77 42 78 40 79 66 80 67 81 75 82 68 83 69 84 73 85
REMARK SMILES IDX 76 86 70 87 71 88 74 89 72 90 51 91 52 92 60 93 53 94 54 95
REMARK SMILES IDX 58 96 61 97 55 98 56 99 59 100 57 101
REMARK H PARENT 7 16 81 54 49 65
REMARK Flexibility Score: inf
ROOT
ATOM      1  C   UNL A   1      37.437  23.645  25.678  1.00  0.00     0.275 C 
ENDROOT
BRANCH   1   2
ATOM      2  O   UNL A   1      36.483  24.672  26.009  1.00  0.00    -0.458 OA
BRANCH   2   3
ATOM      3  C   UNL A   1      35.183  24.304  26.083  1.00  0.00     0.352 C 
ATOM      4  O   UNL A   1      34.735  23.340  26.682  1.00  0.00    -0.245 OA
BRANCH   3   5
ATOM      5  C   UNL A   1      34.297  25.321  25.345  1.00  0.00     0.130 C 
ATOM      6  C   UNL A   1      33.117  26.594  22.177  1.00  0.00     0.104 A 
ATOM      7  C   UNL A   1      32.701  27.945  22.159  1.00  0.00     0.151 A 
ATOM      8  C   UNL A   1      33.661  26.401  23.441  1.00  0.00     0.164 A 
ATOM      9  N   UNL A   1      32.740  28.501  23.371  1.00  0.00    -0.178 NA
ATOM     10  N   UNL A   1      33.238  27.511  24.139  1.00  0.00    -0.239 N 
ATOM     11  N   UNL A   1      34.373  25.411  24.044  1.00  0.00    -0.225 NA
ATOM     12  C   UNL A   1      32.981  27.471  25.575  1.00  0.00     0.147 C 
ATOM     13  C   UNL A   1      33.319  26.112  26.188  1.00  0.00     0.096 C 
BRANCH   6  14
ATOM     14  C   UNL A   1      32.927  25.651  21.108  1.00  0.00     0.261 C 
ATOM     15  N   UNL A   1      32.263  24.459  21.355  1.00  0.00    -0.322 N 
ATOM     16  H   UNL A   1      32.122  23.909  20.551  1.00  0.00     0.170 HD
ATOM     17  O   UNL A   1      33.275  25.903  19.955  1.00  0.00    -0.269 OA
BRANCH  15  18
ATOM     18  C   UNL A   1      31.748  23.880  22.536  1.00  0.00     0.041 A 
ATOM     19  C   UNL A   1      31.311  23.012  25.189  1.00  0.00    -0.048 A 
ATOM     20  C   UNL A   1      30.482  23.969  24.602  1.00  0.00     0.006 A 
ATOM     21  C   UNL A   1      32.205  22.335  24.358  1.00  0.00     0.006 A 
ATOM     22  C   UNL A   1      30.685  24.375  23.282  1.00  0.00     0.026 A 
ATOM     23  C   UNL A   1      32.408  22.757  23.035  1.00  0.00     0.026 A 
BRANCH  19  24
ATOM     24  C   UNL A   1      31.178  22.745  26.668  1.00  0.00     0.032 C 
ATOM     25  C   UNL A   1      29.785  22.954  27.252  1.00  0.00     0.009 C 
ENDBRANCH  19  24
ENDBRANCH  15  18
ENDBRANCH   6  14
BRANCH  12  26
ATOM     26  C   UNL A   1      33.662  28.608  26.307  1.00  0.00    -0.004 A 
ATOM     27  C   UNL A   1      34.963  28.434  26.818  1.00  0.00     0.007 A 
ATOM     28  C   UNL A   1      33.016  29.839  26.528  1.00  0.00     0.046 A 
ATOM     29  C   UNL A   1      35.595  29.458  27.521  1.00  0.00     0.000 A 
ATOM     30  C   UNL A   1      33.658  30.862  27.228  1.00  0.00     0.021 A 
ATOM     31  Cl  UNL A   1      31.401  30.155  25.993  1.00  0.00    -0.084 Cl
ATOM     32  C   UNL A   1      34.945  30.672  27.725  1.00  0.00     0.002 A 
ENDBRANCH  12  26
ENDBRANCH   3   5
ENDBRANCH   2   3
ENDBRANCH   1   2
BRANCH   1  33
ATOM     33  C   UNL A   1      38.525  23.545  26.743  1.00  0.00     0.275 C 
BRANCH  33  34
ATOM     34  O   UNL A   1      39.490  24.589  26.599  1.00  0.00    -0.458 OA
BRANCH  34  35
ATOM     35  C   UNL A   1      40.092  24.943  27.754  1.00  0.00     0.338 C 
ATOM     36  O   UNL A   1      41.047  24.391  28.281  1.00  0.00    -0.246 OA
BRANCH  35  37
ATOM     37  C   UNL A   1      39.301  25.962  28.445  1.00  0.00     0.060 A 
ATOM     38  C   UNL A   1      38.931  27.068  27.687  1.00  0.00     0.016 A 
ATOM     39  C   UNL A   1      39.280  25.988  29.844  1.00  0.00     0.016 A 
ATOM     40  C   UNL A   1      38.804  28.278  28.329  1.00  0.00     0.010 A 
ATOM     41  C   UNL A   1      39.112  27.200  30.482  1.00  0.00     0.010 A 
ATOM     42  C   UNL A   1      39.021  28.356  29.708  1.00  0.00    -0.014 A 
BRANCH  42  43
ATOM     43  C   UNL A   1      39.147  29.692  30.289  1.00  0.00     0.031 A 
ATOM     44  C   UNL A   1      40.497  30.311  30.140  1.00  0.00     0.074 A 
ATOM     45  C   UNL A   1      38.086  30.320  30.842  1.00  0.00     0.049 A 
ATOM     46  N   UNL A   1      41.215  30.924  31.026  1.00  0.00    -0.248 NA
ATOM     47  C   UNL A   1      41.183  30.108  28.850  1.00  0.00     0.031 C 
ATOM     48  C   UNL A   1      36.691  29.863  30.873  1.00  0.00     0.029 A 
ATOM     49  N   UNL A   1      37.997  31.576  31.365  1.00  0.00    -0.354 N 
ATOM     50  C   UNL A   1      42.369  31.328  30.357  1.00  0.00     0.074 A 
ATOM     51  C   UNL A   1      42.366  30.672  29.079  1.00  0.00     0.031 C 
ATOM     52  C   UNL A   1      35.882  30.921  31.091  1.00  0.00     0.029 A 
ATOM     53  C   UNL A   1      36.705  32.090  31.334  1.00  0.00     0.049 A 
ATOM     54  H   UNL A   1      38.768  32.069  31.728  1.00  0.00     0.167 HD
ATOM     55  C   UNL A   1      43.119  32.377  30.788  1.00  0.00     0.037 A 
ATOM     56  C   UNL A   1      36.351  33.398  31.368  1.00  0.00     0.037 A 
ATOM     57  C   UNL A   1      42.992  32.580  32.203  1.00  0.00     0.049 A 
ATOM     58  C   UNL A   1      37.506  34.167  31.890  1.00  0.00     0.074 A 
ATOM     59  C   UNL A   1      43.267  31.815  33.321  1.00  0.00     0.029 A 
ATOM     60  N   UNL A   1      42.232  33.628  32.656  1.00  0.00    -0.354 N 
ATOM     61  N   UNL A   1      37.932  34.106  33.121  1.00  0.00    -0.248 NA
ATOM     62  C   UNL A   1      38.459  34.692  30.924  1.00  0.00     0.031 C 
ATOM     63  C   UNL A   1      42.272  32.175  34.276  1.00  0.00     0.029 A 
ATOM     64  C   UNL A   1      41.470  33.155  33.692  1.00  0.00     0.049 A 
ATOM     65  H   UNL A   1      42.232  34.546  32.303  1.00  0.00     0.167 HD
ATOM     66  C   UNL A   1      39.314  34.175  33.017  1.00  0.00     0.074 A 
ATOM     67  C   UNL A   1      39.574  34.633  31.656  1.00  0.00     0.031 C 
ATOM     68  C   UNL A   1      40.117  33.581  33.945  1.00  0.00     0.037 A 
BRANCH  55  69
ATOM     69  C   UNL A   1      43.637  33.440  29.844  1.00  0.00     0.064 A 
ATOM     70  C   UNL A   1      42.718  34.227  29.124  1.00  0.00     0.173 A 
ATOM     71  C   UNL A   1      44.973  33.496  29.386  1.00  0.00     0.173 A 
ATOM     72  F   UNL A   1      41.420  34.239  29.460  1.00  0.00    -0.203 F 
ATOM     73  C   UNL A   1      43.094  34.935  27.979  1.00  0.00     0.198 A 
ATOM     74  C   UNL A   1      45.353  34.247  28.276  1.00  0.00     0.198 A 
ATOM     75  F   UNL A   1      45.948  32.744  29.912  1.00  0.00    -0.203 F 
ATOM     76  F   UNL A   1      42.159  35.555  27.247  1.00  0.00    -0.200 F 
ATOM     77  C   UNL A   1      44.408  34.935  27.550  1.00  0.00     0.200 A 
ATOM     78  F   UNL A   1      46.631  34.218  27.870  1.00  0.00    -0.200 F 
ATOM     79  F   UNL A   1      44.756  35.550  26.413  1.00  0.00    -0.200 F 
ENDBRANCH  55  69
BRANCH  56  80
ATOM     80  C   UNL A   1      35.222  34.038  30.647  1.00  0.00     0.064 A 
ATOM     81  C   UNL A   1      34.213  34.725  31.340  1.00  0.00     0.173 A 
ATOM     82  C   UNL A   1      35.237  34.201  29.246  1.00  0.00     0.173 A 
ATOM     83  F   UNL A   1      34.159  34.670  32.679  1.00  0.00    -0.203 F 
ATOM     84  C   UNL A   1      33.282  35.529  30.673  1.00  0.00     0.198 A 
ATOM     85  C   UNL A   1      34.298  34.990  28.581  1.00  0.00     0.198 A 
ATOM     86  F   UNL A   1      36.217  33.676  28.499  1.00  0.00    -0.203 F 
ATOM     87  F   UNL A   1      32.367  36.215  31.373  1.00  0.00    -0.200 F 
ATOM     88  C   UNL A   1      33.327  35.663  29.295  1.00  0.00     0.200 A 
ATOM     89  F   UNL A   1      34.379  35.137  27.251  1.00  0.00    -0.200 F 
ATOM     90  F   UNL A   1      32.466  36.470  28.661  1.00  0.00    -0.200 F 
ENDBRANCH  56  80
BRANCH  68  91
ATOM     91  C   UNL A   1      39.477  33.097  35.212  1.00  0.00     0.064 A 
ATOM     92  C   UNL A   1      39.218  33.926  36.317  1.00  0.00     0.173 A 
ATOM     93  C   UNL A   1      38.984  31.787  35.256  1.00  0.00     0.173 A 
ATOM     94  F   UNL A   1      39.561  35.220  36.303  1.00  0.00    -0.203 F 
ATOM     95  C   UNL A   1      38.544  33.445  37.438  1.00  0.00     0.198 A 
ATOM     96  C   UNL A   1      38.279  31.319  36.361  1.00  0.00     0.198 A 
ATOM     97  F   UNL A   1      39.149  30.971  34.202  1.00  0.00    -0.203 F 
ATOM     98  F   UNL A   1      38.323  34.251  38.487  1.00  0.00    -0.200 F 
ATOM     99  C   UNL A   1      38.069  32.144  37.456  1.00  0.00     0.200 A 
ATOM    100  F   UNL A   1      37.776  30.077  36.354  1.00  0.00    -0.200 F 
ATOM    101  F   UNL A   1      37.386  31.692  38.517  1.00  0.00    -0.200 F 
ENDBRANCH  68  91
ENDBRANCH  42  43
ENDBRANCH  35  37
ENDBRANCH  34  35
ENDBRANCH  33  34
ENDBRANCH   1  33
TORSDOF 15
ENDMDL
MODEL 2
REMARK VINA RESULT:     -12.9      5.867     10.457
REMARK SMILES CCc1ccc(NC(=O)c2cnn3c2N=C(C(=O)OCCOC(=O)c2ccc(-c4c5nc(c(-c6c(F)c(F)c(F)c(F)c6F)c6ccc([nH]6)c(-c6c(F)c(F)c(F)c(F)c6F)c6nc(c(-c7c(F)c(F)c(F)c(F)c7F)c7ccc4[nH]7)C=C6)C=C5)cc2)C[C@H]3c2ccccc2Cl)cc1
REMARK SMILES IDX 20 1 19 2 17 3 18 4 16 5 10 6 11 7 14 8 12 9 13 10 15 11
REMARK SMILES IDX 89 12 88 13 8 14 7 15 9 17 6 18 3 19 4 20 98 21 5 22 97 23
REMARK SMILES IDX 2 24 1 25 90 26 91 27 95 28 92 29 94 30 96 31 93 32 21 33
REMARK SMILES IDX 22 34 23 35 24 36 25 37 26 38 87 39 27 40 86 41 28 42 29 43
REMARK SMILES IDX 30 44 80 45 31 46 85 47 79 48 81 49 32 50 84 51 78 52 77 53
REMARK SMILES IDX 33 55 65 56 45 57 64 58 46 59 49 60 63 61 82 62 47 63 48 64
REMARK SMILES IDX 62 66 83 67 50 68 34 69 35 70 43 71 36 72 37 73 41 74 44 75
REMARK SMILES IDX 38 76 39 77 42 78 40 79 66 80 67 81 75 82 68 83 69 84 73 85
REMARK SMILES IDX 76 86 70 87 71 88 74 89 72 90 51 91 52 92 60 93 53 94 54 95
REMARK SMILES IDX 58 96 61 97 55 98 56 99 59 100 57 101
REMARK H PARENT 7 16 81 54 49 65
REMARK Flexibility Score: inf
ROOT
ATOM      1  C   UNL A   1      34.201  29.993  26.920  1.00  0.00     0.275 C 
ENDROOT
BRANCH   1   2
ATOM      2  O   UNL A   1      34.077  28.616  26.519  1.00  0.00    -0.458 OA
BRANCH   2   3
ATOM      3  C   UNL A   1      32.895  28.007  26.765  1.00  0.00     0.352 C 
ATOM      4  O   UNL A   1      32.196  28.153  27.754  1.00  0.00    -0.245 OA
BRANCH   3   5
ATOM      5  C   UNL A   1      32.491  27.122  25.574  1.00  0.00     0.130 C 
ATOM      6  C   UNL A   1      33.538  24.769  23.040  1.00  0.00     0.104 A 
ATOM      7  C   UNL A   1      32.756  24.725  21.863  1.00  0.00     0.151 A 
ATOM      8  C   UNL A   1      33.032  25.839  23.769  1.00  0.00     0.164 A 
ATOM      9  N   UNL A   1      31.689  25.523  21.936  1.00  0.00    -0.178 NA
ATOM     10  N   UNL A   1      31.838  26.112  23.140  1.00  0.00    -0.239 N 
ATOM     11  N   UNL A   1      33.420  26.517  24.884  1.00  0.00    -0.225 NA
ATOM     12  C   UNL A   1      30.689  26.652  23.861  1.00  0.00     0.147 C 
ATOM     13  C   UNL A   1      31.009  26.946  25.326  1.00  0.00     0.096 C 
BRANCH   6  14
ATOM     14  C   UNL A   1      34.576  23.836  23.384  1.00  0.00     0.261 C 
ATOM     15  N   UNL A   1      34.346  22.886  24.368  1.00  0.00    -0.322 N 
ATOM     16  H   UNL A   1      35.089  22.251  24.487  1.00  0.00     0.170 HD
ATOM     17  O   UNL A   1      35.647  23.808  22.777  1.00  0.00    -0.269 OA
BRANCH  15  18
ATOM     18  C   UNL A   1      33.254  22.652  25.232  1.00  0.00     0.041 A 
ATOM     19  C   UNL A   1      30.893  22.858  26.771  1.00  0.00    -0.048 A 
ATOM     20  C   UNL A   1      30.962  21.996  25.676  1.00  0.00     0.006 A 
ATOM     21  C   UNL A   1      32.085  23.431  27.218  1.00  0.00     0.006 A 
ATOM     22  C   UNL A   1      32.140  21.877  24.934  1.00  0.00     0.026 A 
ATOM     23  C   UNL A   1      33.261  23.313  26.461  1.00  0.00     0.026 A 
BRANCH  19  24
ATOM     24  C   UNL A   1      29.554  23.098  27.423  1.00  0.00     0.032 C 
ATOM     25  C   UNL A   1      28.527  21.985  27.247  1.00  0.00     0.009 C 
ENDBRANCH  19  24
ENDBRANCH  15  18
ENDBRANCH   6  14
BRANCH  12  26
ATOM     26  C   UNL A   1      30.090  27.853  23.159  1.00  0.00    -0.004 A 
ATOM     27  C   UNL A   1      30.934  28.807  22.558  1.00  0.00     0.007 A 
ATOM     28  C   UNL A   1      28.700  28.069  23.118  1.00  0.00     0.046 A 
ATOM     29  C   UNL A   1      30.403  29.935  21.934  1.00  0.00     0.000 A 
ATOM     30  C   UNL A   1      28.176  29.198  22.486  1.00  0.00     0.021 A 
ATOM     31  Cl  UNL A   1      27.565  26.995  23.862  1.00  0.00    -0.084 Cl
ATOM     32  C   UNL A   1      29.026  30.130  21.896  1.00  0.00     0.002 A 
ENDBRANCH  12  26
ENDBRANCH   3   5
ENDBRANCH   2   3
ENDBRANCH   1   2
BRANCH   1  33
ATOM     33  C   UNL A   1      35.141  30.133  28.114  1.00  0.00     0.275 C 
BRANCH  33  34
ATOM     34  O   UNL A   1      36.363  30.775  27.740  1.00  0.00    -0.458 OA
BRANCH  34  35
ATOM     35  C   UNL A   1      37.405  30.482  28.545  1.00  0.00     0.338 C 
ATOM     36  O   UNL A   1      37.765  31.103  29.535  1.00  0.00    -0.246 OA
BRANCH  35  37
ATOM     37  C   UNL A   1      38.225  29.427  27.947  1.00  0.00     0.060 A 
ATOM     38  C   UNL A   1      38.201  28.194  28.589  1.00  0.00     0.016 A 
ATOM     39  C   UNL A   1      39.242  29.770  27.048  1.00  0.00     0.016 A 
ATOM     40  C   UNL A   1      39.337  27.419  28.540  1.00  0.00     0.010 A 
ATOM     41  C   UNL A   1      40.360  28.965  26.975  1.00  0.00     0.010 A 
ATOM     42  C   UNL A   1      40.455  27.872  27.835  1.00  0.00    -0.014 A 
BRANCH  42  43
ATOM     43  C   UNL A   1      41.712  27.153  28.042  1.00  0.00     0.031 A 
ATOM     44  C   UNL A   1      42.381  27.432  29.347  1.00  0.00     0.074 A 
ATOM     45  C   UNL A   1      42.164  26.255  27.139  1.00  0.00     0.049 A 
ATOM     46  N   UNL A   1      43.626  27.697  29.583  1.00  0.00    -0.248 NA
ATOM     47  C   UNL A   1      41.508  27.550  30.531  1.00  0.00     0.031 C 
ATOM     48  C   UNL A   1      41.487  25.790  25.922  1.00  0.00     0.029 A 
ATOM     49  N   UNL A   1      43.263  25.450  27.191  1.00  0.00    -0.354 N 
ATOM     50  C   UNL A   1      43.720  27.846  30.967  1.00  0.00     0.074 A 
ATOM     51  C   UNL A   1      42.377  27.899  31.475  1.00  0.00     0.031 C 
ATOM     52  C   UNL A   1      42.018  24.610  25.542  1.00  0.00     0.029 A 
ATOM     53  C   UNL A   1      43.140  24.307  26.411  1.00  0.00     0.049 A 
ATOM     54  H   UNL A   1      44.063  25.657  27.727  1.00  0.00     0.167 HD
ATOM     55  C   UNL A   1      44.889  27.652  31.632  1.00  0.00     0.037 A 
ATOM     56  C   UNL A   1      43.821  23.144  26.560  1.00  0.00     0.037 A 
ATOM     57  C   UNL A   1      46.028  27.904  30.796  1.00  0.00     0.049 A 
ATOM     58  C   UNL A   1      45.021  23.425  27.385  1.00  0.00     0.074 A 
ATOM     59  C   UNL A   1      46.504  29.006  30.110  1.00  0.00     0.029 A 
ATOM     60  N   UNL A   1      46.745  26.838  30.316  1.00  0.00    -0.354 N 
ATOM     61  N   UNL A   1      46.039  24.132  26.983  1.00  0.00    -0.248 NA
ATOM     62  C   UNL A   1      44.900  23.268  28.827  1.00  0.00     0.031 C 
ATOM     63  C   UNL A   1      47.121  28.481  28.938  1.00  0.00     0.029 A 
ATOM     64  C   UNL A   1      47.008  27.092  28.995  1.00  0.00     0.049 A 
ATOM     65  H   UNL A   1      47.019  26.041  30.823  1.00  0.00     0.167 HD
ATOM     66  C   UNL A   1      46.430  24.852  28.102  1.00  0.00     0.074 A 
ATOM     67  C   UNL A   1      45.760  24.208  29.226  1.00  0.00     0.031 C 
ATOM     68  C   UNL A   1      47.027  26.072  27.978  1.00  0.00     0.037 A 
BRANCH  55  69
ATOM     69  C   UNL A   1      44.965  26.852  32.913  1.00  0.00     0.064 A 
ATOM     70  C   UNL A   1      45.627  27.401  34.028  1.00  0.00     0.173 A 
ATOM     71  C   UNL A   1      44.700  25.465  32.988  1.00  0.00     0.173 A 
ATOM     72  F   UNL A   1      45.944  28.704  34.061  1.00  0.00    -0.203 F 
ATOM     73  C   UNL A   1      46.074  26.603  35.085  1.00  0.00     0.198 A 
ATOM     74  C   UNL A   1      45.099  24.683  34.069  1.00  0.00     0.198 A 
ATOM     75  F   UNL A   1      44.152  24.781  31.976  1.00  0.00    -0.203 F 
ATOM     76  F   UNL A   1      46.822  27.146  36.055  1.00  0.00    -0.200 F 
ATOM     77  C   UNL A   1      45.819  25.244  35.100  1.00  0.00     0.200 A 
ATOM     78  F   UNL A   1      44.855  23.365  34.052  1.00  0.00    -0.200 F 
ATOM     79  F   UNL A   1      46.310  24.467  36.073  1.00  0.00    -0.200 F 
ENDBRANCH  55  69
BRANCH  56  80
ATOM     80  C   UNL A   1      43.306  21.770  26.337  1.00  0.00     0.064 A 
ATOM     81  C   UNL A   1      43.939  20.892  25.444  1.00  0.00     0.173 A 
ATOM     82  C   UNL A   1      42.326  21.203  27.178  1.00  0.00     0.173 A 
ATOM     83  F   UNL A   1      44.922  21.336  24.647  1.00  0.00    -0.203 F 
ATOM     84  C   UNL A   1      43.615  19.531  25.399  1.00  0.00     0.198 A 
ATOM     85  C   UNL A   1      41.992  19.850  27.122  1.00  0.00     0.198 A 
ATOM     86  F   UNL A   1      41.734  21.927  28.138  1.00  0.00    -0.203 F 
ATOM     87  F   UNL A   1      44.281  18.712  24.573  1.00  0.00    -0.200 F 
ATOM     88  C   UNL A   1      42.645  19.011  26.240  1.00  0.00     0.200 A 
ATOM     89  F   UNL A   1      41.076  19.356  27.967  1.00  0.00    -0.200 F 
ATOM     90  F   UNL A   1      42.369  17.700  26.232  1.00  0.00    -0.200 F 
ENDBRANCH  56  80
BRANCH  68  91
ATOM     91  C   UNL A   1      47.494  26.483  26.613  1.00  0.00     0.064 A 
ATOM     92  C   UNL A   1      48.747  26.131  26.082  1.00  0.00     0.173 A 
ATOM     93  C   UNL A   1      46.592  27.133  25.763  1.00  0.00     0.173 A 
ATOM     94  F   UNL A   1      49.621  25.411  26.798  1.00  0.00    -0.203 F 
ATOM     95  C   UNL A   1      49.099  26.465  24.776  1.00  0.00     0.198 A 
ATOM     96  C   UNL A   1      46.930  27.435  24.447  1.00  0.00     0.198 A 
ATOM     97  F   UNL A   1      45.358  27.437  26.198  1.00  0.00    -0.203 F 
ATOM     98  F   UNL A   1      50.307  26.132  24.298  1.00  0.00    -0.200 F 
ATOM     99  C   UNL A   1      48.187  27.112  23.957  1.00  0.00     0.200 A 
ATOM    100  F   UNL A   1      46.028  28.013  23.642  1.00  0.00    -0.200 F 
ATOM    101  F   UNL A   1      48.509  27.400  22.689  1.00  0.00    -0.200 F 
ENDBRANCH  68  91
ENDBRANCH  42  43
ENDBRANCH  35  37
ENDBRANCH  34  35
ENDBRANCH  33  34
ENDBRANCH   1  33
TORSDOF 15
ENDMDL
MODEL 3
REMARK VINA RESULT:     -12.5      1.830      4.065
REMARK SMILES CCc1ccc(NC(=O)c2cnn3c2N=C(C(=O)OCCOC(=O)c2ccc(-c4c5nc(c(-c6c(F)c(F)c(F)c(F)c6F)c6ccc([nH]6)c(-c6c(F)c(F)c(F)c(F)c6F)c6nc(c(-c7c(F)c(F)c(F)c(F)c7F)c7ccc4[nH]7)C=C6)C=C5)cc2)C[C@H]3c2ccccc2Cl)cc1
REMARK SMILES IDX 20 1 19 2 17 3 18 4 16 5 10 6 11 7 14 8 12 9 13 10 15 11
REMARK SMILES IDX 89 12 88 13 8 14 7 15 9 17 6 18 3 19 4 20 98 21 5 22 97 23
REMARK SMILES IDX 2 24 1 25 90 26 91 27 95 28 92 29 94 30 96 31 93 32 21 33
REMARK SMILES IDX 22 34 23 35 24 36 25 37 26 38 87 39 27 40 86 41 28 42 29 43
REMARK SMILES IDX 30 44 80 45 31 46 85 47 79 48 81 49 32 50 84 51 78 52 77 53
REMARK SMILES IDX 33 55 65 56 45 57 64 58 46 59 49 60 63 61 82 62 47 63 48 64
REMARK SMILES IDX 62 66 83 67 50 68 34 69 35 70 43 71 36 72 37 73 41 74 44 75
REMARK SMILES IDX 38 76 39 77 42 78 40 79 66 80 67 81 75 82 68 83 69 84 73 85
REMARK SMILES IDX 76 86 70 87 71 88 74 89 72 90 51 91 52 92 60 93 53 94 54 95
REMARK SMILES IDX 58 96 61 97 55 98 56 99 59 100 57 101
REMARK H PARENT 7 16 81 54 49 65
REMARK Flexibility Score: inf
ROOT
ATOM      1  C   UNL A   1      37.768  22.754  25.839  1.00  0.00     0.275 C 
ENDROOT
BRANCH   1   2
ATOM      2  O   UNL A   1      36.951  23.808  25.298  1.00  0.00    -0.458 OA
BRANCH   2   3
ATOM      3  C   UNL A   1      36.298  23.549  24.141  1.00  0.00     0.352 C 
ATOM      4  O   UNL A   1      36.806  23.281  23.066  1.00  0.00    -0.245 OA
BRANCH   3   5
ATOM      5  C   UNL A   1      34.776  23.574  24.370  1.00  0.00     0.130 C 
ATOM      6  C   UNL A   1      31.989  25.037  26.142  1.00  0.00     0.104 A 
ATOM      7  C   UNL A   1      30.844  24.223  26.293  1.00  0.00     0.151 A 
ATOM      8  C   UNL A   1      32.951  24.206  25.580  1.00  0.00     0.164 A 
ATOM      9  N   UNL A   1      30.969  23.054  25.661  1.00  0.00    -0.178 NA
ATOM     10  N   UNL A   1      32.220  23.116  25.163  1.00  0.00    -0.239 N 
ATOM     11  N   UNL A   1      34.287  24.303  25.337  1.00  0.00    -0.225 NA
ATOM     12  C   UNL A   1      32.607  22.325  23.999  1.00  0.00     0.147 C 
ATOM     13  C   UNL A   1      33.927  22.796  23.389  1.00  0.00     0.096 C 
BRANCH   6  14
ATOM     14  C   UNL A   1      32.061  26.439  26.458  1.00  0.00     0.261 C 
ATOM     15  N   UNL A   1      32.104  27.371  25.432  1.00  0.00    -0.322 N 
ATOM     16  H   UNL A   1      32.084  28.305  25.744  1.00  0.00     0.170 HD
ATOM     17  O   UNL A   1      32.012  26.842  27.620  1.00  0.00    -0.269 OA
BRANCH  15  18
ATOM     18  C   UNL A   1      32.169  27.242  24.027  1.00  0.00     0.041 A 
ATOM     19  C   UNL A   1      32.477  26.306  21.380  1.00  0.00    -0.048 A 
ATOM     20  C   UNL A   1      31.221  26.663  21.872  1.00  0.00     0.006 A 
ATOM     21  C   UNL A   1      33.592  26.644  22.148  1.00  0.00     0.006 A 
ATOM     22  C   UNL A   1      31.077  27.151  23.173  1.00  0.00     0.026 A 
ATOM     23  C   UNL A   1      33.437  27.126  23.457  1.00  0.00     0.026 A 
BRANCH  19  24
ATOM     24  C   UNL A   1      32.562  25.606  20.045  1.00  0.00     0.032 C 
ATOM     25  C   UNL A   1      33.027  24.155  20.092  1.00  0.00     0.009 C 
ENDBRANCH  19  24
ENDBRANCH  15  18
ENDBRANCH   6  14
BRANCH  12  26
ATOM     26  C   UNL A   1      32.619  20.840  24.298  1.00  0.00    -0.004 A 
ATOM     27  C   UNL A   1      32.976  20.387  25.583  1.00  0.00     0.007 A 
ATOM     28  C   UNL A   1      32.316  19.884  23.312  1.00  0.00     0.046 A 
ATOM     29  C   UNL A   1      33.023  19.024  25.871  1.00  0.00     0.000 A 
ATOM     30  C   UNL A   1      32.359  18.520  23.609  1.00  0.00     0.021 A 
ATOM     31  Cl  UNL A   1      31.912  20.314  21.686  1.00  0.00    -0.084 Cl
ATOM     32  C   UNL A   1      32.713  18.091  24.886  1.00  0.00     0.002 A 
ENDBRANCH  12  26
ENDBRANCH   3   5
ENDBRANCH   2   3
ENDBRANCH   1   2
BRANCH   1  33
ATOM     33  C   UNL A   1      38.936  23.323  26.639  1.00  0.00     0.275 C 
BRANCH  33  34
ATOM     34  O   UNL A   1      39.079  24.728  26.423  1.00  0.00    -0.458 OA
BRANCH  34  35
ATOM     35  C   UNL A   1      39.981  25.320  27.233  1.00  0.00     0.338 C 
ATOM     36  O   UNL A   1      41.176  25.072  27.304  1.00  0.00    -0.246 OA
BRANCH  35  37
ATOM     37  C   UNL A   1      39.300  26.164  28.216  1.00  0.00     0.060 A 
ATOM     38  C   UNL A   1      38.522  27.196  27.702  1.00  0.00     0.016 A 
ATOM     39  C   UNL A   1      39.732  26.161  29.546  1.00  0.00     0.016 A 
ATOM     40  C   UNL A   1      38.411  28.351  28.442  1.00  0.00     0.010 A 
ATOM     41  C   UNL A   1      39.581  27.309  30.296  1.00  0.00     0.010 A 
ATOM     42  C   UNL A   1      39.050  28.443  29.682  1.00  0.00    -0.014 A 
BRANCH  42  43
ATOM     43  C   UNL A   1      39.132  29.769  30.293  1.00  0.00     0.031 A 
ATOM     44  C   UNL A   1      40.484  30.400  30.231  1.00  0.00     0.074 A 
ATOM     45  C   UNL A   1      38.038  30.379  30.797  1.00  0.00     0.049 A 
ATOM     46  N   UNL A   1      41.146  31.001  31.168  1.00  0.00    -0.248 NA
ATOM     47  C   UNL A   1      41.243  30.225  28.978  1.00  0.00     0.031 C 
ATOM     48  C   UNL A   1      36.646  29.912  30.741  1.00  0.00     0.029 A 
ATOM     49  N   UNL A   1      37.909  31.625  31.337  1.00  0.00    -0.354 N 
ATOM     50  C   UNL A   1      42.333  31.426  30.572  1.00  0.00     0.074 A 
ATOM     51  C   UNL A   1      42.406  30.793  29.284  1.00  0.00     0.031 C 
ATOM     52  C   UNL A   1      35.818  30.960  30.933  1.00  0.00     0.029 A 
ATOM     53  C   UNL A   1      36.617  32.130  31.242  1.00  0.00     0.049 A 
ATOM     54  H   UNL A   1      38.655  32.117  31.751  1.00  0.00     0.167 HD
ATOM     55  C   UNL A   1      43.049  32.471  31.063  1.00  0.00     0.037 A 
ATOM     56  C   UNL A   1      36.251  33.435  31.280  1.00  0.00     0.037 A 
ATOM     57  C   UNL A   1      42.841  32.647  32.472  1.00  0.00     0.049 A 
ATOM     58  C   UNL A   1      37.369  34.203  31.881  1.00  0.00     0.074 A 
ATOM     59  C   UNL A   1      43.059  31.864  33.590  1.00  0.00     0.029 A 
ATOM     60  N   UNL A   1      42.048  33.681  32.900  1.00  0.00    -0.354 N 
ATOM     61  N   UNL A   1      37.726  34.121  33.131  1.00  0.00    -0.248 NA
ATOM     62  C   UNL A   1      38.371  34.751  30.979  1.00  0.00     0.031 C 
ATOM     63  C   UNL A   1      42.010  32.199  34.493  1.00  0.00     0.029 A 
ATOM     64  C   UNL A   1      41.234  33.184  33.883  1.00  0.00     0.049 A 
ATOM     65  H   UNL A   1      42.062  34.606  32.565  1.00  0.00     0.167 HD
ATOM     66  C   UNL A   1      39.111  34.201  33.107  1.00  0.00     0.074 A 
ATOM     67  C   UNL A   1      39.443  34.687  31.771  1.00  0.00     0.031 C 
ATOM     68  C   UNL A   1      39.866  33.596  34.067  1.00  0.00     0.037 A 
BRANCH  55  69
ATOM     69  C   UNL A   1      43.611  33.555  30.169  1.00  0.00     0.064 A 
ATOM     70  C   UNL A   1      44.971  33.901  30.282  1.00  0.00     0.173 A 
ATOM     71  C   UNL A   1      42.810  34.471  29.449  1.00  0.00     0.173 A 
ATOM     72  F   UNL A   1      45.822  33.115  30.957  1.00  0.00    -0.203 F 
ATOM     73  C   UNL A   1      45.464  35.116  29.795  1.00  0.00     0.198 A 
ATOM     74  C   UNL A   1      43.317  35.654  28.918  1.00  0.00     0.198 A 
ATOM     75  F   UNL A   1      41.485  34.325  29.324  1.00  0.00    -0.203 F 
ATOM     76  F   UNL A   1      46.732  35.465  30.049  1.00  0.00    -0.200 F 
ATOM     77  C   UNL A   1      44.635  35.995  29.124  1.00  0.00     0.200 A 
ATOM     78  F   UNL A   1      42.490  36.498  28.286  1.00  0.00    -0.200 F 
ATOM     79  F   UNL A   1      45.087  37.190  28.723  1.00  0.00    -0.200 F 
ENDBRANCH  55  69
BRANCH  56  80
ATOM     80  C   UNL A   1      35.159  34.081  30.509  1.00  0.00     0.064 A 
ATOM     81  C   UNL A   1      34.103  34.739  31.156  1.00  0.00     0.173 A 
ATOM     82  C   UNL A   1      35.255  34.278  29.116  1.00  0.00     0.173 A 
ATOM     83  F   UNL A   1      33.970  34.652  32.488  1.00  0.00    -0.203 F 
ATOM     84  C   UNL A   1      33.203  35.550  30.454  1.00  0.00     0.198 A 
ATOM     85  C   UNL A   1      34.349  35.072  28.415  1.00  0.00     0.198 A 
ATOM     86  F   UNL A   1      36.284  33.781  28.415  1.00  0.00    -0.203 F 
ATOM     87  F   UNL A   1      32.241  36.209  31.115  1.00  0.00    -0.200 F 
ATOM     88  C   UNL A   1      33.329  35.718  29.085  1.00  0.00     0.200 A 
ATOM     89  F   UNL A   1      34.506  35.252  27.095  1.00  0.00    -0.200 F 
ATOM     90  F   UNL A   1      32.497  36.531  28.420  1.00  0.00    -0.200 F 
ENDBRANCH  56  80
BRANCH  68  91
ATOM     91  C   UNL A   1      39.160  33.084  35.287  1.00  0.00     0.064 A 
ATOM     92  C   UNL A   1      38.723  31.756  35.432  1.00  0.00     0.173 A 
ATOM     93  C   UNL A   1      39.046  33.926  36.400  1.00  0.00     0.173 A 
ATOM     94  F   UNL A   1      38.899  30.862  34.450  1.00  0.00    -0.203 F 
ATOM     95  C   UNL A   1      38.148  31.310  36.620  1.00  0.00     0.198 A 
ATOM     96  C   UNL A   1      38.505  33.469  37.598  1.00  0.00     0.198 A 
ATOM     97  F   UNL A   1      39.504  35.187  36.338  1.00  0.00    -0.203 F 
ATOM     98  F   UNL A   1      37.724  30.042  36.728  1.00  0.00    -0.200 F 
ATOM     99  C   UNL A   1      38.045  32.165  37.704  1.00  0.00     0.200 A 
ATOM    100  F   UNL A   1      38.455  34.284  38.661  1.00  0.00    -0.200 F 
ATOM    101  F   UNL A   1      37.528  31.727  38.860  1.00  0.00    -0.200 F 
ENDBRANCH  68  91
ENDBRANCH  42  43
ENDBRANCH  35  37
ENDBRANCH  34  35
ENDBRANCH  33  34
ENDBRANCH   1  33
TORSDOF 15
ENDMDL
