MODEL 1
REMARK VINA RESULT:     -12.4      0.000      0.000
REMARK SMILES CC(C)c1cc2c(cc1Cl)C=C(C(=O)OCCOC(=O)c1ccc(-c3c4nc(c(-c5c(F)c(F)c(F)c(F)c5F)c5ccc([nH]5)c(-c5c(F)c(F)c(F)c(F)c5F)c5nc(c(-c6c(F)c(F)c(F)c(F)c6F)c6ccc3[nH]6)C=C5)C=C4)cc1)[C@@H](C(F)(F)F)O2
REMARK SMILES IDX 17 1 16 2 15 3 13 4 14 5 12 6 4 7 5 8 9 9 6 10 8 11 10 12
REMARK SMILES IDX 7 13 89 14 11 15 84 16 2 17 1 18 3 19 85 20 86 21 87 22
REMARK SMILES IDX 88 23 18 24 19 25 20 26 21 27 22 28 83 29 23 30 82 31 24 32
REMARK SMILES IDX 25 33 26 34 76 35 27 36 81 37 75 38 77 39 28 40 80 41 74 42
REMARK SMILES IDX 73 43 29 45 61 46 41 47 60 48 42 49 45 50 59 51 78 52 43 53
REMARK SMILES IDX 44 54 58 56 79 57 46 58 30 59 31 60 39 61 32 62 33 63 37 64
REMARK SMILES IDX 40 65 34 66 35 67 38 68 36 69 62 70 63 71 71 72 64 73 65 74
REMARK SMILES IDX 69 75 72 76 66 77 67 78 70 79 68 80 47 81 48 82 56 83 49 84
REMARK SMILES IDX 50 85 54 86 57 87 51 88 52 89 55 90 53 91
REMARK H PARENT 77 44 45 55
REMARK Flexibility Score: inf
ROOT
ATOM      1  C   UNL A   1      31.394  30.697  26.212  1.00  0.00     0.275 C 
ENDROOT
BRANCH   1   2
ATOM      2  C   UNL A   1      31.045  30.091  24.852  1.00  0.00     0.275 C 
BRANCH   2   3
ATOM      3  O   UNL A   1      30.725  28.686  24.966  1.00  0.00    -0.459 OA
BRANCH   3   4
ATOM      4  C   UNL A   1      30.737  27.988  23.807  1.00  0.00     0.338 C 
ATOM      5  O   UNL A   1      30.000  28.158  22.847  1.00  0.00    -0.246 OA
BRANCH   4   6
ATOM      6  C   UNL A   1      31.836  27.002  23.803  1.00  0.00     0.087 C 
ATOM      7  C   UNL A   1      35.253  23.528  25.146  1.00  0.00    -0.023 A 
ATOM      8  C   UNL A   1      35.041  24.322  23.994  1.00  0.00     0.052 A 
ATOM      9  C   UNL A   1      34.309  23.629  26.187  1.00  0.00     0.045 A 
ATOM     10  C   UNL A   1      33.957  25.202  23.898  1.00  0.00     0.128 A 
ATOM     11  C   UNL A   1      33.206  24.477  26.074  1.00  0.00     0.032 A 
ATOM     12  Cl  UNL A   1      34.458  22.771  27.683  1.00  0.00    -0.084 Cl
ATOM     13  C   UNL A   1      33.045  25.275  24.942  1.00  0.00     0.019 A 
ATOM     14  O   UNL A   1      33.849  25.947  22.755  1.00  0.00    -0.475 OA
ATOM     15  C   UNL A   1      31.937  26.200  24.869  1.00  0.00     0.027 C 
ATOM     16  C   UNL A   1      32.867  27.029  22.711  1.00  0.00     0.316 C 
BRANCH   7  17
ATOM     17  C   UNL A   1      36.469  22.612  25.275  1.00  0.00     0.014 C 
ATOM     18  C   UNL A   1      36.916  22.065  23.912  1.00  0.00     0.012 C 
ATOM     19  C   UNL A   1      37.682  23.239  25.974  1.00  0.00     0.012 C 
ENDBRANCH   7  17
BRANCH  16  20
ATOM     20  C   UNL A   1      33.601  28.383  22.708  1.00  0.00     0.430 C 
ATOM     21  F   UNL A   1      34.707  28.350  21.932  1.00  0.00    -0.167 F 
ATOM     22  F   UNL A   1      32.812  29.371  22.221  1.00  0.00    -0.167 F 
ATOM     23  F   UNL A   1      33.985  28.754  23.951  1.00  0.00    -0.167 F 
ENDBRANCH  16  20
ENDBRANCH   4   6
ENDBRANCH   3   4
ENDBRANCH   2   3
ENDBRANCH   1   2
BRANCH   1  24
ATOM     24  O   UNL A   1      32.821  30.720  26.395  1.00  0.00    -0.458 OA
BRANCH  24  25
ATOM     25  C   UNL A   1      33.305  31.752  27.122  1.00  0.00     0.338 C 
ATOM     26  O   UNL A   1      32.756  32.806  27.383  1.00  0.00    -0.246 OA
BRANCH  25  27
ATOM     27  C   UNL A   1      34.623  31.386  27.665  1.00  0.00     0.060 A 
ATOM     28  C   UNL A   1      35.571  32.347  27.991  1.00  0.00     0.016 A 
ATOM     29  C   UNL A   1      34.850  30.054  27.984  1.00  0.00     0.016 A 
ATOM     30  C   UNL A   1      36.760  31.948  28.619  1.00  0.00     0.010 A 
ATOM     31  C   UNL A   1      35.957  29.680  28.738  1.00  0.00     0.010 A 
ATOM     32  C   UNL A   1      36.955  30.613  29.034  1.00  0.00    -0.014 A 
BRANCH  32  33
ATOM     33  C   UNL A   1      38.194  30.185  29.753  1.00  0.00     0.031 A 
ATOM     34  C   UNL A   1      38.460  30.622  31.177  1.00  0.00     0.074 A 
ATOM     35  C   UNL A   1      39.115  29.433  29.117  1.00  0.00     0.049 A 
ATOM     36  N   UNL A   1      39.488  30.357  31.948  1.00  0.00    -0.248 NA
ATOM     37  C   UNL A   1      37.471  31.515  31.804  1.00  0.00     0.031 C 
ATOM     38  C   UNL A   1      39.051  29.024  27.713  1.00  0.00     0.029 A 
ATOM     39  N   UNL A   1      40.279  28.862  29.572  1.00  0.00    -0.354 N 
ATOM     40  C   UNL A   1      39.281  31.073  33.121  1.00  0.00     0.074 A 
ATOM     41  C   UNL A   1      38.075  31.847  32.935  1.00  0.00     0.031 C 
ATOM     42  C   UNL A   1      40.077  28.202  27.445  1.00  0.00     0.029 A 
ATOM     43  C   UNL A   1      40.896  28.057  28.645  1.00  0.00     0.049 A 
ATOM     44  H   UNL A   1      40.637  29.016  30.476  1.00  0.00     0.167 HD
ATOM     45  C   UNL A   1      39.997  31.056  34.272  1.00  0.00     0.037 A 
ATOM     46  C   UNL A   1      41.986  27.271  28.752  1.00  0.00     0.037 A 
ATOM     47  C   UNL A   1      41.151  30.227  34.494  1.00  0.00     0.049 A 
ATOM     48  C   UNL A   1      42.724  27.206  30.060  1.00  0.00     0.074 A 
ATOM     49  C   UNL A   1      41.886  30.064  35.654  1.00  0.00     0.029 A 
ATOM     50  N   UNL A   1      41.726  29.407  33.536  1.00  0.00    -0.354 N 
ATOM     51  N   UNL A   1      42.470  27.831  31.183  1.00  0.00    -0.248 NA
ATOM     52  C   UNL A   1      43.899  26.326  30.114  1.00  0.00     0.031 C 
ATOM     53  C   UNL A   1      42.924  29.164  35.391  1.00  0.00     0.029 A 
ATOM     54  C   UNL A   1      42.813  28.741  34.077  1.00  0.00     0.049 A 
ATOM     55  H   UNL A   1      41.410  29.312  32.608  1.00  0.00     0.167 HD
ATOM     56  C   UNL A   1      43.445  27.416  32.079  1.00  0.00     0.074 A 
ATOM     57  C   UNL A   1      44.280  26.463  31.377  1.00  0.00     0.031 C 
ATOM     58  C   UNL A   1      43.637  27.798  33.365  1.00  0.00     0.037 A 
BRANCH  45  59
ATOM     59  C   UNL A   1      39.521  31.924  35.404  1.00  0.00     0.064 A 
ATOM     60  C   UNL A   1      39.954  33.253  35.539  1.00  0.00     0.173 A 
ATOM     61  C   UNL A   1      38.591  31.443  36.338  1.00  0.00     0.173 A 
ATOM     62  F   UNL A   1      40.848  33.762  34.678  1.00  0.00    -0.203 F 
ATOM     63  C   UNL A   1      39.504  34.053  36.585  1.00  0.00     0.198 A 
ATOM     64  C   UNL A   1      38.116  32.257  37.363  1.00  0.00     0.198 A 
ATOM     65  F   UNL A   1      38.132  30.185  36.249  1.00  0.00    -0.203 F 
ATOM     66  F   UNL A   1      39.974  35.300  36.723  1.00  0.00    -0.200 F 
ATOM     67  C   UNL A   1      38.579  33.558  37.492  1.00  0.00     0.200 A 
ATOM     68  F   UNL A   1      37.209  31.783  38.229  1.00  0.00    -0.200 F 
ATOM     69  F   UNL A   1      38.139  34.333  38.492  1.00  0.00    -0.200 F 
ENDBRANCH  45  59
BRANCH  46  70
ATOM     70  C   UNL A   1      42.392  26.421  27.603  1.00  0.00     0.064 A 
ATOM     71  C   UNL A   1      43.403  26.844  26.729  1.00  0.00     0.173 A 
ATOM     72  C   UNL A   1      41.814  25.164  27.375  1.00  0.00     0.173 A 
ATOM     73  F   UNL A   1      43.971  28.047  26.895  1.00  0.00    -0.203 F 
ATOM     74  C   UNL A   1      43.817  26.044  25.666  1.00  0.00     0.198 A 
ATOM     75  C   UNL A   1      42.247  24.355  26.327  1.00  0.00     0.198 A 
ATOM     76  F   UNL A   1      40.848  24.712  28.187  1.00  0.00    -0.203 F 
ATOM     77  F   UNL A   1      44.767  26.486  24.830  1.00  0.00    -0.200 F 
ATOM     78  C   UNL A   1      43.245  24.797  25.471  1.00  0.00     0.200 A 
ATOM     79  F   UNL A   1      41.702  23.143  26.149  1.00  0.00    -0.200 F 
ATOM     80  F   UNL A   1      43.655  24.022  24.458  1.00  0.00    -0.200 F 
ENDBRANCH  46  70
BRANCH  58  81
ATOM     81  C   UNL A   1      44.793  27.191  34.102  1.00  0.00     0.064 A 
ATOM     82  C   UNL A   1      46.042  27.828  34.148  1.00  0.00     0.173 A 
ATOM     83  C   UNL A   1      44.635  25.998  34.823  1.00  0.00     0.173 A 
ATOM     84  F   UNL A   1      46.245  28.964  33.464  1.00  0.00    -0.203 F 
ATOM     85  C   UNL A   1      47.095  27.282  34.875  1.00  0.00     0.198 A 
ATOM     86  C   UNL A   1      45.682  25.469  35.571  1.00  0.00     0.198 A 
ATOM     87  F   UNL A   1      43.457  25.355  34.817  1.00  0.00    -0.203 F 
ATOM     88  F   UNL A   1      48.290  27.888  34.877  1.00  0.00    -0.200 F 
ATOM     89  C   UNL A   1      46.913  26.110  35.594  1.00  0.00     0.200 A 
ATOM     90  F   UNL A   1      45.501  24.344  36.275  1.00  0.00    -0.200 F 
ATOM     91  F   UNL A   1      47.925  25.593  36.304  1.00  0.00    -0.200 F 
ENDBRANCH  58  81
ENDBRANCH  32  33
ENDBRANCH  25  27
ENDBRANCH  24  25
ENDBRANCH   1  24
TORSDOF 13
ENDMDL
MODEL 2
REMARK VINA RESULT:     -12.3      0.260      1.967
REMARK SMILES CC(C)c1cc2c(cc1Cl)C=C(C(=O)OCCOC(=O)c1ccc(-c3c4nc(c(-c5c(F)c(F)c(F)c(F)c5F)c5ccc([nH]5)c(-c5c(F)c(F)c(F)c(F)c5F)c5nc(c(-c6c(F)c(F)c(F)c(F)c6F)c6ccc3[nH]6)C=C5)C=C4)cc1)[C@@H](C(F)(F)F)O2
REMARK SMILES IDX 17 1 16 2 15 3 13 4 14 5 12 6 4 7 5 8 9 9 6 10 8 11 10 12
REMARK SMILES IDX 7 13 89 14 11 15 84 16 2 17 1 18 3 19 85 20 86 21 87 22
REMARK SMILES IDX 88 23 18 24 19 25 20 26 21 27 22 28 83 29 23 30 82 31 24 32
REMARK SMILES IDX 25 33 26 34 76 35 27 36 81 37 75 38 77 39 28 40 80 41 74 42
REMARK SMILES IDX 73 43 29 45 61 46 41 47 60 48 42 49 45 50 59 51 78 52 43 53
REMARK SMILES IDX 44 54 58 56 79 57 46 58 30 59 31 60 39 61 32 62 33 63 37 64
REMARK SMILES IDX 40 65 34 66 35 67 38 68 36 69 62 70 63 71 71 72 64 73 65 74
REMARK SMILES IDX 69 75 72 76 66 77 67 78 70 79 68 80 47 81 48 82 56 83 49 84
REMARK SMILES IDX 50 85 54 86 57 87 51 88 52 89 55 90 53 91
REMARK H PARENT 77 44 45 55
REMARK Flexibility Score: inf
ROOT
ATOM      1  C   UNL A   1      31.672  29.887  26.195  1.00  0.00     0.275 C 
ENDROOT
BRANCH   1   2
ATOM      2  C   UNL A   1      31.088  29.724  24.791  1.00  0.00     0.275 C 
BRANCH   2   3
ATOM      3  O   UNL A   1      30.496  28.418  24.613  1.00  0.00    -0.459 OA
BRANCH   3   4
ATOM      4  C   UNL A   1      30.717  27.835  23.412  1.00  0.00     0.338 C 
ATOM      5  O   UNL A   1      30.136  28.081  22.366  1.00  0.00    -0.246 OA
BRANCH   4   6
ATOM      6  C   UNL A   1      31.838  26.876  23.496  1.00  0.00     0.087 C 
ATOM      7  C   UNL A   1      35.253  23.522  25.117  1.00  0.00    -0.023 A 
ATOM      8  C   UNL A   1      35.089  24.284  23.935  1.00  0.00     0.052 A 
ATOM      9  C   UNL A   1      34.248  23.624  26.100  1.00  0.00     0.045 A 
ATOM     10  C   UNL A   1      33.992  25.134  23.757  1.00  0.00     0.128 A 
ATOM     11  C   UNL A   1      33.134  24.441  25.903  1.00  0.00     0.032 A 
ATOM     12  Cl  UNL A   1      34.331  22.805  27.623  1.00  0.00    -0.084 Cl
ATOM     13  C   UNL A   1      33.020  25.208  24.744  1.00  0.00     0.019 A 
ATOM     14  O   UNL A   1      33.932  25.849  22.591  1.00  0.00    -0.475 OA
ATOM     15  C   UNL A   1      31.895  26.102  24.585  1.00  0.00     0.027 C 
ATOM     16  C   UNL A   1      32.929  26.904  22.463  1.00  0.00     0.316 C 
BRANCH   7  17
ATOM     17  C   UNL A   1      36.481  22.641  25.338  1.00  0.00     0.014 C 
ATOM     18  C   UNL A   1      37.028  22.086  24.015  1.00  0.00     0.012 C 
ATOM     19  C   UNL A   1      37.630  23.309  26.103  1.00  0.00     0.012 C 
ENDBRANCH   7  17
BRANCH  16  20
ATOM     20  C   UNL A   1      33.629  28.275  22.469  1.00  0.00     0.430 C 
ATOM     21  F   UNL A   1      34.721  28.282  21.671  1.00  0.00    -0.167 F 
ATOM     22  F   UNL A   1      32.807  29.251  22.014  1.00  0.00    -0.167 F 
ATOM     23  F   UNL A   1      34.029  28.636  23.711  1.00  0.00    -0.167 F 
ENDBRANCH  16  20
ENDBRANCH   4   6
ENDBRANCH   3   4
ENDBRANCH   2   3
ENDBRANCH   1   2
BRANCH   1  24
ATOM     24  O   UNL A   1      33.010  30.413  26.118  1.00  0.00    -0.458 OA
BRANCH  24  25
ATOM     25  C   UNL A   1      33.328  31.350  27.040  1.00  0.00     0.338 C 
ATOM     26  O   UNL A   1      32.646  32.280  27.427  1.00  0.00    -0.246 OA
BRANCH  25  27
ATOM     27  C   UNL A   1      34.644  31.034  27.617  1.00  0.00     0.060 A 
ATOM     28  C   UNL A   1      35.532  32.032  28.000  1.00  0.00     0.016 A 
ATOM     29  C   UNL A   1      34.928  29.706  27.908  1.00  0.00     0.016 A 
ATOM     30  C   UNL A   1      36.719  31.674  28.656  1.00  0.00     0.010 A 
ATOM     31  C   UNL A   1      36.028  29.366  28.689  1.00  0.00     0.010 A 
ATOM     32  C   UNL A   1      36.968  30.339  29.042  1.00  0.00    -0.014 A 
BRANCH  32  33
ATOM     33  C   UNL A   1      38.203  29.953  29.790  1.00  0.00     0.031 A 
ATOM     34  C   UNL A   1      38.436  30.427  31.208  1.00  0.00     0.074 A 
ATOM     35  C   UNL A   1      39.150  29.207  29.186  1.00  0.00     0.049 A 
ATOM     36  N   UNL A   1      39.457  30.201  32.001  1.00  0.00    -0.248 NA
ATOM     37  C   UNL A   1      37.419  31.312  31.799  1.00  0.00     0.031 C 
ATOM     38  C   UNL A   1      39.117  28.766  27.790  1.00  0.00     0.029 A 
ATOM     39  N   UNL A   1      40.318  28.671  29.672  1.00  0.00    -0.354 N 
ATOM     40  C   UNL A   1      39.216  30.938  33.155  1.00  0.00     0.074 A 
ATOM     41  C   UNL A   1      37.997  31.682  32.932  1.00  0.00     0.031 C 
ATOM     42  C   UNL A   1      40.165  27.960  27.558  1.00  0.00     0.029 A 
ATOM     43  C   UNL A   1      40.967  27.858  28.774  1.00  0.00     0.049 A 
ATOM     44  H   UNL A   1      40.658  28.852  30.579  1.00  0.00     0.167 HD
ATOM     45  C   UNL A   1      39.913  30.961  34.317  1.00  0.00     0.037 A 
ATOM     46  C   UNL A   1      42.070  27.098  28.916  1.00  0.00     0.037 A 
ATOM     47  C   UNL A   1      41.079  30.161  34.576  1.00  0.00     0.049 A 
ATOM     48  C   UNL A   1      42.788  27.077  30.237  1.00  0.00     0.074 A 
ATOM     49  C   UNL A   1      41.799  30.039  35.751  1.00  0.00     0.029 A 
ATOM     50  N   UNL A   1      41.688  29.333  33.646  1.00  0.00    -0.354 N 
ATOM     51  N   UNL A   1      42.503  27.721  31.342  1.00  0.00    -0.248 NA
ATOM     52  C   UNL A   1      43.980  26.223  30.330  1.00  0.00     0.031 C 
ATOM     53  C   UNL A   1      42.859  29.155  35.525  1.00  0.00     0.029 A 
ATOM     54  C   UNL A   1      42.779  28.701  34.219  1.00  0.00     0.049 A 
ATOM     55  H   UNL A   1      41.389  29.211  32.716  1.00  0.00     0.167 HD
ATOM     56  C   UNL A   1      43.471  27.346  32.262  1.00  0.00     0.074 A 
ATOM     57  C   UNL A   1      44.337  26.396  31.595  1.00  0.00     0.031 C 
ATOM     58  C   UNL A   1      43.633  27.761  33.542  1.00  0.00     0.037 A 
BRANCH  45  59
ATOM     59  C   UNL A   1      39.401  31.843  35.421  1.00  0.00     0.064 A 
ATOM     60  C   UNL A   1      38.538  31.349  36.413  1.00  0.00     0.173 A 
ATOM     61  C   UNL A   1      39.808  33.183  35.519  1.00  0.00     0.173 A 
ATOM     62  F   UNL A   1      38.112  30.078  36.365  1.00  0.00    -0.203 F 
ATOM     63  C   UNL A   1      38.073  32.171  37.437  1.00  0.00     0.198 A 
ATOM     64  C   UNL A   1      39.368  33.992  36.564  1.00  0.00     0.198 A 
ATOM     65  F   UNL A   1      40.642  33.704  34.607  1.00  0.00    -0.203 F 
ATOM     66  F   UNL A   1      37.208  31.689  38.339  1.00  0.00    -0.200 F 
ATOM     67  C   UNL A   1      38.495  33.489  37.516  1.00  0.00     0.200 A 
ATOM     68  F   UNL A   1      39.790  35.262  36.650  1.00  0.00    -0.200 F 
ATOM     69  F   UNL A   1      38.055  34.275  38.508  1.00  0.00    -0.200 F 
ENDBRANCH  45  59
BRANCH  46  70
ATOM     70  C   UNL A   1      42.512  26.231  27.793  1.00  0.00     0.064 A 
ATOM     71  C   UNL A   1      41.909  24.984  27.579  1.00  0.00     0.173 A 
ATOM     72  C   UNL A   1      43.507  26.639  26.894  1.00  0.00     0.173 A 
ATOM     73  F   UNL A   1      40.967  24.542  28.425  1.00  0.00    -0.203 F 
ATOM     74  C   UNL A   1      42.290  24.173  26.512  1.00  0.00     0.198 A 
ATOM     75  C   UNL A   1      43.869  25.839  25.812  1.00  0.00     0.198 A 
ATOM     76  F   UNL A   1      44.108  27.827  27.051  1.00  0.00    -0.203 F 
ATOM     77  F   UNL A   1      41.716  22.973  26.347  1.00  0.00    -0.200 F 
ATOM     78  C   UNL A   1      43.263  24.605  25.624  1.00  0.00     0.200 A 
ATOM     79  F   UNL A   1      44.800  26.264  24.947  1.00  0.00    -0.200 F 
ATOM     80  F   UNL A   1      43.617  23.832  24.589  1.00  0.00    -0.200 F 
ENDBRANCH  46  70
BRANCH  58  81
ATOM     81  C   UNL A   1      44.789  27.194  34.311  1.00  0.00     0.064 A 
ATOM     82  C   UNL A   1      44.673  25.985  35.012  1.00  0.00     0.173 A 
ATOM     83  C   UNL A   1      46.040  27.828  34.293  1.00  0.00     0.173 A 
ATOM     84  F   UNL A   1      43.494  25.348  35.069  1.00  0.00    -0.203 F 
ATOM     85  C   UNL A   1      45.765  25.440  35.683  1.00  0.00     0.198 A 
ATOM     86  C   UNL A   1      47.136  27.267  34.942  1.00  0.00     0.198 A 
ATOM     87  F   UNL A   1      46.204  28.982  33.629  1.00  0.00    -0.203 F 
ATOM     88  F   UNL A   1      45.623  24.302  36.375  1.00  0.00    -0.200 F 
ATOM     89  C   UNL A   1      46.997  26.076  35.639  1.00  0.00     0.200 A 
ATOM     90  F   UNL A   1      48.329  27.875  34.889  1.00  0.00    -0.200 F 
ATOM     91  F   UNL A   1      48.049  25.543  36.275  1.00  0.00    -0.200 F 
ENDBRANCH  58  81
ENDBRANCH  32  33
ENDBRANCH  25  27
ENDBRANCH  24  25
ENDBRANCH   1  24
TORSDOF 13
ENDMDL
MODEL 3
REMARK VINA RESULT:     -12.3      4.546      9.831
REMARK SMILES CC(C)c1cc2c(cc1Cl)C=C(C(=O)OCCOC(=O)c1ccc(-c3c4nc(c(-c5c(F)c(F)c(F)c(F)c5F)c5ccc([nH]5)c(-c5c(F)c(F)c(F)c(F)c5F)c5nc(c(-c6c(F)c(F)c(F)c(F)c6F)c6ccc3[nH]6)C=C5)C=C4)cc1)[C@@H](C(F)(F)F)O2
REMARK SMILES IDX 17 1 16 2 15 3 13 4 14 5 12 6 4 7 5 8 9 9 6 10 8 11 10 12
REMARK SMILES IDX 7 13 89 14 11 15 84 16 2 17 1 18 3 19 85 20 86 21 87 22
REMARK SMILES IDX 88 23 18 24 19 25 20 26 21 27 22 28 83 29 23 30 82 31 24 32
REMARK SMILES IDX 25 33 26 34 76 35 27 36 81 37 75 38 77 39 28 40 80 41 74 42
REMARK SMILES IDX 73 43 29 45 61 46 41 47 60 48 42 49 45 50 59 51 78 52 43 53
REMARK SMILES IDX 44 54 58 56 79 57 46 58 30 59 31 60 39 61 32 62 33 63 37 64
REMARK SMILES IDX 40 65 34 66 35 67 38 68 36 69 62 70 63 71 71 72 64 73 65 74
REMARK SMILES IDX 69 75 72 76 66 77 67 78 70 79 68 80 47 81 48 82 56 83 49 84
REMARK SMILES IDX 50 85 54 86 57 87 51 88 52 89 55 90 53 91
REMARK H PARENT 77 44 45 55
REMARK Flexibility Score: inf
ROOT
ATOM      1  C   UNL A   1      37.463  20.307  24.843  1.00  0.00     0.275 C 
ENDROOT
BRANCH   1   2
ATOM      2  C   UNL A   1      35.952  20.193  25.052  1.00  0.00     0.275 C 
BRANCH   2   3
ATOM      3  O   UNL A   1      35.243  21.245  24.360  1.00  0.00    -0.459 OA
BRANCH   3   4
ATOM      4  C   UNL A   1      33.896  21.228  24.494  1.00  0.00     0.338 C 
ATOM      5  O   UNL A   1      33.164  20.259  24.361  1.00  0.00    -0.246 OA
BRANCH   4   6
ATOM      6  C   UNL A   1      33.396  22.555  24.907  1.00  0.00     0.087 C 
ATOM      7  C   UNL A   1      32.660  27.529  25.413  1.00  0.00    -0.023 A 
ATOM      8  C   UNL A   1      32.217  26.382  26.113  1.00  0.00     0.052 A 
ATOM      9  C   UNL A   1      33.452  27.325  24.266  1.00  0.00     0.045 A 
ATOM     10  C   UNL A   1      32.576  25.091  25.707  1.00  0.00     0.128 A 
ATOM     11  C   UNL A   1      33.775  26.036  23.839  1.00  0.00     0.032 A 
ATOM     12  Cl  UNL A   1      34.121  28.624  23.337  1.00  0.00    -0.084 Cl
ATOM     13  C   UNL A   1      33.355  24.926  24.571  1.00  0.00     0.019 A 
ATOM     14  O   UNL A   1      32.119  24.044  26.461  1.00  0.00    -0.475 OA
ATOM     15  C   UNL A   1      33.756  23.601  24.156  1.00  0.00     0.027 C 
ATOM     16  C   UNL A   1      32.650  22.707  26.203  1.00  0.00     0.316 C 
BRANCH   7  17
ATOM     17  C   UNL A   1      32.319  28.940  25.890  1.00  0.00     0.014 C 
ATOM     18  C   UNL A   1      31.250  29.596  25.005  1.00  0.00     0.012 C 
ATOM     19  C   UNL A   1      31.872  29.039  27.355  1.00  0.00     0.012 C 
ENDBRANCH   7  17
BRANCH  16  20
ATOM     20  C   UNL A   1      33.543  22.277  27.381  1.00  0.00     0.430 C 
ATOM     21  F   UNL A   1      34.784  22.806  27.287  1.00  0.00    -0.167 F 
ATOM     22  F   UNL A   1      33.031  22.692  28.565  1.00  0.00    -0.167 F 
ATOM     23  F   UNL A   1      33.676  20.932  27.452  1.00  0.00    -0.167 F 
ENDBRANCH  16  20
ENDBRANCH   4   6
ENDBRANCH   3   4
ENDBRANCH   2   3
ENDBRANCH   1   2
BRANCH   1  24
ATOM     24  O   UNL A   1      38.003  21.348  25.677  1.00  0.00    -0.458 OA
BRANCH  24  25
ATOM     25  C   UNL A   1      39.228  21.110  26.198  1.00  0.00     0.338 C 
ATOM     26  O   UNL A   1      39.857  20.069  26.185  1.00  0.00    -0.246 OA
BRANCH  25  27
ATOM     27  C   UNL A   1      39.777  22.364  26.736  1.00  0.00     0.060 A 
ATOM     28  C   UNL A   1      40.861  22.374  27.605  1.00  0.00     0.016 A 
ATOM     29  C   UNL A   1      39.276  23.562  26.242  1.00  0.00     0.016 A 
ATOM     30  C   UNL A   1      41.418  23.602  27.988  1.00  0.00     0.010 A 
ATOM     31  C   UNL A   1      39.921  24.766  26.502  1.00  0.00     0.010 A 
ATOM     32  C   UNL A   1      40.979  24.816  27.414  1.00  0.00    -0.014 A 
BRANCH  32  33
ATOM     33  C   UNL A   1      41.601  26.126  27.773  1.00  0.00     0.031 A 
ATOM     34  C   UNL A   1      42.990  26.487  27.295  1.00  0.00     0.074 A 
ATOM     35  C   UNL A   1      40.939  26.989  28.571  1.00  0.00     0.049 A 
ATOM     36  N   UNL A   1      43.690  27.575  27.522  1.00  0.00    -0.248 NA
ATOM     37  C   UNL A   1      43.713  25.481  26.500  1.00  0.00     0.031 C 
ATOM     38  C   UNL A   1      39.640  26.737  29.197  1.00  0.00     0.029 A 
ATOM     39  N   UNL A   1      41.258  28.262  28.978  1.00  0.00    -0.354 N 
ATOM     40  C   UNL A   1      44.930  27.362  26.932  1.00  0.00     0.074 A 
ATOM     41  C   UNL A   1      44.920  26.015  26.406  1.00  0.00     0.031 C 
ATOM     42  C   UNL A   1      39.236  27.846  29.836  1.00  0.00     0.029 A 
ATOM     43  C   UNL A   1      40.262  28.875  29.700  1.00  0.00     0.049 A 
ATOM     44  H   UNL A   1      42.119  28.694  28.772  1.00  0.00     0.167 HD
ATOM     45  C   UNL A   1      45.970  28.220  26.791  1.00  0.00     0.037 A 
ATOM     46  C   UNL A   1      40.172  30.131  30.181  1.00  0.00     0.037 A 
ATOM     47  C   UNL A   1      45.956  29.586  27.239  1.00  0.00     0.049 A 
ATOM     48  C   UNL A   1      41.304  31.093  29.950  1.00  0.00     0.074 A 
ATOM     49  C   UNL A   1      46.918  30.563  27.058  1.00  0.00     0.029 A 
ATOM     50  N   UNL A   1      44.916  30.173  27.943  1.00  0.00    -0.354 N 
ATOM     51  N   UNL A   1      42.438  30.899  29.323  1.00  0.00    -0.248 NA
ATOM     52  C   UNL A   1      41.142  32.449  30.493  1.00  0.00     0.031 C 
ATOM     53  C   UNL A   1      46.472  31.736  27.676  1.00  0.00     0.029 A 
ATOM     54  C   UNL A   1      45.217  31.498  28.211  1.00  0.00     0.049 A 
ATOM     55  H   UNL A   1      44.087  29.716  28.213  1.00  0.00     0.167 HD
ATOM     56  C   UNL A   1      43.121  32.105  29.387  1.00  0.00     0.074 A 
ATOM     57  C   UNL A   1      42.262  33.035  30.091  1.00  0.00     0.031 C 
ATOM     58  C   UNL A   1      44.354  32.411  28.915  1.00  0.00     0.037 A 
BRANCH  45  59
ATOM     59  C   UNL A   1      47.195  27.722  26.077  1.00  0.00     0.064 A 
ATOM     60  C   UNL A   1      47.296  27.767  24.677  1.00  0.00     0.173 A 
ATOM     61  C   UNL A   1      48.298  27.235  26.795  1.00  0.00     0.173 A 
ATOM     62  F   UNL A   1      46.269  28.218  23.941  1.00  0.00    -0.203 F 
ATOM     63  C   UNL A   1      48.438  27.311  24.023  1.00  0.00     0.198 A 
ATOM     64  C   UNL A   1      49.451  26.811  26.139  1.00  0.00     0.198 A 
ATOM     65  F   UNL A   1      48.262  27.181  28.135  1.00  0.00    -0.203 F 
ATOM     66  F   UNL A   1      48.487  27.316  22.684  1.00  0.00    -0.200 F 
ATOM     67  C   UNL A   1      49.517  26.841  24.754  1.00  0.00     0.200 A 
ATOM     68  F   UNL A   1      50.502  26.372  26.847  1.00  0.00    -0.200 F 
ATOM     69  F   UNL A   1      50.618  26.412  24.123  1.00  0.00    -0.200 F 
ENDBRANCH  45  59
BRANCH  46  70
ATOM     70  C   UNL A   1      38.925  30.568  30.859  1.00  0.00     0.064 A 
ATOM     71  C   UNL A   1      38.822  30.517  32.257  1.00  0.00     0.173 A 
ATOM     72  C   UNL A   1      37.834  31.076  30.141  1.00  0.00     0.173 A 
ATOM     73  F   UNL A   1      39.832  30.020  32.985  1.00  0.00    -0.203 F 
ATOM     74  C   UNL A   1      37.671  30.954  32.909  1.00  0.00     0.198 A 
ATOM     75  C   UNL A   1      36.694  31.536  30.796  1.00  0.00     0.198 A 
ATOM     76  F   UNL A   1      37.887  31.152  28.803  1.00  0.00    -0.203 F 
ATOM     77  F   UNL A   1      37.588  30.869  34.244  1.00  0.00    -0.200 F 
ATOM     78  C   UNL A   1      36.611  31.470  32.180  1.00  0.00     0.200 A 
ATOM     79  F   UNL A   1      35.677  32.048  30.090  1.00  0.00    -0.200 F 
ATOM     80  F   UNL A   1      35.512  31.904  32.810  1.00  0.00    -0.200 F 
ENDBRANCH  46  70
BRANCH  58  81
ATOM     81  C   UNL A   1      44.854  33.806  29.141  1.00  0.00     0.064 A 
ATOM     82  C   UNL A   1      45.633  34.126  30.263  1.00  0.00     0.173 A 
ATOM     83  C   UNL A   1      44.611  34.815  28.198  1.00  0.00     0.173 A 
ATOM     84  F   UNL A   1      45.883  33.198  31.198  1.00  0.00    -0.203 F 
ATOM     85  C   UNL A   1      46.136  35.412  30.439  1.00  0.00     0.198 A 
ATOM     86  C   UNL A   1      45.137  36.092  28.364  1.00  0.00     0.198 A 
ATOM     87  F   UNL A   1      43.878  34.556  27.104  1.00  0.00    -0.203 F 
ATOM     88  F   UNL A   1      46.849  35.706  31.535  1.00  0.00    -0.200 F 
ATOM     89  C   UNL A   1      45.896  36.391  29.487  1.00  0.00     0.200 A 
ATOM     90  F   UNL A   1      44.916  37.034  27.437  1.00  0.00    -0.200 F 
ATOM     91  F   UNL A   1      46.391  37.625  29.653  1.00  0.00    -0.200 F 
ENDBRANCH  58  81
ENDBRANCH  32  33
ENDBRANCH  25  27
ENDBRANCH  24  25
ENDBRANCH   1  24
TORSDOF 13
ENDMDL
