MODEL 1
REMARK VINA RESULT:     -11.4      0.000      0.000
REMARK SMILES CC[C@H]1CCCC[C@@H]1C1(C(=O)OCCOC(=O)c2ccc(-c3c4nc(c(-c5c(F)c(F)c(F)c(F)c5F)c5ccc([nH]5)c(-c5c(F)c(F)c(F)c(F)c5F)c5nc(c(-c6c(F)c(F)c(F)c(F)c6F)c6ccc3[nH]6)C=C5)C=C4)cc2)CC1
REMARK SMILES IDX 13 1 12 2 10 3 11 4 9 5 81 6 82 7 8 8 3 9 4 10 5 11 7 12
REMARK SMILES IDX 6 13 2 14 1 15 14 16 15 17 16 18 17 19 18 20 19 21 80 22
REMARK SMILES IDX 20 23 79 24 21 25 22 26 23 27 73 28 24 29 78 30 72 31 74 32
REMARK SMILES IDX 25 33 77 34 71 35 70 36 26 38 58 39 38 40 57 41 39 42 42 43
REMARK SMILES IDX 56 44 75 45 40 46 41 47 55 49 76 50 43 51 27 52 28 53 36 54
REMARK SMILES IDX 29 55 30 56 34 57 37 58 31 59 32 60 35 61 33 62 59 63 60 64
REMARK SMILES IDX 68 65 61 66 62 67 66 68 69 69 63 70 64 71 67 72 65 73 44 74
REMARK SMILES IDX 45 75 53 76 46 77 47 78 51 79 54 80 48 81 49 82 52 83 50 84
REMARK H PARENT 74 37 42 48
REMARK Flexibility Score: inf
ROOT
ATOM      1  C   UNL A   1      32.175  27.866  26.755  1.00  0.00     0.274 C 
ENDROOT
BRANCH   1   2
ATOM      2  O   UNL A   1      31.044  26.974  26.696  1.00  0.00    -0.462 OA
BRANCH   2   3
ATOM      3  C   UNL A   1      30.871  26.282  25.536  1.00  0.00     0.312 C 
ATOM      4  O   UNL A   1      30.265  26.659  24.550  1.00  0.00    -0.252 OA
BRANCH   3   5
ATOM      5  C   UNL A   1      31.662  24.988  25.539  1.00  0.00     0.071 C 
ATOM      6  C   UNL A   1      30.845  23.722  25.815  1.00  0.00     0.020 C 
ATOM      7  C   UNL A   1      31.800  24.220  26.850  1.00  0.00     0.020 C 
BRANCH   5   8
ATOM      8  C   UNL A   1      32.925  25.032  24.643  1.00  0.00     0.009 C 
ATOM      9  C   UNL A   1      32.895  24.242  23.293  1.00  0.00    -0.007 C 
ATOM     10  C   UNL A   1      34.010  23.197  23.173  1.00  0.00     0.004 C 
ATOM     11  C   UNL A   1      35.357  23.708  23.644  1.00  0.00     0.000 C 
ATOM     12  C   UNL A   1      34.182  24.889  25.548  1.00  0.00     0.005 C 
ATOM     13  C   UNL A   1      35.296  23.947  25.135  1.00  0.00     0.000 C 
BRANCH   9  14
ATOM     14  C   UNL A   1      32.770  25.225  22.081  1.00  0.00     0.000 C 
ATOM     15  C   UNL A   1      33.368  26.619  22.221  1.00  0.00     0.004 C 
ENDBRANCH   9  14
ENDBRANCH   5   8
ENDBRANCH   3   5
ENDBRANCH   2   3
ENDBRANCH   1   2
BRANCH   1  16
ATOM     16  C   UNL A   1      31.762  29.223  26.176  1.00  0.00     0.275 C 
BRANCH  16  17
ATOM     17  O   UNL A   1      32.947  30.015  25.960  1.00  0.00    -0.458 OA
BRANCH  17  18
ATOM     18  C   UNL A   1      33.196  30.988  26.876  1.00  0.00     0.338 C 
ATOM     19  O   UNL A   1      32.416  31.854  27.233  1.00  0.00    -0.246 OA
BRANCH  18  20
ATOM     20  C   UNL A   1      34.552  30.793  27.472  1.00  0.00     0.060 A 
ATOM     21  C   UNL A   1      35.030  29.513  27.733  1.00  0.00     0.016 A 
ATOM     22  C   UNL A   1      35.313  31.889  27.899  1.00  0.00     0.016 A 
ATOM     23  C   UNL A   1      36.165  29.334  28.521  1.00  0.00     0.010 A 
ATOM     24  C   UNL A   1      36.531  31.692  28.584  1.00  0.00     0.010 A 
ATOM     25  C   UNL A   1      36.964  30.403  28.936  1.00  0.00    -0.014 A 
BRANCH  25  26
ATOM     26  C   UNL A   1      38.200  30.138  29.746  1.00  0.00     0.031 A 
ATOM     27  C   UNL A   1      39.347  29.341  29.176  1.00  0.00     0.074 A 
ATOM     28  C   UNL A   1      38.365  30.676  30.977  1.00  0.00     0.049 A 
ATOM     29  N   UNL A   1      40.385  28.822  29.788  1.00  0.00    -0.248 NA
ATOM     30  C   UNL A   1      39.328  29.100  27.728  1.00  0.00     0.031 C 
ATOM     31  C   UNL A   1      37.426  31.575  31.647  1.00  0.00     0.029 A 
ATOM     32  N   UNL A   1      39.403  30.569  31.876  1.00  0.00    -0.354 N 
ATOM     33  C   UNL A   1      41.092  28.121  28.818  1.00  0.00     0.074 A 
ATOM     34  C   UNL A   1      40.383  28.313  27.569  1.00  0.00     0.031 C 
ATOM     35  C   UNL A   1      37.964  32.006  32.795  1.00  0.00     0.029 A 
ATOM     36  C   UNL A   1      39.205  31.283  33.034  1.00  0.00     0.049 A 
ATOM     37  H   UNL A   1      40.211  30.031  31.706  1.00  0.00     0.167 HD
ATOM     38  C   UNL A   1      42.209  27.365  28.965  1.00  0.00     0.037 A 
ATOM     39  C   UNL A   1      39.885  31.302  34.198  1.00  0.00     0.037 A 
ATOM     40  C   UNL A   1      42.947  27.224  30.198  1.00  0.00     0.049 A 
ATOM     41  C   UNL A   1      41.070  30.397  34.373  1.00  0.00     0.074 A 
ATOM     42  C   UNL A   1      44.064  26.446  30.454  1.00  0.00     0.029 A 
ATOM     43  N   UNL A   1      42.651  27.890  31.379  1.00  0.00    -0.354 N 
ATOM     44  N   UNL A   1      41.643  29.608  33.499  1.00  0.00    -0.248 NA
ATOM     45  C   UNL A   1      41.674  30.350  35.711  1.00  0.00     0.031 C 
ATOM     46  C   UNL A   1      44.408  26.598  31.803  1.00  0.00     0.029 A 
ATOM     47  C   UNL A   1      43.548  27.522  32.372  1.00  0.00     0.049 A 
ATOM     48  H   UNL A   1      41.913  28.531  31.495  1.00  0.00     0.167 HD
ATOM     49  C   UNL A   1      42.675  28.973  34.177  1.00  0.00     0.074 A 
ATOM     50  C   UNL A   1      42.667  29.491  35.529  1.00  0.00     0.031 C 
ATOM     51  C   UNL A   1      43.539  28.035  33.719  1.00  0.00     0.037 A 
BRANCH  38  52
ATOM     52  C   UNL A   1      42.639  26.540  27.784  1.00  0.00     0.064 A 
ATOM     53  C   UNL A   1      43.623  26.958  26.879  1.00  0.00     0.173 A 
ATOM     54  C   UNL A   1      42.029  25.294  27.554  1.00  0.00     0.173 A 
ATOM     55  F   UNL A   1      44.230  28.144  27.042  1.00  0.00    -0.203 F 
ATOM     56  C   UNL A   1      43.946  26.186  25.764  1.00  0.00     0.198 A 
ATOM     57  C   UNL A   1      42.380  24.509  26.460  1.00  0.00     0.198 A 
ATOM     58  F   UNL A   1      41.089  24.837  28.395  1.00  0.00    -0.203 F 
ATOM     59  F   UNL A   1      44.840  26.639  24.873  1.00  0.00    -0.200 F 
ATOM     60  C   UNL A   1      43.327  24.962  25.557  1.00  0.00     0.200 A 
ATOM     61  F   UNL A   1      41.790  23.319  26.274  1.00  0.00    -0.200 F 
ATOM     62  F   UNL A   1      43.633  24.226  24.480  1.00  0.00    -0.200 F 
ENDBRANCH  38  52
BRANCH  39  63
ATOM     63  C   UNL A   1      39.393  32.141  35.327  1.00  0.00     0.064 A 
ATOM     64  C   UNL A   1      38.554  31.609  36.315  1.00  0.00     0.173 A 
ATOM     65  C   UNL A   1      39.758  33.492  35.445  1.00  0.00     0.173 A 
ATOM     66  F   UNL A   1      38.145  30.334  36.231  1.00  0.00    -0.203 F 
ATOM     67  C   UNL A   1      38.104  32.394  37.376  1.00  0.00     0.198 A 
ATOM     68  C   UNL A   1      39.343  34.262  36.527  1.00  0.00     0.198 A 
ATOM     69  F   UNL A   1      40.549  34.058  34.520  1.00  0.00    -0.203 F 
ATOM     70  F   UNL A   1      37.268  31.872  38.284  1.00  0.00    -0.200 F 
ATOM     71  C   UNL A   1      38.511  33.715  37.488  1.00  0.00     0.200 A 
ATOM     72  F   UNL A   1      39.757  35.532  36.639  1.00  0.00    -0.200 F 
ATOM     73  F   UNL A   1      38.095  34.462  38.520  1.00  0.00    -0.200 F 
ENDBRANCH  39  63
BRANCH  51  74
ATOM     74  C   UNL A   1      44.576  27.526  34.680  1.00  0.00     0.064 A 
ATOM     75  C   UNL A   1      44.362  26.380  35.461  1.00  0.00     0.173 A 
ATOM     76  C   UNL A   1      45.815  28.176  34.800  1.00  0.00     0.173 A 
ATOM     77  F   UNL A   1      43.189  25.731  35.401  1.00  0.00    -0.203 F 
ATOM     78  C   UNL A   1      45.336  25.921  36.344  1.00  0.00     0.198 A 
ATOM     79  C   UNL A   1      46.799  27.696  35.660  1.00  0.00     0.198 A 
ATOM     80  F   UNL A   1      46.075  29.274  34.075  1.00  0.00    -0.203 F 
ATOM     81  F   UNL A   1      45.089  24.855  37.117  1.00  0.00    -0.200 F 
ATOM     82  C   UNL A   1      46.557  26.574  36.437  1.00  0.00     0.200 A 
ATOM     83  F   UNL A   1      47.982  28.321  35.738  1.00  0.00    -0.200 F 
ATOM     84  F   UNL A   1      47.496  26.127  37.281  1.00  0.00    -0.200 F 
ENDBRANCH  51  74
ENDBRANCH  25  26
ENDBRANCH  18  20
ENDBRANCH  17  18
ENDBRANCH  16  17
ENDBRANCH   1  16
TORSDOF 13
ENDMDL
MODEL 2
REMARK VINA RESULT:     -11.3      0.209      1.670
REMARK SMILES CC[C@H]1CCCC[C@@H]1C1(C(=O)OCCOC(=O)c2ccc(-c3c4nc(c(-c5c(F)c(F)c(F)c(F)c5F)c5ccc([nH]5)c(-c5c(F)c(F)c(F)c(F)c5F)c5nc(c(-c6c(F)c(F)c(F)c(F)c6F)c6ccc3[nH]6)C=C5)C=C4)cc2)CC1
REMARK SMILES IDX 13 1 12 2 10 3 11 4 9 5 81 6 82 7 8 8 3 9 4 10 5 11 7 12
REMARK SMILES IDX 6 13 2 14 1 15 14 16 15 17 16 18 17 19 18 20 19 21 80 22
REMARK SMILES IDX 20 23 79 24 21 25 22 26 23 27 73 28 24 29 78 30 72 31 74 32
REMARK SMILES IDX 25 33 77 34 71 35 70 36 26 38 58 39 38 40 57 41 39 42 42 43
REMARK SMILES IDX 56 44 75 45 40 46 41 47 55 49 76 50 43 51 27 52 28 53 36 54
REMARK SMILES IDX 29 55 30 56 34 57 37 58 31 59 32 60 35 61 33 62 59 63 60 64
REMARK SMILES IDX 68 65 61 66 62 67 66 68 69 69 63 70 64 71 67 72 65 73 44 74
REMARK SMILES IDX 45 75 53 76 46 77 47 78 51 79 54 80 48 81 49 82 52 83 50 84
REMARK H PARENT 74 37 42 48
REMARK Flexibility Score: inf
ROOT
ATOM      1  C   UNL A   1      32.285  27.802  26.662  1.00  0.00     0.274 C 
ENDROOT
BRANCH   1   2
ATOM      2  O   UNL A   1      31.161  26.899  26.636  1.00  0.00    -0.462 OA
BRANCH   2   3
ATOM      3  C   UNL A   1      30.977  26.186  25.491  1.00  0.00     0.312 C 
ATOM      4  O   UNL A   1      30.392  26.559  24.490  1.00  0.00    -0.252 OA
BRANCH   3   5
ATOM      5  C   UNL A   1      31.724  24.867  25.532  1.00  0.00     0.071 C 
ATOM      6  C   UNL A   1      30.862  23.633  25.814  1.00  0.00     0.020 C 
ATOM      7  C   UNL A   1      31.813  24.119  26.859  1.00  0.00     0.020 C 
BRANCH   5   8
ATOM      8  C   UNL A   1      33.005  24.854  24.660  1.00  0.00     0.009 C 
ATOM      9  C   UNL A   1      33.044  23.892  23.428  1.00  0.00    -0.007 C 
ATOM     10  C   UNL A   1      34.210  22.896  23.468  1.00  0.00     0.004 C 
ATOM     11  C   UNL A   1      35.520  23.532  23.889  1.00  0.00     0.000 C 
ATOM     12  C   UNL A   1      34.246  24.895  25.598  1.00  0.00     0.005 C 
ATOM     13  C   UNL A   1      35.412  23.962  25.334  1.00  0.00     0.000 C 
BRANCH   9  14
ATOM     14  C   UNL A   1      32.903  24.698  22.093  1.00  0.00     0.000 C 
ATOM     15  C   UNL A   1      33.073  26.211  22.145  1.00  0.00     0.004 C 
ENDBRANCH   9  14
ENDBRANCH   5   8
ENDBRANCH   3   5
ENDBRANCH   2   3
ENDBRANCH   1   2
BRANCH   1  16
ATOM     16  C   UNL A   1      31.779  29.224  26.392  1.00  0.00     0.275 C 
BRANCH  16  17
ATOM     17  O   UNL A   1      32.902  30.057  26.045  1.00  0.00    -0.458 OA
BRANCH  17  18
ATOM     18  C   UNL A   1      33.204  31.054  26.918  1.00  0.00     0.338 C 
ATOM     19  O   UNL A   1      32.465  31.966  27.250  1.00  0.00    -0.246 OA
BRANCH  18  20
ATOM     20  C   UNL A   1      34.559  30.827  27.505  1.00  0.00     0.060 A 
ATOM     21  C   UNL A   1      34.997  29.537  27.787  1.00  0.00     0.016 A 
ATOM     22  C   UNL A   1      35.359  31.905  27.903  1.00  0.00     0.016 A 
ATOM     23  C   UNL A   1      36.133  29.336  28.567  1.00  0.00     0.010 A 
ATOM     24  C   UNL A   1      36.576  31.682  28.580  1.00  0.00     0.010 A 
ATOM     25  C   UNL A   1      36.972  30.387  28.953  1.00  0.00    -0.014 A 
BRANCH  25  26
ATOM     26  C   UNL A   1      38.206  30.097  29.757  1.00  0.00     0.031 A 
ATOM     27  C   UNL A   1      39.325  29.260  29.189  1.00  0.00     0.074 A 
ATOM     28  C   UNL A   1      38.396  30.645  30.979  1.00  0.00     0.049 A 
ATOM     29  N   UNL A   1      40.353  28.719  29.799  1.00  0.00    -0.248 NA
ATOM     30  C   UNL A   1      39.287  29.001  27.744  1.00  0.00     0.031 C 
ATOM     31  C   UNL A   1      37.489  31.579  31.646  1.00  0.00     0.029 A 
ATOM     32  N   UNL A   1      39.439  30.520  31.872  1.00  0.00    -0.354 N 
ATOM     33  C   UNL A   1      41.031  27.986  28.833  1.00  0.00     0.074 A 
ATOM     34  C   UNL A   1      40.318  28.183  27.586  1.00  0.00     0.031 C 
ATOM     35  C   UNL A   1      38.049  32.010  32.783  1.00  0.00     0.029 A 
ATOM     36  C   UNL A   1      39.271  31.255  33.022  1.00  0.00     0.049 A 
ATOM     37  H   UNL A   1      40.229  29.958  31.702  1.00  0.00     0.167 HD
ATOM     38  C   UNL A   1      42.128  27.201  28.980  1.00  0.00     0.037 A 
ATOM     39  C   UNL A   1      39.960  31.270  34.180  1.00  0.00     0.037 A 
ATOM     40  C   UNL A   1      42.872  27.055  30.209  1.00  0.00     0.049 A 
ATOM     41  C   UNL A   1      41.121  30.334  34.357  1.00  0.00     0.074 A 
ATOM     42  C   UNL A   1      43.969  26.249  30.466  1.00  0.00     0.029 A 
ATOM     43  N   UNL A   1      42.605  27.745  31.383  1.00  0.00    -0.354 N 
ATOM     44  N   UNL A   1      41.664  29.517  33.488  1.00  0.00    -0.248 NA
ATOM     45  C   UNL A   1      41.734  30.287  35.691  1.00  0.00     0.031 C 
ATOM     46  C   UNL A   1      44.328  26.408  31.810  1.00  0.00     0.029 A 
ATOM     47  C   UNL A   1      43.500  27.363  32.373  1.00  0.00     0.049 A 
ATOM     48  H   UNL A   1      41.886  28.407  31.497  1.00  0.00     0.167 HD
ATOM     49  C   UNL A   1      42.683  28.862  34.167  1.00  0.00     0.074 A 
ATOM     50  C   UNL A   1      42.702  29.398  35.512  1.00  0.00     0.031 C 
ATOM     51  C   UNL A   1      43.517  27.894  33.714  1.00  0.00     0.037 A 
BRANCH  38  52
ATOM     52  C   UNL A   1      42.524  26.349  27.806  1.00  0.00     0.064 A 
ATOM     53  C   UNL A   1      43.522  26.721  26.896  1.00  0.00     0.173 A 
ATOM     54  C   UNL A   1      41.867  25.125  27.590  1.00  0.00     0.173 A 
ATOM     55  F   UNL A   1      44.174  27.885  27.047  1.00  0.00    -0.203 F 
ATOM     56  C   UNL A   1      43.814  25.927  25.789  1.00  0.00     0.198 A 
ATOM     57  C   UNL A   1      42.186  24.317  26.503  1.00  0.00     0.198 A 
ATOM     58  F   UNL A   1      40.912  24.712  28.436  1.00  0.00    -0.203 F 
ATOM     59  F   UNL A   1      44.722  26.337  24.892  1.00  0.00    -0.200 F 
ATOM     60  C   UNL A   1      43.148  24.725  25.594  1.00  0.00     0.200 A 
ATOM     61  F   UNL A   1      41.551  23.149  26.329  1.00  0.00    -0.200 F 
ATOM     62  F   UNL A   1      43.424  23.968  24.524  1.00  0.00    -0.200 F 
ENDBRANCH  38  52
BRANCH  39  63
ATOM     63  C   UNL A   1      39.502  32.137  35.302  1.00  0.00     0.064 A 
ATOM     64  C   UNL A   1      39.961  33.454  35.436  1.00  0.00     0.173 A 
ATOM     65  C   UNL A   1      38.588  31.667  36.260  1.00  0.00     0.173 A 
ATOM     66  F   UNL A   1      40.862  33.940  34.571  1.00  0.00    -0.203 F 
ATOM     67  C   UNL A   1      39.521  34.265  36.482  1.00  0.00     0.198 A 
ATOM     68  C   UNL A   1      38.118  32.491  37.277  1.00  0.00     0.198 A 
ATOM     69  F   UNL A   1      38.125  30.409  36.187  1.00  0.00    -0.203 F 
ATOM     70  F   UNL A   1      40.009  35.506  36.612  1.00  0.00    -0.200 F 
ATOM     71  C   UNL A   1      38.590  33.788  37.392  1.00  0.00     0.200 A 
ATOM     72  F   UNL A   1      37.203  32.029  38.140  1.00  0.00    -0.200 F 
ATOM     73  F   UNL A   1      38.153  34.576  38.384  1.00  0.00    -0.200 F 
ENDBRANCH  39  63
BRANCH  51  74
ATOM     74  C   UNL A   1      44.547  27.368  34.673  1.00  0.00     0.064 A 
ATOM     75  C   UNL A   1      45.800  27.981  34.823  1.00  0.00     0.173 A 
ATOM     76  C   UNL A   1      44.266  26.251  35.476  1.00  0.00     0.173 A 
ATOM     77  F   UNL A   1      46.129  29.040  34.068  1.00  0.00    -0.203 F 
ATOM     78  C   UNL A   1      46.741  27.481  35.720  1.00  0.00     0.198 A 
ATOM     79  C   UNL A   1      45.197  25.773  36.394  1.00  0.00     0.198 A 
ATOM     80  F   UNL A   1      43.082  25.627  35.376  1.00  0.00    -0.203 F 
ATOM     81  F   UNL A   1      47.950  28.052  35.809  1.00  0.00    -0.200 F 
ATOM     82  C   UNL A   1      46.436  26.382  36.510  1.00  0.00     0.200 A 
ATOM     83  F   UNL A   1      44.895  24.719  37.165  1.00  0.00    -0.200 F 
ATOM     84  F   UNL A   1      47.340  25.906  37.377  1.00  0.00    -0.200 F 
ENDBRANCH  51  74
ENDBRANCH  25  26
ENDBRANCH  18  20
ENDBRANCH  17  18
ENDBRANCH  16  17
ENDBRANCH   1  16
TORSDOF 13
ENDMDL
MODEL 3
REMARK VINA RESULT:     -11.3      0.540      1.785
REMARK SMILES CC[C@H]1CCCC[C@@H]1C1(C(=O)OCCOC(=O)c2ccc(-c3c4nc(c(-c5c(F)c(F)c(F)c(F)c5F)c5ccc([nH]5)c(-c5c(F)c(F)c(F)c(F)c5F)c5nc(c(-c6c(F)c(F)c(F)c(F)c6F)c6ccc3[nH]6)C=C5)C=C4)cc2)CC1
REMARK SMILES IDX 13 1 12 2 10 3 11 4 9 5 81 6 82 7 8 8 3 9 4 10 5 11 7 12
REMARK SMILES IDX 6 13 2 14 1 15 14 16 15 17 16 18 17 19 18 20 19 21 80 22
REMARK SMILES IDX 20 23 79 24 21 25 22 26 23 27 73 28 24 29 78 30 72 31 74 32
REMARK SMILES IDX 25 33 77 34 71 35 70 36 26 38 58 39 38 40 57 41 39 42 42 43
REMARK SMILES IDX 56 44 75 45 40 46 41 47 55 49 76 50 43 51 27 52 28 53 36 54
REMARK SMILES IDX 29 55 30 56 34 57 37 58 31 59 32 60 35 61 33 62 59 63 60 64
REMARK SMILES IDX 68 65 61 66 62 67 66 68 69 69 63 70 64 71 67 72 65 73 44 74
REMARK SMILES IDX 45 75 53 76 46 77 47 78 51 79 54 80 48 81 49 82 52 83 50 84
REMARK H PARENT 74 37 42 48
REMARK Flexibility Score: inf
ROOT
ATOM      1  C   UNL A   1      32.394  29.065  25.098  1.00  0.00     0.274 C 
ENDROOT
BRANCH   1   2
ATOM      2  O   UNL A   1      31.402  28.020  25.075  1.00  0.00    -0.462 OA
BRANCH   2   3
ATOM      3  C   UNL A   1      31.540  27.025  25.995  1.00  0.00     0.312 C 
ATOM      4  O   UNL A   1      31.454  27.137  27.203  1.00  0.00    -0.252 OA
BRANCH   3   5
ATOM      5  C   UNL A   1      31.683  25.670  25.329  1.00  0.00     0.071 C 
ATOM      6  C   UNL A   1      30.367  24.970  24.978  1.00  0.00     0.020 C 
ATOM      7  C   UNL A   1      31.214  24.431  26.084  1.00  0.00     0.020 C 
BRANCH   5   8
ATOM      8  C   UNL A   1      32.996  25.513  24.520  1.00  0.00     0.009 C 
ATOM      9  C   UNL A   1      32.945  24.692  23.189  1.00  0.00    -0.007 C 
ATOM     10  C   UNL A   1      33.911  23.502  23.170  1.00  0.00     0.004 C 
ATOM     11  C   UNL A   1      35.283  23.841  23.721  1.00  0.00     0.000 C 
ATOM     12  C   UNL A   1      34.160  25.230  25.512  1.00  0.00     0.005 C 
ATOM     13  C   UNL A   1      35.158  24.133  25.198  1.00  0.00     0.000 C 
BRANCH   9  14
ATOM     14  C   UNL A   1      33.036  25.643  21.949  1.00  0.00     0.000 C 
ATOM     15  C   UNL A   1      33.551  27.061  22.167  1.00  0.00     0.004 C 
ENDBRANCH   9  14
ENDBRANCH   5   8
ENDBRANCH   3   5
ENDBRANCH   2   3
ENDBRANCH   1   2
BRANCH   1  16
ATOM     16  C   UNL A   1      31.789  30.302  25.770  1.00  0.00     0.275 C 
BRANCH  16  17
ATOM     17  O   UNL A   1      32.390  30.464  27.070  1.00  0.00    -0.458 OA
BRANCH  17  18
ATOM     18  C   UNL A   1      33.094  31.609  27.270  1.00  0.00     0.338 C 
ATOM     19  O   UNL A   1      32.678  32.744  27.110  1.00  0.00    -0.246 OA
BRANCH  18  20
ATOM     20  C   UNL A   1      34.447  31.289  27.817  1.00  0.00     0.060 A 
ATOM     21  C   UNL A   1      34.762  29.991  28.203  1.00  0.00     0.016 A 
ATOM     22  C   UNL A   1      35.377  32.305  28.072  1.00  0.00     0.016 A 
ATOM     23  C   UNL A   1      35.911  29.739  28.949  1.00  0.00     0.010 A 
ATOM     24  C   UNL A   1      36.598  32.013  28.714  1.00  0.00     0.010 A 
ATOM     25  C   UNL A   1      36.874  30.722  29.194  1.00  0.00    -0.014 A 
BRANCH  25  26
ATOM     26  C   UNL A   1      38.113  30.374  29.967  1.00  0.00     0.031 A 
ATOM     27  C   UNL A   1      39.214  29.553  29.343  1.00  0.00     0.074 A 
ATOM     28  C   UNL A   1      38.324  30.855  31.214  1.00  0.00     0.049 A 
ATOM     29  N   UNL A   1      40.240  28.967  29.913  1.00  0.00    -0.248 NA
ATOM     30  C   UNL A   1      39.157  29.371  27.887  1.00  0.00     0.031 C 
ATOM     31  C   UNL A   1      37.437  31.765  31.939  1.00  0.00     0.029 A 
ATOM     32  N   UNL A   1      39.374  30.669  32.087  1.00  0.00    -0.354 N 
ATOM     33  C   UNL A   1      40.898  28.276  28.902  1.00  0.00     0.074 A 
ATOM     34  C   UNL A   1      40.174  28.548  27.676  1.00  0.00     0.031 C 
ATOM     35  C   UNL A   1      38.015  32.128  33.091  1.00  0.00     0.029 A 
ATOM     36  C   UNL A   1      39.229  31.345  33.276  1.00  0.00     0.049 A 
ATOM     37  H   UNL A   1      40.155  30.105  31.879  1.00  0.00     0.167 HD
ATOM     38  C   UNL A   1      41.985  27.470  28.996  1.00  0.00     0.037 A 
ATOM     39  C   UNL A   1      39.931  31.290  34.425  1.00  0.00     0.037 A 
ATOM     40  C   UNL A   1      42.740  27.249  30.207  1.00  0.00     0.049 A 
ATOM     41  C   UNL A   1      41.080  30.330  34.540  1.00  0.00     0.074 A 
ATOM     42  C   UNL A   1      43.828  26.416  30.409  1.00  0.00     0.029 A 
ATOM     43  N   UNL A   1      42.496  27.880  31.419  1.00  0.00    -0.354 N 
ATOM     44  N   UNL A   1      41.602  29.553  33.624  1.00  0.00    -0.248 NA
ATOM     45  C   UNL A   1      41.707  30.205  35.862  1.00  0.00     0.031 C 
ATOM     46  C   UNL A   1      44.204  26.499  31.755  1.00  0.00     0.029 A 
ATOM     47  C   UNL A   1      43.395  27.435  32.377  1.00  0.00     0.049 A 
ATOM     48  H   UNL A   1      41.787  28.546  31.574  1.00  0.00     0.167 HD
ATOM     49  C   UNL A   1      42.619  28.849  34.255  1.00  0.00     0.074 A 
ATOM     50  C   UNL A   1      42.659  29.313  35.627  1.00  0.00     0.031 C 
ATOM     51  C   UNL A   1      43.434  27.895  33.744  1.00  0.00     0.037 A 
BRANCH  38  52
ATOM     52  C   UNL A   1      42.357  26.675  27.775  1.00  0.00     0.064 A 
ATOM     53  C   UNL A   1      41.790  25.429  27.474  1.00  0.00     0.173 A 
ATOM     54  C   UNL A   1      43.322  27.183  26.888  1.00  0.00     0.173 A 
ATOM     55  F   UNL A   1      40.873  24.890  28.292  1.00  0.00    -0.203 F 
ATOM     56  C   UNL A   1      42.209  24.701  26.362  1.00  0.00     0.198 A 
ATOM     57  C   UNL A   1      43.712  26.470  25.758  1.00  0.00     0.198 A 
ATOM     58  F   UNL A   1      43.889  28.377  27.118  1.00  0.00    -0.203 F 
ATOM     59  F   UNL A   1      41.705  23.480  26.134  1.00  0.00    -0.200 F 
ATOM     60  C   UNL A   1      43.167  25.222  25.505  1.00  0.00     0.200 A 
ATOM     61  F   UNL A   1      44.626  26.985  24.924  1.00  0.00    -0.200 F 
ATOM     62  F   UNL A   1      43.574  24.516  24.441  1.00  0.00    -0.200 F 
ENDBRANCH  38  52
BRANCH  39  63
ATOM     63  C   UNL A   1      39.497  32.103  35.596  1.00  0.00     0.064 A 
ATOM     64  C   UNL A   1      38.550  31.616  36.507  1.00  0.00     0.173 A 
ATOM     65  C   UNL A   1      40.027  33.382  35.832  1.00  0.00     0.173 A 
ATOM     66  F   UNL A   1      37.984  30.417  36.307  1.00  0.00    -0.203 F 
ATOM     67  C   UNL A   1      38.153  32.376  37.607  1.00  0.00     0.198 A 
ATOM     68  C   UNL A   1      39.663  34.120  36.954  1.00  0.00     0.198 A 
ATOM     69  F   UNL A   1      40.929  33.903  34.986  1.00  0.00    -0.203 F 
ATOM     70  F   UNL A   1      37.214  31.905  38.438  1.00  0.00    -0.200 F 
ATOM     71  C   UNL A   1      38.721  33.620  37.837  1.00  0.00     0.200 A 
ATOM     72  F   UNL A   1      40.231  35.313  37.180  1.00  0.00    -0.200 F 
ATOM     73  F   UNL A   1      38.355  34.340  38.907  1.00  0.00    -0.200 F 
ENDBRANCH  39  63
BRANCH  51  74
ATOM     74  C   UNL A   1      44.467  27.305  34.662  1.00  0.00     0.064 A 
ATOM     75  C   UNL A   1      45.725  27.900  34.840  1.00  0.00     0.173 A 
ATOM     76  C   UNL A   1      44.183  26.144  35.398  1.00  0.00     0.173 A 
ATOM     77  F   UNL A   1      46.056  29.001  34.148  1.00  0.00    -0.203 F 
ATOM     78  C   UNL A   1      46.668  27.340  35.698  1.00  0.00     0.198 A 
ATOM     79  C   UNL A   1      45.116  25.605  36.279  1.00  0.00     0.198 A 
ATOM     80  F   UNL A   1      42.995  25.535  35.269  1.00  0.00    -0.203 F 
ATOM     81  F   UNL A   1      47.882  27.898  35.813  1.00  0.00    -0.200 F 
ATOM     82  C   UNL A   1      46.361  26.198  36.423  1.00  0.00     0.200 A 
ATOM     83  F   UNL A   1      44.812  24.509  36.987  1.00  0.00    -0.200 F 
ATOM     84  F   UNL A   1      47.267  25.665  37.253  1.00  0.00    -0.200 F 
ENDBRANCH  51  74
ENDBRANCH  25  26
ENDBRANCH  18  20
ENDBRANCH  17  18
ENDBRANCH  16  17
ENDBRANCH   1  16
TORSDOF 13
ENDMDL
