MODEL 1
REMARK VINA RESULT:     -13.4      0.000      0.000
REMARK SMILES CC1=C(CC(=O)OCCOC(=O)c2ccc(-c3c4nc(c(-c5c(F)c(F)c(F)c(F)c5F)c5ccc([nH]5)c(-c5c(F)c(F)c(F)c(F)c5F)c5nc(c(-c6c(F)c(F)c(F)c(F)c6F)c6ccc3[nH]6)C=C5)C=C4)cc2)c2cc(F)ccc2/C1=C\c1cccc(OCc2ccccc2)c1
REMARK SMILES IDX 7 1 5 2 6 3 4 4 3 5 1 6 2 7 83 8 76 9 82 10 84 11 77 12
REMARK SMILES IDX 81 13 78 14 80 15 79 16 85 17 86 18 98 19 87 20 89 21 88 22
REMARK SMILES IDX 90 23 91 24 92 25 93 26 97 27 94 28 96 29 95 30 8 31 9 32
REMARK SMILES IDX 10 33 11 34 12 35 13 36 14 37 75 38 15 39 74 40 16 41 17 42
REMARK SMILES IDX 18 43 68 44 19 45 73 46 67 47 69 48 20 49 72 50 66 51 65 52
REMARK SMILES IDX 21 54 53 55 33 56 52 57 34 58 37 59 51 60 70 61 35 62 36 63
REMARK SMILES IDX 50 65 71 66 38 67 22 68 23 69 31 70 24 71 25 72 29 73 32 74
REMARK SMILES IDX 26 75 27 76 30 77 28 78 54 79 55 80 63 81 56 82 57 83 61 84
REMARK SMILES IDX 64 85 58 86 59 87 62 88 60 89 39 90 40 91 48 92 41 93 42 94
REMARK SMILES IDX 46 95 49 96 43 97 44 98 47 99 45 100
REMARK H PARENT 69 53 37 64
REMARK Flexibility Score: inf
ROOT
ATOM      1  O   UNL A   1      35.705  19.982  24.984  1.00  0.00    -0.462 OA
ENDROOT
BRANCH   1   2
ATOM      2  C   UNL A   1      34.522  20.624  25.161  1.00  0.00     0.310 C 
ATOM      3  O   UNL A   1      33.571  20.561  24.386  1.00  0.00    -0.252 OA
BRANCH   2   4
ATOM      4  C   UNL A   1      34.447  21.455  26.434  1.00  0.00     0.159 C 
BRANCH   4   5
ATOM      5  C   UNL A   1      33.940  22.851  26.297  1.00  0.00    -0.025 C 
ATOM      6  C   UNL A   1      36.088  24.066  25.656  1.00  0.00     0.045 C 
ATOM      7  C   UNL A   1      34.631  23.964  25.961  1.00  0.00    -0.039 C 
ATOM      8  C   UNL A   1      33.713  25.110  25.899  1.00  0.00    -0.014 C 
ATOM      9  C   UNL A   1      32.522  23.228  26.439  1.00  0.00    -0.011 A 
ATOM     10  C   UNL A   1      32.368  24.609  26.230  1.00  0.00    -0.010 A 
ATOM     11  C   UNL A   1      34.084  26.353  25.549  1.00  0.00     0.017 C 
ATOM     12  C   UNL A   1      31.416  22.437  26.705  1.00  0.00     0.048 A 
ATOM     13  C   UNL A   1      31.118  25.209  26.342  1.00  0.00     0.012 A 
ATOM     14  C   UNL A   1      30.168  23.042  26.816  1.00  0.00     0.123 A 
ATOM     15  C   UNL A   1      30.011  24.416  26.647  1.00  0.00     0.040 A 
ATOM     16  F   UNL A   1      29.093  22.285  27.074  1.00  0.00    -0.207 F 
BRANCH  11  17
ATOM     17  C   UNL A   1      33.180  27.487  25.363  1.00  0.00    -0.021 A 
ATOM     18  C   UNL A   1      32.957  28.406  26.389  1.00  0.00     0.008 A 
ATOM     19  C   UNL A   1      32.502  27.615  24.144  1.00  0.00     0.054 A 
ATOM     20  C   UNL A   1      32.042  29.440  26.199  1.00  0.00     0.004 A 
ATOM     21  C   UNL A   1      31.615  28.668  23.934  1.00  0.00     0.120 A 
ATOM     22  C   UNL A   1      31.376  29.568  24.976  1.00  0.00     0.046 A 
BRANCH  21  23
ATOM     23  O   UNL A   1      30.929  28.924  22.778  1.00  0.00    -0.489 OA
BRANCH  23  24
ATOM     24  C   UNL A   1      29.497  28.986  22.831  1.00  0.00     0.265 C 
BRANCH  24  25
ATOM     25  C   UNL A   1      28.947  30.335  22.420  1.00  0.00    -0.011 A 
ATOM     26  C   UNL A   1      29.002  31.423  23.301  1.00  0.00     0.007 A 
ATOM     27  C   UNL A   1      28.386  30.521  21.147  1.00  0.00     0.007 A 
ATOM     28  C   UNL A   1      28.534  32.678  22.907  1.00  0.00     0.000 A 
ATOM     29  C   UNL A   1      27.929  31.778  20.751  1.00  0.00     0.000 A 
ATOM     30  C   UNL A   1      28.005  32.857  21.630  1.00  0.00     0.000 A 
ENDBRANCH  24  25
ENDBRANCH  23  24
ENDBRANCH  21  23
ENDBRANCH  11  17
ENDBRANCH   4   5
ENDBRANCH   2   4
ENDBRANCH   1   2
BRANCH   1  31
ATOM     31  C   UNL A   1      36.805  20.791  24.522  1.00  0.00     0.274 C 
BRANCH  31  32
ATOM     32  C   UNL A   1      38.122  20.296  25.112  1.00  0.00     0.275 C 
BRANCH  32  33
ATOM     33  O   UNL A   1      38.587  21.234  26.097  1.00  0.00    -0.458 OA
BRANCH  33  34
ATOM     34  C   UNL A   1      39.838  21.019  26.561  1.00  0.00     0.338 C 
ATOM     35  O   UNL A   1      40.404  19.952  26.718  1.00  0.00    -0.246 OA
BRANCH  34  36
ATOM     36  C   UNL A   1      40.456  22.312  26.898  1.00  0.00     0.060 A 
ATOM     37  C   UNL A   1      40.002  23.461  26.253  1.00  0.00     0.016 A 
ATOM     38  C   UNL A   1      41.410  22.405  27.914  1.00  0.00     0.016 A 
ATOM     39  C   UNL A   1      40.536  24.700  26.606  1.00  0.00     0.010 A 
ATOM     40  C   UNL A   1      41.864  23.653  28.336  1.00  0.00     0.010 A 
ATOM     41  C   UNL A   1      41.463  24.810  27.659  1.00  0.00    -0.014 A 
BRANCH  41  42
ATOM     42  C   UNL A   1      42.029  26.136  28.014  1.00  0.00     0.031 A 
ATOM     43  C   UNL A   1      43.399  26.530  27.535  1.00  0.00     0.074 A 
ATOM     44  C   UNL A   1      41.298  26.998  28.747  1.00  0.00     0.049 A 
ATOM     45  N   UNL A   1      44.003  27.689  27.627  1.00  0.00    -0.248 NA
ATOM     46  C   UNL A   1      44.207  25.488  26.883  1.00  0.00     0.031 C 
ATOM     47  C   UNL A   1      39.988  26.708  29.334  1.00  0.00     0.029 A 
ATOM     48  N   UNL A   1      41.541  28.301  29.103  1.00  0.00    -0.354 N 
ATOM     49  C   UNL A   1      45.248  27.513  27.039  1.00  0.00     0.074 A 
ATOM     50  C   UNL A   1      45.347  26.124  26.658  1.00  0.00     0.031 C 
ATOM     51  C   UNL A   1      39.518  27.818  29.926  1.00  0.00     0.029 A 
ATOM     52  C   UNL A   1      40.498  28.891  29.773  1.00  0.00     0.049 A 
ATOM     53  H   UNL A   1      42.384  28.768  28.898  1.00  0.00     0.167 HD
ATOM     54  C   UNL A   1      46.207  28.437  26.800  1.00  0.00     0.037 A 
ATOM     55  C   UNL A   1      40.336  30.161  30.189  1.00  0.00     0.037 A 
ATOM     56  C   UNL A   1      46.099  29.826  27.153  1.00  0.00     0.049 A 
ATOM     57  C   UNL A   1      41.410  31.174  29.899  1.00  0.00     0.074 A 
ATOM     58  C   UNL A   1      46.989  30.854  26.896  1.00  0.00     0.029 A 
ATOM     59  N   UNL A   1      45.031  30.381  27.841  1.00  0.00    -0.354 N 
ATOM     60  N   UNL A   1      42.542  31.017  29.257  1.00  0.00    -0.248 NA
ATOM     61  C   UNL A   1      41.178  32.544  30.380  1.00  0.00     0.031 C 
ATOM     62  C   UNL A   1      46.476  32.026  27.459  1.00  0.00     0.029 A 
ATOM     63  C   UNL A   1      45.248  31.735  28.034  1.00  0.00     0.049 A 
ATOM     64  H   UNL A   1      44.236  29.887  28.146  1.00  0.00     0.167 HD
ATOM     65  C   UNL A   1      43.148  32.266  29.242  1.00  0.00     0.074 A 
ATOM     66  C   UNL A   1      42.252  33.176  29.924  1.00  0.00     0.031 C 
ATOM     67  C   UNL A   1      44.343  32.624  28.713  1.00  0.00     0.037 A 
BRANCH  54  68
ATOM     68  C   UNL A   1      47.447  27.984  26.089  1.00  0.00     0.064 A 
ATOM     69  C   UNL A   1      48.600  27.624  26.802  1.00  0.00     0.173 A 
ATOM     70  C   UNL A   1      47.469  27.855  24.694  1.00  0.00     0.173 A 
ATOM     71  F   UNL A   1      48.633  27.741  28.139  1.00  0.00    -0.203 F 
ATOM     72  C   UNL A   1      49.737  27.167  26.141  1.00  0.00     0.198 A 
ATOM     73  C   UNL A   1      48.599  27.374  24.037  1.00  0.00     0.198 A 
ATOM     74  F   UNL A   1      46.389  28.182  23.967  1.00  0.00    -0.203 F 
ATOM     75  F   UNL A   1      50.839  26.861  26.839  1.00  0.00    -0.200 F 
ATOM     76  C   UNL A   1      49.733  27.034  24.761  1.00  0.00     0.200 A 
ATOM     77  F   UNL A   1      48.591  27.237  22.704  1.00  0.00    -0.200 F 
ATOM     78  F   UNL A   1      50.823  26.583  24.127  1.00  0.00    -0.200 F 
ENDBRANCH  54  68
BRANCH  55  79
ATOM     79  C   UNL A   1      39.075  30.559  30.863  1.00  0.00     0.064 A 
ATOM     80  C   UNL A   1      37.957  30.956  30.116  1.00  0.00     0.173 A 
ATOM     81  C   UNL A   1      38.954  30.536  32.259  1.00  0.00     0.173 A 
ATOM     82  F   UNL A   1      38.032  31.013  28.778  1.00  0.00    -0.203 F 
ATOM     83  C   UNL A   1      36.767  31.323  30.741  1.00  0.00     0.198 A 
ATOM     84  C   UNL A   1      37.757  30.884  32.883  1.00  0.00     0.198 A 
ATOM     85  F   UNL A   1      39.996  30.163  33.017  1.00  0.00    -0.203 F 
ATOM     86  F   UNL A   1      35.724  31.728  30.005  1.00  0.00    -0.200 F 
ATOM     87  C   UNL A   1      36.667  31.281  32.124  1.00  0.00     0.200 A 
ATOM     88  F   UNL A   1      37.660  30.833  34.218  1.00  0.00    -0.200 F 
ATOM     89  F   UNL A   1      35.521  31.629  32.724  1.00  0.00    -0.200 F 
ENDBRANCH  55  79
BRANCH  67  90
ATOM     90  C   UNL A   1      44.756  34.059  28.841  1.00  0.00     0.064 A 
ATOM     91  C   UNL A   1      45.568  34.490  29.900  1.00  0.00     0.173 A 
ATOM     92  C   UNL A   1      44.407  34.993  27.854  1.00  0.00     0.173 A 
ATOM     93  F   UNL A   1      45.917  33.635  30.873  1.00  0.00    -0.203 F 
ATOM     94  C   UNL A   1      46.008  35.808  29.971  1.00  0.00     0.198 A 
ATOM     95  C   UNL A   1      44.869  36.304  27.916  1.00  0.00     0.198 A 
ATOM     96  F   UNL A   1      43.639  34.626  26.817  1.00  0.00    -0.203 F 
ATOM     97  F   UNL A   1      46.763  36.206  31.005  1.00  0.00    -0.200 F 
ATOM     98  C   UNL A   1      45.667  36.711  28.975  1.00  0.00     0.200 A 
ATOM     99  F   UNL A   1      44.549  37.172  26.946  1.00  0.00    -0.200 F 
ATOM    100  F   UNL A   1      46.106  37.976  29.036  1.00  0.00    -0.200 F 
ENDBRANCH  67  90
ENDBRANCH  41  42
ENDBRANCH  34  36
ENDBRANCH  33  34
ENDBRANCH  32  33
ENDBRANCH  31  32
ENDBRANCH   1  31
TORSDOF 16
ENDMDL
MODEL 2
REMARK VINA RESULT:     -13.2      4.874      9.907
REMARK SMILES CC1=C(CC(=O)OCCOC(=O)c2ccc(-c3c4nc(c(-c5c(F)c(F)c(F)c(F)c5F)c5ccc([nH]5)c(-c5c(F)c(F)c(F)c(F)c5F)c5nc(c(-c6c(F)c(F)c(F)c(F)c6F)c6ccc3[nH]6)C=C5)C=C4)cc2)c2cc(F)ccc2/C1=C\c1cccc(OCc2ccccc2)c1
REMARK SMILES IDX 7 1 5 2 6 3 4 4 3 5 1 6 2 7 83 8 76 9 82 10 84 11 77 12
REMARK SMILES IDX 81 13 78 14 80 15 79 16 85 17 86 18 98 19 87 20 89 21 88 22
REMARK SMILES IDX 90 23 91 24 92 25 93 26 97 27 94 28 96 29 95 30 8 31 9 32
REMARK SMILES IDX 10 33 11 34 12 35 13 36 14 37 75 38 15 39 74 40 16 41 17 42
REMARK SMILES IDX 18 43 68 44 19 45 73 46 67 47 69 48 20 49 72 50 66 51 65 52
REMARK SMILES IDX 21 54 53 55 33 56 52 57 34 58 37 59 51 60 70 61 35 62 36 63
REMARK SMILES IDX 50 65 71 66 38 67 22 68 23 69 31 70 24 71 25 72 29 73 32 74
REMARK SMILES IDX 26 75 27 76 30 77 28 78 54 79 55 80 63 81 56 82 57 83 61 84
REMARK SMILES IDX 64 85 58 86 59 87 62 88 60 89 39 90 40 91 48 92 41 93 42 94
REMARK SMILES IDX 46 95 49 96 43 97 44 98 47 99 45 100
REMARK H PARENT 69 53 37 64
REMARK Flexibility Score: inf
ROOT
ATOM      1  O   UNL A   1      43.791  21.951  26.000  1.00  0.00    -0.462 OA
ENDROOT
BRANCH   1   2
ATOM      2  C   UNL A   1      43.456  22.177  27.296  1.00  0.00     0.310 C 
ATOM      3  O   UNL A   1      44.056  22.940  28.049  1.00  0.00    -0.252 OA
BRANCH   2   4
ATOM      4  C   UNL A   1      42.238  21.398  27.771  1.00  0.00     0.159 C 
BRANCH   4   5
ATOM      5  C   UNL A   1      40.962  21.631  27.035  1.00  0.00    -0.025 C 
ATOM      6  C   UNL A   1      40.634  19.353  25.937  1.00  0.00     0.045 C 
ATOM      7  C   UNL A   1      40.272  20.765  26.259  1.00  0.00    -0.039 C 
ATOM      8  C   UNL A   1      39.044  21.411  25.775  1.00  0.00    -0.014 C 
ATOM      9  C   UNL A   1      40.184  22.881  27.113  1.00  0.00    -0.011 A 
ATOM     10  C   UNL A   1      39.025  22.777  26.326  1.00  0.00    -0.010 A 
ATOM     11  C   UNL A   1      38.120  20.799  25.015  1.00  0.00     0.017 C 
ATOM     12  C   UNL A   1      40.434  24.037  27.835  1.00  0.00     0.048 A 
ATOM     13  C   UNL A   1      38.144  23.847  26.215  1.00  0.00     0.012 A 
ATOM     14  C   UNL A   1      39.549  25.104  27.722  1.00  0.00     0.123 A 
ATOM     15  C   UNL A   1      38.416  25.024  26.914  1.00  0.00     0.040 A 
ATOM     16  F   UNL A   1      39.782  26.227  28.416  1.00  0.00    -0.207 F 
BRANCH  11  17
ATOM     17  C   UNL A   1      36.836  21.371  24.616  1.00  0.00    -0.021 A 
ATOM     18  C   UNL A   1      36.772  22.469  23.757  1.00  0.00     0.008 A 
ATOM     19  C   UNL A   1      35.661  20.823  25.146  1.00  0.00     0.054 A 
ATOM     20  C   UNL A   1      35.534  23.027  23.446  1.00  0.00     0.004 A 
ATOM     21  C   UNL A   1      34.418  21.354  24.810  1.00  0.00     0.120 A 
ATOM     22  C   UNL A   1      34.364  22.470  23.971  1.00  0.00     0.046 A 
BRANCH  21  23
ATOM     23  O   UNL A   1      33.203  20.882  25.226  1.00  0.00    -0.489 OA
BRANCH  23  24
ATOM     24  C   UNL A   1      32.463  20.026  24.344  1.00  0.00     0.265 C 
BRANCH  24  25
ATOM     25  C   UNL A   1      32.851  18.568  24.469  1.00  0.00    -0.011 A 
ATOM     26  C   UNL A   1      33.524  17.921  23.424  1.00  0.00     0.007 A 
ATOM     27  C   UNL A   1      32.556  17.846  25.636  1.00  0.00     0.007 A 
ATOM     28  C   UNL A   1      33.920  16.589  23.555  1.00  0.00     0.000 A 
ATOM     29  C   UNL A   1      32.963  16.519  25.770  1.00  0.00     0.000 A 
ATOM     30  C   UNL A   1      33.647  15.891  24.731  1.00  0.00     0.000 A 
ENDBRANCH  24  25
ENDBRANCH  23  24
ENDBRANCH  21  23
ENDBRANCH  11  17
ENDBRANCH   4   5
ENDBRANCH   2   4
ENDBRANCH   1   2
BRANCH   1  31
ATOM     31  C   UNL A   1      45.076  22.454  25.580  1.00  0.00     0.274 C 
BRANCH  31  32
ATOM     32  C   UNL A   1      44.910  23.503  24.484  1.00  0.00     0.275 C 
BRANCH  32  33
ATOM     33  O   UNL A   1      44.249  24.659  25.024  1.00  0.00    -0.458 OA
BRANCH  33  34
ATOM     34  C   UNL A   1      45.036  25.738  25.229  1.00  0.00     0.338 C 
ATOM     35  O   UNL A   1      46.045  26.053  24.624  1.00  0.00    -0.246 OA
BRANCH  34  36
ATOM     36  C   UNL A   1      44.502  26.517  26.359  1.00  0.00     0.060 A 
ATOM     37  C   UNL A   1      44.698  27.896  26.374  1.00  0.00     0.016 A 
ATOM     38  C   UNL A   1      43.729  25.904  27.347  1.00  0.00     0.016 A 
ATOM     39  C   UNL A   1      44.146  28.655  27.407  1.00  0.00     0.010 A 
ATOM     40  C   UNL A   1      43.093  26.675  28.317  1.00  0.00     0.010 A 
ATOM     41  C   UNL A   1      43.328  28.054  28.381  1.00  0.00    -0.014 A 
BRANCH  41  42
ATOM     42  C   UNL A   1      42.757  28.874  29.479  1.00  0.00     0.031 A 
ATOM     43  C   UNL A   1      41.365  29.430  29.366  1.00  0.00     0.074 A 
ATOM     44  C   UNL A   1      43.483  29.096  30.592  1.00  0.00     0.049 A 
ATOM     45  N   UNL A   1      40.648  30.050  30.271  1.00  0.00    -0.248 NA
ATOM     46  C   UNL A   1      40.691  29.294  28.066  1.00  0.00     0.031 C 
ATOM     47  C   UNL A   1      44.870  28.674  30.794  1.00  0.00     0.029 A 
ATOM     48  N   UNL A   1      43.146  29.708  31.773  1.00  0.00    -0.354 N 
ATOM     49  C   UNL A   1      39.446  30.362  29.653  1.00  0.00     0.074 A 
ATOM     50  C   UNL A   1      39.550  29.934  28.277  1.00  0.00     0.031 C 
ATOM     51  C   UNL A   1      45.247  28.988  32.044  1.00  0.00     0.029 A 
ATOM     52  C   UNL A   1      44.134  29.646  32.725  1.00  0.00     0.049 A 
ATOM     53  H   UNL A   1      42.280  30.152  31.924  1.00  0.00     0.167 HD
ATOM     54  C   UNL A   1      38.337  30.919  30.192  1.00  0.00     0.037 A 
ATOM     55  C   UNL A   1      44.132  30.044  34.011  1.00  0.00     0.037 A 
ATOM     56  C   UNL A   1      38.221  31.321  31.568  1.00  0.00     0.049 A 
ATOM     57  C   UNL A   1      42.883  30.647  34.594  1.00  0.00     0.074 A 
ATOM     58  C   UNL A   1      37.118  31.836  32.226  1.00  0.00     0.029 A 
ATOM     59  N   UNL A   1      39.248  31.251  32.496  1.00  0.00    -0.354 N 
ATOM     60  N   UNL A   1      41.721  30.851  34.024  1.00  0.00    -0.248 NA
ATOM     61  C   UNL A   1      42.943  31.066  36.002  1.00  0.00     0.031 C 
ATOM     62  C   UNL A   1      37.488  32.110  33.546  1.00  0.00     0.029 A 
ATOM     63  C   UNL A   1      38.811  31.731  33.719  1.00  0.00     0.049 A 
ATOM     64  H   UNL A   1      40.154  30.910  32.314  1.00  0.00     0.167 HD
ATOM     65  C   UNL A   1      40.907  31.402  35.004  1.00  0.00     0.074 A 
ATOM     66  C   UNL A   1      41.702  31.488  36.211  1.00  0.00     0.031 C 
ATOM     67  C   UNL A   1      39.616  31.805  34.909  1.00  0.00     0.037 A 
BRANCH  54  68
ATOM     68  C   UNL A   1      37.143  31.095  29.302  1.00  0.00     0.064 A 
ATOM     69  C   UNL A   1      36.275  30.027  29.035  1.00  0.00     0.173 A 
ATOM     70  C   UNL A   1      36.833  32.348  28.757  1.00  0.00     0.173 A 
ATOM     71  F   UNL A   1      36.537  28.804  29.524  1.00  0.00    -0.203 F 
ATOM     72  C   UNL A   1      35.147  30.203  28.239  1.00  0.00     0.198 A 
ATOM     73  C   UNL A   1      35.690  32.528  27.982  1.00  0.00     0.198 A 
ATOM     74  F   UNL A   1      37.629  33.403  28.988  1.00  0.00    -0.203 F 
ATOM     75  F   UNL A   1      34.349  29.160  27.969  1.00  0.00    -0.200 F 
ATOM     76  C   UNL A   1      34.851  31.454  27.720  1.00  0.00     0.200 A 
ATOM     77  F   UNL A   1      35.398  33.739  27.489  1.00  0.00    -0.200 F 
ATOM     78  F   UNL A   1      33.758  31.625  26.964  1.00  0.00    -0.200 F 
ENDBRANCH  54  68
BRANCH  55  79
ATOM     79  C   UNL A   1      45.334  29.819  34.853  1.00  0.00     0.064 A 
ATOM     80  C   UNL A   1      45.494  28.624  35.568  1.00  0.00     0.173 A 
ATOM     81  C   UNL A   1      46.350  30.780  34.947  1.00  0.00     0.173 A 
ATOM     82  F   UNL A   1      44.539  27.684  35.524  1.00  0.00    -0.203 F 
ATOM     83  C   UNL A   1      46.624  28.403  36.353  1.00  0.00     0.198 A 
ATOM     84  C   UNL A   1      47.488  30.549  35.717  1.00  0.00     0.198 A 
ATOM     85  F   UNL A   1      46.242  31.939  34.280  1.00  0.00    -0.203 F 
ATOM     86  F   UNL A   1      46.738  27.265  37.052  1.00  0.00    -0.200 F 
ATOM     87  C   UNL A   1      47.622  29.363  36.422  1.00  0.00     0.200 A 
ATOM     88  F   UNL A   1      48.456  31.474  35.774  1.00  0.00    -0.200 F 
ATOM     89  F   UNL A   1      48.710  29.146  37.174  1.00  0.00    -0.200 F 
ENDBRANCH  55  79
BRANCH  67  90
ATOM     90  C   UNL A   1      38.975  32.372  36.139  1.00  0.00     0.064 A 
ATOM     91  C   UNL A   1      38.209  31.569  36.996  1.00  0.00     0.173 A 
ATOM     92  C   UNL A   1      39.197  33.708  36.509  1.00  0.00     0.173 A 
ATOM     93  F   UNL A   1      37.960  30.290  36.678  1.00  0.00    -0.203 F 
ATOM     94  C   UNL A   1      37.678  32.086  38.174  1.00  0.00     0.198 A 
ATOM     95  C   UNL A   1      38.686  34.214  37.699  1.00  0.00     0.198 A 
ATOM     96  F   UNL A   1      39.931  34.512  35.726  1.00  0.00    -0.203 F 
ATOM     97  F   UNL A   1      36.926  31.309  38.966  1.00  0.00    -0.200 F 
ATOM     98  C   UNL A   1      37.925  33.404  38.530  1.00  0.00     0.200 A 
ATOM     99  F   UNL A   1      38.936  35.484  38.047  1.00  0.00    -0.200 F 
ATOM    100  F   UNL A   1      37.428  33.895  39.673  1.00  0.00    -0.200 F 
ENDBRANCH  67  90
ENDBRANCH  41  42
ENDBRANCH  34  36
ENDBRANCH  33  34
ENDBRANCH  32  33
ENDBRANCH  31  32
ENDBRANCH   1  31
TORSDOF 16
ENDMDL
MODEL 3
REMARK VINA RESULT:     -13.0      5.485      9.093
REMARK SMILES CC1=C(CC(=O)OCCOC(=O)c2ccc(-c3c4nc(c(-c5c(F)c(F)c(F)c(F)c5F)c5ccc([nH]5)c(-c5c(F)c(F)c(F)c(F)c5F)c5nc(c(-c6c(F)c(F)c(F)c(F)c6F)c6ccc3[nH]6)C=C5)C=C4)cc2)c2cc(F)ccc2/C1=C\c1cccc(OCc2ccccc2)c1
REMARK SMILES IDX 7 1 5 2 6 3 4 4 3 5 1 6 2 7 83 8 76 9 82 10 84 11 77 12
REMARK SMILES IDX 81 13 78 14 80 15 79 16 85 17 86 18 98 19 87 20 89 21 88 22
REMARK SMILES IDX 90 23 91 24 92 25 93 26 97 27 94 28 96 29 95 30 8 31 9 32
REMARK SMILES IDX 10 33 11 34 12 35 13 36 14 37 75 38 15 39 74 40 16 41 17 42
REMARK SMILES IDX 18 43 68 44 19 45 73 46 67 47 69 48 20 49 72 50 66 51 65 52
REMARK SMILES IDX 21 54 53 55 33 56 52 57 34 58 37 59 51 60 70 61 35 62 36 63
REMARK SMILES IDX 50 65 71 66 38 67 22 68 23 69 31 70 24 71 25 72 29 73 32 74
REMARK SMILES IDX 26 75 27 76 30 77 28 78 54 79 55 80 63 81 56 82 57 83 61 84
REMARK SMILES IDX 64 85 58 86 59 87 62 88 60 89 39 90 40 91 48 92 41 93 42 94
REMARK SMILES IDX 46 95 49 96 43 97 44 98 47 99 45 100
REMARK H PARENT 69 53 37 64
REMARK Flexibility Score: inf
ROOT
ATOM      1  O   UNL A   1      43.240  22.621  24.992  1.00  0.00    -0.462 OA
ENDROOT
BRANCH   1   2
ATOM      2  C   UNL A   1      43.131  21.463  25.693  1.00  0.00     0.310 C 
ATOM      3  O   UNL A   1      43.358  20.347  25.234  1.00  0.00    -0.252 OA
BRANCH   2   4
ATOM      4  C   UNL A   1      42.697  21.647  27.140  1.00  0.00     0.159 C 
BRANCH   4   5
ATOM      5  C   UNL A   1      41.924  22.881  27.458  1.00  0.00    -0.025 C 
ATOM      6  C   UNL A   1      43.722  24.275  28.608  1.00  0.00     0.045 C 
ATOM      7  C   UNL A   1      42.354  24.004  28.077  1.00  0.00    -0.039 C 
ATOM      8  C   UNL A   1      41.260  24.984  28.132  1.00  0.00    -0.014 C 
ATOM      9  C   UNL A   1      40.523  23.101  27.054  1.00  0.00    -0.011 A 
ATOM     10  C   UNL A   1      40.091  24.367  27.484  1.00  0.00    -0.010 A 
ATOM     11  C   UNL A   1      41.381  26.218  28.647  1.00  0.00     0.017 C 
ATOM     12  C   UNL A   1      39.668  22.279  26.336  1.00  0.00     0.048 A 
ATOM     13  C   UNL A   1      38.787  24.790  27.246  1.00  0.00     0.012 A 
ATOM     14  C   UNL A   1      38.366  22.708  26.100  1.00  0.00     0.123 A 
ATOM     15  C   UNL A   1      37.916  23.946  26.555  1.00  0.00     0.040 A 
ATOM     16  F   UNL A   1      37.531  21.920  25.407  1.00  0.00    -0.207 F 
BRANCH  11  17
ATOM     17  C   UNL A   1      40.352  27.256  28.612  1.00  0.00    -0.021 A 
ATOM     18  C   UNL A   1      40.214  28.098  27.509  1.00  0.00     0.008 A 
ATOM     19  C   UNL A   1      39.526  27.422  29.732  1.00  0.00     0.054 A 
ATOM     20  C   UNL A   1      39.263  29.116  27.535  1.00  0.00     0.004 A 
ATOM     21  C   UNL A   1      38.549  28.414  29.750  1.00  0.00     0.120 A 
ATOM     22  C   UNL A   1      38.435  29.271  28.652  1.00  0.00     0.046 A 
BRANCH  21  23
ATOM     23  O   UNL A   1      37.657  28.647  30.761  1.00  0.00    -0.489 OA
BRANCH  23  24
ATOM     24  C   UNL A   1      38.101  28.485  32.116  1.00  0.00     0.265 C 
BRANCH  24  25
ATOM     25  C   UNL A   1      38.085  29.777  32.904  1.00  0.00    -0.011 A 
ATOM     26  C   UNL A   1      37.019  30.677  32.769  1.00  0.00     0.007 A 
ATOM     27  C   UNL A   1      39.127  30.088  33.790  1.00  0.00     0.007 A 
ATOM     28  C   UNL A   1      36.982  31.848  33.527  1.00  0.00     0.000 A 
ATOM     29  C   UNL A   1      39.083  31.253  34.556  1.00  0.00     0.000 A 
ATOM     30  C   UNL A   1      38.010  32.132  34.426  1.00  0.00     0.000 A 
ENDBRANCH  24  25
ENDBRANCH  23  24
ENDBRANCH  21  23
ENDBRANCH  11  17
ENDBRANCH   4   5
ENDBRANCH   2   4
ENDBRANCH   1   2
BRANCH   1  31
ATOM     31  C   UNL A   1      44.492  22.835  24.309  1.00  0.00     0.274 C 
BRANCH  31  32
ATOM     32  C   UNL A   1      45.362  23.824  25.079  1.00  0.00     0.275 C 
BRANCH  32  33
ATOM     33  O   UNL A   1      45.071  25.161  24.639  1.00  0.00    -0.458 OA
BRANCH  33  34
ATOM     34  C   UNL A   1      46.031  26.079  24.889  1.00  0.00     0.338 C 
ATOM     35  O   UNL A   1      47.133  26.165  24.380  1.00  0.00    -0.246 OA
BRANCH  34  36
ATOM     36  C   UNL A   1      45.556  27.000  25.935  1.00  0.00     0.060 A 
ATOM     37  C   UNL A   1      44.195  27.289  26.007  1.00  0.00     0.016 A 
ATOM     38  C   UNL A   1      46.435  27.499  26.900  1.00  0.00     0.016 A 
ATOM     39  C   UNL A   1      43.724  28.113  27.030  1.00  0.00     0.010 A 
ATOM     40  C   UNL A   1      45.946  28.233  27.978  1.00  0.00     0.010 A 
ATOM     41  C   UNL A   1      44.592  28.582  28.032  1.00  0.00    -0.014 A 
BRANCH  41  42
ATOM     42  C   UNL A   1      44.075  29.466  29.108  1.00  0.00     0.031 A 
ATOM     43  C   UNL A   1      43.760  28.903  30.467  1.00  0.00     0.074 A 
ATOM     44  C   UNL A   1      43.914  30.781  28.870  1.00  0.00     0.049 A 
ATOM     45  N   UNL A   1      43.432  29.537  31.566  1.00  0.00    -0.248 NA
ATOM     46  C   UNL A   1      43.799  27.440  30.613  1.00  0.00     0.031 C 
ATOM     47  C   UNL A   1      44.113  31.436  27.575  1.00  0.00     0.029 A 
ATOM     48  N   UNL A   1      43.571  31.809  29.713  1.00  0.00    -0.354 N 
ATOM     49  C   UNL A   1      43.239  28.553  32.525  1.00  0.00     0.074 A 
ATOM     50  C   UNL A   1      43.412  27.278  31.869  1.00  0.00     0.031 C 
ATOM     51  C   UNL A   1      43.946  32.760  27.723  1.00  0.00     0.029 A 
ATOM     52  C   UNL A   1      43.614  33.045  29.117  1.00  0.00     0.049 A 
ATOM     53  H   UNL A   1      43.317  31.672  30.655  1.00  0.00     0.167 HD
ATOM     54  C   UNL A   1      42.980  28.699  33.846  1.00  0.00     0.037 A 
ATOM     55  C   UNL A   1      43.437  34.272  29.643  1.00  0.00     0.037 A 
ATOM     56  C   UNL A   1      42.835  29.968  34.505  1.00  0.00     0.049 A 
ATOM     57  C   UNL A   1      43.165  34.411  31.116  1.00  0.00     0.074 A 
ATOM     58  C   UNL A   1      42.636  30.222  35.851  1.00  0.00     0.029 A 
ATOM     59  N   UNL A   1      42.874  31.196  33.865  1.00  0.00    -0.354 N 
ATOM     60  N   UNL A   1      43.079  33.478  32.031  1.00  0.00    -0.248 NA
ATOM     61  C   UNL A   1      42.978  35.775  31.630  1.00  0.00     0.031 C 
ATOM     62  C   UNL A   1      42.520  31.605  36.020  1.00  0.00     0.029 A 
ATOM     63  C   UNL A   1      42.685  32.213  34.785  1.00  0.00     0.049 A 
ATOM     64  H   UNL A   1      43.017  31.327  32.899  1.00  0.00     0.167 HD
ATOM     65  C   UNL A   1      42.846  34.139  33.230  1.00  0.00     0.074 A 
ATOM     66  C   UNL A   1      42.821  35.555  32.929  1.00  0.00     0.031 C 
ATOM     67  C   UNL A   1      42.666  33.617  34.467  1.00  0.00     0.037 A 
BRANCH  54  68
ATOM     68  C   UNL A   1      42.874  27.455  34.675  1.00  0.00     0.064 A 
ATOM     69  C   UNL A   1      43.957  26.999  35.441  1.00  0.00     0.173 A 
ATOM     70  C   UNL A   1      41.669  26.744  34.750  1.00  0.00     0.173 A 
ATOM     71  F   UNL A   1      45.136  27.640  35.393  1.00  0.00    -0.203 F 
ATOM     72  C   UNL A   1      43.842  25.865  36.240  1.00  0.00     0.198 A 
ATOM     73  C   UNL A   1      41.549  25.624  35.569  1.00  0.00     0.198 A 
ATOM     74  F   UNL A   1      40.602  27.141  34.041  1.00  0.00    -0.203 F 
ATOM     75  F   UNL A   1      44.900  25.428  36.937  1.00  0.00    -0.200 F 
ATOM     76  C   UNL A   1      42.637  25.183  36.310  1.00  0.00     0.200 A 
ATOM     77  F   UNL A   1      40.381  24.971  35.645  1.00  0.00    -0.200 F 
ATOM     78  F   UNL A   1      42.524  24.099  37.088  1.00  0.00    -0.200 F 
ENDBRANCH  54  68
BRANCH  55  79
ATOM     79  C   UNL A   1      43.582  35.470  28.778  1.00  0.00     0.064 A 
ATOM     80  C   UNL A   1      44.840  36.051  28.564  1.00  0.00     0.173 A 
ATOM     81  C   UNL A   1      42.477  36.047  28.137  1.00  0.00     0.173 A 
ATOM     82  F   UNL A   1      45.923  35.547  29.173  1.00  0.00    -0.203 F 
ATOM     83  C   UNL A   1      44.985  37.171  27.748  1.00  0.00     0.198 A 
ATOM     84  C   UNL A   1      42.626  37.154  27.304  1.00  0.00     0.198 A 
ATOM     85  F   UNL A   1      41.253  35.525  28.310  1.00  0.00    -0.203 F 
ATOM     86  F   UNL A   1      46.193  37.726  27.585  1.00  0.00    -0.200 F 
ATOM     87  C   UNL A   1      43.879  37.718  27.114  1.00  0.00     0.200 A 
ATOM     88  F   UNL A   1      41.558  37.674  26.686  1.00  0.00    -0.200 F 
ATOM     89  F   UNL A   1      44.020  38.791  26.324  1.00  0.00    -0.200 F 
ENDBRANCH  55  79
BRANCH  67  90
ATOM     90  C   UNL A   1      42.429  34.574  35.596  1.00  0.00     0.064 A 
ATOM     91  C   UNL A   1      43.494  35.101  36.338  1.00  0.00     0.173 A 
ATOM     92  C   UNL A   1      41.133  35.032  35.882  1.00  0.00     0.173 A 
ATOM     93  F   UNL A   1      44.748  34.685  36.108  1.00  0.00    -0.203 F 
ATOM     94  C   UNL A   1      43.271  36.046  37.336  1.00  0.00     0.198 A 
ATOM     95  C   UNL A   1      40.917  35.994  36.863  1.00  0.00     0.198 A 
ATOM     96  F   UNL A   1      40.083  34.563  35.192  1.00  0.00    -0.203 F 
ATOM     97  F   UNL A   1      44.301  36.518  38.052  1.00  0.00    -0.200 F 
ATOM     98  C   UNL A   1      41.985  36.499  37.591  1.00  0.00     0.200 A 
ATOM     99  F   UNL A   1      39.675  36.440  37.099  1.00  0.00    -0.200 F 
ATOM    100  F   UNL A   1      41.773  37.421  38.540  1.00  0.00    -0.200 F 
ENDBRANCH  67  90
ENDBRANCH  41  42
ENDBRANCH  34  36
ENDBRANCH  33  34
ENDBRANCH  32  33
ENDBRANCH  31  32
ENDBRANCH   1  31
TORSDOF 16
ENDMDL
