MODEL 1
REMARK VINA RESULT:     -11.9      0.000      0.000
REMARK SMILES O=C(OCCOC(=O)[C@H](Cc1ccccn1)[C@H]1CCS(=O)(=O)C1)c1ccc(-c2c3nc(c(-c4c(F)c(F)c(F)c(F)c4F)c4ccc([nH]4)c(-c4c(F)c(F)c(F)c(F)c4F)c4nc(c(-c5c(F)c(F)c(F)c(F)c5F)c5ccc2[nH]5)C=C4)C=C3)cc1
REMARK SMILES IDX 4 1 3 2 2 3 1 4 24 5 25 6 86 7 26 8 85 9 27 10 28 11 29 12
REMARK SMILES IDX 79 13 30 14 84 15 78 16 80 17 31 18 83 19 77 20 76 21 32 23
REMARK SMILES IDX 64 24 44 25 63 26 45 27 48 28 62 29 81 30 46 31 47 32 61 34
REMARK SMILES IDX 82 35 49 36 33 37 34 38 42 39 35 40 36 41 40 42 43 43 37 44
REMARK SMILES IDX 38 45 41 46 39 47 65 48 66 49 74 50 67 51 68 52 72 53 75 54
REMARK SMILES IDX 69 55 70 56 73 57 71 58 50 59 51 60 59 61 52 62 53 63 57 64
REMARK SMILES IDX 60 65 54 66 55 67 58 68 56 69 5 70 6 71 7 72 8 73 9 74 10 75
REMARK SMILES IDX 11 76 12 77 16 78 13 79 15 80 14 81 17 82 18 83 23 84 19 85
REMARK SMILES IDX 20 86 21 87 22 88
REMARK H PARENT 80 22 48 33
REMARK Flexibility Score: inf
ROOT
ATOM      1  C   UNL A   1      31.573  32.337  26.983  1.00  0.00     0.275 C 
ENDROOT
BRANCH   1   2
ATOM      2  O   UNL A   1      32.315  33.569  27.043  1.00  0.00    -0.458 OA
BRANCH   2   3
ATOM      3  C   UNL A   1      32.949  34.142  28.097  1.00  0.00     0.338 C 
ATOM      4  O   UNL A   1      32.560  35.238  28.495  1.00  0.00    -0.246 OA
BRANCH   3   5
ATOM      5  C   UNL A   1      34.200  33.588  28.708  1.00  0.00     0.060 A 
ATOM      6  C   UNL A   1      35.504  33.880  28.304  1.00  0.00     0.016 A 
ATOM      7  C   UNL A   1      34.030  32.689  29.779  1.00  0.00     0.016 A 
ATOM      8  C   UNL A   1      36.608  33.351  28.985  1.00  0.00     0.010 A 
ATOM      9  C   UNL A   1      35.131  32.157  30.465  1.00  0.00     0.010 A 
ATOM     10  C   UNL A   1      36.433  32.484  30.065  1.00  0.00    -0.014 A 
BRANCH  10  11
ATOM     11  C   UNL A   1      37.615  31.800  30.644  1.00  0.00     0.031 A 
ATOM     12  C   UNL A   1      38.103  32.234  31.989  1.00  0.00     0.074 A 
ATOM     13  C   UNL A   1      38.184  30.733  30.054  1.00  0.00     0.049 A 
ATOM     14  N   UNL A   1      39.049  31.711  32.723  1.00  0.00    -0.248 NA
ATOM     15  C   UNL A   1      37.389  33.353  32.624  1.00  0.00     0.031 C 
ATOM     16  C   UNL A   1      37.694  30.090  28.843  1.00  0.00     0.029 A 
ATOM     17  N   UNL A   1      39.297  29.999  30.386  1.00  0.00    -0.354 N 
ATOM     18  C   UNL A   1      39.003  32.391  33.926  1.00  0.00     0.074 A 
ATOM     19  C   UNL A   1      37.985  33.412  33.805  1.00  0.00     0.031 C 
ATOM     20  C   UNL A   1      38.550  29.121  28.482  1.00  0.00     0.029 A 
ATOM     21  C   UNL A   1      39.647  29.076  29.429  1.00  0.00     0.049 A 
ATOM     22  H   UNL A   1      39.795  30.122  31.227  1.00  0.00     0.167 HD
ATOM     23  C   UNL A   1      39.723  32.150  35.045  1.00  0.00     0.037 A 
ATOM     24  C   UNL A   1      40.727  28.283  29.310  1.00  0.00     0.037 A 
ATOM     25  C   UNL A   1      40.757  31.155  35.142  1.00  0.00     0.049 A 
ATOM     26  C   UNL A   1      41.655  28.188  30.477  1.00  0.00     0.074 A 
ATOM     27  C   UNL A   1      41.554  30.848  36.231  1.00  0.00     0.029 A 
ATOM     28  N   UNL A   1      41.160  30.326  34.104  1.00  0.00    -0.354 N 
ATOM     29  N   UNL A   1      41.580  28.807  31.628  1.00  0.00    -0.248 NA
ATOM     30  C   UNL A   1      42.765  27.235  30.368  1.00  0.00     0.031 C 
ATOM     31  C   UNL A   1      42.486  29.884  35.830  1.00  0.00     0.029 A 
ATOM     32  C   UNL A   1      42.230  29.544  34.511  1.00  0.00     0.049 A 
ATOM     33  H   UNL A   1      40.747  30.298  33.211  1.00  0.00     0.167 HD
ATOM     34  C   UNL A   1      42.596  28.282  32.404  1.00  0.00     0.074 A 
ATOM     35  C   UNL A   1      43.276  27.293  31.590  1.00  0.00     0.031 C 
ATOM     36  C   UNL A   1      42.914  28.579  33.686  1.00  0.00     0.037 A 
BRANCH  23  37
ATOM     37  C   UNL A   1      39.428  33.011  36.232  1.00  0.00     0.064 A 
ATOM     38  C   UNL A   1      38.483  32.636  37.200  1.00  0.00     0.173 A 
ATOM     39  C   UNL A   1      40.097  34.231  36.399  1.00  0.00     0.173 A 
ATOM     40  F   UNL A   1      37.796  31.491  37.066  1.00  0.00    -0.203 F 
ATOM     41  C   UNL A   1      38.206  33.463  38.284  1.00  0.00     0.198 A 
ATOM     42  C   UNL A   1      39.835  35.043  37.498  1.00  0.00     0.198 A 
ATOM     43  F   UNL A   1      40.998  34.636  35.493  1.00  0.00    -0.203 F 
ATOM     44  F   UNL A   1      37.267  33.110  39.172  1.00  0.00    -0.200 F 
ATOM     45  C   UNL A   1      38.887  34.662  38.436  1.00  0.00     0.200 A 
ATOM     46  F   UNL A   1      40.494  36.200  37.642  1.00  0.00    -0.200 F 
ATOM     47  F   UNL A   1      38.621  35.458  39.480  1.00  0.00    -0.200 F 
ENDBRANCH  23  37
BRANCH  24  48
ATOM     48  C   UNL A   1      40.973  27.509  28.065  1.00  0.00     0.064 A 
ATOM     49  C   UNL A   1      40.533  26.187  27.919  1.00  0.00     0.173 A 
ATOM     50  C   UNL A   1      41.702  28.076  27.007  1.00  0.00     0.173 A 
ATOM     51  F   UNL A   1      39.869  25.589  28.919  1.00  0.00    -0.203 F 
ATOM     52  C   UNL A   1      40.822  25.456  26.767  1.00  0.00     0.198 A 
ATOM     53  C   UNL A   1      41.966  27.354  25.843  1.00  0.00     0.198 A 
ATOM     54  F   UNL A   1      42.192  29.318  27.124  1.00  0.00    -0.203 F 
ATOM     55  F   UNL A   1      40.438  24.176  26.677  1.00  0.00    -0.200 F 
ATOM     56  C   UNL A   1      41.531  26.042  25.728  1.00  0.00     0.200 A 
ATOM     57  F   UNL A   1      42.670  27.912  24.850  1.00  0.00    -0.200 F 
ATOM     58  F   UNL A   1      41.818  25.330  24.629  1.00  0.00    -0.200 F 
ENDBRANCH  24  48
BRANCH  36  59
ATOM     59  C   UNL A   1      44.044  27.804  34.291  1.00  0.00     0.064 A 
ATOM     60  C   UNL A   1      43.832  26.569  34.920  1.00  0.00     0.173 A 
ATOM     61  C   UNL A   1      45.352  28.304  34.239  1.00  0.00     0.173 A 
ATOM     62  F   UNL A   1      42.594  26.063  35.015  1.00  0.00    -0.203 F 
ATOM     63  C   UNL A   1      44.888  25.877  35.503  1.00  0.00     0.198 A 
ATOM     64  C   UNL A   1      46.412  27.592  34.791  1.00  0.00     0.198 A 
ATOM     65  F   UNL A   1      45.605  29.483  33.650  1.00  0.00    -0.203 F 
ATOM     66  F   UNL A   1      44.654  24.729  36.155  1.00  0.00    -0.200 F 
ATOM     67  C   UNL A   1      46.177  26.384  35.431  1.00  0.00     0.200 A 
ATOM     68  F   UNL A   1      47.657  28.077  34.710  1.00  0.00    -0.200 F 
ATOM     69  F   UNL A   1      47.193  25.714  35.991  1.00  0.00    -0.200 F 
ENDBRANCH  36  59
ENDBRANCH  10  11
ENDBRANCH   3   5
ENDBRANCH   2   3
ENDBRANCH   1   2
BRANCH   1  70
ATOM     70  C   UNL A   1      32.433  31.113  26.671  1.00  0.00     0.274 C 
BRANCH  70  71
ATOM     71  O   UNL A   1      31.721  30.155  25.875  1.00  0.00    -0.462 OA
BRANCH  71  72
ATOM     72  C   UNL A   1      32.474  29.340  25.081  1.00  0.00     0.309 C 
ATOM     73  O   UNL A   1      33.653  29.082  25.274  1.00  0.00    -0.252 OA
BRANCH  72  74
ATOM     74  C   UNL A   1      31.642  28.806  23.918  1.00  0.00     0.109 C 
BRANCH  74  75
ATOM     75  C   UNL A   1      30.141  29.021  24.214  1.00  0.00     0.071 C 
BRANCH  75  76
ATOM     76  C   UNL A   1      29.513  30.075  23.335  1.00  0.00     0.041 A 
ATOM     77  C   UNL A   1      29.141  31.317  23.837  1.00  0.00     0.024 A 
ATOM     78  N   UNL A   1      29.307  29.717  22.042  1.00  0.00    -0.261 NA
ATOM     79  C   UNL A   1      28.488  32.208  22.990  1.00  0.00     0.003 A 
ATOM     80  C   UNL A   1      28.657  30.598  21.250  1.00  0.00     0.111 A 
ATOM     81  C   UNL A   1      28.227  31.840  21.675  1.00  0.00     0.020 A 
ENDBRANCH  75  76
ENDBRANCH  74  75
BRANCH  74  82
ATOM     82  C   UNL A   1      32.047  27.374  23.440  1.00  0.00     0.020 C 
ATOM     83  C   UNL A   1      30.884  26.422  23.093  1.00  0.00     0.021 C 
ATOM     84  C   UNL A   1      33.002  27.308  22.245  1.00  0.00     0.141 C 
ATOM     85  C   UNL A   1      31.429  25.179  22.399  1.00  0.00     0.137 C 
ATOM     86  S   UNL A   1      33.006  25.614  21.704  1.00  0.00     0.150 S 
ATOM     87  O   UNL A   1      34.035  24.891  22.411  1.00  0.00    -0.229 OA
ATOM     88  O   UNL A   1      32.901  25.579  20.259  1.00  0.00    -0.229 OA
ENDBRANCH  74  82
ENDBRANCH  72  74
ENDBRANCH  71  72
ENDBRANCH  70  71
ENDBRANCH   1  70
TORSDOF 14
ENDMDL
MODEL 2
REMARK VINA RESULT:     -11.9      5.762     11.171
REMARK SMILES O=C(OCCOC(=O)[C@H](Cc1ccccn1)[C@H]1CCS(=O)(=O)C1)c1ccc(-c2c3nc(c(-c4c(F)c(F)c(F)c(F)c4F)c4ccc([nH]4)c(-c4c(F)c(F)c(F)c(F)c4F)c4nc(c(-c5c(F)c(F)c(F)c(F)c5F)c5ccc2[nH]5)C=C4)C=C3)cc1
REMARK SMILES IDX 4 1 3 2 2 3 1 4 24 5 25 6 86 7 26 8 85 9 27 10 28 11 29 12
REMARK SMILES IDX 79 13 30 14 84 15 78 16 80 17 31 18 83 19 77 20 76 21 32 23
REMARK SMILES IDX 64 24 44 25 63 26 45 27 48 28 62 29 81 30 46 31 47 32 61 34
REMARK SMILES IDX 82 35 49 36 33 37 34 38 42 39 35 40 36 41 40 42 43 43 37 44
REMARK SMILES IDX 38 45 41 46 39 47 65 48 66 49 74 50 67 51 68 52 72 53 75 54
REMARK SMILES IDX 69 55 70 56 73 57 71 58 50 59 51 60 59 61 52 62 53 63 57 64
REMARK SMILES IDX 60 65 54 66 55 67 58 68 56 69 5 70 6 71 7 72 8 73 9 74 10 75
REMARK SMILES IDX 11 76 12 77 16 78 13 79 15 80 14 81 17 82 18 83 23 84 19 85
REMARK SMILES IDX 20 86 21 87 22 88
REMARK H PARENT 80 22 48 33
REMARK Flexibility Score: inf
ROOT
ATOM      1  C   UNL A   1      38.810  19.695  25.488  1.00  0.00     0.275 C 
ENDROOT
BRANCH   1   2
ATOM      2  O   UNL A   1      40.162  20.066  25.820  1.00  0.00    -0.458 OA
BRANCH   2   3
ATOM      3  C   UNL A   1      40.659  20.556  26.982  1.00  0.00     0.338 C 
ATOM      4  O   UNL A   1      40.721  19.812  27.959  1.00  0.00    -0.246 OA
BRANCH   3   5
ATOM      5  C   UNL A   1      40.997  22.001  27.192  1.00  0.00     0.060 A 
ATOM      6  C   UNL A   1      40.604  23.059  26.369  1.00  0.00     0.016 A 
ATOM      7  C   UNL A   1      41.789  22.304  28.316  1.00  0.00     0.016 A 
ATOM      8  C   UNL A   1      40.925  24.383  26.689  1.00  0.00     0.010 A 
ATOM      9  C   UNL A   1      42.113  23.629  28.643  1.00  0.00     0.010 A 
ATOM     10  C   UNL A   1      41.684  24.680  27.823  1.00  0.00    -0.014 A 
BRANCH  10  11
ATOM     11  C   UNL A   1      42.162  26.069  28.032  1.00  0.00     0.031 A 
ATOM     12  C   UNL A   1      43.537  26.429  27.568  1.00  0.00     0.074 A 
ATOM     13  C   UNL A   1      41.360  27.035  28.515  1.00  0.00     0.049 A 
ATOM     14  N   UNL A   1      44.116  27.600  27.559  1.00  0.00    -0.248 NA
ATOM     15  C   UNL A   1      44.339  25.348  26.971  1.00  0.00     0.031 C 
ATOM     16  C   UNL A   1      39.948  26.869  28.827  1.00  0.00     0.029 A 
ATOM     17  N   UNL A   1      41.613  28.349  28.832  1.00  0.00    -0.354 N 
ATOM     18  C   UNL A   1      45.318  27.412  26.901  1.00  0.00     0.074 A 
ATOM     19  C   UNL A   1      45.422  26.004  26.586  1.00  0.00     0.031 C 
ATOM     20  C   UNL A   1      39.481  28.002  29.375  1.00  0.00     0.029 A 
ATOM     21  C   UNL A   1      40.558  28.971  29.458  1.00  0.00     0.049 A 
ATOM     22  H   UNL A   1      42.464  28.800  28.630  1.00  0.00     0.167 HD
ATOM     23  C   UNL A   1      46.231  28.348  26.556  1.00  0.00     0.037 A 
ATOM     24  C   UNL A   1      40.456  30.178  30.043  1.00  0.00     0.037 A 
ATOM     25  C   UNL A   1      46.134  29.740  26.906  1.00  0.00     0.049 A 
ATOM     26  C   UNL A   1      41.579  31.144  29.847  1.00  0.00     0.074 A 
ATOM     27  C   UNL A   1      47.019  30.763  26.615  1.00  0.00     0.029 A 
ATOM     28  N   UNL A   1      45.104  30.300  27.649  1.00  0.00    -0.354 N 
ATOM     29  N   UNL A   1      42.696  30.970  29.188  1.00  0.00    -0.248 NA
ATOM     30  C   UNL A   1      41.400  32.491  30.400  1.00  0.00     0.031 C 
ATOM     31  C   UNL A   1      46.561  31.926  27.243  1.00  0.00     0.029 A 
ATOM     32  C   UNL A   1      45.359  31.645  27.872  1.00  0.00     0.049 A 
ATOM     33  H   UNL A   1      44.310  29.815  27.971  1.00  0.00     0.167 HD
ATOM     34  C   UNL A   1      43.332  32.197  29.197  1.00  0.00     0.074 A 
ATOM     35  C   UNL A   1      42.474  33.109  29.929  1.00  0.00     0.031 C 
ATOM     36  C   UNL A   1      44.510  32.538  28.622  1.00  0.00     0.037 A 
BRANCH  23  37
ATOM     37  C   UNL A   1      47.427  27.872  25.793  1.00  0.00     0.064 A 
ATOM     38  C   UNL A   1      48.633  27.553  26.436  1.00  0.00     0.173 A 
ATOM     39  C   UNL A   1      47.365  27.741  24.400  1.00  0.00     0.173 A 
ATOM     40  F   UNL A   1      48.749  27.693  27.766  1.00  0.00    -0.203 F 
ATOM     41  C   UNL A   1      49.741  27.135  25.705  1.00  0.00     0.198 A 
ATOM     42  C   UNL A   1      48.468  27.300  23.676  1.00  0.00     0.198 A 
ATOM     43  F   UNL A   1      46.238  28.047  23.742  1.00  0.00    -0.203 F 
ATOM     44  F   UNL A   1      50.898  26.881  26.331  1.00  0.00    -0.200 F 
ATOM     45  C   UNL A   1      49.656  27.003  24.328  1.00  0.00     0.200 A 
ATOM     46  F   UNL A   1      48.383  27.171  22.345  1.00  0.00    -0.200 F 
ATOM     47  F   UNL A   1      50.723  26.600  23.624  1.00  0.00    -0.200 F 
ENDBRANCH  23  37
BRANCH  24  48
ATOM     48  C   UNL A   1      39.255  30.543  30.837  1.00  0.00     0.064 A 
ATOM     49  C   UNL A   1      39.150  30.238  32.200  1.00  0.00     0.173 A 
ATOM     50  C   UNL A   1      38.159  31.171  30.222  1.00  0.00     0.173 A 
ATOM     51  F   UNL A   1      40.153  29.602  32.822  1.00  0.00    -0.203 F 
ATOM     52  C   UNL A   1      37.992  30.536  32.917  1.00  0.00     0.198 A 
ATOM     53  C   UNL A   1      37.012  31.494  30.946  1.00  0.00     0.198 A 
ATOM     54  F   UNL A   1      38.190  31.431  28.908  1.00  0.00    -0.203 F 
ATOM     55  F   UNL A   1      37.897  30.182  34.206  1.00  0.00    -0.200 F 
ATOM     56  C   UNL A   1      36.927  31.170  32.292  1.00  0.00     0.200 A 
ATOM     57  F   UNL A   1      35.975  32.086  30.338  1.00  0.00    -0.200 F 
ATOM     58  F   UNL A   1      35.811  31.442  32.983  1.00  0.00    -0.200 F 
ENDBRANCH  24  48
BRANCH  36  59
ATOM     59  C   UNL A   1      44.928  33.970  28.752  1.00  0.00     0.064 A 
ATOM     60  C   UNL A   1      44.536  34.936  27.816  1.00  0.00     0.173 A 
ATOM     61  C   UNL A   1      45.729  34.378  29.829  1.00  0.00     0.173 A 
ATOM     62  F   UNL A   1      43.790  34.588  26.757  1.00  0.00    -0.203 F 
ATOM     63  C   UNL A   1      44.958  36.256  27.935  1.00  0.00     0.198 A 
ATOM     64  C   UNL A   1      46.119  35.706  29.965  1.00  0.00     0.198 A 
ATOM     65  F   UNL A   1      46.131  33.489  30.750  1.00  0.00    -0.203 F 
ATOM     66  F   UNL A   1      44.625  37.151  26.995  1.00  0.00    -0.200 F 
ATOM     67  C   UNL A   1      45.742  36.641  29.014  1.00  0.00     0.200 A 
ATOM     68  F   UNL A   1      46.865  36.078  31.013  1.00  0.00    -0.200 F 
ATOM     69  F   UNL A   1      46.145  37.913  29.128  1.00  0.00    -0.200 F 
ENDBRANCH  36  59
ENDBRANCH  10  11
ENDBRANCH   3   5
ENDBRANCH   2   3
ENDBRANCH   1   2
BRANCH   1  70
ATOM     70  C   UNL A   1      37.896  20.886  25.206  1.00  0.00     0.274 C 
BRANCH  70  71
ATOM     71  O   UNL A   1      36.512  20.541  25.371  1.00  0.00    -0.462 OA
BRANCH  71  72
ATOM     72  C   UNL A   1      35.662  21.562  25.680  1.00  0.00     0.309 C 
ATOM     73  O   UNL A   1      36.016  22.679  26.025  1.00  0.00    -0.252 OA
BRANCH  72  74
ATOM     74  C   UNL A   1      34.209  21.111  25.541  1.00  0.00     0.109 C 
BRANCH  74  75
ATOM     75  C   UNL A   1      34.070  20.185  24.312  1.00  0.00     0.071 C 
BRANCH  75  76
ATOM     76  C   UNL A   1      33.819  18.745  24.685  1.00  0.00     0.041 A 
ATOM     77  C   UNL A   1      34.672  17.726  24.278  1.00  0.00     0.024 A 
ATOM     78  N   UNL A   1      32.695  18.511  25.409  1.00  0.00    -0.261 NA
ATOM     79  C   UNL A   1      34.333  16.411  24.585  1.00  0.00     0.003 A 
ATOM     80  C   UNL A   1      32.384  17.224  25.677  1.00  0.00     0.111 A 
ATOM     81  C   UNL A   1      33.161  16.150  25.285  1.00  0.00     0.020 A 
ENDBRANCH  75  76
ENDBRANCH  74  75
BRANCH  74  82
ATOM     82  C   UNL A   1      33.162  22.266  25.651  1.00  0.00     0.020 C 
ATOM     83  C   UNL A   1      31.983  22.206  24.659  1.00  0.00     0.021 C 
ATOM     84  C   UNL A   1      32.528  22.472  27.030  1.00  0.00     0.141 C 
ATOM     85  C   UNL A   1      30.925  23.229  25.059  1.00  0.00     0.137 C 
ATOM     86  S   UNL A   1      31.155  23.575  26.786  1.00  0.00     0.150 S 
ATOM     87  O   UNL A   1      31.608  24.937  26.927  1.00  0.00    -0.229 OA
ATOM     88  O   UNL A   1      30.008  23.070  27.517  1.00  0.00    -0.229 OA
ENDBRANCH  74  82
ENDBRANCH  72  74
ENDBRANCH  71  72
ENDBRANCH  70  71
ENDBRANCH   1  70
TORSDOF 14
ENDMDL
MODEL 3
REMARK VINA RESULT:     -11.7      0.847      1.607
REMARK SMILES O=C(OCCOC(=O)[C@H](Cc1ccccn1)[C@H]1CCS(=O)(=O)C1)c1ccc(-c2c3nc(c(-c4c(F)c(F)c(F)c(F)c4F)c4ccc([nH]4)c(-c4c(F)c(F)c(F)c(F)c4F)c4nc(c(-c5c(F)c(F)c(F)c(F)c5F)c5ccc2[nH]5)C=C4)C=C3)cc1
REMARK SMILES IDX 4 1 3 2 2 3 1 4 24 5 25 6 86 7 26 8 85 9 27 10 28 11 29 12
REMARK SMILES IDX 79 13 30 14 84 15 78 16 80 17 31 18 83 19 77 20 76 21 32 23
REMARK SMILES IDX 64 24 44 25 63 26 45 27 48 28 62 29 81 30 46 31 47 32 61 34
REMARK SMILES IDX 82 35 49 36 33 37 34 38 42 39 35 40 36 41 40 42 43 43 37 44
REMARK SMILES IDX 38 45 41 46 39 47 65 48 66 49 74 50 67 51 68 52 72 53 75 54
REMARK SMILES IDX 69 55 70 56 73 57 71 58 50 59 51 60 59 61 52 62 53 63 57 64
REMARK SMILES IDX 60 65 54 66 55 67 58 68 56 69 5 70 6 71 7 72 8 73 9 74 10 75
REMARK SMILES IDX 11 76 12 77 16 78 13 79 15 80 14 81 17 82 18 83 23 84 19 85
REMARK SMILES IDX 20 86 21 87 22 88
REMARK H PARENT 80 22 48 33
REMARK Flexibility Score: inf
ROOT
ATOM      1  C   UNL A   1      31.622  32.311  26.958  1.00  0.00     0.275 C 
ENDROOT
BRANCH   1   2
ATOM      2  O   UNL A   1      32.646  33.324  26.963  1.00  0.00    -0.458 OA
BRANCH   2   3
ATOM      3  C   UNL A   1      33.394  33.788  27.995  1.00  0.00     0.338 C 
ATOM      4  O   UNL A   1      33.220  34.943  28.378  1.00  0.00    -0.246 OA
BRANCH   3   5
ATOM      5  C   UNL A   1      34.534  33.024  28.597  1.00  0.00     0.060 A 
ATOM      6  C   UNL A   1      34.418  31.940  29.471  1.00  0.00     0.016 A 
ATOM      7  C   UNL A   1      35.830  33.452  28.252  1.00  0.00     0.016 A 
ATOM      8  C   UNL A   1      35.551  31.257  29.931  1.00  0.00     0.010 A 
ATOM      9  C   UNL A   1      36.968  32.772  28.708  1.00  0.00     0.010 A 
ATOM     10  C   UNL A   1      36.833  31.668  29.559  1.00  0.00    -0.014 A 
BRANCH  10  11
ATOM     11  C   UNL A   1      38.011  31.042  30.208  1.00  0.00     0.031 A 
ATOM     12  C   UNL A   1      38.389  31.488  31.584  1.00  0.00     0.074 A 
ATOM     13  C   UNL A   1      38.672  30.013  29.648  1.00  0.00     0.049 A 
ATOM     14  N   UNL A   1      39.314  31.009  32.373  1.00  0.00    -0.248 NA
ATOM     15  C   UNL A   1      37.577  32.561  32.179  1.00  0.00     0.031 C 
ATOM     16  C   UNL A   1      38.295  29.356  28.404  1.00  0.00     0.029 A 
ATOM     17  N   UNL A   1      39.800  29.336  30.046  1.00  0.00    -0.354 N 
ATOM     18  C   UNL A   1      39.155  31.674  33.575  1.00  0.00     0.074 A 
ATOM     19  C   UNL A   1      38.094  32.640  33.396  1.00  0.00     0.031 C 
ATOM     20  C   UNL A   1      39.223  28.437  28.092  1.00  0.00     0.029 A 
ATOM     21  C   UNL A   1      40.259  28.442  29.107  1.00  0.00     0.049 A 
ATOM     22  H   UNL A   1      40.237  29.477  30.918  1.00  0.00     0.167 HD
ATOM     23  C   UNL A   1      39.815  31.461  34.735  1.00  0.00     0.037 A 
ATOM     24  C   UNL A   1      41.385  27.708  29.052  1.00  0.00     0.037 A 
ATOM     25  C   UNL A   1      40.893  30.522  34.893  1.00  0.00     0.049 A 
ATOM     26  C   UNL A   1      42.241  27.652  30.275  1.00  0.00     0.074 A 
ATOM     27  C   UNL A   1      41.634  30.246  36.027  1.00  0.00     0.029 A 
ATOM     28  N   UNL A   1      41.404  29.725  33.877  1.00  0.00    -0.354 N 
ATOM     29  N   UNL A   1      42.061  28.255  31.423  1.00  0.00    -0.248 NA
ATOM     30  C   UNL A   1      43.406  26.760  30.231  1.00  0.00     0.031 C 
ATOM     31  C   UNL A   1      42.640  29.338  35.680  1.00  0.00     0.029 A 
ATOM     32  C   UNL A   1      42.487  28.997  34.346  1.00  0.00     0.049 A 
ATOM     33  H   UNL A   1      41.050  29.683  32.959  1.00  0.00     0.167 HD
ATOM     34  C   UNL A   1      43.053  27.777  32.258  1.00  0.00     0.074 A 
ATOM     35  C   UNL A   1      43.835  26.833  31.483  1.00  0.00     0.031 C 
ATOM     36  C   UNL A   1      43.273  28.078  33.560  1.00  0.00     0.037 A 
BRANCH  23  37
ATOM     37  C   UNL A   1      39.400  32.294  35.907  1.00  0.00     0.064 A 
ATOM     38  C   UNL A   1      39.978  33.547  36.163  1.00  0.00     0.173 A 
ATOM     39  C   UNL A   1      38.417  31.827  36.789  1.00  0.00     0.173 A 
ATOM     40  F   UNL A   1      40.946  34.021  35.364  1.00  0.00    -0.203 F 
ATOM     41  C   UNL A   1      39.596  34.295  37.273  1.00  0.00     0.198 A 
ATOM     42  C   UNL A   1      38.020  32.589  37.883  1.00  0.00     0.198 A 
ATOM     43  F   UNL A   1      37.847  30.629  36.592  1.00  0.00    -0.203 F 
ATOM     44  F   UNL A   1      40.193  35.468  37.526  1.00  0.00    -0.200 F 
ATOM     45  C   UNL A   1      38.613  33.819  38.127  1.00  0.00     0.200 A 
ATOM     46  F   UNL A   1      37.070  32.127  38.707  1.00  0.00    -0.200 F 
ATOM     47  F   UNL A   1      38.245  34.540  39.195  1.00  0.00    -0.200 F 
ENDBRANCH  23  37
BRANCH  24  48
ATOM     48  C   UNL A   1      41.750  26.961  27.821  1.00  0.00     0.064 A 
ATOM     49  C   UNL A   1      41.500  25.589  27.689  1.00  0.00     0.173 A 
ATOM     50  C   UNL A   1      42.405  27.610  26.762  1.00  0.00     0.173 A 
ATOM     51  F   UNL A   1      40.914  24.917  28.690  1.00  0.00    -0.203 F 
ATOM     52  C   UNL A   1      41.900  24.891  26.550  1.00  0.00     0.198 A 
ATOM     53  C   UNL A   1      42.781  26.917  25.611  1.00  0.00     0.198 A 
ATOM     54  F   UNL A   1      42.717  28.910  26.866  1.00  0.00    -0.203 F 
ATOM     55  F   UNL A   1      41.699  23.568  26.474  1.00  0.00    -0.200 F 
ATOM     56  C   UNL A   1      42.534  25.556  25.509  1.00  0.00     0.200 A 
ATOM     57  F   UNL A   1      43.412  27.555  24.616  1.00  0.00    -0.200 F 
ATOM     58  F   UNL A   1      42.929  24.877  24.423  1.00  0.00    -0.200 F 
ENDBRANCH  24  48
BRANCH  36  59
ATOM     59  C   UNL A   1      44.402  27.359  34.231  1.00  0.00     0.064 A 
ATOM     60  C   UNL A   1      44.223  26.097  34.815  1.00  0.00     0.173 A 
ATOM     61  C   UNL A   1      45.676  27.939  34.287  1.00  0.00     0.173 A 
ATOM     62  F   UNL A   1      43.016  25.513  34.806  1.00  0.00    -0.203 F 
ATOM     63  C   UNL A   1      45.275  25.456  35.460  1.00  0.00     0.198 A 
ATOM     64  C   UNL A   1      46.735  27.279  34.901  1.00  0.00     0.198 A 
ATOM     65  F   UNL A   1      45.896  29.147  33.744  1.00  0.00    -0.203 F 
ATOM     66  F   UNL A   1      45.068  24.279  36.068  1.00  0.00    -0.200 F 
ATOM     67  C   UNL A   1      46.532  26.044  35.496  1.00  0.00     0.200 A 
ATOM     68  F   UNL A   1      47.950  27.842  34.924  1.00  0.00    -0.200 F 
ATOM     69  F   UNL A   1      47.544  25.423  36.115  1.00  0.00    -0.200 F 
ENDBRANCH  36  59
ENDBRANCH  10  11
ENDBRANCH   3   5
ENDBRANCH   2   3
ENDBRANCH   1   2
BRANCH   1  70
ATOM     70  C   UNL A   1      32.163  30.889  26.817  1.00  0.00     0.274 C 
BRANCH  70  71
ATOM     71  O   UNL A   1      32.118  30.440  25.454  1.00  0.00    -0.462 OA
BRANCH  71  72
ATOM     72  C   UNL A   1      31.606  29.193  25.240  1.00  0.00     0.309 C 
ATOM     73  O   UNL A   1      31.392  28.371  26.118  1.00  0.00    -0.252 OA
BRANCH  72  74
ATOM     74  C   UNL A   1      31.348  28.968  23.751  1.00  0.00     0.109 C 
BRANCH  74  75
ATOM     75  C   UNL A   1      29.827  28.856  23.502  1.00  0.00     0.071 C 
BRANCH  75  76
ATOM     76  C   UNL A   1      29.242  30.095  22.869  1.00  0.00     0.041 A 
ATOM     77  C   UNL A   1      28.997  31.246  23.610  1.00  0.00     0.024 A 
ATOM     78  N   UNL A   1      28.941  29.997  21.550  1.00  0.00    -0.261 NA
ATOM     79  C   UNL A   1      28.375  32.321  22.980  1.00  0.00     0.003 A 
ATOM     80  C   UNL A   1      28.325  31.051  20.972  1.00  0.00     0.111 A 
ATOM     81  C   UNL A   1      28.019  32.221  21.641  1.00  0.00     0.020 A 
ENDBRANCH  75  76
ENDBRANCH  74  75
BRANCH  74  82
ATOM     82  C   UNL A   1      32.232  27.854  23.105  1.00  0.00     0.020 C 
ATOM     83  C   UNL A   1      33.299  27.221  24.021  1.00  0.00     0.021 C 
ATOM     84  C   UNL A   1      31.480  26.676  22.477  1.00  0.00     0.141 C 
ATOM     85  C   UNL A   1      33.888  25.988  23.345  1.00  0.00     0.137 C 
ATOM     86  S   UNL A   1      32.699  25.424  22.151  1.00  0.00     0.150 S 
ATOM     87  O   UNL A   1      33.244  25.622  20.831  1.00  0.00    -0.229 OA
ATOM     88  O   UNL A   1      32.184  24.139  22.582  1.00  0.00    -0.229 OA
ENDBRANCH  74  82
ENDBRANCH  72  74
ENDBRANCH  71  72
ENDBRANCH  70  71
ENDBRANCH   1  70
TORSDOF 14
ENDMDL
