MODEL 1
REMARK VINA RESULT:     -12.6      0.000      0.000
REMARK SMILES O=C(OCCOC(=O)[C@H]1C[N@H+](Cc2ccc(Cl)c(Cl)c2)CC12CCCCC2)c1ccc(-c2c3nc(c(-c4c(F)c(F)c(F)c(F)c4F)c4ccc([nH]4)c(-c4c(F)c(F)c(F)c(F)c4F)c4nc(c(-c5c(F)c(F)c(F)c(F)c5F)c5ccc2[nH]5)C=C4)C=C3)cc1
REMARK SMILES IDX 4 1 3 2 2 3 1 4 28 5 29 6 90 7 30 8 89 9 31 10 32 11 33 12
REMARK SMILES IDX 83 13 34 14 88 15 82 16 84 17 35 18 87 19 81 20 80 21 36 23
REMARK SMILES IDX 68 24 48 25 67 26 49 27 52 28 66 29 85 30 50 31 51 32 65 34
REMARK SMILES IDX 86 35 53 36 37 37 38 38 46 39 39 40 40 41 44 42 47 43 41 44
REMARK SMILES IDX 42 45 45 46 43 47 69 48 70 49 78 50 71 51 72 52 76 53 79 54
REMARK SMILES IDX 73 55 74 56 77 57 75 58 54 59 55 60 63 61 56 62 57 63 61 64
REMARK SMILES IDX 64 65 58 66 59 67 62 68 60 69 5 70 6 71 7 72 8 73 9 74 10 75
REMARK SMILES IDX 22 76 11 77 21 78 23 79 27 80 24 82 26 83 25 84 12 85 13 86
REMARK SMILES IDX 14 87 20 88 15 89 18 90 16 91 19 92 17 93
REMARK H PARENT 84 22 52 33 11 81
REMARK Flexibility Score: inf
ROOT
ATOM      1  C   UNL A   1      31.397  32.235  27.110  1.00  0.00     0.275 C 
ENDROOT
BRANCH   1   2
ATOM      2  O   UNL A   1      32.212  33.415  27.103  1.00  0.00    -0.458 OA
BRANCH   2   3
ATOM      3  C   UNL A   1      33.103  33.872  28.011  1.00  0.00     0.338 C 
ATOM      4  O   UNL A   1      32.904  34.996  28.475  1.00  0.00    -0.246 OA
BRANCH   3   5
ATOM      5  C   UNL A   1      34.375  33.171  28.431  1.00  0.00     0.060 A 
ATOM      6  C   UNL A   1      35.691  33.454  28.046  1.00  0.00     0.016 A 
ATOM      7  C   UNL A   1      34.204  32.160  29.393  1.00  0.00     0.016 A 
ATOM      8  C   UNL A   1      36.798  32.809  28.642  1.00  0.00     0.010 A 
ATOM      9  C   UNL A   1      35.300  31.563  30.028  1.00  0.00     0.010 A 
ATOM     10  C   UNL A   1      36.622  31.878  29.664  1.00  0.00    -0.014 A 
BRANCH  10  11
ATOM     11  C   UNL A   1      37.736  31.131  30.327  1.00  0.00     0.031 A 
ATOM     12  C   UNL A   1      38.229  31.659  31.630  1.00  0.00     0.074 A 
ATOM     13  C   UNL A   1      38.356  30.040  29.823  1.00  0.00     0.049 A 
ATOM     14  N   UNL A   1      39.214  31.215  32.363  1.00  0.00    -0.248 NA
ATOM     15  C   UNL A   1      37.476  32.775  32.226  1.00  0.00     0.031 C 
ATOM     16  C   UNL A   1      37.867  29.224  28.735  1.00  0.00     0.029 A 
ATOM     17  N   UNL A   1      39.566  29.448  30.119  1.00  0.00    -0.354 N 
ATOM     18  C   UNL A   1      39.127  31.924  33.542  1.00  0.00     0.074 A 
ATOM     19  C   UNL A   1      38.117  32.943  33.369  1.00  0.00     0.031 C 
ATOM     20  C   UNL A   1      38.830  28.398  28.295  1.00  0.00     0.029 A 
ATOM     21  C   UNL A   1      39.985  28.547  29.158  1.00  0.00     0.049 A 
ATOM     22  H   UNL A   1      40.081  29.648  30.933  1.00  0.00     0.167 HD
ATOM     23  C   UNL A   1      39.758  31.663  34.704  1.00  0.00     0.037 A 
ATOM     24  C   UNL A   1      41.148  27.885  29.000  1.00  0.00     0.037 A 
ATOM     25  C   UNL A   1      40.770  30.661  34.860  1.00  0.00     0.049 A 
ATOM     26  C   UNL A   1      42.058  27.844  30.189  1.00  0.00     0.074 A 
ATOM     27  C   UNL A   1      41.471  30.318  35.999  1.00  0.00     0.029 A 
ATOM     28  N   UNL A   1      41.250  29.858  33.832  1.00  0.00    -0.354 N 
ATOM     29  N   UNL A   1      41.903  28.443  31.343  1.00  0.00    -0.248 NA
ATOM     30  C   UNL A   1      43.218  26.947  30.120  1.00  0.00     0.031 C 
ATOM     31  C   UNL A   1      42.435  29.369  35.641  1.00  0.00     0.029 A 
ATOM     32  C   UNL A   1      42.294  29.075  34.294  1.00  0.00     0.049 A 
ATOM     33  H   UNL A   1      40.900  29.848  32.912  1.00  0.00     0.167 HD
ATOM     34  C   UNL A   1      42.873  27.916  32.173  1.00  0.00     0.074 A 
ATOM     35  C   UNL A   1      43.645  26.982  31.376  1.00  0.00     0.031 C 
ATOM     36  C   UNL A   1      43.064  28.154  33.492  1.00  0.00     0.037 A 
BRANCH  23  37
ATOM     37  C   UNL A   1      39.335  32.500  35.864  1.00  0.00     0.064 A 
ATOM     38  C   UNL A   1      39.951  33.735  36.133  1.00  0.00     0.173 A 
ATOM     39  C   UNL A   1      38.394  32.012  36.776  1.00  0.00     0.173 A 
ATOM     40  F   UNL A   1      40.892  34.218  35.307  1.00  0.00    -0.203 F 
ATOM     41  C   UNL A   1      39.669  34.428  37.306  1.00  0.00     0.198 A 
ATOM     42  C   UNL A   1      38.095  32.723  37.933  1.00  0.00     0.198 A 
ATOM     43  F   UNL A   1      37.803  30.827  36.566  1.00  0.00    -0.203 F 
ATOM     44  F   UNL A   1      40.330  35.559  37.589  1.00  0.00    -0.200 F 
ATOM     45  C   UNL A   1      38.741  33.921  38.203  1.00  0.00     0.200 A 
ATOM     46  F   UNL A   1      37.206  32.229  38.806  1.00  0.00    -0.200 F 
ATOM     47  F   UNL A   1      38.490  34.574  39.345  1.00  0.00    -0.200 F 
ENDBRANCH  23  37
BRANCH  24  48
ATOM     48  C   UNL A   1      41.472  27.111  27.767  1.00  0.00     0.064 A 
ATOM     49  C   UNL A   1      41.243  25.731  27.681  1.00  0.00     0.173 A 
ATOM     50  C   UNL A   1      42.130  27.723  26.688  1.00  0.00     0.173 A 
ATOM     51  F   UNL A   1      40.648  25.090  28.698  1.00  0.00    -0.203 F 
ATOM     52  C   UNL A   1      41.685  24.986  26.586  1.00  0.00     0.198 A 
ATOM     53  C   UNL A   1      42.574  26.975  25.593  1.00  0.00     0.198 A 
ATOM     54  F   UNL A   1      42.382  29.040  26.715  1.00  0.00    -0.203 F 
ATOM     55  F   UNL A   1      41.503  23.659  26.561  1.00  0.00    -0.200 F 
ATOM     56  C   UNL A   1      42.354  25.608  25.544  1.00  0.00     0.200 A 
ATOM     57  F   UNL A   1      43.257  27.564  24.604  1.00  0.00    -0.200 F 
ATOM     58  F   UNL A   1      42.812  24.888  24.510  1.00  0.00    -0.200 F 
ENDBRANCH  24  48
BRANCH  36  59
ATOM     59  C   UNL A   1      44.143  27.377  34.175  1.00  0.00     0.064 A 
ATOM     60  C   UNL A   1      45.444  27.883  34.298  1.00  0.00     0.173 A 
ATOM     61  C   UNL A   1      43.852  26.142  34.773  1.00  0.00     0.173 A 
ATOM     62  F   UNL A   1      45.773  29.048  33.720  1.00  0.00    -0.203 F 
ATOM     63  C   UNL A   1      46.419  27.175  34.992  1.00  0.00     0.198 A 
ATOM     64  C   UNL A   1      44.820  25.455  35.497  1.00  0.00     0.198 A 
ATOM     65  F   UNL A   1      42.621  25.615  34.678  1.00  0.00    -0.203 F 
ATOM     66  F   UNL A   1      47.667  27.658  35.066  1.00  0.00    -0.200 F 
ATOM     67  C   UNL A   1      46.102  25.970  35.603  1.00  0.00     0.200 A 
ATOM     68  F   UNL A   1      44.507  24.300  36.100  1.00  0.00    -0.200 F 
ATOM     69  F   UNL A   1      47.037  25.304  36.294  1.00  0.00    -0.200 F 
ENDBRANCH  36  59
ENDBRANCH  10  11
ENDBRANCH   3   5
ENDBRANCH   2   3
ENDBRANCH   1   2
BRANCH   1  70
ATOM     70  C   UNL A   1      32.033  31.056  26.377  1.00  0.00     0.274 C 
BRANCH  70  71
ATOM     71  O   UNL A   1      32.214  29.919  27.235  1.00  0.00    -0.462 OA
BRANCH  71  72
ATOM     72  C   UNL A   1      33.241  29.073  26.924  1.00  0.00     0.315 C 
ATOM     73  O   UNL A   1      34.423  29.332  27.066  1.00  0.00    -0.252 OA
BRANCH  72  74
ATOM     74  C   UNL A   1      32.750  27.751  26.357  1.00  0.00     0.166 C 
ATOM     75  C   UNL A   1      31.380  27.432  26.943  1.00  0.00     0.278 C 
ATOM     76  C   UNL A   1      32.659  27.608  24.802  1.00  0.00     0.038 C 
ATOM     77  N   UNL A   1      30.608  26.796  25.900  1.00  0.00    -0.330 N 
ATOM     78  C   UNL A   1      31.201  27.132  24.617  1.00  0.00     0.270 C 
ATOM     79  C   UNL A   1      32.992  28.917  24.021  1.00  0.00     0.014 C 
ATOM     80  C   UNL A   1      33.655  26.534  24.315  1.00  0.00     0.014 C 
ATOM     81  H   UNL A   1      29.672  27.202  25.938  1.00  0.00     0.348 HD
ATOM     82  C   UNL A   1      33.306  28.832  22.523  1.00  0.00     0.001 C 
ATOM     83  C   UNL A   1      33.633  26.331  22.802  1.00  0.00     0.001 C 
ATOM     84  C   UNL A   1      34.061  27.593  22.074  1.00  0.00     0.000 C 
BRANCH  77  85
ATOM     85  C   UNL A   1      30.067  25.457  26.100  1.00  0.00     0.299 C 
BRANCH  85  86
ATOM     86  C   UNL A   1      31.077  24.370  25.822  1.00  0.00     0.008 A 
ATOM     87  C   UNL A   1      32.101  24.129  26.746  1.00  0.00     0.011 A 
ATOM     88  C   UNL A   1      31.117  23.738  24.572  1.00  0.00     0.031 A 
ATOM     89  C   UNL A   1      33.252  23.455  26.356  1.00  0.00     0.022 A 
ATOM     90  C   UNL A   1      32.254  23.017  24.196  1.00  0.00     0.060 A 
ATOM     91  C   UNL A   1      33.347  22.932  25.067  1.00  0.00     0.059 A 
ATOM     92  Cl  UNL A   1      32.298  22.356  22.607  1.00  0.00    -0.083 Cl
ATOM     93  Cl  UNL A   1      34.868  22.275  24.584  1.00  0.00    -0.083 Cl
ENDBRANCH  85  86
ENDBRANCH  77  85
ENDBRANCH  72  74
ENDBRANCH  71  72
ENDBRANCH  70  71
ENDBRANCH   1  70
TORSDOF 13
ENDMDL
MODEL 2
REMARK VINA RESULT:     -12.4      0.659      7.357
REMARK SMILES O=C(OCCOC(=O)[C@H]1C[N@H+](Cc2ccc(Cl)c(Cl)c2)CC12CCCCC2)c1ccc(-c2c3nc(c(-c4c(F)c(F)c(F)c(F)c4F)c4ccc([nH]4)c(-c4c(F)c(F)c(F)c(F)c4F)c4nc(c(-c5c(F)c(F)c(F)c(F)c5F)c5ccc2[nH]5)C=C4)C=C3)cc1
REMARK SMILES IDX 4 1 3 2 2 3 1 4 28 5 29 6 90 7 30 8 89 9 31 10 32 11 33 12
REMARK SMILES IDX 83 13 34 14 88 15 82 16 84 17 35 18 87 19 81 20 80 21 36 23
REMARK SMILES IDX 68 24 48 25 67 26 49 27 52 28 66 29 85 30 50 31 51 32 65 34
REMARK SMILES IDX 86 35 53 36 37 37 38 38 46 39 39 40 40 41 44 42 47 43 41 44
REMARK SMILES IDX 42 45 45 46 43 47 69 48 70 49 78 50 71 51 72 52 76 53 79 54
REMARK SMILES IDX 73 55 74 56 77 57 75 58 54 59 55 60 63 61 56 62 57 63 61 64
REMARK SMILES IDX 64 65 58 66 59 67 62 68 60 69 5 70 6 71 7 72 8 73 9 74 10 75
REMARK SMILES IDX 22 76 11 77 21 78 23 79 27 80 24 82 26 83 25 84 12 85 13 86
REMARK SMILES IDX 14 87 20 88 15 89 18 90 16 91 19 92 17 93
REMARK H PARENT 84 22 52 33 11 81
REMARK Flexibility Score: inf
ROOT
ATOM      1  C   UNL A   1      31.403  32.216  26.994  1.00  0.00     0.275 C 
ENDROOT
BRANCH   1   2
ATOM      2  O   UNL A   1      32.169  33.428  27.023  1.00  0.00    -0.458 OA
BRANCH   2   3
ATOM      3  C   UNL A   1      32.922  33.967  28.008  1.00  0.00     0.338 C 
ATOM      4  O   UNL A   1      32.528  35.026  28.498  1.00  0.00    -0.246 OA
BRANCH   3   5
ATOM      5  C   UNL A   1      34.254  33.441  28.490  1.00  0.00     0.060 A 
ATOM      6  C   UNL A   1      35.538  33.900  28.168  1.00  0.00     0.016 A 
ATOM      7  C   UNL A   1      34.175  32.412  29.445  1.00  0.00     0.016 A 
ATOM      8  C   UNL A   1      36.692  33.406  28.819  1.00  0.00     0.010 A 
ATOM      9  C   UNL A   1      35.309  31.965  30.133  1.00  0.00     0.010 A 
ATOM     10  C   UNL A   1      36.593  32.456  29.832  1.00  0.00    -0.014 A 
BRANCH  10  11
ATOM     11  C   UNL A   1      37.764  31.861  30.550  1.00  0.00     0.031 A 
ATOM     12  C   UNL A   1      38.363  30.626  29.970  1.00  0.00     0.074 A 
ATOM     13  C   UNL A   1      38.298  32.331  31.700  1.00  0.00     0.049 A 
ATOM     14  N   UNL A   1      39.343  29.905  30.440  1.00  0.00    -0.248 NA
ATOM     15  C   UNL A   1      37.851  30.188  28.661  1.00  0.00     0.031 C 
ATOM     16  C   UNL A   1      38.052  33.637  32.268  1.00  0.00     0.029 A 
ATOM     17  N   UNL A   1      39.123  31.748  32.638  1.00  0.00    -0.354 N 
ATOM     18  C   UNL A   1      39.632  29.002  29.439  1.00  0.00     0.074 A 
ATOM     19  C   UNL A   1      38.620  29.142  28.416  1.00  0.00     0.031 C 
ATOM     20  C   UNL A   1      38.499  33.692  33.533  1.00  0.00     0.029 A 
ATOM     21  C   UNL A   1      39.176  32.446  33.831  1.00  0.00     0.049 A 
ATOM     22  H   UNL A   1      39.624  30.917  32.477  1.00  0.00     0.167 HD
ATOM     23  C   UNL A   1      40.717  28.209  29.337  1.00  0.00     0.037 A 
ATOM     24  C   UNL A   1      39.734  32.144  35.020  1.00  0.00     0.037 A 
ATOM     25  C   UNL A   1      41.706  28.066  30.364  1.00  0.00     0.049 A 
ATOM     26  C   UNL A   1      40.728  31.024  35.023  1.00  0.00     0.074 A 
ATOM     27  C   UNL A   1      42.845  27.287  30.357  1.00  0.00     0.029 A 
ATOM     28  N   UNL A   1      41.653  28.696  31.602  1.00  0.00    -0.354 N 
ATOM     29  N   UNL A   1      41.066  30.243  34.029  1.00  0.00    -0.248 NA
ATOM     30  C   UNL A   1      41.513  30.822  36.248  1.00  0.00     0.031 C 
ATOM     31  C   UNL A   1      43.436  27.377  31.622  1.00  0.00     0.029 A 
ATOM     32  C   UNL A   1      42.700  28.260  32.397  1.00  0.00     0.049 A 
ATOM     33  H   UNL A   1      40.972  29.353  31.873  1.00  0.00     0.167 HD
ATOM     34  C   UNL A   1      42.171  29.536  34.463  1.00  0.00     0.074 A 
ATOM     35  C   UNL A   1      42.418  29.946  35.832  1.00  0.00     0.031 C 
ATOM     36  C   UNL A   1      42.935  28.666  33.761  1.00  0.00     0.037 A 
BRANCH  23  37
ATOM     37  C   UNL A   1      40.844  27.461  28.052  1.00  0.00     0.064 A 
ATOM     38  C   UNL A   1      40.333  26.159  27.915  1.00  0.00     0.173 A 
ATOM     39  C   UNL A   1      41.583  28.001  26.995  1.00  0.00     0.173 A 
ATOM     40  F   UNL A   1      39.658  25.586  28.923  1.00  0.00    -0.203 F 
ATOM     41  C   UNL A   1      40.602  25.408  26.776  1.00  0.00     0.198 A 
ATOM     42  C   UNL A   1      41.824  27.257  25.847  1.00  0.00     0.198 A 
ATOM     43  F   UNL A   1      42.107  29.232  27.098  1.00  0.00    -0.203 F 
ATOM     44  F   UNL A   1      40.182  24.137  26.699  1.00  0.00    -0.200 F 
ATOM     45  C   UNL A   1      41.346  25.958  25.744  1.00  0.00     0.200 A 
ATOM     46  F   UNL A   1      42.552  27.784  24.852  1.00  0.00    -0.200 F 
ATOM     47  F   UNL A   1      41.628  25.225  24.658  1.00  0.00    -0.200 F 
ENDBRANCH  23  37
BRANCH  24  48
ATOM     48  C   UNL A   1      39.495  32.952  36.250  1.00  0.00     0.064 A 
ATOM     49  C   UNL A   1      38.490  32.617  37.169  1.00  0.00     0.173 A 
ATOM     50  C   UNL A   1      40.195  34.149  36.470  1.00  0.00     0.173 A 
ATOM     51  F   UNL A   1      37.768  31.502  36.988  1.00  0.00    -0.203 F 
ATOM     52  C   UNL A   1      38.171  33.457  38.237  1.00  0.00     0.198 A 
ATOM     53  C   UNL A   1      39.872  34.990  37.540  1.00  0.00     0.198 A 
ATOM     54  F   UNL A   1      41.163  34.525  35.622  1.00  0.00    -0.203 F 
ATOM     55  F   UNL A   1      37.165  33.138  39.062  1.00  0.00    -0.200 F 
ATOM     56  C   UNL A   1      38.859  34.646  38.420  1.00  0.00     0.200 A 
ATOM     57  F   UNL A   1      40.506  36.159  37.696  1.00  0.00    -0.200 F 
ATOM     58  F   UNL A   1      38.528  35.471  39.423  1.00  0.00    -0.200 F 
ENDBRANCH  24  48
BRANCH  36  59
ATOM     59  C   UNL A   1      44.135  28.103  34.454  1.00  0.00     0.064 A 
ATOM     60  C   UNL A   1      44.082  26.878  35.132  1.00  0.00     0.173 A 
ATOM     61  C   UNL A   1      45.368  28.767  34.378  1.00  0.00     0.173 A 
ATOM     62  F   UNL A   1      42.918  26.222  35.251  1.00  0.00    -0.203 F 
ATOM     63  C   UNL A   1      45.223  26.339  35.715  1.00  0.00     0.198 A 
ATOM     64  C   UNL A   1      46.514  28.207  34.931  1.00  0.00     0.198 A 
ATOM     65  F   UNL A   1      45.467  29.946  33.743  1.00  0.00    -0.203 F 
ATOM     66  F   UNL A   1      45.143  25.185  36.392  1.00  0.00    -0.200 F 
ATOM     67  C   UNL A   1      46.440  26.996  35.601  1.00  0.00     0.200 A 
ATOM     68  F   UNL A   1      47.691  28.835  34.806  1.00  0.00    -0.200 F 
ATOM     69  F   UNL A   1      47.543  26.460  36.142  1.00  0.00    -0.200 F 
ENDBRANCH  36  59
ENDBRANCH  10  11
ENDBRANCH   3   5
ENDBRANCH   2   3
ENDBRANCH   1   2
BRANCH   1  70
ATOM     70  C   UNL A   1      32.144  31.047  26.351  1.00  0.00     0.274 C 
BRANCH  70  71
ATOM     71  O   UNL A   1      32.214  29.905  27.220  1.00  0.00    -0.462 OA
BRANCH  71  72
ATOM     72  C   UNL A   1      33.243  29.033  27.006  1.00  0.00     0.315 C 
ATOM     73  O   UNL A   1      34.414  29.266  27.247  1.00  0.00    -0.252 OA
BRANCH  72  74
ATOM     74  C   UNL A   1      32.771  27.717  26.410  1.00  0.00     0.166 C 
ATOM     75  C   UNL A   1      31.414  27.355  27.004  1.00  0.00     0.278 C 
ATOM     76  C   UNL A   1      32.662  27.613  24.853  1.00  0.00     0.038 C 
ATOM     77  N   UNL A   1      30.642  26.732  25.954  1.00  0.00    -0.330 N 
ATOM     78  C   UNL A   1      31.212  27.113  24.673  1.00  0.00     0.270 C 
ATOM     79  C   UNL A   1      32.959  28.949  24.103  1.00  0.00     0.014 C 
ATOM     80  C   UNL A   1      33.672  26.573  24.325  1.00  0.00     0.014 C 
ATOM     81  H   UNL A   1      29.699  27.118  26.015  1.00  0.00     0.348 HD
ATOM     82  C   UNL A   1      33.256  28.909  22.600  1.00  0.00     0.001 C 
ATOM     83  C   UNL A   1      33.635  26.409  22.807  1.00  0.00     0.001 C 
ATOM     84  C   UNL A   1      34.028  27.698  22.108  1.00  0.00     0.000 C 
BRANCH  77  85
ATOM     85  C   UNL A   1      30.130  25.377  26.125  1.00  0.00     0.299 C 
BRANCH  85  86
ATOM     86  C   UNL A   1      31.156  24.319  25.805  1.00  0.00     0.008 A 
ATOM     87  C   UNL A   1      32.153  24.020  26.743  1.00  0.00     0.011 A 
ATOM     88  C   UNL A   1      31.242  23.775  24.517  1.00  0.00     0.031 A 
ATOM     89  C   UNL A   1      33.321  23.382  26.345  1.00  0.00     0.022 A 
ATOM     90  C   UNL A   1      32.396  23.089  24.129  1.00  0.00     0.060 A 
ATOM     91  C   UNL A   1      33.461  22.949  25.027  1.00  0.00     0.059 A 
ATOM     92  Cl  UNL A   1      32.496  22.540  22.500  1.00  0.00    -0.083 Cl
ATOM     93  Cl  UNL A   1      35.002  22.337  24.548  1.00  0.00    -0.083 Cl
ENDBRANCH  85  86
ENDBRANCH  77  85
ENDBRANCH  72  74
ENDBRANCH  71  72
ENDBRANCH  70  71
ENDBRANCH   1  70
TORSDOF 13
ENDMDL
MODEL 3
REMARK VINA RESULT:     -12.3      0.909      7.383
REMARK SMILES O=C(OCCOC(=O)[C@H]1C[N@H+](Cc2ccc(Cl)c(Cl)c2)CC12CCCCC2)c1ccc(-c2c3nc(c(-c4c(F)c(F)c(F)c(F)c4F)c4ccc([nH]4)c(-c4c(F)c(F)c(F)c(F)c4F)c4nc(c(-c5c(F)c(F)c(F)c(F)c5F)c5ccc2[nH]5)C=C4)C=C3)cc1
REMARK SMILES IDX 4 1 3 2 2 3 1 4 28 5 29 6 90 7 30 8 89 9 31 10 32 11 33 12
REMARK SMILES IDX 83 13 34 14 88 15 82 16 84 17 35 18 87 19 81 20 80 21 36 23
REMARK SMILES IDX 68 24 48 25 67 26 49 27 52 28 66 29 85 30 50 31 51 32 65 34
REMARK SMILES IDX 86 35 53 36 37 37 38 38 46 39 39 40 40 41 44 42 47 43 41 44
REMARK SMILES IDX 42 45 45 46 43 47 69 48 70 49 78 50 71 51 72 52 76 53 79 54
REMARK SMILES IDX 73 55 74 56 77 57 75 58 54 59 55 60 63 61 56 62 57 63 61 64
REMARK SMILES IDX 64 65 58 66 59 67 62 68 60 69 5 70 6 71 7 72 8 73 9 74 10 75
REMARK SMILES IDX 22 76 11 77 21 78 23 79 27 80 24 82 26 83 25 84 12 85 13 86
REMARK SMILES IDX 14 87 20 88 15 89 18 90 16 91 19 92 17 93
REMARK H PARENT 84 22 52 33 11 81
REMARK Flexibility Score: inf
ROOT
ATOM      1  C   UNL A   1      31.434  32.151  27.183  1.00  0.00     0.275 C 
ENDROOT
BRANCH   1   2
ATOM      2  O   UNL A   1      31.987  33.474  27.165  1.00  0.00    -0.458 OA
BRANCH   2   3
ATOM      3  C   UNL A   1      32.803  34.096  28.046  1.00  0.00     0.338 C 
ATOM      4  O   UNL A   1      32.466  35.221  28.421  1.00  0.00    -0.246 OA
BRANCH   3   5
ATOM      5  C   UNL A   1      34.138  33.581  28.529  1.00  0.00     0.060 A 
ATOM      6  C   UNL A   1      35.419  33.946  28.096  1.00  0.00     0.016 A 
ATOM      7  C   UNL A   1      34.071  32.682  29.608  1.00  0.00     0.016 A 
ATOM      8  C   UNL A   1      36.586  33.490  28.751  1.00  0.00     0.010 A 
ATOM      9  C   UNL A   1      35.221  32.279  30.296  1.00  0.00     0.010 A 
ATOM     10  C   UNL A   1      36.505  32.677  29.879  1.00  0.00    -0.014 A 
BRANCH  10  11
ATOM     11  C   UNL A   1      37.689  32.129  30.613  1.00  0.00     0.031 A 
ATOM     12  C   UNL A   1      38.316  30.892  30.068  1.00  0.00     0.074 A 
ATOM     13  C   UNL A   1      38.212  32.643  31.749  1.00  0.00     0.049 A 
ATOM     14  N   UNL A   1      39.312  30.207  30.557  1.00  0.00    -0.248 NA
ATOM     15  C   UNL A   1      37.814  30.406  28.771  1.00  0.00     0.031 C 
ATOM     16  C   UNL A   1      37.936  33.959  32.281  1.00  0.00     0.029 A 
ATOM     17  N   UNL A   1      39.050  32.105  32.703  1.00  0.00    -0.354 N 
ATOM     18  C   UNL A   1      39.621  29.283  29.582  1.00  0.00     0.074 A 
ATOM     19  C   UNL A   1      38.607  29.372  28.555  1.00  0.00     0.031 C 
ATOM     20  C   UNL A   1      38.382  34.059  33.544  1.00  0.00     0.029 A 
ATOM     21  C   UNL A   1      39.087  32.838  33.875  1.00  0.00     0.049 A 
ATOM     22  H   UNL A   1      39.570  31.282  32.564  1.00  0.00     0.167 HD
ATOM     23  C   UNL A   1      40.725  28.513  29.501  1.00  0.00     0.037 A 
ATOM     24  C   UNL A   1      39.651  32.581  35.072  1.00  0.00     0.037 A 
ATOM     25  C   UNL A   1      41.716  28.421  30.531  1.00  0.00     0.049 A 
ATOM     26  C   UNL A   1      40.670  31.484  35.106  1.00  0.00     0.074 A 
ATOM     27  C   UNL A   1      42.873  27.667  30.546  1.00  0.00     0.029 A 
ATOM     28  N   UNL A   1      41.649  29.083  31.752  1.00  0.00    -0.354 N 
ATOM     29  N   UNL A   1      41.026  30.684  34.134  1.00  0.00    -0.248 NA
ATOM     30  C   UNL A   1      41.459  31.334  36.336  1.00  0.00     0.031 C 
ATOM     31  C   UNL A   1      43.461  27.806  31.807  1.00  0.00     0.029 A 
ATOM     32  C   UNL A   1      42.704  28.694  32.558  1.00  0.00     0.049 A 
ATOM     33  H   UNL A   1      40.953  29.732  32.005  1.00  0.00     0.167 HD
ATOM     34  C   UNL A   1      42.146  30.015  34.587  1.00  0.00     0.074 A 
ATOM     35  C   UNL A   1      42.384  30.468  35.944  1.00  0.00     0.031 C 
ATOM     36  C   UNL A   1      42.930  29.143  33.910  1.00  0.00     0.037 A 
BRANCH  23  37
ATOM     37  C   UNL A   1      40.869  27.732  28.238  1.00  0.00     0.064 A 
ATOM     38  C   UNL A   1      40.378  26.419  28.134  1.00  0.00     0.173 A 
ATOM     39  C   UNL A   1      41.605  28.254  27.170  1.00  0.00     0.173 A 
ATOM     40  F   UNL A   1      39.706  25.863  29.154  1.00  0.00    -0.203 F 
ATOM     41  C   UNL A   1      40.663  25.641  27.016  1.00  0.00     0.198 A 
ATOM     42  C   UNL A   1      41.863  27.482  26.043  1.00  0.00     0.198 A 
ATOM     43  F   UNL A   1      42.110  29.495  27.242  1.00  0.00    -0.203 F 
ATOM     44  F   UNL A   1      40.263  24.362  26.973  1.00  0.00    -0.200 F 
ATOM     45  C   UNL A   1      41.404  26.174  25.973  1.00  0.00     0.200 A 
ATOM     46  F   UNL A   1      42.587  27.993  25.038  1.00  0.00    -0.200 F 
ATOM     47  F   UNL A   1      41.702  25.417  24.909  1.00  0.00    -0.200 F 
ENDBRANCH  23  37
BRANCH  24  48
ATOM     48  C   UNL A   1      39.393  33.418  36.279  1.00  0.00     0.064 A 
ATOM     49  C   UNL A   1      40.151  34.565  36.557  1.00  0.00     0.173 A 
ATOM     50  C   UNL A   1      38.454  33.018  37.243  1.00  0.00     0.173 A 
ATOM     51  F   UNL A   1      41.086  34.972  35.686  1.00  0.00    -0.203 F 
ATOM     52  C   UNL A   1      40.008  35.259  37.760  1.00  0.00     0.198 A 
ATOM     53  C   UNL A   1      38.314  33.714  38.448  1.00  0.00     0.198 A 
ATOM     54  F   UNL A   1      37.703  31.927  37.036  1.00  0.00    -0.203 F 
ATOM     55  F   UNL A   1      40.790  36.315  38.020  1.00  0.00    -0.200 F 
ATOM     56  C   UNL A   1      39.092  34.830  38.707  1.00  0.00     0.200 A 
ATOM     57  F   UNL A   1      37.460  33.280  39.383  1.00  0.00    -0.200 F 
ATOM     58  F   UNL A   1      38.980  35.474  39.878  1.00  0.00    -0.200 F 
ENDBRANCH  24  48
BRANCH  36  59
ATOM     59  C   UNL A   1      44.143  28.627  34.618  1.00  0.00     0.064 A 
ATOM     60  C   UNL A   1      45.354  29.331  34.602  1.00  0.00     0.173 A 
ATOM     61  C   UNL A   1      44.069  27.450  35.376  1.00  0.00     0.173 A 
ATOM     62  F   UNL A   1      45.477  30.448  33.869  1.00  0.00    -0.203 F 
ATOM     63  C   UNL A   1      46.453  28.870  35.318  1.00  0.00     0.198 A 
ATOM     64  C   UNL A   1      45.159  27.012  36.119  1.00  0.00     0.198 A 
ATOM     65  F   UNL A   1      42.931  26.739  35.418  1.00  0.00    -0.203 F 
ATOM     66  F   UNL A   1      47.614  29.537  35.258  1.00  0.00    -0.200 F 
ATOM     67  C   UNL A   1      46.350  27.720  36.087  1.00  0.00     0.200 A 
ATOM     68  F   UNL A   1      45.052  25.910  36.875  1.00  0.00    -0.200 F 
ATOM     69  F   UNL A   1      47.403  27.293  36.797  1.00  0.00    -0.200 F 
ENDBRANCH  36  59
ENDBRANCH  10  11
ENDBRANCH   3   5
ENDBRANCH   2   3
ENDBRANCH   1   2
BRANCH   1  70
ATOM     70  C   UNL A   1      32.356  31.101  26.568  1.00  0.00     0.274 C 
BRANCH  70  71
ATOM     71  O   UNL A   1      32.227  29.823  27.211  1.00  0.00    -0.462 OA
BRANCH  71  72
ATOM     72  C   UNL A   1      33.235  28.926  27.001  1.00  0.00     0.315 C 
ATOM     73  O   UNL A   1      34.409  29.127  27.253  1.00  0.00    -0.252 OA
BRANCH  72  74
ATOM     74  C   UNL A   1      32.735  27.625  26.393  1.00  0.00     0.166 C 
ATOM     75  C   UNL A   1      31.370  27.289  26.983  1.00  0.00     0.278 C 
ATOM     76  C   UNL A   1      32.626  27.537  24.835  1.00  0.00     0.038 C 
ATOM     77  N   UNL A   1      30.585  26.692  25.926  1.00  0.00    -0.330 N 
ATOM     78  C   UNL A   1      31.165  27.071  24.650  1.00  0.00     0.270 C 
ATOM     79  C   UNL A   1      32.953  28.872  24.096  1.00  0.00     0.014 C 
ATOM     80  C   UNL A   1      33.614  26.479  24.300  1.00  0.00     0.014 C 
ATOM     81  H   UNL A   1      29.651  27.098  25.990  1.00  0.00     0.348 HD
ATOM     82  C   UNL A   1      33.251  28.838  22.593  1.00  0.00     0.001 C 
ATOM     83  C   UNL A   1      33.575  26.328  22.781  1.00  0.00     0.001 C 
ATOM     84  C   UNL A   1      33.998  27.614  22.093  1.00  0.00     0.000 C 
BRANCH  77  85
ATOM     85  C   UNL A   1      30.043  25.347  26.086  1.00  0.00     0.299 C 
BRANCH  85  86
ATOM     86  C   UNL A   1      31.057  24.269  25.792  1.00  0.00     0.008 A 
ATOM     87  C   UNL A   1      32.075  24.010  26.719  1.00  0.00     0.011 A 
ATOM     88  C   UNL A   1      31.108  23.663  24.530  1.00  0.00     0.031 A 
ATOM     89  C   UNL A   1      33.229  23.347  26.324  1.00  0.00     0.022 A 
ATOM     90  C   UNL A   1      32.249  22.953  24.148  1.00  0.00     0.060 A 
ATOM     91  C   UNL A   1      33.335  22.851  25.025  1.00  0.00     0.059 A 
ATOM     92  Cl  UNL A   1      32.306  22.325  22.546  1.00  0.00    -0.083 Cl
ATOM     93  Cl  UNL A   1      34.862  22.208  24.539  1.00  0.00    -0.083 Cl
ENDBRANCH  85  86
ENDBRANCH  77  85
ENDBRANCH  72  74
ENDBRANCH  71  72
ENDBRANCH  70  71
ENDBRANCH   1  70
TORSDOF 13
ENDMDL
