MODEL 1
REMARK VINA RESULT:     -10.3      0.000      0.000
REMARK SMILES C[C@@H](C(=O)OCCOC(=O)c1ccc(-c2c3nc(c(-c4c(F)c(F)c(F)c(F)c4F)c4ccc([nH]4)c(-c4c(F)c(F)c(F)c(F)c4F)c4nc(c(-c5c(F)c(F)c(F)c(F)c5F)c5ccc2[nH]5)C=C4)C=C3)cc1)c1ccc(Cc2cccs2)cc1F
REMARK SMILES IDX 6 1 5 2 3 3 4 4 2 5 1 6 74 7 75 8 85 9 76 10 84 11 86 12
REMARK SMILES IDX 77 13 78 14 79 15 80 16 83 17 81 18 82 19 7 20 8 21 9 22
REMARK SMILES IDX 10 23 11 24 12 25 73 26 13 27 72 28 14 29 15 30 16 31 66 32
REMARK SMILES IDX 17 33 71 34 65 35 67 36 18 37 70 38 64 39 63 40 19 42 51 43
REMARK SMILES IDX 31 44 50 45 32 46 35 47 49 48 68 49 33 50 34 51 48 53 69 54
REMARK SMILES IDX 36 55 20 56 21 57 29 58 22 59 23 60 27 61 30 62 24 63 25 64
REMARK SMILES IDX 28 65 26 66 52 67 53 68 61 69 54 70 55 71 59 72 62 73 56 74
REMARK SMILES IDX 57 75 60 76 58 77 37 78 38 79 46 80 39 81 40 82 44 83 47 84
REMARK SMILES IDX 41 85 42 86 45 87 43 88
REMARK H PARENT 67 41 35 52
REMARK Flexibility Score: inf
ROOT
ATOM      1  C   UNL A   1      42.656  19.751  26.337  1.00  0.00     0.274 C 
ENDROOT
BRANCH   1   2
ATOM      2  O   UNL A   1      43.442  19.754  25.128  1.00  0.00    -0.462 OA
BRANCH   2   3
ATOM      3  C   UNL A   1      44.575  20.513  25.132  1.00  0.00     0.313 C 
ATOM      4  O   UNL A   1      45.703  20.058  25.279  1.00  0.00    -0.252 OA
BRANCH   3   5
ATOM      5  C   UNL A   1      44.256  22.006  25.007  1.00  0.00     0.129 C 
ATOM      6  C   UNL A   1      44.527  22.573  23.609  1.00  0.00     0.025 C 
BRANCH   5   7
ATOM      7  C   UNL A   1      44.988  22.828  26.057  1.00  0.00     0.002 A 
ATOM      8  C   UNL A   1      44.489  22.967  27.360  1.00  0.00     0.008 A 
ATOM      9  C   UNL A   1      46.184  23.476  25.739  1.00  0.00     0.127 A 
ATOM     10  C   UNL A   1      45.163  23.743  28.307  1.00  0.00     0.004 A 
ATOM     11  C   UNL A   1      46.871  24.243  26.681  1.00  0.00     0.043 A 
ATOM     12  F   UNL A   1      46.707  23.352  24.511  1.00  0.00    -0.207 F 
ATOM     13  C   UNL A   1      46.368  24.380  27.981  1.00  0.00    -0.040 A 
BRANCH  13  14
ATOM     14  C   UNL A   1      47.115  25.192  29.014  1.00  0.00     0.082 C 
BRANCH  14  15
ATOM     15  C   UNL A   1      46.219  26.021  29.886  1.00  0.00     0.009 A 
ATOM     16  C   UNL A   1      45.185  26.852  29.502  1.00  0.00     0.016 A 
ATOM     17  S   UNL A   1      46.374  25.960  31.592  1.00  0.00    -0.149 S 
ATOM     18  C   UNL A   1      44.511  27.419  30.617  1.00  0.00     0.012 A 
ATOM     19  C   UNL A   1      45.045  27.009  31.817  1.00  0.00     0.065 A 
ENDBRANCH  14  15
ENDBRANCH  13  14
ENDBRANCH   5   7
ENDBRANCH   3   5
ENDBRANCH   2   3
ENDBRANCH   1   2
BRANCH   1  20
ATOM     20  C   UNL A   1      41.168  19.734  26.004  1.00  0.00     0.275 C 
BRANCH  20  21
ATOM     21  O   UNL A   1      40.447  20.506  26.982  1.00  0.00    -0.458 OA
BRANCH  21  22
ATOM     22  C   UNL A   1      39.537  21.379  26.498  1.00  0.00     0.338 C 
ATOM     23  O   UNL A   1      38.549  21.131  25.830  1.00  0.00    -0.246 OA
BRANCH  22  24
ATOM     24  C   UNL A   1      39.905  22.752  26.890  1.00  0.00     0.060 A 
ATOM     25  C   UNL A   1      39.325  23.846  26.250  1.00  0.00     0.016 A 
ATOM     26  C   UNL A   1      40.940  22.942  27.809  1.00  0.00     0.016 A 
ATOM     27  C   UNL A   1      39.854  25.121  26.451  1.00  0.00     0.010 A 
ATOM     28  C   UNL A   1      41.411  24.234  28.073  1.00  0.00     0.010 A 
ATOM     29  C   UNL A   1      40.911  25.332  27.355  1.00  0.00    -0.014 A 
BRANCH  29  30
ATOM     30  C   UNL A   1      41.532  26.684  27.468  1.00  0.00     0.031 A 
ATOM     31  C   UNL A   1      40.984  27.691  28.449  1.00  0.00     0.074 A 
ATOM     32  C   UNL A   1      42.647  26.976  26.769  1.00  0.00     0.049 A 
ATOM     33  N   UNL A   1      41.399  28.908  28.701  1.00  0.00    -0.248 NA
ATOM     34  C   UNL A   1      39.819  27.284  29.250  1.00  0.00     0.031 C 
ATOM     35  C   UNL A   1      43.314  26.064  25.840  1.00  0.00     0.029 A 
ATOM     36  N   UNL A   1      43.466  28.080  26.796  1.00  0.00    -0.354 N 
ATOM     37  C   UNL A   1      40.493  29.440  29.610  1.00  0.00     0.074 A 
ATOM     38  C   UNL A   1      39.535  28.398  29.909  1.00  0.00     0.031 C 
ATOM     39  C   UNL A   1      44.512  26.574  25.513  1.00  0.00     0.029 A 
ATOM     40  C   UNL A   1      44.664  27.881  26.146  1.00  0.00     0.049 A 
ATOM     41  H   UNL A   1      43.221  28.927  27.234  1.00  0.00     0.167 HD
ATOM     42  C   UNL A   1      40.446  30.695  30.120  1.00  0.00     0.037 A 
ATOM     43  C   UNL A   1      45.777  28.642  26.123  1.00  0.00     0.037 A 
ATOM     44  C   UNL A   1      41.439  31.707  29.876  1.00  0.00     0.049 A 
ATOM     45  C   UNL A   1      45.752  29.992  26.787  1.00  0.00     0.074 A 
ATOM     46  C   UNL A   1      41.443  33.033  30.273  1.00  0.00     0.029 A 
ATOM     47  N   UNL A   1      42.629  31.489  29.199  1.00  0.00    -0.354 N 
ATOM     48  N   UNL A   1      44.840  30.521  27.563  1.00  0.00    -0.248 NA
ATOM     49  C   UNL A   1      46.911  30.864  26.538  1.00  0.00     0.031 C 
ATOM     50  C   UNL A   1      42.626  33.625  29.816  1.00  0.00     0.029 A 
ATOM     51  C   UNL A   1      43.373  32.658  29.165  1.00  0.00     0.049 A 
ATOM     52  H   UNL A   1      42.905  30.632  28.802  1.00  0.00     0.167 HD
ATOM     53  C   UNL A   1      45.301  31.792  27.876  1.00  0.00     0.074 A 
ATOM     54  C   UNL A   1      46.609  31.927  27.269  1.00  0.00     0.031 C 
ATOM     55  C   UNL A   1      44.674  32.778  28.563  1.00  0.00     0.037 A 
BRANCH  42  56
ATOM     56  C   UNL A   1      39.238  31.075  30.921  1.00  0.00     0.064 A 
ATOM     57  C   UNL A   1      38.079  31.597  30.334  1.00  0.00     0.173 A 
ATOM     58  C   UNL A   1      39.238  30.870  32.311  1.00  0.00     0.173 A 
ATOM     59  F   UNL A   1      38.037  31.830  29.014  1.00  0.00    -0.203 F 
ATOM     60  C   UNL A   1      36.965  31.911  31.112  1.00  0.00     0.198 A 
ATOM     61  C   UNL A   1      38.117  31.164  33.081  1.00  0.00     0.198 A 
ATOM     62  F   UNL A   1      40.325  30.372  32.919  1.00  0.00    -0.203 F 
ATOM     63  F   UNL A   1      35.876  32.441  30.537  1.00  0.00    -0.200 F 
ATOM     64  C   UNL A   1      36.983  31.688  32.482  1.00  0.00     0.200 A 
ATOM     65  F   UNL A   1      38.136  30.939  34.402  1.00  0.00    -0.200 F 
ATOM     66  F   UNL A   1      35.908  31.985  33.225  1.00  0.00    -0.200 F 
ENDBRANCH  42  56
BRANCH  43  67
ATOM     67  C   UNL A   1      47.053  28.105  25.572  1.00  0.00     0.064 A 
ATOM     68  C   UNL A   1      48.080  27.723  26.453  1.00  0.00     0.173 A 
ATOM     69  C   UNL A   1      47.287  27.943  24.202  1.00  0.00     0.173 A 
ATOM     70  F   UNL A   1      47.922  27.887  27.775  1.00  0.00    -0.203 F 
ATOM     71  C   UNL A   1      49.282  27.200  25.987  1.00  0.00     0.198 A 
ATOM     72  C   UNL A   1      48.481  27.392  23.735  1.00  0.00     0.198 A 
ATOM     73  F   UNL A   1      46.350  28.302  23.312  1.00  0.00    -0.203 F 
ATOM     74  F   UNL A   1      50.248  26.873  26.855  1.00  0.00    -0.200 F 
ATOM     75  C   UNL A   1      49.478  27.025  24.627  1.00  0.00     0.200 A 
ATOM     76  F   UNL A   1      48.663  27.214  22.420  1.00  0.00    -0.200 F 
ATOM     77  F   UNL A   1      50.630  26.510  24.176  1.00  0.00    -0.200 F 
ENDBRANCH  43  67
BRANCH  55  78
ATOM     78  C   UNL A   1      45.371  34.103  28.654  1.00  0.00     0.064 A 
ATOM     79  C   UNL A   1      46.285  34.364  29.687  1.00  0.00     0.173 A 
ATOM     80  C   UNL A   1      45.172  35.095  27.685  1.00  0.00     0.173 A 
ATOM     81  F   UNL A   1      46.502  33.447  30.642  1.00  0.00    -0.203 F 
ATOM     82  C   UNL A   1      46.954  35.581  29.761  1.00  0.00     0.198 A 
ATOM     83  C   UNL A   1      45.864  36.302  27.747  1.00  0.00     0.198 A 
ATOM     84  F   UNL A   1      44.318  34.891  26.670  1.00  0.00    -0.203 F 
ATOM     85  F   UNL A   1      47.791  35.821  30.779  1.00  0.00    -0.200 F 
ATOM     86  C   UNL A   1      46.749  36.546  28.788  1.00  0.00     0.200 A 
ATOM     87  F   UNL A   1      45.676  37.232  26.800  1.00  0.00    -0.200 F 
ATOM     88  F   UNL A   1      47.401  37.715  28.856  1.00  0.00    -0.200 F 
ENDBRANCH  55  78
ENDBRANCH  29  30
ENDBRANCH  22  24
ENDBRANCH  21  22
ENDBRANCH  20  21
ENDBRANCH   1  20
TORSDOF 14
ENDMDL
MODEL 2
REMARK VINA RESULT:     -10.1      5.574      9.236
REMARK SMILES C[C@@H](C(=O)OCCOC(=O)c1ccc(-c2c3nc(c(-c4c(F)c(F)c(F)c(F)c4F)c4ccc([nH]4)c(-c4c(F)c(F)c(F)c(F)c4F)c4nc(c(-c5c(F)c(F)c(F)c(F)c5F)c5ccc2[nH]5)C=C4)C=C3)cc1)c1ccc(Cc2cccs2)cc1F
REMARK SMILES IDX 6 1 5 2 3 3 4 4 2 5 1 6 74 7 75 8 85 9 76 10 84 11 86 12
REMARK SMILES IDX 77 13 78 14 79 15 80 16 83 17 81 18 82 19 7 20 8 21 9 22
REMARK SMILES IDX 10 23 11 24 12 25 73 26 13 27 72 28 14 29 15 30 16 31 66 32
REMARK SMILES IDX 17 33 71 34 65 35 67 36 18 37 70 38 64 39 63 40 19 42 51 43
REMARK SMILES IDX 31 44 50 45 32 46 35 47 49 48 68 49 33 50 34 51 48 53 69 54
REMARK SMILES IDX 36 55 20 56 21 57 29 58 22 59 23 60 27 61 30 62 24 63 25 64
REMARK SMILES IDX 28 65 26 66 52 67 53 68 61 69 54 70 55 71 59 72 62 73 56 74
REMARK SMILES IDX 57 75 60 76 58 77 37 78 38 79 46 80 39 81 40 82 44 83 47 84
REMARK SMILES IDX 41 85 42 86 45 87 43 88
REMARK H PARENT 67 41 35 52
REMARK Flexibility Score: inf
ROOT
ATOM      1  C   UNL A   1      30.947  30.570  24.946  1.00  0.00     0.274 C 
ENDROOT
BRANCH   1   2
ATOM      2  O   UNL A   1      31.377  29.195  25.010  1.00  0.00    -0.462 OA
BRANCH   2   3
ATOM      3  C   UNL A   1      31.860  28.646  23.859  1.00  0.00     0.313 C 
ATOM      4  O   UNL A   1      31.167  28.377  22.885  1.00  0.00    -0.252 OA
BRANCH   3   5
ATOM      5  C   UNL A   1      33.357  28.339  23.964  1.00  0.00     0.129 C 
ATOM      6  C   UNL A   1      34.137  28.656  22.684  1.00  0.00     0.025 C 
BRANCH   5   7
ATOM      7  C   UNL A   1      33.608  26.900  24.388  1.00  0.00     0.002 A 
ATOM      8  C   UNL A   1      33.910  25.901  23.451  1.00  0.00     0.008 A 
ATOM      9  C   UNL A   1      33.534  26.536  25.735  1.00  0.00     0.127 A 
ATOM     10  C   UNL A   1      34.117  24.578  23.855  1.00  0.00     0.004 A 
ATOM     11  C   UNL A   1      33.751  25.221  26.149  1.00  0.00     0.043 A 
ATOM     12  F   UNL A   1      33.268  27.464  26.665  1.00  0.00    -0.207 F 
ATOM     13  C   UNL A   1      34.052  24.227  25.210  1.00  0.00    -0.040 A 
BRANCH  13  14
ATOM     14  C   UNL A   1      34.309  22.804  25.650  1.00  0.00     0.082 C 
BRANCH  14  15
ATOM     15  C   UNL A   1      35.744  22.388  25.528  1.00  0.00     0.009 A 
ATOM     16  C   UNL A   1      36.874  23.120  25.836  1.00  0.00     0.016 A 
ATOM     17  S   UNL A   1      36.146  20.806  25.004  1.00  0.00    -0.149 S 
ATOM     18  C   UNL A   1      38.066  22.366  25.659  1.00  0.00     0.012 A 
ATOM     19  C   UNL A   1      37.817  21.086  25.223  1.00  0.00     0.065 A 
ENDBRANCH  14  15
ENDBRANCH  13  14
ENDBRANCH   5   7
ENDBRANCH   3   5
ENDBRANCH   2   3
ENDBRANCH   1   2
BRANCH   1  20
ATOM     20  C   UNL A   1      31.254  31.285  26.257  1.00  0.00     0.275 C 
BRANCH  20  21
ATOM     21  O   UNL A   1      32.616  31.022  26.642  1.00  0.00    -0.458 OA
BRANCH  21  22
ATOM     22  C   UNL A   1      33.249  32.011  27.309  1.00  0.00     0.338 C 
ATOM     23  O   UNL A   1      32.822  33.119  27.580  1.00  0.00    -0.246 OA
BRANCH  22  24
ATOM     24  C   UNL A   1      34.604  31.569  27.687  1.00  0.00     0.060 A 
ATOM     25  C   UNL A   1      34.872  30.217  27.897  1.00  0.00     0.016 A 
ATOM     26  C   UNL A   1      35.579  32.530  27.966  1.00  0.00     0.016 A 
ATOM     27  C   UNL A   1      36.077  29.837  28.488  1.00  0.00     0.010 A 
ATOM     28  C   UNL A   1      36.821  32.136  28.479  1.00  0.00     0.010 A 
ATOM     29  C   UNL A   1      37.062  30.790  28.798  1.00  0.00    -0.014 A 
BRANCH  29  30
ATOM     30  C   UNL A   1      38.293  30.373  29.531  1.00  0.00     0.031 A 
ATOM     31  C   UNL A   1      38.439  30.671  31.003  1.00  0.00     0.074 A 
ATOM     32  C   UNL A   1      39.236  29.640  28.905  1.00  0.00     0.049 A 
ATOM     33  N   UNL A   1      39.426  30.374  31.812  1.00  0.00    -0.248 NA
ATOM     34  C   UNL A   1      37.337  31.397  31.653  1.00  0.00     0.031 C 
ATOM     35  C   UNL A   1      39.180  29.228  27.503  1.00  0.00     0.029 A 
ATOM     36  N   UNL A   1      40.375  29.035  29.383  1.00  0.00    -0.354 N 
ATOM     37  C   UNL A   1      39.109  30.959  33.032  1.00  0.00     0.074 A 
ATOM     38  C   UNL A   1      37.814  31.583  32.876  1.00  0.00     0.031 C 
ATOM     39  C   UNL A   1      40.139  28.315  27.278  1.00  0.00     0.029 A 
ATOM     40  C   UNL A   1      40.925  28.137  28.496  1.00  0.00     0.049 A 
ATOM     41  H   UNL A   1      40.759  29.227  30.270  1.00  0.00     0.167 HD
ATOM     42  C   UNL A   1      39.850  31.000  34.165  1.00  0.00     0.037 A 
ATOM     43  C   UNL A   1      41.906  27.229  28.674  1.00  0.00     0.037 A 
ATOM     44  C   UNL A   1      41.106  30.320  34.340  1.00  0.00     0.049 A 
ATOM     45  C   UNL A   1      42.653  27.209  29.979  1.00  0.00     0.074 A 
ATOM     46  C   UNL A   1      41.976  30.366  35.415  1.00  0.00     0.029 A 
ATOM     47  N   UNL A   1      41.651  29.436  33.422  1.00  0.00    -0.354 N 
ATOM     48  N   UNL A   1      42.399  27.848  31.094  1.00  0.00    -0.248 NA
ATOM     49  C   UNL A   1      43.852  26.358  30.032  1.00  0.00     0.031 C 
ATOM     50  C   UNL A   1      43.061  29.527  35.138  1.00  0.00     0.029 A 
ATOM     51  C   UNL A   1      42.848  28.932  33.906  1.00  0.00     0.049 A 
ATOM     52  H   UNL A   1      41.248  29.201  32.556  1.00  0.00     0.167 HD
ATOM     53  C   UNL A   1      43.414  27.494  31.972  1.00  0.00     0.074 A 
ATOM     54  C   UNL A   1      44.246  26.527  31.287  1.00  0.00     0.031 C 
ATOM     55  C   UNL A   1      43.664  27.968  33.217  1.00  0.00     0.037 A 
BRANCH  42  56
ATOM     56  C   UNL A   1      39.368  31.880  35.279  1.00  0.00     0.064 A 
ATOM     57  C   UNL A   1      38.550  31.407  36.312  1.00  0.00     0.173 A 
ATOM     58  C   UNL A   1      39.774  33.224  35.323  1.00  0.00     0.173 A 
ATOM     59  F   UNL A   1      38.118  30.138  36.303  1.00  0.00    -0.203 F 
ATOM     60  C   UNL A   1      38.146  32.252  37.346  1.00  0.00     0.198 A 
ATOM     61  C   UNL A   1      39.388  34.059  36.368  1.00  0.00     0.198 A 
ATOM     62  F   UNL A   1      40.559  33.724  34.356  1.00  0.00    -0.203 F 
ATOM     63  F   UNL A   1      37.336  31.790  38.308  1.00  0.00    -0.200 F 
ATOM     64  C   UNL A   1      38.571  33.573  37.376  1.00  0.00     0.200 A 
ATOM     65  F   UNL A   1      39.807  35.331  36.397  1.00  0.00    -0.200 F 
ATOM     66  F   UNL A   1      38.187  34.379  38.375  1.00  0.00    -0.200 F 
ENDBRANCH  42  56
BRANCH  43  67
ATOM     67  C   UNL A   1      42.159  26.175  27.653  1.00  0.00     0.064 A 
ATOM     68  C   UNL A   1      43.155  26.377  26.681  1.00  0.00     0.173 A 
ATOM     69  C   UNL A   1      41.458  24.964  27.613  1.00  0.00     0.173 A 
ATOM     70  F   UNL A   1      43.835  27.533  26.653  1.00  0.00    -0.203 F 
ATOM     71  C   UNL A   1      43.439  25.414  25.719  1.00  0.00     0.198 A 
ATOM     72  C   UNL A   1      41.763  23.986  26.665  1.00  0.00     0.198 A 
ATOM     73  F   UNL A   1      40.488  24.718  28.506  1.00  0.00    -0.203 F 
ATOM     74  F   UNL A   1      44.376  25.655  24.791  1.00  0.00    -0.200 F 
ATOM     75  C   UNL A   1      42.750  24.213  25.717  1.00  0.00     0.200 A 
ATOM     76  F   UNL A   1      41.101  22.821  26.673  1.00  0.00    -0.200 F 
ATOM     77  F   UNL A   1      43.030  23.280  24.798  1.00  0.00    -0.200 F 
ENDBRANCH  43  67
BRANCH  55  78
ATOM     78  C   UNL A   1      44.908  27.485  33.900  1.00  0.00     0.064 A 
ATOM     79  C   UNL A   1      44.884  26.340  34.712  1.00  0.00     0.173 A 
ATOM     80  C   UNL A   1      46.138  28.127  33.705  1.00  0.00     0.173 A 
ATOM     81  F   UNL A   1      43.729  25.696  34.934  1.00  0.00    -0.203 F 
ATOM     82  C   UNL A   1      46.041  25.872  35.326  1.00  0.00     0.198 A 
ATOM     83  C   UNL A   1      47.300  27.640  34.300  1.00  0.00     0.198 A 
ATOM     84  F   UNL A   1      46.218  29.219  32.929  1.00  0.00    -0.203 F 
ATOM     85  F   UNL A   1      45.984  24.801  36.129  1.00  0.00    -0.200 F 
ATOM     86  C   UNL A   1      47.249  26.518  35.114  1.00  0.00     0.200 A 
ATOM     87  F   UNL A   1      48.471  28.256  34.085  1.00  0.00    -0.200 F 
ATOM     88  F   UNL A   1      48.365  26.061  35.699  1.00  0.00    -0.200 F 
ENDBRANCH  55  78
ENDBRANCH  29  30
ENDBRANCH  22  24
ENDBRANCH  21  22
ENDBRANCH  20  21
ENDBRANCH   1  20
TORSDOF 14
ENDMDL
MODEL 3
REMARK VINA RESULT:     -10.1      3.703      9.556
REMARK SMILES C[C@@H](C(=O)OCCOC(=O)c1ccc(-c2c3nc(c(-c4c(F)c(F)c(F)c(F)c4F)c4ccc([nH]4)c(-c4c(F)c(F)c(F)c(F)c4F)c4nc(c(-c5c(F)c(F)c(F)c(F)c5F)c5ccc2[nH]5)C=C4)C=C3)cc1)c1ccc(Cc2cccs2)cc1F
REMARK SMILES IDX 6 1 5 2 3 3 4 4 2 5 1 6 74 7 75 8 85 9 76 10 84 11 86 12
REMARK SMILES IDX 77 13 78 14 79 15 80 16 83 17 81 18 82 19 7 20 8 21 9 22
REMARK SMILES IDX 10 23 11 24 12 25 73 26 13 27 72 28 14 29 15 30 16 31 66 32
REMARK SMILES IDX 17 33 71 34 65 35 67 36 18 37 70 38 64 39 63 40 19 42 51 43
REMARK SMILES IDX 31 44 50 45 32 46 35 47 49 48 68 49 33 50 34 51 48 53 69 54
REMARK SMILES IDX 36 55 20 56 21 57 29 58 22 59 23 60 27 61 30 62 24 63 25 64
REMARK SMILES IDX 28 65 26 66 52 67 53 68 61 69 54 70 55 71 59 72 62 73 56 74
REMARK SMILES IDX 57 75 60 76 58 77 37 78 38 79 46 80 39 81 40 82 44 83 47 84
REMARK SMILES IDX 41 85 42 86 45 87 43 88
REMARK H PARENT 67 41 35 52
REMARK Flexibility Score: inf
ROOT
ATOM      1  C   UNL A   1      36.405  19.860  25.009  1.00  0.00     0.274 C 
ENDROOT
BRANCH   1   2
ATOM      2  O   UNL A   1      36.003  21.227  25.228  1.00  0.00    -0.462 OA
BRANCH   2   3
ATOM      3  C   UNL A   1      34.878  21.650  24.583  1.00  0.00     0.313 C 
ATOM      4  O   UNL A   1      33.754  21.220  24.814  1.00  0.00    -0.252 OA
BRANCH   3   5
ATOM      5  C   UNL A   1      35.205  22.668  23.487  1.00  0.00     0.129 C 
ATOM      6  C   UNL A   1      36.686  23.059  23.437  1.00  0.00     0.025 C 
BRANCH   5   7
ATOM      7  C   UNL A   1      34.338  23.913  23.598  1.00  0.00     0.002 A 
ATOM      8  C   UNL A   1      34.591  24.900  24.562  1.00  0.00     0.008 A 
ATOM      9  C   UNL A   1      33.253  24.099  22.738  1.00  0.00     0.127 A 
ATOM     10  C   UNL A   1      33.772  26.028  24.665  1.00  0.00     0.004 A 
ATOM     11  C   UNL A   1      32.437  25.227  22.825  1.00  0.00     0.043 A 
ATOM     12  F   UNL A   1      32.988  23.190  21.789  1.00  0.00    -0.207 F 
ATOM     13  C   UNL A   1      32.693  26.210  23.789  1.00  0.00    -0.040 A 
BRANCH  13  14
ATOM     14  C   UNL A   1      31.828  27.446  23.879  1.00  0.00     0.082 C 
BRANCH  14  15
ATOM     15  C   UNL A   1      31.799  28.060  25.246  1.00  0.00     0.009 A 
ATOM     16  C   UNL A   1      31.372  27.490  26.430  1.00  0.00     0.016 A 
ATOM     17  S   UNL A   1      32.404  29.644  25.497  1.00  0.00    -0.149 S 
ATOM     18  C   UNL A   1      31.565  28.354  27.541  1.00  0.00     0.012 A 
ATOM     19  C   UNL A   1      32.129  29.555  27.180  1.00  0.00     0.065 A 
ENDBRANCH  14  15
ENDBRANCH  13  14
ENDBRANCH   5   7
ENDBRANCH   3   5
ENDBRANCH   2   3
ENDBRANCH   1   2
BRANCH   1  20
ATOM     20  C   UNL A   1      37.925  19.759  24.924  1.00  0.00     0.275 C 
BRANCH  20  21
ATOM     21  O   UNL A   1      38.516  20.969  25.435  1.00  0.00    -0.458 OA
BRANCH  21  22
ATOM     22  C   UNL A   1      39.631  20.817  26.181  1.00  0.00     0.338 C 
ATOM     23  O   UNL A   1      40.282  19.801  26.351  1.00  0.00    -0.246 OA
BRANCH  22  24
ATOM     24  C   UNL A   1      39.986  22.101  26.813  1.00  0.00     0.060 A 
ATOM     25  C   UNL A   1      39.385  23.285  26.388  1.00  0.00     0.016 A 
ATOM     26  C   UNL A   1      41.029  22.136  27.742  1.00  0.00     0.016 A 
ATOM     27  C   UNL A   1      39.900  24.510  26.813  1.00  0.00     0.010 A 
ATOM     28  C   UNL A   1      41.486  23.366  28.232  1.00  0.00     0.010 A 
ATOM     29  C   UNL A   1      40.964  24.568  27.730  1.00  0.00    -0.014 A 
BRANCH  29  30
ATOM     30  C   UNL A   1      41.569  25.886  28.082  1.00  0.00     0.031 A 
ATOM     31  C   UNL A   1      42.890  26.300  27.483  1.00  0.00     0.074 A 
ATOM     32  C   UNL A   1      40.890  26.756  28.857  1.00  0.00     0.049 A 
ATOM     33  N   UNL A   1      43.564  27.409  27.655  1.00  0.00    -0.248 NA
ATOM     34  C   UNL A   1      43.543  25.345  26.573  1.00  0.00     0.031 C 
ATOM     35  C   UNL A   1      39.573  26.503  29.441  1.00  0.00     0.029 A 
ATOM     36  N   UNL A   1      41.166  28.056  29.211  1.00  0.00    -0.354 N 
ATOM     37  C   UNL A   1      44.756  27.246  26.959  1.00  0.00     0.074 A 
ATOM     38  C   UNL A   1      44.694  25.952  26.316  1.00  0.00     0.031 C 
ATOM     39  C   UNL A   1      39.089  27.652  29.938  1.00  0.00     0.029 A 
ATOM     40  C   UNL A   1      40.091  28.702  29.778  1.00  0.00     0.049 A 
ATOM     41  H   UNL A   1      42.045  28.480  29.075  1.00  0.00     0.167 HD
ATOM     42  C   UNL A   1      45.818  28.085  26.895  1.00  0.00     0.037 A 
ATOM     43  C   UNL A   1      39.917  30.007  30.070  1.00  0.00     0.037 A 
ATOM     44  C   UNL A   1      45.850  29.400  27.477  1.00  0.00     0.049 A 
ATOM     45  C   UNL A   1      41.071  30.955  29.892  1.00  0.00     0.074 A 
ATOM     46  C   UNL A   1      46.904  30.294  27.543  1.00  0.00     0.029 A 
ATOM     47  N   UNL A   1      44.760  30.023  28.062  1.00  0.00    -0.354 N 
ATOM     48  N   UNL A   1      42.233  30.754  29.321  1.00  0.00    -0.248 NA
ATOM     49  C   UNL A   1      40.894  32.311  30.436  1.00  0.00     0.031 C 
ATOM     50  C   UNL A   1      46.457  31.453  28.190  1.00  0.00     0.029 A 
ATOM     51  C   UNL A   1      45.116  31.290  28.495  1.00  0.00     0.049 A 
ATOM     52  H   UNL A   1      43.864  29.625  28.157  1.00  0.00     0.167 HD
ATOM     53  C   UNL A   1      42.931  31.946  29.455  1.00  0.00     0.074 A 
ATOM     54  C   UNL A   1      42.036  32.889  30.094  1.00  0.00     0.031 C 
ATOM     55  C   UNL A   1      44.217  32.220  29.124  1.00  0.00     0.037 A 
BRANCH  42  56
ATOM     56  C   UNL A   1      47.069  27.574  26.245  1.00  0.00     0.064 A 
ATOM     57  C   UNL A   1      47.296  27.673  24.867  1.00  0.00     0.173 A 
ATOM     58  C   UNL A   1      48.078  27.005  27.040  1.00  0.00     0.173 A 
ATOM     59  F   UNL A   1      46.354  28.188  24.063  1.00  0.00    -0.203 F 
ATOM     60  C   UNL A   1      48.485  27.211  24.305  1.00  0.00     0.198 A 
ATOM     61  C   UNL A   1      49.273  26.566  26.479  1.00  0.00     0.198 A 
ATOM     62  F   UNL A   1      47.907  26.889  28.365  1.00  0.00    -0.203 F 
ATOM     63  F   UNL A   1      48.672  27.285  22.980  1.00  0.00    -0.200 F 
ATOM     64  C   UNL A   1      49.474  26.665  25.112  1.00  0.00     0.200 A 
ATOM     65  F   UNL A   1      50.228  26.047  27.263  1.00  0.00    -0.200 F 
ATOM     66  F   UNL A   1      50.619  26.229  24.569  1.00  0.00    -0.200 F 
ENDBRANCH  42  56
BRANCH  43  67
ATOM     67  C   UNL A   1      38.571  30.531  30.433  1.00  0.00     0.064 A 
ATOM     68  C   UNL A   1      37.668  30.883  29.414  1.00  0.00     0.173 A 
ATOM     69  C   UNL A   1      38.139  30.684  31.756  1.00  0.00     0.173 A 
ATOM     70  F   UNL A   1      38.041  30.788  28.129  1.00  0.00    -0.203 F 
ATOM     71  C   UNL A   1      36.394  31.360  29.703  1.00  0.00     0.198 A 
ATOM     72  C   UNL A   1      36.850  31.136  32.046  1.00  0.00     0.198 A 
ATOM     73  F   UNL A   1      38.960  30.377  32.771  1.00  0.00    -0.203 F 
ATOM     74  F   UNL A   1      35.571  31.712  28.705  1.00  0.00    -0.200 F 
ATOM     75  C   UNL A   1      35.981  31.476  31.020  1.00  0.00     0.200 A 
ATOM     76  F   UNL A   1      36.451  31.236  33.320  1.00  0.00    -0.200 F 
ATOM     77  F   UNL A   1      34.750  31.924  31.300  1.00  0.00    -0.200 F 
ENDBRANCH  43  67
BRANCH  55  78
ATOM     78  C   UNL A   1      44.748  33.574  29.489  1.00  0.00     0.064 A 
ATOM     79  C   UNL A   1      44.584  34.667  28.624  1.00  0.00     0.173 A 
ATOM     80  C   UNL A   1      45.371  33.800  30.724  1.00  0.00     0.173 A 
ATOM     81  F   UNL A   1      44.000  34.498  27.428  1.00  0.00    -0.203 F 
ATOM     82  C   UNL A   1      45.050  35.931  28.969  1.00  0.00     0.198 A 
ATOM     83  C   UNL A   1      45.813  35.073  31.078  1.00  0.00     0.198 A 
ATOM     84  F   UNL A   1      45.541  32.792  31.593  1.00  0.00    -0.203 F 
ATOM     85  F   UNL A   1      44.919  36.949  28.108  1.00  0.00    -0.200 F 
ATOM     86  C   UNL A   1      45.658  36.135  30.198  1.00  0.00     0.200 A 
ATOM     87  F   UNL A   1      46.389  35.274  32.271  1.00  0.00    -0.200 F 
ATOM     88  F   UNL A   1      46.100  37.355  30.533  1.00  0.00    -0.200 F 
ENDBRANCH  55  78
ENDBRANCH  29  30
ENDBRANCH  22  24
ENDBRANCH  21  22
ENDBRANCH  20  21
ENDBRANCH   1  20
TORSDOF 14
ENDMDL
