MODEL 1
REMARK VINA RESULT:     -10.3      0.000      0.000
REMARK SMILES CC(C)c1nc(OCC(=O)OCCOC(=O)c2ccc(-c3c4nc(c(-c5c(F)c(F)c(F)c(F)c5F)c5ccc([nH]5)c(-c5c(F)c(F)c(F)c(F)c5F)c5nc(c(-c6c(F)c(F)c(F)c(F)c6F)c6ccc3[nH]6)C=C5)C=C4)cc2)cc(-c2ccccn2)n1
REMARK SMILES IDX 12 1 11 2 9 3 10 4 8 5 7 6 6 7 4 8 5 9 88 10 81 11 80 12
REMARK SMILES IDX 2 13 1 14 3 15 82 16 83 17 87 18 84 19 86 20 85 21 13 22
REMARK SMILES IDX 14 23 15 24 16 25 17 26 18 27 79 28 19 29 78 30 20 31 21 32
REMARK SMILES IDX 22 33 72 34 23 35 77 36 71 37 73 38 24 39 76 40 70 41 69 42
REMARK SMILES IDX 25 44 57 45 37 46 56 47 38 48 41 49 55 50 74 51 39 52 40 53
REMARK SMILES IDX 54 55 75 56 42 57 26 58 27 59 35 60 28 61 29 62 33 63 36 64
REMARK SMILES IDX 30 65 31 66 34 67 32 68 58 69 59 70 67 71 60 72 61 73 65 74
REMARK SMILES IDX 68 75 62 76 63 77 66 78 64 79 43 80 44 81 52 82 45 83 46 84
REMARK SMILES IDX 50 85 53 86 47 87 48 88 51 89 49 90
REMARK H PARENT 73 43 41 54
REMARK Flexibility Score: inf
ROOT
ATOM      1  C   UNL A   1      44.830  18.987  24.754  1.00  0.00     0.274 C 
ENDROOT
BRANCH   1   2
ATOM      2  O   UNL A   1      45.683  20.064  25.196  1.00  0.00    -0.460 OA
BRANCH   2   3
ATOM      3  C   UNL A   1      45.340  21.302  24.750  1.00  0.00     0.344 C 
ATOM      4  O   UNL A   1      44.777  21.529  23.682  1.00  0.00    -0.248 OA
BRANCH   3   5
ATOM      5  C   UNL A   1      45.691  22.420  25.726  1.00  0.00     0.353 C 
BRANCH   5   6
ATOM      6  O   UNL A   1      46.743  23.293  25.377  1.00  0.00    -0.466 OA
BRANCH   6   7
ATOM      7  C   UNL A   1      46.468  24.586  25.054  1.00  0.00     0.217 A 
ATOM      8  C   UNL A   1      47.445  26.517  24.287  1.00  0.00     0.135 A 
ATOM      9  N   UNL A   1      47.539  25.202  24.534  1.00  0.00    -0.198 NA
ATOM     10  N   UNL A   1      46.354  27.251  24.541  1.00  0.00    -0.231 NA
ATOM     11  C   UNL A   1      45.279  26.609  25.039  1.00  0.00     0.096 A 
ATOM     12  C   UNL A   1      45.288  25.249  25.292  1.00  0.00     0.099 A 
BRANCH   8  13
ATOM     13  C   UNL A   1      48.686  27.209  23.767  1.00  0.00     0.051 C 
ATOM     14  C   UNL A   1      49.980  26.494  24.163  1.00  0.00     0.016 C 
ATOM     15  C   UNL A   1      48.602  27.341  22.244  1.00  0.00     0.016 C 
ENDBRANCH   8  13
BRANCH  11  16
ATOM     16  C   UNL A   1      44.164  27.479  25.439  1.00  0.00     0.089 A 
ATOM     17  C   UNL A   1      42.851  27.101  25.158  1.00  0.00     0.030 A 
ATOM     18  N   UNL A   1      44.458  28.619  26.117  1.00  0.00    -0.255 NA
ATOM     19  C   UNL A   1      41.798  27.915  25.563  1.00  0.00     0.004 A 
ATOM     20  C   UNL A   1      43.406  29.361  26.543  1.00  0.00     0.112 A 
ATOM     21  C   UNL A   1      42.079  29.067  26.280  1.00  0.00     0.020 A 
ENDBRANCH  11  16
ENDBRANCH   6   7
ENDBRANCH   5   6
ENDBRANCH   3   5
ENDBRANCH   2   3
ENDBRANCH   1   2
BRANCH   1  22
ATOM     22  C   UNL A   1      43.556  18.889  25.592  1.00  0.00     0.275 C 
BRANCH  22  23
ATOM     23  O   UNL A   1      42.474  19.602  24.963  1.00  0.00    -0.458 OA
BRANCH  23  24
ATOM     24  C   UNL A   1      41.486  19.964  25.807  1.00  0.00     0.338 C 
ATOM     25  O   UNL A   1      40.438  19.366  26.003  1.00  0.00    -0.246 OA
BRANCH  24  26
ATOM     26  C   UNL A   1      41.817  21.204  26.527  1.00  0.00     0.060 A 
ATOM     27  C   UNL A   1      41.809  21.252  27.925  1.00  0.00     0.016 A 
ATOM     28  C   UNL A   1      41.992  22.372  25.784  1.00  0.00     0.016 A 
ATOM     29  C   UNL A   1      41.942  22.478  28.580  1.00  0.00     0.010 A 
ATOM     30  C   UNL A   1      42.186  23.587  26.439  1.00  0.00     0.010 A 
ATOM     31  C   UNL A   1      42.158  23.650  27.841  1.00  0.00    -0.014 A 
BRANCH  31  32
ATOM     32  C   UNL A   1      42.524  24.918  28.512  1.00  0.00     0.031 A 
ATOM     33  C   UNL A   1      41.514  25.992  28.770  1.00  0.00     0.074 A 
ATOM     34  C   UNL A   1      43.822  25.126  28.789  1.00  0.00     0.049 A 
ATOM     35  N   UNL A   1      41.706  27.254  29.058  1.00  0.00    -0.248 NA
ATOM     36  C   UNL A   1      40.103  25.602  28.683  1.00  0.00     0.031 C 
ATOM     37  C   UNL A   1      44.889  24.140  28.603  1.00  0.00     0.029 A 
ATOM     38  N   UNL A   1      44.472  26.244  29.246  1.00  0.00    -0.354 N 
ATOM     39  C   UNL A   1      40.442  27.820  29.147  1.00  0.00     0.074 A 
ATOM     40  C   UNL A   1      39.488  26.762  28.881  1.00  0.00     0.031 C 
ATOM     41  C   UNL A   1      46.063  24.706  28.911  1.00  0.00     0.029 A 
ATOM     42  C   UNL A   1      45.836  26.104  29.255  1.00  0.00     0.049 A 
ATOM     43  H   UNL A   1      44.006  27.061  29.537  1.00  0.00     0.167 HD
ATOM     44  C   UNL A   1      40.122  29.105  29.430  1.00  0.00     0.037 A 
ATOM     45  C   UNL A   1      46.803  27.015  29.456  1.00  0.00     0.037 A 
ATOM     46  C   UNL A   1      41.082  30.126  29.766  1.00  0.00     0.049 A 
ATOM     47  C   UNL A   1      46.426  28.436  29.739  1.00  0.00     0.074 A 
ATOM     48  C   UNL A   1      40.853  31.435  30.158  1.00  0.00     0.029 A 
ATOM     49  N   UNL A   1      42.457  29.947  29.763  1.00  0.00    -0.354 N 
ATOM     50  N   UNL A   1      45.234  28.974  29.788  1.00  0.00    -0.248 NA
ATOM     51  C   UNL A   1      47.527  29.375  29.981  1.00  0.00     0.031 C 
ATOM     52  C   UNL A   1      42.091  32.055  30.366  1.00  0.00     0.029 A 
ATOM     53  C   UNL A   1      43.090  31.126  30.128  1.00  0.00     0.049 A 
ATOM     54  H   UNL A   1      42.917  29.107  29.535  1.00  0.00     0.167 HD
ATOM     55  C   UNL A   1      45.435  30.315  30.073  1.00  0.00     0.074 A 
ATOM     56  C   UNL A   1      46.867  30.507  30.194  1.00  0.00     0.031 C 
ATOM     57  C   UNL A   1      44.516  31.298  30.221  1.00  0.00     0.037 A 
BRANCH  44  58
ATOM     58  C   UNL A   1      38.675  29.500  29.388  1.00  0.00     0.064 A 
ATOM     59  C   UNL A   1      37.921  29.669  30.557  1.00  0.00     0.173 A 
ATOM     60  C   UNL A   1      38.065  29.807  28.161  1.00  0.00     0.173 A 
ATOM     61  F   UNL A   1      38.459  29.387  31.753  1.00  0.00    -0.203 F 
ATOM     62  C   UNL A   1      36.606  30.124  30.501  1.00  0.00     0.198 A 
ATOM     63  C   UNL A   1      36.755  30.279  28.110  1.00  0.00     0.198 A 
ATOM     64  F   UNL A   1      38.747  29.671  27.014  1.00  0.00    -0.203 F 
ATOM     65  F   UNL A   1      35.897  30.266  31.629  1.00  0.00    -0.200 F 
ATOM     66  C   UNL A   1      36.027  30.436  29.279  1.00  0.00     0.200 A 
ATOM     67  F   UNL A   1      36.204  30.591  26.929  1.00  0.00    -0.200 F 
ATOM     68  F   UNL A   1      34.768  30.891  29.228  1.00  0.00    -0.200 F 
ENDBRANCH  44  58
BRANCH  45  69
ATOM     69  C   UNL A   1      48.217  26.591  29.339  1.00  0.00     0.064 A 
ATOM     70  C   UNL A   1      48.979  26.936  28.218  1.00  0.00     0.173 A 
ATOM     71  C   UNL A   1      48.851  25.906  30.387  1.00  0.00     0.173 A 
ATOM     72  F   UNL A   1      48.406  27.580  27.192  1.00  0.00    -0.203 F 
ATOM     73  C   UNL A   1      50.333  26.616  28.150  1.00  0.00     0.198 A 
ATOM     74  C   UNL A   1      50.209  25.605  30.325  1.00  0.00     0.198 A 
ATOM     75  F   UNL A   1      48.159  25.567  31.484  1.00  0.00    -0.203 F 
ATOM     76  F   UNL A   1      51.043  26.949  27.063  1.00  0.00    -0.200 F 
ATOM     77  C   UNL A   1      50.948  25.960  29.207  1.00  0.00     0.200 A 
ATOM     78  F   UNL A   1      50.802  24.987  31.355  1.00  0.00    -0.200 F 
ATOM     79  F   UNL A   1      52.256  25.674  29.150  1.00  0.00    -0.200 F 
ENDBRANCH  45  69
BRANCH  57  80
ATOM     80  C   UNL A   1      45.040  32.666  30.532  1.00  0.00     0.064 A 
ATOM     81  C   UNL A   1      45.307  33.588  29.511  1.00  0.00     0.173 A 
ATOM     82  C   UNL A   1      45.264  33.059  31.859  1.00  0.00     0.173 A 
ATOM     83  F   UNL A   1      45.125  33.244  28.227  1.00  0.00    -0.203 F 
ATOM     84  C   UNL A   1      45.800  34.855  29.807  1.00  0.00     0.198 A 
ATOM     85  C   UNL A   1      45.741  34.333  32.152  1.00  0.00     0.198 A 
ATOM     86  F   UNL A   1      45.023  32.208  32.866  1.00  0.00    -0.203 F 
ATOM     87  F   UNL A   1      46.085  35.710  28.816  1.00  0.00    -0.200 F 
ATOM     88  C   UNL A   1      46.012  35.227  31.126  1.00  0.00     0.200 A 
ATOM     89  F   UNL A   1      45.946  34.693  33.427  1.00  0.00    -0.200 F 
ATOM     90  F   UNL A   1      46.492  36.446  31.411  1.00  0.00    -0.200 F 
ENDBRANCH  57  80
ENDBRANCH  31  32
ENDBRANCH  24  26
ENDBRANCH  23  24
ENDBRANCH  22  23
ENDBRANCH   1  22
TORSDOF 15
ENDMDL
MODEL 2
REMARK VINA RESULT:     -10.0      6.148     11.804
REMARK SMILES CC(C)c1nc(OCC(=O)OCCOC(=O)c2ccc(-c3c4nc(c(-c5c(F)c(F)c(F)c(F)c5F)c5ccc([nH]5)c(-c5c(F)c(F)c(F)c(F)c5F)c5nc(c(-c6c(F)c(F)c(F)c(F)c6F)c6ccc3[nH]6)C=C5)C=C4)cc2)cc(-c2ccccn2)n1
REMARK SMILES IDX 12 1 11 2 9 3 10 4 8 5 7 6 6 7 4 8 5 9 88 10 81 11 80 12
REMARK SMILES IDX 2 13 1 14 3 15 82 16 83 17 87 18 84 19 86 20 85 21 13 22
REMARK SMILES IDX 14 23 15 24 16 25 17 26 18 27 79 28 19 29 78 30 20 31 21 32
REMARK SMILES IDX 22 33 72 34 23 35 77 36 71 37 73 38 24 39 76 40 70 41 69 42
REMARK SMILES IDX 25 44 57 45 37 46 56 47 38 48 41 49 55 50 74 51 39 52 40 53
REMARK SMILES IDX 54 55 75 56 42 57 26 58 27 59 35 60 28 61 29 62 33 63 36 64
REMARK SMILES IDX 30 65 31 66 34 67 32 68 58 69 59 70 67 71 60 72 61 73 65 74
REMARK SMILES IDX 68 75 62 76 63 77 66 78 64 79 43 80 44 81 52 82 45 83 46 84
REMARK SMILES IDX 50 85 53 86 47 87 48 88 51 89 49 90
REMARK H PARENT 73 43 41 54
REMARK Flexibility Score: inf
ROOT
ATOM      1  C   UNL A   1      33.262  36.730  31.059  1.00  0.00     0.274 C 
ENDROOT
BRANCH   1   2
ATOM      2  O   UNL A   1      33.350  35.693  32.059  1.00  0.00    -0.460 OA
BRANCH   2   3
ATOM      3  C   UNL A   1      34.248  35.915  33.054  1.00  0.00     0.344 C 
ATOM      4  O   UNL A   1      34.253  36.903  33.784  1.00  0.00    -0.248 OA
BRANCH   3   5
ATOM      5  C   UNL A   1      35.266  34.790  33.219  1.00  0.00     0.353 C 
BRANCH   5   6
ATOM      6  O   UNL A   1      36.056  34.782  34.388  1.00  0.00    -0.466 OA
BRANCH   6   7
ATOM      7  C   UNL A   1      36.589  33.611  34.833  1.00  0.00     0.217 A 
ATOM      8  C   UNL A   1      37.451  32.601  36.706  1.00  0.00     0.135 A 
ATOM      9  N   UNL A   1      36.811  33.644  36.155  1.00  0.00    -0.198 NA
ATOM     10  N   UNL A   1      37.892  31.542  36.016  1.00  0.00    -0.231 NA
ATOM     11  C   UNL A   1      37.636  31.517  34.693  1.00  0.00     0.096 A 
ATOM     12  C   UNL A   1      36.955  32.539  34.056  1.00  0.00     0.099 A 
BRANCH   8  13
ATOM     13  C   UNL A   1      37.756  32.686  38.186  1.00  0.00     0.051 C 
ATOM     14  C   UNL A   1      38.529  33.952  38.566  1.00  0.00     0.016 C 
ATOM     15  C   UNL A   1      36.453  32.606  38.985  1.00  0.00     0.016 C 
ENDBRANCH   8  13
BRANCH  11  16
ATOM     16  C   UNL A   1      38.268  30.412  33.958  1.00  0.00     0.089 A 
ATOM     17  C   UNL A   1      39.616  30.117  34.169  1.00  0.00     0.030 A 
ATOM     18  N   UNL A   1      37.491  29.678  33.119  1.00  0.00    -0.255 NA
ATOM     19  C   UNL A   1      40.202  29.053  33.491  1.00  0.00     0.004 A 
ATOM     20  C   UNL A   1      38.082  28.616  32.517  1.00  0.00     0.112 A 
ATOM     21  C   UNL A   1      39.418  28.278  32.653  1.00  0.00     0.020 A 
ENDBRANCH  11  16
ENDBRANCH   6   7
ENDBRANCH   5   6
ENDBRANCH   3   5
ENDBRANCH   2   3
ENDBRANCH   1   2
BRANCH   1  22
ATOM     22  C   UNL A   1      32.953  36.162  29.675  1.00  0.00     0.275 C 
BRANCH  22  23
ATOM     23  O   UNL A   1      32.657  34.754  29.754  1.00  0.00    -0.458 OA
BRANCH  23  24
ATOM     24  C   UNL A   1      33.177  34.022  28.747  1.00  0.00     0.338 C 
ATOM     25  O   UNL A   1      32.657  33.800  27.663  1.00  0.00    -0.246 OA
BRANCH  24  26
ATOM     26  C   UNL A   1      34.513  33.508  29.086  1.00  0.00     0.060 A 
ATOM     27  C   UNL A   1      34.700  32.633  30.161  1.00  0.00     0.016 A 
ATOM     28  C   UNL A   1      35.613  34.030  28.404  1.00  0.00     0.016 A 
ATOM     29  C   UNL A   1      35.992  32.306  30.576  1.00  0.00     0.010 A 
ATOM     30  C   UNL A   1      36.903  33.656  28.782  1.00  0.00     0.010 A 
ATOM     31  C   UNL A   1      37.102  32.796  29.872  1.00  0.00    -0.014 A 
BRANCH  31  32
ATOM     32  C   UNL A   1      38.465  32.290  30.151  1.00  0.00     0.031 A 
ATOM     33  C   UNL A   1      38.959  31.000  29.575  1.00  0.00     0.074 A 
ATOM     34  C   UNL A   1      39.217  32.973  31.031  1.00  0.00     0.049 A 
ATOM     35  N   UNL A   1      39.980  30.269  29.943  1.00  0.00    -0.248 NA
ATOM     36  C   UNL A   1      38.204  30.454  28.443  1.00  0.00     0.031 C 
ATOM     37  C   UNL A   1      38.846  34.254  31.635  1.00  0.00     0.029 A 
ATOM     38  N   UNL A   1      40.426  32.669  31.600  1.00  0.00    -0.354 N 
ATOM     39  C   UNL A   1      39.966  29.154  29.117  1.00  0.00     0.074 A 
ATOM     40  C   UNL A   1      38.834  29.305  28.226  1.00  0.00     0.031 C 
ATOM     41  C   UNL A   1      39.791  34.611  32.515  1.00  0.00     0.029 A 
ATOM     42  C   UNL A   1      40.796  33.557  32.577  1.00  0.00     0.049 A 
ATOM     43  H   UNL A   1      40.971  31.893  31.335  1.00  0.00     0.167 HD
ATOM     44  C   UNL A   1      40.829  28.110  29.110  1.00  0.00     0.037 A 
ATOM     45  C   UNL A   1      41.799  33.500  33.471  1.00  0.00     0.037 A 
ATOM     46  C   UNL A   1      41.994  28.014  29.954  1.00  0.00     0.049 A 
ATOM     47  C   UNL A   1      42.723  32.323  33.464  1.00  0.00     0.074 A 
ATOM     48  C   UNL A   1      42.981  27.042  29.959  1.00  0.00     0.029 A 
ATOM     49  N   UNL A   1      42.336  28.934  30.934  1.00  0.00    -0.354 N 
ATOM     50  N   UNL A   1      42.688  31.256  32.705  1.00  0.00    -0.248 NA
ATOM     51  C   UNL A   1      43.816  32.336  34.442  1.00  0.00     0.031 C 
ATOM     52  C   UNL A   1      43.905  27.360  30.962  1.00  0.00     0.029 A 
ATOM     53  C   UNL A   1      43.507  28.543  31.563  1.00  0.00     0.049 A 
ATOM     54  H   UNL A   1      41.822  29.745  31.152  1.00  0.00     0.167 HD
ATOM     55  C   UNL A   1      43.755  30.470  33.108  1.00  0.00     0.074 A 
ATOM     56  C   UNL A   1      44.426  31.189  34.174  1.00  0.00     0.031 C 
ATOM     57  C   UNL A   1      44.144  29.262  32.636  1.00  0.00     0.037 A 
BRANCH  44  58
ATOM     58  C   UNL A   1      40.559  26.973  28.169  1.00  0.00     0.064 A 
ATOM     59  C   UNL A   1      41.266  26.824  26.969  1.00  0.00     0.173 A 
ATOM     60  C   UNL A   1      39.645  25.969  28.525  1.00  0.00     0.173 A 
ATOM     61  F   UNL A   1      42.148  27.758  26.586  1.00  0.00    -0.203 F 
ATOM     62  C   UNL A   1      41.063  25.713  26.153  1.00  0.00     0.198 A 
ATOM     63  C   UNL A   1      39.458  24.851  27.715  1.00  0.00     0.198 A 
ATOM     64  F   UNL A   1      38.950  26.061  29.668  1.00  0.00    -0.203 F 
ATOM     65  F   UNL A   1      41.740  25.595  25.002  1.00  0.00    -0.200 F 
ATOM     66  C   UNL A   1      40.166  24.724  26.530  1.00  0.00     0.200 A 
ATOM     67  F   UNL A   1      38.600  23.891  28.089  1.00  0.00    -0.200 F 
ATOM     68  F   UNL A   1      39.987  23.647  25.754  1.00  0.00    -0.200 F 
ENDBRANCH  44  58
BRANCH  45  69
ATOM     69  C   UNL A   1      41.924  34.586  34.470  1.00  0.00     0.064 A 
ATOM     70  C   UNL A   1      41.506  34.396  35.791  1.00  0.00     0.173 A 
ATOM     71  C   UNL A   1      42.543  35.801  34.139  1.00  0.00     0.173 A 
ATOM     72  F   UNL A   1      40.900  33.253  36.144  1.00  0.00    -0.203 F 
ATOM     73  C   UNL A   1      41.708  35.384  36.752  1.00  0.00     0.198 A 
ATOM     74  C   UNL A   1      42.762  36.778  35.105  1.00  0.00     0.198 A 
ATOM     75  F   UNL A   1      42.969  36.018  32.886  1.00  0.00    -0.203 F 
ATOM     76  F   UNL A   1      41.292  35.185  38.011  1.00  0.00    -0.200 F 
ATOM     77  C   UNL A   1      42.343  36.569  36.411  1.00  0.00     0.200 A 
ATOM     78  F   UNL A   1      43.391  37.914  34.775  1.00  0.00    -0.200 F 
ATOM     79  F   UNL A   1      42.558  37.508  37.342  1.00  0.00    -0.200 F 
ENDBRANCH  45  69
BRANCH  57  80
ATOM     80  C   UNL A   1      45.352  28.649  33.273  1.00  0.00     0.064 A 
ATOM     81  C   UNL A   1      46.641  28.927  32.797  1.00  0.00     0.173 A 
ATOM     82  C   UNL A   1      45.220  27.790  34.372  1.00  0.00     0.173 A 
ATOM     83  F   UNL A   1      46.810  29.729  31.735  1.00  0.00    -0.203 F 
ATOM     84  C   UNL A   1      47.759  28.348  33.390  1.00  0.00     0.198 A 
ATOM     85  C   UNL A   1      46.341  27.227  34.974  1.00  0.00     0.198 A 
ATOM     86  F   UNL A   1      44.006  27.495  34.859  1.00  0.00    -0.203 F 
ATOM     87  F   UNL A   1      48.980  28.596  32.899  1.00  0.00    -0.200 F 
ATOM     88  C   UNL A   1      47.608  27.503  34.480  1.00  0.00     0.200 A 
ATOM     89  F   UNL A   1      46.196  26.409  36.026  1.00  0.00    -0.200 F 
ATOM     90  F   UNL A   1      48.685  26.942  35.048  1.00  0.00    -0.200 F 
ENDBRANCH  57  80
ENDBRANCH  31  32
ENDBRANCH  24  26
ENDBRANCH  23  24
ENDBRANCH  22  23
ENDBRANCH   1  22
TORSDOF 15
ENDMDL
MODEL 3
REMARK VINA RESULT:      -9.8      6.089     11.211
REMARK SMILES CC(C)c1nc(OCC(=O)OCCOC(=O)c2ccc(-c3c4nc(c(-c5c(F)c(F)c(F)c(F)c5F)c5ccc([nH]5)c(-c5c(F)c(F)c(F)c(F)c5F)c5nc(c(-c6c(F)c(F)c(F)c(F)c6F)c6ccc3[nH]6)C=C5)C=C4)cc2)cc(-c2ccccn2)n1
REMARK SMILES IDX 12 1 11 2 9 3 10 4 8 5 7 6 6 7 4 8 5 9 88 10 81 11 80 12
REMARK SMILES IDX 2 13 1 14 3 15 82 16 83 17 87 18 84 19 86 20 85 21 13 22
REMARK SMILES IDX 14 23 15 24 16 25 17 26 18 27 79 28 19 29 78 30 20 31 21 32
REMARK SMILES IDX 22 33 72 34 23 35 77 36 71 37 73 38 24 39 76 40 70 41 69 42
REMARK SMILES IDX 25 44 57 45 37 46 56 47 38 48 41 49 55 50 74 51 39 52 40 53
REMARK SMILES IDX 54 55 75 56 42 57 26 58 27 59 35 60 28 61 29 62 33 63 36 64
REMARK SMILES IDX 30 65 31 66 34 67 32 68 58 69 59 70 67 71 60 72 61 73 65 74
REMARK SMILES IDX 68 75 62 76 63 77 66 78 64 79 43 80 44 81 52 82 45 83 46 84
REMARK SMILES IDX 50 85 53 86 47 87 48 88 51 89 49 90
REMARK H PARENT 73 43 41 54
REMARK Flexibility Score: inf
ROOT
ATOM      1  C   UNL A   1      31.988  27.996  26.589  1.00  0.00     0.274 C 
ENDROOT
BRANCH   1   2
ATOM      2  O   UNL A   1      31.898  26.976  25.572  1.00  0.00    -0.460 OA
BRANCH   2   3
ATOM      3  C   UNL A   1      31.420  25.774  25.989  1.00  0.00     0.344 C 
ATOM      4  O   UNL A   1      30.259  25.565  26.332  1.00  0.00    -0.248 OA
BRANCH   3   5
ATOM      5  C   UNL A   1      32.464  24.662  25.971  1.00  0.00     0.353 C 
BRANCH   5   6
ATOM      6  O   UNL A   1      32.043  23.368  25.599  1.00  0.00    -0.466 OA
BRANCH   6   7
ATOM      7  C   UNL A   1      32.959  22.368  25.483  1.00  0.00     0.217 A 
ATOM      8  C   UNL A   1      35.157  21.967  24.957  1.00  0.00     0.135 A 
ATOM      9  N   UNL A   1      34.182  22.850  25.220  1.00  0.00    -0.198 NA
ATOM     10  N   UNL A   1      34.979  20.640  24.926  1.00  0.00    -0.231 NA
ATOM     11  C   UNL A   1      33.749  20.175  25.218  1.00  0.00     0.096 A 
ATOM     12  C   UNL A   1      32.698  21.019  25.530  1.00  0.00     0.099 A 
BRANCH   8  13
ATOM     13  C   UNL A   1      36.514  22.530  24.594  1.00  0.00     0.051 C 
ATOM     14  C   UNL A   1      36.613  22.953  23.126  1.00  0.00     0.016 C 
ATOM     15  C   UNL A   1      36.841  23.715  25.506  1.00  0.00     0.016 C 
ENDBRANCH   8  13
BRANCH  11  16
ATOM     16  C   UNL A   1      33.568  18.729  25.025  1.00  0.00     0.089 A 
ATOM     17  C   UNL A   1      34.482  18.011  24.252  1.00  0.00     0.030 A 
ATOM     18  N   UNL A   1      32.525  18.127  25.655  1.00  0.00    -0.255 NA
ATOM     19  C   UNL A   1      34.322  16.638  24.095  1.00  0.00     0.004 A 
ATOM     20  C   UNL A   1      32.431  16.781  25.523  1.00  0.00     0.112 A 
ATOM     21  C   UNL A   1      33.279  16.005  24.751  1.00  0.00     0.020 A 
ENDBRANCH  11  16
ENDBRANCH   6   7
ENDBRANCH   5   6
ENDBRANCH   3   5
ENDBRANCH   2   3
ENDBRANCH   1   2
BRANCH   1  22
ATOM     22  C   UNL A   1      31.817  29.398  26.006  1.00  0.00     0.275 C 
BRANCH  22  23
ATOM     23  O   UNL A   1      33.081  30.089  25.959  1.00  0.00    -0.458 OA
BRANCH  23  24
ATOM     24  C   UNL A   1      33.243  31.009  26.932  1.00  0.00     0.338 C 
ATOM     25  O   UNL A   1      32.449  31.882  27.251  1.00  0.00    -0.246 OA
BRANCH  24  26
ATOM     26  C   UNL A   1      34.529  30.840  27.627  1.00  0.00     0.060 A 
ATOM     27  C   UNL A   1      35.365  31.934  27.878  1.00  0.00     0.016 A 
ATOM     28  C   UNL A   1      34.968  29.543  27.896  1.00  0.00     0.016 A 
ATOM     29  C   UNL A   1      36.655  31.726  28.369  1.00  0.00     0.010 A 
ATOM     30  C   UNL A   1      36.235  29.340  28.443  1.00  0.00     0.010 A 
ATOM     31  C   UNL A   1      37.089  30.429  28.679  1.00  0.00    -0.014 A 
BRANCH  31  32
ATOM     32  C   UNL A   1      38.359  30.202  29.405  1.00  0.00     0.031 A 
ATOM     33  C   UNL A   1      39.404  29.265  28.887  1.00  0.00     0.074 A 
ATOM     34  C   UNL A   1      38.504  30.785  30.607  1.00  0.00     0.049 A 
ATOM     35  N   UNL A   1      40.414  28.723  29.521  1.00  0.00    -0.248 NA
ATOM     36  C   UNL A   1      39.299  28.876  27.477  1.00  0.00     0.031 C 
ATOM     37  C   UNL A   1      37.561  31.736  31.198  1.00  0.00     0.029 A 
ATOM     38  N   UNL A   1      39.474  30.633  31.563  1.00  0.00    -0.354 N 
ATOM     39  C   UNL A   1      41.040  27.896  28.599  1.00  0.00     0.074 A 
ATOM     40  C   UNL A   1      40.297  28.007  27.360  1.00  0.00     0.031 C 
ATOM     41  C   UNL A   1      37.981  32.058  32.428  1.00  0.00     0.029 A 
ATOM     42  C   UNL A   1      39.183  31.292  32.730  1.00  0.00     0.049 A 
ATOM     43  H   UNL A   1      40.294  30.106  31.425  1.00  0.00     0.167 HD
ATOM     44  C   UNL A   1      42.138  27.124  28.782  1.00  0.00     0.037 A 
ATOM     45  C   UNL A   1      39.781  31.238  33.933  1.00  0.00     0.037 A 
ATOM     46  C   UNL A   1      42.909  27.084  30.000  1.00  0.00     0.049 A 
ATOM     47  C   UNL A   1      40.976  30.356  34.120  1.00  0.00     0.074 A 
ATOM     48  C   UNL A   1      44.089  26.406  30.255  1.00  0.00     0.029 A 
ATOM     49  N   UNL A   1      42.582  27.765  31.163  1.00  0.00    -0.354 N 
ATOM     50  N   UNL A   1      41.545  29.551  33.258  1.00  0.00    -0.248 NA
ATOM     51  C   UNL A   1      41.603  30.366  35.446  1.00  0.00     0.031 C 
ATOM     52  C   UNL A   1      44.461  26.655  31.582  1.00  0.00     0.029 A 
ATOM     53  C   UNL A   1      43.526  27.508  32.144  1.00  0.00     0.049 A 
ATOM     54  H   UNL A   1      41.794  28.345  31.276  1.00  0.00     0.167 HD
ATOM     55  C   UNL A   1      42.601  28.960  33.933  1.00  0.00     0.074 A 
ATOM     56  C   UNL A   1      42.599  29.507  35.275  1.00  0.00     0.031 C 
ATOM     57  C   UNL A   1      43.492  28.046  33.479  1.00  0.00     0.037 A 
BRANCH  44  58
ATOM     58  C   UNL A   1      42.584  26.246  27.650  1.00  0.00     0.064 A 
ATOM     59  C   UNL A   1      43.552  26.666  26.727  1.00  0.00     0.173 A 
ATOM     60  C   UNL A   1      42.103  24.931  27.548  1.00  0.00     0.173 A 
ATOM     61  F   UNL A   1      44.041  27.913  26.783  1.00  0.00    -0.203 F 
ATOM     62  C   UNL A   1      44.018  25.803  25.738  1.00  0.00     0.198 A 
ATOM     63  C   UNL A   1      42.584  24.066  26.568  1.00  0.00     0.198 A 
ATOM     64  F   UNL A   1      41.183  24.479  28.413  1.00  0.00    -0.203 F 
ATOM     65  F   UNL A   1      44.934  26.227  24.857  1.00  0.00    -0.200 F 
ATOM     66  C   UNL A   1      43.540  24.502  25.664  1.00  0.00     0.200 A 
ATOM     67  F   UNL A   1      42.130  22.806  26.508  1.00  0.00    -0.200 F 
ATOM     68  F   UNL A   1      44.003  23.668  24.723  1.00  0.00    -0.200 F 
ENDBRANCH  44  58
BRANCH  45  69
ATOM     69  C   UNL A   1      39.203  32.018  35.051  1.00  0.00     0.064 A 
ATOM     70  C   UNL A   1      38.446  31.392  36.046  1.00  0.00     0.173 A 
ATOM     71  C   UNL A   1      39.472  33.388  35.187  1.00  0.00     0.173 A 
ATOM     72  F   UNL A   1      38.157  30.086  35.945  1.00  0.00    -0.203 F 
ATOM     73  C   UNL A   1      37.980  32.109  37.145  1.00  0.00     0.198 A 
ATOM     74  C   UNL A   1      39.023  34.098  36.296  1.00  0.00     0.198 A 
ATOM     75  F   UNL A   1      40.205  34.024  34.261  1.00  0.00    -0.203 F 
ATOM     76  F   UNL A   1      37.248  31.491  38.083  1.00  0.00    -0.200 F 
ATOM     77  C   UNL A   1      38.277  33.458  37.274  1.00  0.00     0.200 A 
ATOM     78  F   UNL A   1      39.327  35.397  36.425  1.00  0.00    -0.200 F 
ATOM     79  F   UNL A   1      37.848  34.140  38.344  1.00  0.00    -0.200 F 
ENDBRANCH  45  69
BRANCH  57  80
ATOM     80  C   UNL A   1      44.536  27.588  34.449  1.00  0.00     0.064 A 
ATOM     81  C   UNL A   1      45.748  28.279  34.587  1.00  0.00     0.173 A 
ATOM     82  C   UNL A   1      44.319  26.459  35.251  1.00  0.00     0.173 A 
ATOM     83  F   UNL A   1      46.003  29.353  33.824  1.00  0.00    -0.203 F 
ATOM     84  C   UNL A   1      46.717  27.844  35.486  1.00  0.00     0.198 A 
ATOM     85  C   UNL A   1      45.283  26.037  36.161  1.00  0.00     0.198 A 
ATOM     86  F   UNL A   1      43.175  25.767  35.149  1.00  0.00    -0.203 F 
ATOM     87  F   UNL A   1      47.884  28.495  35.579  1.00  0.00    -0.200 F 
ATOM     88  C   UNL A   1      46.482  26.726  36.274  1.00  0.00     0.200 A 
ATOM     89  F   UNL A   1      45.057  24.957  36.922  1.00  0.00    -0.200 F 
ATOM     90  F   UNL A   1      47.418  26.304  37.136  1.00  0.00    -0.200 F 
ENDBRANCH  57  80
ENDBRANCH  31  32
ENDBRANCH  24  26
ENDBRANCH  23  24
ENDBRANCH  22  23
ENDBRANCH   1  22
TORSDOF 15
ENDMDL
