MODEL 1
REMARK VINA RESULT:     -12.1      0.000      0.000
REMARK SMILES [NH3+][C@]1(C(=O)OCCOC(=O)c2ccc(-c3c4nc(c(-c5c(F)c(F)c(F)c(F)c5F)c5ccc([nH]5)c(-c5c(F)c(F)c(F)c(F)c5F)c5nc(c(-c6c(F)c(F)c(F)c(F)c6F)c6ccc3[nH]6)C=C5)C=C4)cc2)CC[C@@H]([NH+]2CCC(C(F)(F)F)CC2)C1
REMARK SMILES IDX 6 1 5 2 3 3 4 4 2 5 74 6 87 7 75 8 76 9 1 10 77 14 78 15
REMARK SMILES IDX 86 16 79 18 85 19 80 20 81 21 82 22 83 23 84 24 7 25 8 26
REMARK SMILES IDX 9 27 10 28 11 29 12 30 73 31 13 32 72 33 14 34 15 35 16 36
REMARK SMILES IDX 66 37 17 38 71 39 65 40 67 41 18 42 70 43 64 44 63 45 19 47
REMARK SMILES IDX 51 48 31 49 50 50 32 51 35 52 49 53 68 54 33 55 34 56 48 58
REMARK SMILES IDX 69 59 36 60 20 61 21 62 29 63 22 64 23 65 27 66 30 67 24 68
REMARK SMILES IDX 25 69 28 70 26 71 52 72 53 73 61 74 54 75 55 76 59 77 62 78
REMARK SMILES IDX 56 79 57 80 60 81 58 82 37 83 38 84 46 85 39 86 40 87 44 88
REMARK SMILES IDX 47 89 41 90 42 91 45 92 43 93
REMARK H PARENT 1 11 1 12 1 13 77 17 67 46 35 57
REMARK Flexibility Score: inf
ROOT
ATOM      1  C   UNL A   1      31.683  28.678  27.022  1.00  0.00     0.274 C 
ENDROOT
BRANCH   1   2
ATOM      2  O   UNL A   1      31.488  27.518  26.189  1.00  0.00    -0.457 OA
BRANCH   2   3
ATOM      3  C   UNL A   1      32.608  26.785  25.918  1.00  0.00     0.368 C 
ATOM      4  O   UNL A   1      33.696  26.969  26.454  1.00  0.00    -0.245 OA
BRANCH   3   5
ATOM      5  C   UNL A   1      32.303  25.638  24.922  1.00  0.00     0.198 C 
ATOM      6  C   UNL A   1      30.864  25.122  25.065  1.00  0.00     0.087 C 
ATOM      7  C   UNL A   1      32.428  26.135  23.460  1.00  0.00     0.145 C 
ATOM      8  C   UNL A   1      30.348  24.959  23.640  1.00  0.00     0.072 C 
ATOM      9  C   UNL A   1      31.028  26.066  22.824  1.00  0.00     0.191 C 
BRANCH   5  10
ATOM     10  N   UNL A   1      33.233  24.504  25.141  1.00  0.00    -0.343 N 
ATOM     11  H   UNL A   1      33.976  24.792  25.777  1.00  0.00     0.345 HD
ATOM     12  H   UNL A   1      33.640  24.222  24.249  1.00  0.00     0.345 HD
ATOM     13  H   UNL A   1      32.723  23.720  25.546  1.00  0.00     0.345 HD
ENDBRANCH   5  10
BRANCH   9  14
ATOM     14  N   UNL A   1      30.256  27.317  22.692  1.00  0.00    -0.332 N 
ATOM     15  C   UNL A   1      29.047  27.451  23.501  1.00  0.00     0.263 C 
ATOM     16  C   UNL A   1      31.103  28.514  22.777  1.00  0.00     0.263 C 
ATOM     17  H   UNL A   1      29.887  27.236  21.745  1.00  0.00     0.348 HD
ATOM     18  C   UNL A   1      28.228  28.669  23.070  1.00  0.00     0.074 C 
ATOM     19  C   UNL A   1      30.346  29.759  22.313  1.00  0.00     0.074 C 
ATOM     20  C   UNL A   1      29.054  29.953  23.112  1.00  0.00     0.106 C 
BRANCH  20  21
ATOM     21  C   UNL A   1      28.252  31.127  22.585  1.00  0.00     0.392 C 
ATOM     22  F   UNL A   1      27.653  30.813  21.413  1.00  0.00    -0.171 F 
ATOM     23  F   UNL A   1      27.278  31.478  23.454  1.00  0.00    -0.171 F 
ATOM     24  F   UNL A   1      29.024  32.214  22.371  1.00  0.00    -0.171 F 
ENDBRANCH  20  21
ENDBRANCH   9  14
ENDBRANCH   3   5
ENDBRANCH   2   3
ENDBRANCH   1   2
BRANCH   1  25
ATOM     25  C   UNL A   1      31.778  29.954  26.186  1.00  0.00     0.275 C 
BRANCH  25  26
ATOM     26  O   UNL A   1      33.133  30.433  26.124  1.00  0.00    -0.458 OA
BRANCH  26  27
ATOM     27  C   UNL A   1      33.453  31.361  27.052  1.00  0.00     0.338 C 
ATOM     28  O   UNL A   1      32.784  32.312  27.420  1.00  0.00    -0.246 OA
BRANCH  27  29
ATOM     29  C   UNL A   1      34.754  31.042  27.649  1.00  0.00     0.060 A 
ATOM     30  C   UNL A   1      35.032  29.721  28.001  1.00  0.00     0.016 A 
ATOM     31  C   UNL A   1      35.629  32.071  28.001  1.00  0.00     0.016 A 
ATOM     32  C   UNL A   1      36.148  29.432  28.779  1.00  0.00     0.010 A 
ATOM     33  C   UNL A   1      36.793  31.766  28.712  1.00  0.00     0.010 A 
ATOM     34  C   UNL A   1      37.048  30.449  29.132  1.00  0.00    -0.014 A 
BRANCH  34  35
ATOM     35  C   UNL A   1      38.251  30.137  29.946  1.00  0.00     0.031 A 
ATOM     36  C   UNL A   1      39.350  29.280  29.384  1.00  0.00     0.074 A 
ATOM     37  C   UNL A   1      38.361  30.628  31.196  1.00  0.00     0.049 A 
ATOM     38  N   UNL A   1      40.381  28.752  29.994  1.00  0.00    -0.248 NA
ATOM     39  C   UNL A   1      39.277  28.969  27.949  1.00  0.00     0.031 C 
ATOM     40  C   UNL A   1      37.393  31.511  31.847  1.00  0.00     0.029 A 
ATOM     41  N   UNL A   1      39.340  30.454  32.142  1.00  0.00    -0.354 N 
ATOM     42  C   UNL A   1      41.049  28.007  29.032  1.00  0.00     0.074 A 
ATOM     43  C   UNL A   1      40.316  28.160  27.793  1.00  0.00     0.031 C 
ATOM     44  C   UNL A   1      37.839  31.827  33.072  1.00  0.00     0.029 A 
ATOM     45  C   UNL A   1      39.084  31.107  33.322  1.00  0.00     0.049 A 
ATOM     46  H   UNL A   1      40.147  29.913  31.989  1.00  0.00     0.167 HD
ATOM     47  C   UNL A   1      42.169  27.260  29.176  1.00  0.00     0.037 A 
ATOM     48  C   UNL A   1      39.751  31.094  34.490  1.00  0.00     0.037 A 
ATOM     49  C   UNL A   1      42.930  27.154  30.392  1.00  0.00     0.049 A 
ATOM     50  C   UNL A   1      40.966  30.227  34.635  1.00  0.00     0.074 A 
ATOM     51  C   UNL A   1      44.099  26.449  30.624  1.00  0.00     0.029 A 
ATOM     52  N   UNL A   1      42.603  27.789  31.581  1.00  0.00    -0.354 N 
ATOM     53  N   UNL A   1      41.553  29.473  33.740  1.00  0.00    -0.248 NA
ATOM     54  C   UNL A   1      41.591  30.181  35.965  1.00  0.00     0.031 C 
ATOM     55  C   UNL A   1      44.467  26.640  31.961  1.00  0.00     0.029 A 
ATOM     56  C   UNL A   1      43.538  27.478  32.554  1.00  0.00     0.049 A 
ATOM     57  H   UNL A   1      41.821  28.372  31.713  1.00  0.00     0.167 HD
ATOM     58  C   UNL A   1      42.606  28.854  34.395  1.00  0.00     0.074 A 
ATOM     59  C   UNL A   1      42.594  29.338  35.760  1.00  0.00     0.031 C 
ATOM     60  C   UNL A   1      43.496  27.956  33.910  1.00  0.00     0.037 A 
BRANCH  47  61
ATOM     61  C   UNL A   1      42.627  26.465  27.993  1.00  0.00     0.064 A 
ATOM     62  C   UNL A   1      42.194  25.150  27.776  1.00  0.00     0.173 A 
ATOM     63  C   UNL A   1      43.474  27.048  27.039  1.00  0.00     0.173 A 
ATOM     64  F   UNL A   1      41.393  24.548  28.668  1.00  0.00    -0.203 F 
ATOM     65  C   UNL A   1      42.603  24.442  26.649  1.00  0.00     0.198 A 
ATOM     66  C   UNL A   1      43.870  26.343  25.906  1.00  0.00     0.198 A 
ATOM     67  F   UNL A   1      43.913  28.305  27.205  1.00  0.00    -0.203 F 
ATOM     68  F   UNL A   1      42.198  23.177  26.469  1.00  0.00    -0.200 F 
ATOM     69  C   UNL A   1      43.436  25.040  25.713  1.00  0.00     0.200 A 
ATOM     70  F   UNL A   1      44.669  26.923  25.002  1.00  0.00    -0.200 F 
ATOM     71  F   UNL A   1      43.823  24.359  24.626  1.00  0.00    -0.200 F 
ENDBRANCH  47  61
BRANCH  48  72
ATOM     72  C   UNL A   1      39.241  31.893  35.631  1.00  0.00     0.064 A 
ATOM     73  C   UNL A   1      38.351  31.333  36.556  1.00  0.00     0.173 A 
ATOM     74  C   UNL A   1      39.656  33.216  35.833  1.00  0.00     0.173 A 
ATOM     75  F   UNL A   1      37.910  30.078  36.387  1.00  0.00    -0.203 F 
ATOM     76  C   UNL A   1      37.895  32.070  37.646  1.00  0.00     0.198 A 
ATOM     77  C   UNL A   1      39.215  33.945  36.935  1.00  0.00     0.198 A 
ATOM     78  F   UNL A   1      40.507  33.792  34.971  1.00  0.00    -0.203 F 
ATOM     79  F   UNL A   1      37.028  31.522  38.508  1.00  0.00    -0.200 F 
ATOM     80  C   UNL A   1      38.335  33.372  37.839  1.00  0.00     0.200 A 
ATOM     81  F   UNL A   1      39.651  35.198  37.123  1.00  0.00    -0.200 F 
ATOM     82  F   UNL A   1      37.904  34.077  38.895  1.00  0.00    -0.200 F 
ENDBRANCH  48  72
BRANCH  60  83
ATOM     83  C   UNL A   1      44.519  27.433  34.868  1.00  0.00     0.064 A 
ATOM     84  C   UNL A   1      45.726  28.114  35.076  1.00  0.00     0.173 A 
ATOM     85  C   UNL A   1      44.279  26.266  35.606  1.00  0.00     0.173 A 
ATOM     86  F   UNL A   1      46.002  29.226  34.378  1.00  0.00    -0.203 F 
ATOM     87  C   UNL A   1      46.666  27.637  35.984  1.00  0.00     0.198 A 
ATOM     88  C   UNL A   1      45.215  25.799  36.524  1.00  0.00     0.198 A 
ATOM     89  F   UNL A   1      43.137  25.583  35.437  1.00  0.00    -0.203 F 
ATOM     90  F   UNL A   1      47.826  28.287  36.150  1.00  0.00    -0.200 F 
ATOM     91  C   UNL A   1      46.407  26.483  36.710  1.00  0.00     0.200 A 
ATOM     92  F   UNL A   1      44.966  24.685  37.226  1.00  0.00    -0.200 F 
ATOM     93  F   UNL A   1      47.314  26.024  37.585  1.00  0.00    -0.200 F 
ENDBRANCH  60  83
ENDBRANCH  34  35
ENDBRANCH  27  29
ENDBRANCH  26  27
ENDBRANCH  25  26
ENDBRANCH   1  25
TORSDOF 14
ENDMDL
MODEL 2
REMARK VINA RESULT:     -12.0      0.169      1.149
REMARK SMILES [NH3+][C@]1(C(=O)OCCOC(=O)c2ccc(-c3c4nc(c(-c5c(F)c(F)c(F)c(F)c5F)c5ccc([nH]5)c(-c5c(F)c(F)c(F)c(F)c5F)c5nc(c(-c6c(F)c(F)c(F)c(F)c6F)c6ccc3[nH]6)C=C5)C=C4)cc2)CC[C@@H]([NH+]2CCC(C(F)(F)F)CC2)C1
REMARK SMILES IDX 6 1 5 2 3 3 4 4 2 5 74 6 87 7 75 8 76 9 1 10 77 14 78 15
REMARK SMILES IDX 86 16 79 18 85 19 80 20 81 21 82 22 83 23 84 24 7 25 8 26
REMARK SMILES IDX 9 27 10 28 11 29 12 30 73 31 13 32 72 33 14 34 15 35 16 36
REMARK SMILES IDX 66 37 17 38 71 39 65 40 67 41 18 42 70 43 64 44 63 45 19 47
REMARK SMILES IDX 51 48 31 49 50 50 32 51 35 52 49 53 68 54 33 55 34 56 48 58
REMARK SMILES IDX 69 59 36 60 20 61 21 62 29 63 22 64 23 65 27 66 30 67 24 68
REMARK SMILES IDX 25 69 28 70 26 71 52 72 53 73 61 74 54 75 55 76 59 77 62 78
REMARK SMILES IDX 56 79 57 80 60 81 58 82 37 83 38 84 46 85 39 86 40 87 44 88
REMARK SMILES IDX 47 89 41 90 42 91 45 92 43 93
REMARK H PARENT 1 11 1 12 1 13 77 17 67 46 35 57
REMARK Flexibility Score: inf
ROOT
ATOM      1  C   UNL A   1      31.680  28.686  27.009  1.00  0.00     0.274 C 
ENDROOT
BRANCH   1   2
ATOM      2  O   UNL A   1      31.490  27.527  26.172  1.00  0.00    -0.457 OA
BRANCH   2   3
ATOM      3  C   UNL A   1      32.607  26.779  25.930  1.00  0.00     0.368 C 
ATOM      4  O   UNL A   1      33.684  26.952  26.488  1.00  0.00    -0.245 OA
BRANCH   3   5
ATOM      5  C   UNL A   1      32.309  25.630  24.933  1.00  0.00     0.198 C 
ATOM      6  C   UNL A   1      30.869  25.114  25.067  1.00  0.00     0.087 C 
ATOM      7  C   UNL A   1      32.444  26.124  23.471  1.00  0.00     0.145 C 
ATOM      8  C   UNL A   1      30.363  24.948  23.639  1.00  0.00     0.072 C 
ATOM      9  C   UNL A   1      31.049  26.054  22.826  1.00  0.00     0.191 C 
BRANCH   5  10
ATOM     10  N   UNL A   1      33.238  24.497  25.161  1.00  0.00    -0.343 N 
ATOM     11  H   UNL A   1      34.198  24.840  25.168  1.00  0.00     0.345 HD
ATOM     12  H   UNL A   1      33.127  23.812  24.414  1.00  0.00     0.345 HD
ATOM     13  H   UNL A   1      33.026  24.059  26.057  1.00  0.00     0.345 HD
ENDBRANCH   5  10
BRANCH   9  14
ATOM     14  N   UNL A   1      30.277  27.304  22.687  1.00  0.00    -0.332 N 
ATOM     15  C   UNL A   1      29.074  27.449  23.502  1.00  0.00     0.263 C 
ATOM     16  C   UNL A   1      31.127  28.501  22.753  1.00  0.00     0.263 C 
ATOM     17  H   UNL A   1      29.901  27.213  21.743  1.00  0.00     0.348 HD
ATOM     18  C   UNL A   1      28.253  28.662  23.064  1.00  0.00     0.074 C 
ATOM     19  C   UNL A   1      30.368  29.742  22.281  1.00  0.00     0.074 C 
ATOM     20  C   UNL A   1      29.082  29.946  23.087  1.00  0.00     0.106 C 
BRANCH  20  21
ATOM     21  C   UNL A   1      28.278  31.116  22.553  1.00  0.00     0.392 C 
ATOM     22  F   UNL A   1      27.641  30.779  21.407  1.00  0.00    -0.171 F 
ATOM     23  F   UNL A   1      27.333  31.500  23.440  1.00  0.00    -0.171 F 
ATOM     24  F   UNL A   1      29.055  32.187  22.289  1.00  0.00    -0.171 F 
ENDBRANCH  20  21
ENDBRANCH   9  14
ENDBRANCH   3   5
ENDBRANCH   2   3
ENDBRANCH   1   2
BRANCH   1  25
ATOM     25  C   UNL A   1      31.785  29.963  26.177  1.00  0.00     0.275 C 
BRANCH  25  26
ATOM     26  O   UNL A   1      33.142  30.436  26.121  1.00  0.00    -0.458 OA
BRANCH  26  27
ATOM     27  C   UNL A   1      33.467  31.348  27.063  1.00  0.00     0.338 C 
ATOM     28  O   UNL A   1      32.796  32.287  27.457  1.00  0.00    -0.246 OA
BRANCH  27  29
ATOM     29  C   UNL A   1      34.777  31.026  27.640  1.00  0.00     0.060 A 
ATOM     30  C   UNL A   1      35.066  29.700  27.964  1.00  0.00     0.016 A 
ATOM     31  C   UNL A   1      35.649  32.054  28.000  1.00  0.00     0.016 A 
ATOM     32  C   UNL A   1      36.194  29.405  28.724  1.00  0.00     0.010 A 
ATOM     33  C   UNL A   1      36.824  31.743  28.692  1.00  0.00     0.010 A 
ATOM     34  C   UNL A   1      37.092  30.421  29.085  1.00  0.00    -0.014 A 
BRANCH  34  35
ATOM     35  C   UNL A   1      38.306  30.102  29.880  1.00  0.00     0.031 A 
ATOM     36  C   UNL A   1      39.386  29.232  29.303  1.00  0.00     0.074 A 
ATOM     37  C   UNL A   1      38.441  30.597  31.125  1.00  0.00     0.049 A 
ATOM     38  N   UNL A   1      40.424  28.698  29.896  1.00  0.00    -0.248 NA
ATOM     39  C   UNL A   1      39.286  28.915  27.870  1.00  0.00     0.031 C 
ATOM     40  C   UNL A   1      37.493  31.491  31.789  1.00  0.00     0.029 A 
ATOM     41  N   UNL A   1      39.435  30.418  32.055  1.00  0.00    -0.354 N 
ATOM     42  C   UNL A   1      41.068  27.942  28.927  1.00  0.00     0.074 A 
ATOM     43  C   UNL A   1      40.315  28.096  27.700  1.00  0.00     0.031 C 
ATOM     44  C   UNL A   1      37.964  31.809  33.004  1.00  0.00     0.029 A 
ATOM     45  C   UNL A   1      39.206  31.079  33.236  1.00  0.00     0.049 A 
ATOM     46  H   UNL A   1      40.235  29.869  31.890  1.00  0.00     0.167 HD
ATOM     47  C   UNL A   1      42.183  27.186  29.054  1.00  0.00     0.037 A 
ATOM     48  C   UNL A   1      39.893  31.065  34.393  1.00  0.00     0.037 A 
ATOM     49  C   UNL A   1      42.965  27.079  30.258  1.00  0.00     0.049 A 
ATOM     50  C   UNL A   1      41.103  30.188  34.520  1.00  0.00     0.074 A 
ATOM     51  C   UNL A   1      44.131  26.364  30.472  1.00  0.00     0.029 A 
ATOM     52  N   UNL A   1      42.664  27.721  31.449  1.00  0.00    -0.354 N 
ATOM     53  N   UNL A   1      41.667  29.425  33.618  1.00  0.00    -0.248 NA
ATOM     54  C   UNL A   1      41.751  30.142  35.839  1.00  0.00     0.031 C 
ATOM     55  C   UNL A   1      44.524  26.557  31.802  1.00  0.00     0.029 A 
ATOM     56  C   UNL A   1      43.614  27.406  32.407  1.00  0.00     0.049 A 
ATOM     57  H   UNL A   1      41.890  28.312  31.592  1.00  0.00     0.167 HD
ATOM     58  C   UNL A   1      42.726  28.798  34.257  1.00  0.00     0.074 A 
ATOM     59  C   UNL A   1      42.743  29.289  35.620  1.00  0.00     0.031 C 
ATOM     60  C   UNL A   1      43.599  27.891  33.762  1.00  0.00     0.037 A 
BRANCH  47  61
ATOM     61  C   UNL A   1      42.613  26.381  27.867  1.00  0.00     0.064 A 
ATOM     62  C   UNL A   1      43.561  26.862  26.954  1.00  0.00     0.173 A 
ATOM     63  C   UNL A   1      42.103  25.089  27.671  1.00  0.00     0.173 A 
ATOM     64  F   UNL A   1      44.066  28.097  27.095  1.00  0.00    -0.203 F 
ATOM     65  C   UNL A   1      43.974  26.082  25.878  1.00  0.00     0.198 A 
ATOM     66  C   UNL A   1      42.529  24.305  26.603  1.00  0.00     0.198 A 
ATOM     67  F   UNL A   1      41.195  24.586  28.521  1.00  0.00    -0.203 F 
ATOM     68  F   UNL A   1      44.863  26.568  25.001  1.00  0.00    -0.200 F 
ATOM     69  C   UNL A   1      43.462  24.803  25.706  1.00  0.00     0.200 A 
ATOM     70  F   UNL A   1      42.038  23.069  26.441  1.00  0.00    -0.200 F 
ATOM     71  F   UNL A   1      43.866  24.051  24.673  1.00  0.00    -0.200 F 
ENDBRANCH  47  61
BRANCH  48  72
ATOM     72  C   UNL A   1      39.411  31.873  35.538  1.00  0.00     0.064 A 
ATOM     73  C   UNL A   1      38.513  31.333  36.467  1.00  0.00     0.173 A 
ATOM     74  C   UNL A   1      39.859  33.186  35.741  1.00  0.00     0.173 A 
ATOM     75  F   UNL A   1      38.041  30.090  36.299  1.00  0.00    -0.203 F 
ATOM     76  C   UNL A   1      38.083  32.079  37.562  1.00  0.00     0.198 A 
ATOM     77  C   UNL A   1      39.443  33.923  36.847  1.00  0.00     0.198 A 
ATOM     78  F   UNL A   1      40.718  33.743  34.874  1.00  0.00    -0.203 F 
ATOM     79  F   UNL A   1      37.208  31.550  38.429  1.00  0.00    -0.200 F 
ATOM     80  C   UNL A   1      38.555  33.369  37.755  1.00  0.00     0.200 A 
ATOM     81  F   UNL A   1      39.911  35.164  37.035  1.00  0.00    -0.200 F 
ATOM     82  F   UNL A   1      38.149  34.082  38.816  1.00  0.00    -0.200 F 
ENDBRANCH  48  72
BRANCH  60  83
ATOM     83  C   UNL A   1      44.634  27.363  34.704  1.00  0.00     0.064 A 
ATOM     84  C   UNL A   1      45.852  28.032  34.885  1.00  0.00     0.173 A 
ATOM     85  C   UNL A   1      44.395  26.203  35.454  1.00  0.00     0.173 A 
ATOM     86  F   UNL A   1      46.127  29.136  34.175  1.00  0.00    -0.203 F 
ATOM     87  C   UNL A   1      46.803  27.550  35.779  1.00  0.00     0.198 A 
ATOM     88  C   UNL A   1      45.343  25.732  36.357  1.00  0.00     0.198 A 
ATOM     89  F   UNL A   1      43.244  25.531  35.310  1.00  0.00    -0.203 F 
ATOM     90  F   UNL A   1      47.973  28.189  35.920  1.00  0.00    -0.200 F 
ATOM     91  C   UNL A   1      46.546  26.404  36.517  1.00  0.00     0.200 A 
ATOM     92  F   UNL A   1      45.096  24.624  37.070  1.00  0.00    -0.200 F 
ATOM     93  F   UNL A   1      47.464  25.941  37.378  1.00  0.00    -0.200 F 
ENDBRANCH  60  83
ENDBRANCH  34  35
ENDBRANCH  27  29
ENDBRANCH  26  27
ENDBRANCH  25  26
ENDBRANCH   1  25
TORSDOF 14
ENDMDL
MODEL 3
REMARK VINA RESULT:     -12.0      2.646      4.030
REMARK SMILES [NH3+][C@]1(C(=O)OCCOC(=O)c2ccc(-c3c4nc(c(-c5c(F)c(F)c(F)c(F)c5F)c5ccc([nH]5)c(-c5c(F)c(F)c(F)c(F)c5F)c5nc(c(-c6c(F)c(F)c(F)c(F)c6F)c6ccc3[nH]6)C=C5)C=C4)cc2)CC[C@@H]([NH+]2CCC(C(F)(F)F)CC2)C1
REMARK SMILES IDX 6 1 5 2 3 3 4 4 2 5 74 6 87 7 75 8 76 9 1 10 77 14 78 15
REMARK SMILES IDX 86 16 79 18 85 19 80 20 81 21 82 22 83 23 84 24 7 25 8 26
REMARK SMILES IDX 9 27 10 28 11 29 12 30 73 31 13 32 72 33 14 34 15 35 16 36
REMARK SMILES IDX 66 37 17 38 71 39 65 40 67 41 18 42 70 43 64 44 63 45 19 47
REMARK SMILES IDX 51 48 31 49 50 50 32 51 35 52 49 53 68 54 33 55 34 56 48 58
REMARK SMILES IDX 69 59 36 60 20 61 21 62 29 63 22 64 23 65 27 66 30 67 24 68
REMARK SMILES IDX 25 69 28 70 26 71 52 72 53 73 61 74 54 75 55 76 59 77 62 78
REMARK SMILES IDX 56 79 57 80 60 81 58 82 37 83 38 84 46 85 39 86 40 87 44 88
REMARK SMILES IDX 47 89 41 90 42 91 45 92 43 93
REMARK H PARENT 1 11 1 12 1 13 77 17 67 46 35 57
REMARK Flexibility Score: inf
ROOT
ATOM      1  C   UNL A   1      31.163  29.294  24.570  1.00  0.00     0.274 C 
ENDROOT
BRANCH   1   2
ATOM      2  O   UNL A   1      31.003  27.942  25.044  1.00  0.00    -0.457 OA
BRANCH   2   3
ATOM      3  C   UNL A   1      31.397  26.959  24.182  1.00  0.00     0.368 C 
ATOM      4  O   UNL A   1      32.338  27.064  23.403  1.00  0.00    -0.245 OA
BRANCH   3   5
ATOM      5  C   UNL A   1      30.564  25.668  24.382  1.00  0.00     0.198 C 
ATOM      6  C   UNL A   1      30.761  24.674  23.228  1.00  0.00     0.087 C 
ATOM      7  C   UNL A   1      31.011  24.919  25.662  1.00  0.00     0.145 C 
ATOM      8  C   UNL A   1      30.917  23.310  23.889  1.00  0.00     0.072 C 
ATOM      9  C   UNL A   1      31.621  23.576  25.226  1.00  0.00     0.191 C 
BRANCH   5  10
ATOM     10  N   UNL A   1      29.121  25.995  24.477  1.00  0.00    -0.343 N 
ATOM     11  H   UNL A   1      28.745  26.153  23.542  1.00  0.00     0.345 HD
ATOM     12  H   UNL A   1      29.001  26.839  25.038  1.00  0.00     0.345 HD
ATOM     13  H   UNL A   1      28.624  25.221  24.917  1.00  0.00     0.345 HD
ENDBRANCH   5  10
BRANCH   9  14
ATOM     14  N   UNL A   1      33.091  23.449  25.199  1.00  0.00    -0.332 N 
ATOM     15  C   UNL A   1      33.874  24.582  25.685  1.00  0.00     0.263 C 
ATOM     16  C   UNL A   1      33.558  22.179  25.773  1.00  0.00     0.263 C 
ATOM     17  H   UNL A   1      33.283  23.454  24.197  1.00  0.00     0.348 HD
ATOM     18  C   UNL A   1      35.358  24.408  25.358  1.00  0.00     0.074 C 
ATOM     19  C   UNL A   1      35.030  21.931  25.437  1.00  0.00     0.074 C 
ATOM     20  C   UNL A   1      35.910  23.093  25.907  1.00  0.00     0.106 C 
BRANCH  20  21
ATOM     21  C   UNL A   1      37.353  22.896  25.483  1.00  0.00     0.392 C 
ATOM     22  F   UNL A   1      38.105  23.967  25.825  1.00  0.00    -0.171 F 
ATOM     23  F   UNL A   1      37.892  21.815  26.090  1.00  0.00    -0.171 F 
ATOM     24  F   UNL A   1      37.471  22.722  24.150  1.00  0.00    -0.171 F 
ENDBRANCH  20  21
ENDBRANCH   9  14
ENDBRANCH   3   5
ENDBRANCH   2   3
ENDBRANCH   1   2
BRANCH   1  25
ATOM     25  C   UNL A   1      31.433  30.260  25.723  1.00  0.00     0.275 C 
BRANCH  25  26
ATOM     26  O   UNL A   1      32.841  30.358  25.999  1.00  0.00    -0.458 OA
BRANCH  26  27
ATOM     27  C   UNL A   1      33.182  31.311  26.893  1.00  0.00     0.338 C 
ATOM     28  O   UNL A   1      32.518  32.267  27.257  1.00  0.00    -0.246 OA
BRANCH  27  29
ATOM     29  C   UNL A   1      34.503  31.015  27.458  1.00  0.00     0.060 A 
ATOM     30  C   UNL A   1      34.815  29.698  27.797  1.00  0.00     0.016 A 
ATOM     31  C   UNL A   1      35.365  32.060  27.795  1.00  0.00     0.016 A 
ATOM     32  C   UNL A   1      35.955  29.429  28.548  1.00  0.00     0.010 A 
ATOM     33  C   UNL A   1      36.551  31.775  28.477  1.00  0.00     0.010 A 
ATOM     34  C   UNL A   1      36.843  30.462  28.885  1.00  0.00    -0.014 A 
BRANCH  34  35
ATOM     35  C   UNL A   1      38.070  30.171  29.670  1.00  0.00     0.031 A 
ATOM     36  C   UNL A   1      39.153  29.302  29.095  1.00  0.00     0.074 A 
ATOM     37  C   UNL A   1      38.216  30.691  30.904  1.00  0.00     0.049 A 
ATOM     38  N   UNL A   1      40.203  28.790  29.685  1.00  0.00    -0.248 NA
ATOM     39  C   UNL A   1      39.038  28.957  27.670  1.00  0.00     0.031 C 
ATOM     40  C   UNL A   1      37.266  31.588  31.563  1.00  0.00     0.029 A 
ATOM     41  N   UNL A   1      39.223  30.540  31.824  1.00  0.00    -0.354 N 
ATOM     42  C   UNL A   1      40.844  28.023  28.722  1.00  0.00     0.074 A 
ATOM     43  C   UNL A   1      40.073  28.146  27.502  1.00  0.00     0.031 C 
ATOM     44  C   UNL A   1      37.749  31.933  32.766  1.00  0.00     0.029 A 
ATOM     45  C   UNL A   1      39.002  31.221  32.995  1.00  0.00     0.049 A 
ATOM     46  H   UNL A   1      40.027  29.996  31.659  1.00  0.00     0.167 HD
ATOM     47  C   UNL A   1      41.968  27.281  28.849  1.00  0.00     0.037 A 
ATOM     48  C   UNL A   1      39.703  31.235  34.143  1.00  0.00     0.037 A 
ATOM     49  C   UNL A   1      42.766  27.205  30.044  1.00  0.00     0.049 A 
ATOM     50  C   UNL A   1      40.924  30.374  34.271  1.00  0.00     0.074 A 
ATOM     51  C   UNL A   1      43.942  26.507  30.257  1.00  0.00     0.029 A 
ATOM     52  N   UNL A   1      42.473  27.866  31.227  1.00  0.00    -0.354 N 
ATOM     53  N   UNL A   1      41.485  29.600  33.376  1.00  0.00    -0.248 NA
ATOM     54  C   UNL A   1      41.589  30.360  35.582  1.00  0.00     0.031 C 
ATOM     55  C   UNL A   1      44.350  26.729  31.578  1.00  0.00     0.029 A 
ATOM     56  C   UNL A   1      43.438  27.580  32.179  1.00  0.00     0.049 A 
ATOM     57  H   UNL A   1      41.695  28.452  31.369  1.00  0.00     0.167 HD
ATOM     58  C   UNL A   1      42.559  28.997  34.014  1.00  0.00     0.074 A 
ATOM     59  C   UNL A   1      42.587  29.513  35.367  1.00  0.00     0.031 C 
ATOM     60  C   UNL A   1      43.436  28.089  33.524  1.00  0.00     0.037 A 
BRANCH  47  61
ATOM     61  C   UNL A   1      42.392  26.459  27.672  1.00  0.00     0.064 A 
ATOM     62  C   UNL A   1      43.375  26.903  26.777  1.00  0.00     0.173 A 
ATOM     63  C   UNL A   1      41.838  25.186  27.467  1.00  0.00     0.173 A 
ATOM     64  F   UNL A   1      43.923  28.119  26.928  1.00  0.00    -0.203 F 
ATOM     65  C   UNL A   1      43.781  26.106  25.711  1.00  0.00     0.198 A 
ATOM     66  C   UNL A   1      42.256  24.386  26.408  1.00  0.00     0.198 A 
ATOM     67  F   UNL A   1      40.895  24.719  28.299  1.00  0.00    -0.203 F 
ATOM     68  F   UNL A   1      44.705  26.557  24.851  1.00  0.00    -0.200 F 
ATOM     69  C   UNL A   1      43.225  24.847  25.530  1.00  0.00     0.200 A 
ATOM     70  F   UNL A   1      41.723  23.168  26.238  1.00  0.00    -0.200 F 
ATOM     71  F   UNL A   1      43.622  24.078  24.506  1.00  0.00    -0.200 F 
ENDBRANCH  47  61
BRANCH  48  72
ATOM     72  C   UNL A   1      39.227  32.060  35.280  1.00  0.00     0.064 A 
ATOM     73  C   UNL A   1      38.436  31.498  36.289  1.00  0.00     0.173 A 
ATOM     74  C   UNL A   1      39.576  33.413  35.392  1.00  0.00     0.173 A 
ATOM     75  F   UNL A   1      38.059  30.214  36.209  1.00  0.00    -0.203 F 
ATOM     76  C   UNL A   1      38.013  32.261  37.375  1.00  0.00     0.198 A 
ATOM     77  C   UNL A   1      39.169  34.169  36.488  1.00  0.00     0.198 A 
ATOM     78  F   UNL A   1      40.331  33.992  34.447  1.00  0.00    -0.203 F 
ATOM     79  F   UNL A   1      37.240  31.709  38.320  1.00  0.00    -0.200 F 
ATOM     80  C   UNL A   1      38.387  33.594  37.477  1.00  0.00     0.200 A 
ATOM     81  F   UNL A   1      39.542  35.453  36.588  1.00  0.00    -0.200 F 
ATOM     82  F   UNL A   1      37.990  34.325  38.528  1.00  0.00    -0.200 F 
ENDBRANCH  48  72
BRANCH  60  83
ATOM     83  C   UNL A   1      44.488  27.590  34.463  1.00  0.00     0.064 A 
ATOM     84  C   UNL A   1      44.290  26.419  35.208  1.00  0.00     0.173 A 
ATOM     85  C   UNL A   1      45.709  28.264  34.595  1.00  0.00     0.173 A 
ATOM     86  F   UNL A   1      43.129  25.753  35.123  1.00  0.00    -0.203 F 
ATOM     87  C   UNL A   1      45.280  25.945  36.064  1.00  0.00     0.198 A 
ATOM     88  C   UNL A   1      46.701  27.779  35.441  1.00  0.00     0.198 A 
ATOM     89  F   UNL A   1      45.938  29.389  33.902  1.00  0.00    -0.203 F 
ATOM     90  F   UNL A   1      45.064  24.838  36.788  1.00  0.00    -0.200 F 
ATOM     91  C   UNL A   1      46.486  26.622  36.176  1.00  0.00     0.200 A 
ATOM     92  F   UNL A   1      47.867  28.433  35.550  1.00  0.00    -0.200 F 
ATOM     93  F   UNL A   1      47.437  26.164  37.001  1.00  0.00    -0.200 F 
ENDBRANCH  60  83
ENDBRANCH  34  35
ENDBRANCH  27  29
ENDBRANCH  26  27
ENDBRANCH  25  26
ENDBRANCH   1  25
TORSDOF 14
ENDMDL
