MODEL 1
REMARK VINA RESULT:     -11.3      0.000      0.000
REMARK SMILES [NH3+][C@@H]1C(=O)N2C(C(=O)OCCOC(=O)c3ccc(-c4c5nc(c(-c6c(F)c(F)c(F)c(F)c6F)c6ccc([nH]6)c(-c6c(F)c(F)c(F)c(F)c6F)c6nc(c(-c7c(F)c(F)c(F)c(F)c7F)c7ccc4[nH]7)C=C6)C=C5)cc3)=CCS[C@@H]12
REMARK SMILES IDX 11 1 10 2 9 3 7 4 8 5 6 6 2 7 3 8 81 9 4 10 5 11 80 12 79 13
REMARK SMILES IDX 78 14 1 15 12 19 13 20 14 21 15 22 16 23 77 24 17 25 76 26
REMARK SMILES IDX 18 27 19 28 20 29 70 30 21 31 75 32 69 33 71 34 22 35 74 36
REMARK SMILES IDX 68 37 67 38 23 40 55 41 35 42 54 43 36 44 39 45 53 46 72 47
REMARK SMILES IDX 37 48 38 49 52 51 73 52 40 53 24 54 25 55 33 56 26 57 27 58
REMARK SMILES IDX 31 59 34 60 28 61 29 62 32 63 30 64 56 65 57 66 65 67 58 68
REMARK SMILES IDX 59 69 63 70 66 71 60 72 61 73 64 74 62 75 41 76 42 77 50 78
REMARK SMILES IDX 43 79 44 80 48 81 51 82 45 83 46 84 49 85 47 86
REMARK H PARENT 1 16 1 17 1 18 71 39 39 50
REMARK Flexibility Score: inf
ROOT
ATOM      1  C   UNL A   1      31.810  29.955  25.865  1.00  0.00     0.275 C 
ENDROOT
BRANCH   1   2
ATOM      2  C   UNL A   1      31.726  28.464  26.205  1.00  0.00     0.275 C 
BRANCH   2   3
ATOM      3  O   UNL A   1      32.899  27.767  25.737  1.00  0.00    -0.457 OA
BRANCH   3   4
ATOM      4  C   UNL A   1      32.710  26.801  24.794  1.00  0.00     0.354 C 
ATOM      5  O   UNL A   1      32.297  26.995  23.663  1.00  0.00    -0.244 OA
BRANCH   4   6
ATOM      6  C   UNL A   1      33.160  25.465  25.323  1.00  0.00     0.128 C 
ATOM      7  C   UNL A   1      31.183  23.135  26.870  1.00  0.00     0.305 C 
ATOM      8  C   UNL A   1      31.017  24.637  26.435  1.00  0.00     0.289 C 
ATOM      9  C   UNL A   1      32.503  23.208  26.047  1.00  0.00     0.217 C 
ATOM     10  O   UNL A   1      30.128  25.452  26.499  1.00  0.00    -0.267 OA
ATOM     11  N   UNL A   1      32.278  24.643  25.954  1.00  0.00    -0.282 N 
ATOM     12  S   UNL A   1      34.035  22.956  26.976  1.00  0.00    -0.126 SA
ATOM     13  C   UNL A   1      35.062  23.814  25.741  1.00  0.00     0.101 C 
ATOM     14  C   UNL A   1      34.446  25.076  25.197  1.00  0.00     0.018 C 
BRANCH   7  15
ATOM     15  N   UNL A   1      30.232  22.203  26.215  1.00  0.00    -0.345 N 
ATOM     16  H   UNL A   1      29.276  22.501  26.410  1.00  0.00     0.345 HD
ATOM     17  H   UNL A   1      30.375  21.261  26.577  1.00  0.00     0.345 HD
ATOM     18  H   UNL A   1      30.391  22.209  25.208  1.00  0.00     0.345 HD
ENDBRANCH   7  15
ENDBRANCH   4   6
ENDBRANCH   3   4
ENDBRANCH   2   3
ENDBRANCH   1   2
BRANCH   1  19
ATOM     19  O   UNL A   1      33.163  30.425  26.007  1.00  0.00    -0.458 OA
BRANCH  19  20
ATOM     20  C   UNL A   1      33.349  31.404  26.923  1.00  0.00     0.338 C 
ATOM     21  O   UNL A   1      32.563  32.273  27.259  1.00  0.00    -0.246 OA
BRANCH  20  22
ATOM     22  C   UNL A   1      34.605  31.144  27.638  1.00  0.00     0.060 A 
ATOM     23  C   UNL A   1      34.830  29.829  28.031  1.00  0.00     0.016 A 
ATOM     24  C   UNL A   1      35.513  32.145  27.976  1.00  0.00     0.016 A 
ATOM     25  C   UNL A   1      35.961  29.498  28.764  1.00  0.00     0.010 A 
ATOM     26  C   UNL A   1      36.662  31.807  28.709  1.00  0.00     0.010 A 
ATOM     27  C   UNL A   1      36.892  30.479  29.113  1.00  0.00    -0.014 A 
BRANCH  27  28
ATOM     28  C   UNL A   1      38.053  30.091  29.955  1.00  0.00     0.031 A 
ATOM     29  C   UNL A   1      39.125  29.206  29.390  1.00  0.00     0.074 A 
ATOM     30  C   UNL A   1      38.203  30.608  31.190  1.00  0.00     0.049 A 
ATOM     31  N   UNL A   1      40.182  28.699  29.976  1.00  0.00    -0.248 NA
ATOM     32  C   UNL A   1      39.000  28.854  27.968  1.00  0.00     0.031 C 
ATOM     33  C   UNL A   1      37.298  31.571  31.817  1.00  0.00     0.029 A 
ATOM     34  N   UNL A   1      39.183  30.408  32.132  1.00  0.00    -0.354 N 
ATOM     35  C   UNL A   1      40.827  27.944  29.006  1.00  0.00     0.074 A 
ATOM     36  C   UNL A   1      40.043  28.056  27.794  1.00  0.00     0.031 C 
ATOM     37  C   UNL A   1      37.770  31.887  33.034  1.00  0.00     0.029 A 
ATOM     38  C   UNL A   1      38.970  31.098  33.300  1.00  0.00     0.049 A 
ATOM     39  H   UNL A   1      39.962  29.823  31.984  1.00  0.00     0.167 HD
ATOM     40  C   UNL A   1      41.969  27.224  29.119  1.00  0.00     0.037 A 
ATOM     41  C   UNL A   1      39.643  31.069  34.466  1.00  0.00     0.037 A 
ATOM     42  C   UNL A   1      42.760  27.134  30.320  1.00  0.00     0.049 A 
ATOM     43  C   UNL A   1      40.842  30.172  34.603  1.00  0.00     0.074 A 
ATOM     44  C   UNL A   1      43.934  26.431  30.530  1.00  0.00     0.029 A 
ATOM     45  N   UNL A   1      42.455  27.767  31.517  1.00  0.00    -0.354 N 
ATOM     46  N   UNL A   1      41.424  29.424  33.698  1.00  0.00    -0.248 NA
ATOM     47  C   UNL A   1      41.467  30.100  35.932  1.00  0.00     0.031 C 
ATOM     48  C   UNL A   1      44.309  26.594  31.868  1.00  0.00     0.029 A 
ATOM     49  C   UNL A   1      43.400  27.443  32.479  1.00  0.00     0.049 A 
ATOM     50  H   UNL A   1      41.683  28.360  31.660  1.00  0.00     0.167 HD
ATOM     51  C   UNL A   1      42.489  28.804  34.339  1.00  0.00     0.074 A 
ATOM     52  C   UNL A   1      42.485  29.281  35.708  1.00  0.00     0.031 C 
ATOM     53  C   UNL A   1      43.384  27.917  33.841  1.00  0.00     0.037 A 
BRANCH  40  54
ATOM     54  C   UNL A   1      42.397  26.423  27.924  1.00  0.00     0.064 A 
ATOM     55  C   UNL A   1      41.923  25.126  27.684  1.00  0.00     0.173 A 
ATOM     56  C   UNL A   1      43.294  26.976  26.996  1.00  0.00     0.173 A 
ATOM     57  F   UNL A   1      41.076  24.546  28.548  1.00  0.00    -0.203 F 
ATOM     58  C   UNL A   1      42.359  24.398  26.579  1.00  0.00     0.198 A 
ATOM     59  C   UNL A   1      43.704  26.257  25.877  1.00  0.00     0.198 A 
ATOM     60  F   UNL A   1      43.774  28.216  27.175  1.00  0.00    -0.203 F 
ATOM     61  F   UNL A   1      41.936  23.139  26.400  1.00  0.00    -0.200 F 
ATOM     62  C   UNL A   1      43.244  24.965  25.675  1.00  0.00     0.200 A 
ATOM     63  F   UNL A   1      44.551  26.812  24.999  1.00  0.00    -0.200 F 
ATOM     64  F   UNL A   1      43.662  24.263  24.613  1.00  0.00    -0.200 F 
ENDBRANCH  40  54
BRANCH  41  65
ATOM     65  C   UNL A   1      39.165  31.882  35.616  1.00  0.00     0.064 A 
ATOM     66  C   UNL A   1      38.289  31.346  36.569  1.00  0.00     0.173 A 
ATOM     67  C   UNL A   1      39.568  33.217  35.778  1.00  0.00     0.173 A 
ATOM     68  F   UNL A   1      37.848  30.086  36.440  1.00  0.00    -0.203 F 
ATOM     69  C   UNL A   1      37.830  32.116  37.637  1.00  0.00     0.198 A 
ATOM     70  C   UNL A   1      39.132  33.975  36.862  1.00  0.00     0.198 A 
ATOM     71  F   UNL A   1      40.393  33.783  34.885  1.00  0.00    -0.203 F 
ATOM     72  F   UNL A   1      36.958  31.593  38.510  1.00  0.00    -0.200 F 
ATOM     73  C   UNL A   1      38.259  33.426  37.787  1.00  0.00     0.200 A 
ATOM     74  F   UNL A   1      39.554  35.239  37.004  1.00  0.00    -0.200 F 
ATOM     75  F   UNL A   1      37.820  34.164  38.817  1.00  0.00    -0.200 F 
ENDBRANCH  41  65
BRANCH  53  76
ATOM     76  C   UNL A   1      44.449  27.417  34.773  1.00  0.00     0.064 A 
ATOM     77  C   UNL A   1      44.286  26.234  35.508  1.00  0.00     0.173 A 
ATOM     78  C   UNL A   1      45.663  28.109  34.905  1.00  0.00     0.173 A 
ATOM     79  F   UNL A   1      43.138  25.544  35.430  1.00  0.00    -0.203 F 
ATOM     80  C   UNL A   1      45.287  25.775  36.360  1.00  0.00     0.198 A 
ATOM     81  C   UNL A   1      46.675  27.631  35.735  1.00  0.00     0.198 A 
ATOM     82  F   UNL A   1      45.874  29.243  34.220  1.00  0.00    -0.203 F 
ATOM     83  F   UNL A   1      45.090  24.668  37.090  1.00  0.00    -0.200 F 
ATOM     84  C   UNL A   1      46.483  26.470  36.466  1.00  0.00     0.200 A 
ATOM     85  F   UNL A   1      47.835  28.296  35.827  1.00  0.00    -0.200 F 
ATOM     86  F   UNL A   1      47.449  26.023  37.281  1.00  0.00    -0.200 F 
ENDBRANCH  53  76
ENDBRANCH  27  28
ENDBRANCH  20  22
ENDBRANCH  19  20
ENDBRANCH   1  19
TORSDOF 12
ENDMDL
MODEL 2
REMARK VINA RESULT:     -11.2      1.032      1.838
REMARK SMILES [NH3+][C@@H]1C(=O)N2C(C(=O)OCCOC(=O)c3ccc(-c4c5nc(c(-c6c(F)c(F)c(F)c(F)c6F)c6ccc([nH]6)c(-c6c(F)c(F)c(F)c(F)c6F)c6nc(c(-c7c(F)c(F)c(F)c(F)c7F)c7ccc4[nH]7)C=C6)C=C5)cc3)=CCS[C@@H]12
REMARK SMILES IDX 11 1 10 2 9 3 7 4 8 5 6 6 2 7 3 8 81 9 4 10 5 11 80 12 79 13
REMARK SMILES IDX 78 14 1 15 12 19 13 20 14 21 15 22 16 23 77 24 17 25 76 26
REMARK SMILES IDX 18 27 19 28 20 29 70 30 21 31 75 32 69 33 71 34 22 35 74 36
REMARK SMILES IDX 68 37 67 38 23 40 55 41 35 42 54 43 36 44 39 45 53 46 72 47
REMARK SMILES IDX 37 48 38 49 52 51 73 52 40 53 24 54 25 55 33 56 26 57 27 58
REMARK SMILES IDX 31 59 34 60 28 61 29 62 32 63 30 64 56 65 57 66 65 67 58 68
REMARK SMILES IDX 59 69 63 70 66 71 60 72 61 73 64 74 62 75 41 76 42 77 50 78
REMARK SMILES IDX 43 79 44 80 48 81 51 82 45 83 46 84 49 85 47 86
REMARK H PARENT 1 16 1 17 1 18 71 39 39 50
REMARK Flexibility Score: inf
ROOT
ATOM      1  C   UNL A   1      31.770  30.164  25.790  1.00  0.00     0.275 C 
ENDROOT
BRANCH   1   2
ATOM      2  C   UNL A   1      31.471  28.704  25.441  1.00  0.00     0.275 C 
BRANCH   2   3
ATOM      3  O   UNL A   1      32.385  27.819  26.121  1.00  0.00    -0.457 OA
BRANCH   3   4
ATOM      4  C   UNL A   1      32.067  26.494  26.139  1.00  0.00     0.354 C 
ATOM      5  O   UNL A   1      31.138  26.004  26.759  1.00  0.00    -0.244 OA
BRANCH   4   6
ATOM      6  C   UNL A   1      32.980  25.728  25.219  1.00  0.00     0.128 C 
ATOM      7  C   UNL A   1      32.452  25.129  21.888  1.00  0.00     0.305 C 
ATOM      8  C   UNL A   1      31.591  25.692  23.078  1.00  0.00     0.289 C 
ATOM      9  C   UNL A   1      33.632  25.243  22.898  1.00  0.00     0.217 C 
ATOM     10  O   UNL A   1      30.463  26.105  23.195  1.00  0.00    -0.267 OA
ATOM     11  N   UNL A   1      32.634  25.527  23.918  1.00  0.00    -0.282 N 
ATOM     12  S   UNL A   1      34.447  23.692  23.349  1.00  0.00    -0.126 SA
ATOM     13  C   UNL A   1      35.112  24.360  24.907  1.00  0.00     0.101 C 
ATOM     14  C   UNL A   1      34.140  25.212  25.678  1.00  0.00     0.018 C 
BRANCH   7  15
ATOM     15  N   UNL A   1      32.649  26.087  20.773  1.00  0.00    -0.345 N 
ATOM     16  H   UNL A   1      33.536  25.890  20.309  1.00  0.00     0.345 HD
ATOM     17  H   UNL A   1      32.661  27.038  21.139  1.00  0.00     0.345 HD
ATOM     18  H   UNL A   1      31.887  25.989  20.103  1.00  0.00     0.345 HD
ENDBRANCH   7  15
ENDBRANCH   4   6
ENDBRANCH   3   4
ENDBRANCH   2   3
ENDBRANCH   1   2
BRANCH   1  19
ATOM     19  O   UNL A   1      33.149  30.315  26.175  1.00  0.00    -0.458 OA
BRANCH  19  20
ATOM     20  C   UNL A   1      33.420  31.374  26.972  1.00  0.00     0.338 C 
ATOM     21  O   UNL A   1      32.691  32.313  27.244  1.00  0.00    -0.246 OA
BRANCH  20  22
ATOM     22  C   UNL A   1      34.693  31.127  27.661  1.00  0.00     0.060 A 
ATOM     23  C   UNL A   1      34.925  29.822  28.082  1.00  0.00     0.016 A 
ATOM     24  C   UNL A   1      35.613  32.133  27.951  1.00  0.00     0.016 A 
ATOM     25  C   UNL A   1      36.072  29.506  28.794  1.00  0.00     0.010 A 
ATOM     26  C   UNL A   1      36.780  31.810  28.662  1.00  0.00     0.010 A 
ATOM     27  C   UNL A   1      37.015  30.491  29.094  1.00  0.00    -0.014 A 
BRANCH  27  28
ATOM     28  C   UNL A   1      38.196  30.120  29.915  1.00  0.00     0.031 A 
ATOM     29  C   UNL A   1      39.256  29.224  29.342  1.00  0.00     0.074 A 
ATOM     30  C   UNL A   1      38.376  30.661  31.136  1.00  0.00     0.049 A 
ATOM     31  N   UNL A   1      40.326  28.729  29.912  1.00  0.00    -0.248 NA
ATOM     32  C   UNL A   1      39.096  28.845  27.930  1.00  0.00     0.031 C 
ATOM     33  C   UNL A   1      37.485  31.637  31.765  1.00  0.00     0.029 A 
ATOM     34  N   UNL A   1      39.378  30.480  32.058  1.00  0.00    -0.354 N 
ATOM     35  C   UNL A   1      40.949  27.956  28.943  1.00  0.00     0.074 A 
ATOM     36  C   UNL A   1      40.136  28.043  27.748  1.00  0.00     0.031 C 
ATOM     37  C   UNL A   1      37.987  31.976  32.964  1.00  0.00     0.029 A 
ATOM     38  C   UNL A   1      39.193  31.193  33.217  1.00  0.00     0.049 A 
ATOM     39  H   UNL A   1      40.154  29.893  31.903  1.00  0.00     0.167 HD
ATOM     40  C   UNL A   1      42.094  27.238  29.043  1.00  0.00     0.037 A 
ATOM     41  C   UNL A   1      39.894  31.187  34.367  1.00  0.00     0.037 A 
ATOM     42  C   UNL A   1      42.914  27.172  30.225  1.00  0.00     0.049 A 
ATOM     43  C   UNL A   1      41.097  30.293  34.493  1.00  0.00     0.074 A 
ATOM     44  C   UNL A   1      44.093  26.473  30.421  1.00  0.00     0.029 A 
ATOM     45  N   UNL A   1      42.637  27.829  31.416  1.00  0.00    -0.354 N 
ATOM     46  N   UNL A   1      41.657  29.527  33.589  1.00  0.00    -0.248 NA
ATOM     47  C   UNL A   1      41.753  30.248  35.807  1.00  0.00     0.031 C 
ATOM     48  C   UNL A   1      44.499  26.663  31.746  1.00  0.00     0.029 A 
ATOM     49  C   UNL A   1      43.604  27.524  32.362  1.00  0.00     0.049 A 
ATOM     50  H   UNL A   1      41.868  28.423  31.567  1.00  0.00     0.167 HD
ATOM     51  C   UNL A   1      42.737  28.921  34.216  1.00  0.00     0.074 A 
ATOM     52  C   UNL A   1      42.766  29.424  35.575  1.00  0.00     0.031 C 
ATOM     53  C   UNL A   1      43.621  28.025  33.714  1.00  0.00     0.037 A 
BRANCH  40  54
ATOM     54  C   UNL A   1      42.494  26.414  27.853  1.00  0.00     0.064 A 
ATOM     55  C   UNL A   1      43.415  26.874  26.901  1.00  0.00     0.173 A 
ATOM     56  C   UNL A   1      41.947  25.134  27.673  1.00  0.00     0.173 A 
ATOM     57  F   UNL A   1      43.956  28.096  27.019  1.00  0.00    -0.203 F 
ATOM     58  C   UNL A   1      43.747  26.096  25.794  1.00  0.00     0.198 A 
ATOM     59  C   UNL A   1      42.303  24.348  26.580  1.00  0.00     0.198 A 
ATOM     60  F   UNL A   1      41.065  24.644  28.556  1.00  0.00    -0.203 F 
ATOM     61  F   UNL A   1      44.587  26.578  24.867  1.00  0.00    -0.200 F 
ATOM     62  C   UNL A   1      43.195  24.834  25.636  1.00  0.00     0.200 A 
ATOM     63  F   UNL A   1      41.777  23.124  26.438  1.00  0.00    -0.200 F 
ATOM     64  F   UNL A   1      43.515  24.088  24.570  1.00  0.00    -0.200 F 
ENDBRANCH  40  54
BRANCH  41  65
ATOM     65  C   UNL A   1      39.443  32.023  35.511  1.00  0.00     0.064 A 
ATOM     66  C   UNL A   1      38.531  31.530  36.454  1.00  0.00     0.173 A 
ATOM     67  C   UNL A   1      39.909  33.336  35.679  1.00  0.00     0.173 A 
ATOM     68  F   UNL A   1      38.030  30.293  36.319  1.00  0.00    -0.203 F 
ATOM     69  C   UNL A   1      38.098  32.321  37.518  1.00  0.00     0.198 A 
ATOM     70  C   UNL A   1      39.498  34.115  36.758  1.00  0.00     0.198 A 
ATOM     71  F   UNL A   1      40.771  33.861  34.796  1.00  0.00    -0.203 F 
ATOM     72  F   UNL A   1      37.191  31.842  38.380  1.00  0.00    -0.200 F 
ATOM     73  C   UNL A   1      38.588  33.609  37.673  1.00  0.00     0.200 A 
ATOM     74  F   UNL A   1      39.979  35.356  36.906  1.00  0.00    -0.200 F 
ATOM     75  F   UNL A   1      38.174  34.367  38.698  1.00  0.00    -0.200 F 
ENDBRANCH  41  65
BRANCH  53  76
ATOM     76  C   UNL A   1      44.709  27.543  34.630  1.00  0.00     0.064 A 
ATOM     77  C   UNL A   1      44.561  26.377  35.396  1.00  0.00     0.173 A 
ATOM     78  C   UNL A   1      45.927  28.234  34.715  1.00  0.00     0.173 A 
ATOM     79  F   UNL A   1      43.410  25.689  35.363  1.00  0.00    -0.203 F 
ATOM     80  C   UNL A   1      45.583  25.935  36.232  1.00  0.00     0.198 A 
ATOM     81  C   UNL A   1      46.958  27.773  35.530  1.00  0.00     0.198 A 
ATOM     82  F   UNL A   1      46.122  29.352  33.999  1.00  0.00    -0.203 F 
ATOM     83  F   UNL A   1      45.402  24.846  36.992  1.00  0.00    -0.200 F 
ATOM     84  C   UNL A   1      46.783  26.630  36.293  1.00  0.00     0.200 A 
ATOM     85  F   UNL A   1      48.121  28.437  35.577  1.00  0.00    -0.200 F 
ATOM     86  F   UNL A   1      47.768  26.199  37.093  1.00  0.00    -0.200 F 
ENDBRANCH  53  76
ENDBRANCH  27  28
ENDBRANCH  20  22
ENDBRANCH  19  20
ENDBRANCH   1  19
TORSDOF 12
ENDMDL
MODEL 3
REMARK VINA RESULT:     -11.2      0.268      1.690
REMARK SMILES [NH3+][C@@H]1C(=O)N2C(C(=O)OCCOC(=O)c3ccc(-c4c5nc(c(-c6c(F)c(F)c(F)c(F)c6F)c6ccc([nH]6)c(-c6c(F)c(F)c(F)c(F)c6F)c6nc(c(-c7c(F)c(F)c(F)c(F)c7F)c7ccc4[nH]7)C=C6)C=C5)cc3)=CCS[C@@H]12
REMARK SMILES IDX 11 1 10 2 9 3 7 4 8 5 6 6 2 7 3 8 81 9 4 10 5 11 80 12 79 13
REMARK SMILES IDX 78 14 1 15 12 19 13 20 14 21 15 22 16 23 77 24 17 25 76 26
REMARK SMILES IDX 18 27 19 28 20 29 70 30 21 31 75 32 69 33 71 34 22 35 74 36
REMARK SMILES IDX 68 37 67 38 23 40 55 41 35 42 54 43 36 44 39 45 53 46 72 47
REMARK SMILES IDX 37 48 38 49 52 51 73 52 40 53 24 54 25 55 33 56 26 57 27 58
REMARK SMILES IDX 31 59 34 60 28 61 29 62 32 63 30 64 56 65 57 66 65 67 58 68
REMARK SMILES IDX 59 69 63 70 66 71 60 72 61 73 64 74 62 75 41 76 42 77 50 78
REMARK SMILES IDX 43 79 44 80 48 81 51 82 45 83 46 84 49 85 47 86
REMARK H PARENT 1 16 1 17 1 18 71 39 39 50
REMARK Flexibility Score: inf
ROOT
ATOM      1  C   UNL A   1      31.771  30.033  25.574  1.00  0.00     0.275 C 
ENDROOT
BRANCH   1   2
ATOM      2  C   UNL A   1      31.438  28.539  25.587  1.00  0.00     0.275 C 
BRANCH   2   3
ATOM      3  O   UNL A   1      32.628  27.750  25.384  1.00  0.00    -0.457 OA
BRANCH   3   4
ATOM      4  C   UNL A   1      32.565  26.763  24.447  1.00  0.00     0.354 C 
ATOM      5  O   UNL A   1      32.176  26.908  23.300  1.00  0.00    -0.244 OA
BRANCH   4   6
ATOM      6  C   UNL A   1      33.118  25.479  25.006  1.00  0.00     0.128 C 
ATOM      7  C   UNL A   1      31.390  23.170  26.855  1.00  0.00     0.305 C 
ATOM      8  C   UNL A   1      31.120  24.636  26.353  1.00  0.00     0.289 C 
ATOM      9  C   UNL A   1      32.627  23.246  25.912  1.00  0.00     0.217 C 
ATOM     10  O   UNL A   1      30.206  25.418  26.452  1.00  0.00    -0.267 OA
ATOM     11  N   UNL A   1      32.333  24.662  25.760  1.00  0.00    -0.282 N 
ATOM     12  S   UNL A   1      34.246  23.108  26.710  1.00  0.00    -0.126 SA
ATOM     13  C   UNL A   1      35.120  23.931  25.340  1.00  0.00     0.101 C 
ATOM     14  C   UNL A   1      34.404  25.133  24.785  1.00  0.00     0.018 C 
BRANCH   7  15
ATOM     15  N   UNL A   1      30.427  22.165  26.342  1.00  0.00    -0.345 N 
ATOM     16  H   UNL A   1      29.666  22.641  25.858  1.00  0.00     0.345 HD
ATOM     17  H   UNL A   1      30.052  21.626  27.121  1.00  0.00     0.345 HD
ATOM     18  H   UNL A   1      30.904  21.539  25.693  1.00  0.00     0.345 HD
ENDBRANCH   7  15
ENDBRANCH   4   6
ENDBRANCH   3   4
ENDBRANCH   2   3
ENDBRANCH   1   2
BRANCH   1  19
ATOM     19  O   UNL A   1      33.130  30.248  25.997  1.00  0.00    -0.458 OA
BRANCH  19  20
ATOM     20  C   UNL A   1      33.315  31.261  26.875  1.00  0.00     0.338 C 
ATOM     21  O   UNL A   1      32.521  32.129  27.195  1.00  0.00    -0.246 OA
BRANCH  20  22
ATOM     22  C   UNL A   1      34.588  31.047  27.575  1.00  0.00     0.060 A 
ATOM     23  C   UNL A   1      34.862  29.742  27.970  1.00  0.00     0.016 A 
ATOM     24  C   UNL A   1      35.465  32.079  27.899  1.00  0.00     0.016 A 
ATOM     25  C   UNL A   1      36.012  29.452  28.691  1.00  0.00     0.010 A 
ATOM     26  C   UNL A   1      36.634  31.784  28.619  1.00  0.00     0.010 A 
ATOM     27  C   UNL A   1      36.913  30.466  29.025  1.00  0.00    -0.014 A 
BRANCH  27  28
ATOM     28  C   UNL A   1      38.097  30.120  29.854  1.00  0.00     0.031 A 
ATOM     29  C   UNL A   1      39.181  29.252  29.286  1.00  0.00     0.074 A 
ATOM     30  C   UNL A   1      38.254  30.661  31.078  1.00  0.00     0.049 A 
ATOM     31  N   UNL A   1      40.260  28.781  29.863  1.00  0.00    -0.248 NA
ATOM     32  C   UNL A   1      39.042  28.873  27.872  1.00  0.00     0.031 C 
ATOM     33  C   UNL A   1      37.335  31.613  31.704  1.00  0.00     0.029 A 
ATOM     34  N   UNL A   1      39.253  30.501  32.007  1.00  0.00    -0.354 N 
ATOM     35  C   UNL A   1      40.908  28.026  28.896  1.00  0.00     0.074 A 
ATOM     36  C   UNL A   1      40.102  28.098  27.695  1.00  0.00     0.031 C 
ATOM     37  C   UNL A   1      37.819  31.961  32.907  1.00  0.00     0.029 A 
ATOM     38  C   UNL A   1      39.043  31.205  33.166  1.00  0.00     0.049 A 
ATOM     39  H   UNL A   1      40.044  29.934  31.856  1.00  0.00     0.167 HD
ATOM     40  C   UNL A   1      42.069  27.336  29.002  1.00  0.00     0.037 A 
ATOM     41  C   UNL A   1      39.734  31.213  34.322  1.00  0.00     0.037 A 
ATOM     42  C   UNL A   1      42.881  27.285  30.191  1.00  0.00     0.049 A 
ATOM     43  C   UNL A   1      40.958  30.348  34.454  1.00  0.00     0.074 A 
ATOM     44  C   UNL A   1      44.075  26.615  30.393  1.00  0.00     0.029 A 
ATOM     45  N   UNL A   1      42.580  27.931  31.382  1.00  0.00    -0.354 N 
ATOM     46  N   UNL A   1      41.543  29.599  33.552  1.00  0.00    -0.248 NA
ATOM     47  C   UNL A   1      41.605  30.314  35.773  1.00  0.00     0.031 C 
ATOM     48  C   UNL A   1      44.467  26.810  31.722  1.00  0.00     0.029 A 
ATOM     49  C   UNL A   1      43.547  27.647  32.334  1.00  0.00     0.049 A 
ATOM     50  H   UNL A   1      41.795  28.507  31.528  1.00  0.00     0.167 HD
ATOM     51  C   UNL A   1      42.633  29.017  34.186  1.00  0.00     0.074 A 
ATOM     52  C   UNL A   1      42.639  29.516  35.546  1.00  0.00     0.031 C 
ATOM     53  C   UNL A   1      43.541  28.143  33.687  1.00  0.00     0.037 A 
BRANCH  40  54
ATOM     54  C   UNL A   1      42.498  26.526  27.813  1.00  0.00     0.064 A 
ATOM     55  C   UNL A   1      42.027  25.225  27.586  1.00  0.00     0.173 A 
ATOM     56  C   UNL A   1      43.392  27.073  26.880  1.00  0.00     0.173 A 
ATOM     57  F   UNL A   1      41.181  24.651  28.455  1.00  0.00    -0.203 F 
ATOM     58  C   UNL A   1      42.462  24.489  26.486  1.00  0.00     0.198 A 
ATOM     59  C   UNL A   1      43.803  26.344  25.766  1.00  0.00     0.198 A 
ATOM     60  F   UNL A   1      43.869  28.315  27.046  1.00  0.00    -0.203 F 
ATOM     61  F   UNL A   1      42.043  23.227  26.318  1.00  0.00    -0.200 F 
ATOM     62  C   UNL A   1      43.346  25.050  25.576  1.00  0.00     0.200 A 
ATOM     63  F   UNL A   1      44.646  26.894  24.882  1.00  0.00    -0.200 F 
ATOM     64  F   UNL A   1      43.764  24.339  24.520  1.00  0.00    -0.200 F 
ENDBRANCH  40  54
BRANCH  41  65
ATOM     65  C   UNL A   1      39.255  32.034  35.466  1.00  0.00     0.064 A 
ATOM     66  C   UNL A   1      39.646  33.372  35.612  1.00  0.00     0.173 A 
ATOM     67  C   UNL A   1      38.405  31.492  36.442  1.00  0.00     0.173 A 
ATOM     68  F   UNL A   1      40.485  33.926  34.725  1.00  0.00    -0.203 F 
ATOM     69  C   UNL A   1      39.208  34.134  36.695  1.00  0.00     0.198 A 
ATOM     70  C   UNL A   1      37.945  32.263  37.506  1.00  0.00     0.198 A 
ATOM     71  F   UNL A   1      38.015  30.211  36.357  1.00  0.00    -0.203 F 
ATOM     72  F   UNL A   1      39.631  35.397  36.835  1.00  0.00    -0.200 F 
ATOM     73  C   UNL A   1      38.352  33.581  37.635  1.00  0.00     0.200 A 
ATOM     74  F   UNL A   1      37.113  31.725  38.409  1.00  0.00    -0.200 F 
ATOM     75  F   UNL A   1      37.928  34.317  38.673  1.00  0.00    -0.200 F 
ENDBRANCH  41  65
BRANCH  53  76
ATOM     76  C   UNL A   1      44.634  27.685  34.610  1.00  0.00     0.064 A 
ATOM     77  C   UNL A   1      45.827  28.408  34.752  1.00  0.00     0.173 A 
ATOM     78  C   UNL A   1      44.471  26.529  35.389  1.00  0.00     0.173 A 
ATOM     79  F   UNL A   1      46.040  29.510  34.017  1.00  0.00    -0.203 F 
ATOM     80  C   UNL A   1      46.827  27.977  35.620  1.00  0.00     0.198 A 
ATOM     81  C   UNL A   1      45.460  26.117  36.279  1.00  0.00     0.198 A 
ATOM     82  F   UNL A   1      43.345  25.804  35.296  1.00  0.00    -0.203 F 
ATOM     83  F   UNL A   1      47.980  28.657  35.703  1.00  0.00    -0.200 F 
ATOM     84  C   UNL A   1      46.639  26.837  36.388  1.00  0.00     0.200 A 
ATOM     85  F   UNL A   1      45.272  25.024  37.030  1.00  0.00    -0.200 F 
ATOM     86  F   UNL A   1      47.600  26.429  37.229  1.00  0.00    -0.200 F 
ENDBRANCH  53  76
ENDBRANCH  27  28
ENDBRANCH  20  22
ENDBRANCH  19  20
ENDBRANCH   1  19
TORSDOF 12
ENDMDL
