MODEL 1
REMARK VINA RESULT:     -12.0      0.000      0.000
REMARK SMILES Cc1nc2nc(CNC(=O)OC(C)(C)C)nn2c(C)c1CCC(=O)OCCOC(=O)c1ccc(-c2c3nc(c(-c4c(F)c(F)c(F)c(F)c4F)c4ccc([nH]4)c(-c4c(F)c(F)c(F)c(F)c4F)c4nc(c(-c5c(F)c(F)c(F)c(F)c5F)c5ccc2[nH]5)C=C4)C=C3)cc1
REMARK SMILES IDX 23 1 24 2 22 3 21 4 20 5 1 6 2 7 3 8 4 9 18 10 5 11 17 12
REMARK SMILES IDX 19 13 6 14 16 15 7 16 8 17 9 18 10 20 11 21 12 22 13 23
REMARK SMILES IDX 14 24 15 25 25 26 26 27 27 28 28 29 29 30 30 31 31 32 32 33
REMARK SMILES IDX 93 34 33 35 92 36 34 37 35 38 36 39 86 40 37 41 91 42 85 43
REMARK SMILES IDX 87 44 38 45 90 46 84 47 83 48 39 50 71 51 51 52 70 53 52 54
REMARK SMILES IDX 55 55 69 56 88 57 53 58 54 59 68 61 89 62 56 63 40 64 41 65
REMARK SMILES IDX 49 66 42 67 43 68 47 69 50 70 44 71 45 72 48 73 46 74 72 75
REMARK SMILES IDX 73 76 81 77 74 78 75 79 79 80 82 81 76 82 77 83 80 84 78 85
REMARK SMILES IDX 57 86 58 87 66 88 59 89 60 90 64 91 67 92 61 93 62 94 65 95
REMARK SMILES IDX 63 96
REMARK H PARENT 8 19 87 49 55 60
REMARK Flexibility Score: inf
ROOT
ATOM      1  C   UNL A   1      36.789  20.397  24.915  1.00  0.00     0.306 C 
ATOM      2  O   UNL A   1      36.652  19.179  24.960  1.00  0.00    -0.252 OA
ENDROOT
BRANCH   1   3
ATOM      3  C   UNL A   1      35.614  21.357  25.042  1.00  0.00     0.127 C 
BRANCH   3   4
ATOM      4  C   UNL A   1      34.231  20.836  25.484  1.00  0.00     0.051 C 
BRANCH   4   5
ATOM      5  C   UNL A   1      33.066  21.666  25.011  1.00  0.00    -0.005 A 
ATOM      6  C   UNL A   1      32.400  19.879  23.256  1.00  0.00     0.067 C 
ATOM      7  C   UNL A   1      32.358  21.323  23.713  1.00  0.00     0.046 A 
ATOM      8  N   UNL A   1      31.628  22.147  23.016  1.00  0.00    -0.216 NA
ATOM      9  C   UNL A   1      31.420  23.375  23.573  1.00  0.00     0.252 A 
ATOM     10  C   UNL A   1      32.536  22.732  25.652  1.00  0.00     0.048 A 
ATOM     11  N   UNL A   1      30.909  24.476  23.058  1.00  0.00    -0.192 NA
ATOM     12  N   UNL A   1      31.745  23.612  24.909  1.00  0.00    -0.201 N 
ATOM     13  C   UNL A   1      32.849  23.179  27.047  1.00  0.00     0.067 C 
ATOM     14  C   UNL A   1      30.897  25.350  24.115  1.00  0.00     0.172 A 
ATOM     15  N   UNL A   1      31.322  24.842  25.272  1.00  0.00    -0.148 NA
BRANCH  14  16
ATOM     16  C   UNL A   1      30.421  26.758  24.053  1.00  0.00     0.199 C 
BRANCH  16  17
ATOM     17  N   UNL A   1      31.415  27.649  23.505  1.00  0.00    -0.314 N 
ATOM     18  C   UNL A   1      32.027  28.634  24.216  1.00  0.00     0.408 C 
ATOM     19  H   UNL A   1      31.666  27.537  22.559  1.00  0.00     0.167 HD
ATOM     20  O   UNL A   1      32.891  29.342  23.733  1.00  0.00    -0.225 OA
BRANCH  18  21
ATOM     21  O   UNL A   1      31.532  28.719  25.474  1.00  0.00    -0.444 OA
BRANCH  21  22
ATOM     22  C   UNL A   1      32.388  28.598  26.632  1.00  0.00     0.106 C 
ATOM     23  C   UNL A   1      33.586  27.692  26.346  1.00  0.00     0.056 C 
ATOM     24  C   UNL A   1      32.805  29.982  27.142  1.00  0.00     0.056 C 
ATOM     25  C   UNL A   1      31.502  27.932  27.696  1.00  0.00     0.056 C 
ENDBRANCH  21  22
ENDBRANCH  18  21
ENDBRANCH  16  17
ENDBRANCH  14  16
ENDBRANCH   4   5
ENDBRANCH   3   4
ENDBRANCH   1   3
BRANCH   1  26
ATOM     26  O   UNL A   1      37.975  21.022  24.692  1.00  0.00    -0.462 OA
BRANCH  26  27
ATOM     27  C   UNL A   1      38.516  21.785  25.787  1.00  0.00     0.274 C 
BRANCH  27  28
ATOM     28  C   UNL A   1      39.894  21.278  26.206  1.00  0.00     0.275 C 
BRANCH  28  29
ATOM     29  O   UNL A   1      40.604  22.173  27.073  1.00  0.00    -0.458 OA
BRANCH  29  30
ATOM     30  C   UNL A   1      41.429  23.028  26.433  1.00  0.00     0.338 C 
ATOM     31  O   UNL A   1      42.314  22.753  25.644  1.00  0.00    -0.246 OA
BRANCH  30  32
ATOM     32  C   UNL A   1      41.297  24.392  26.938  1.00  0.00     0.060 A 
ATOM     33  C   UNL A   1      42.144  24.753  27.992  1.00  0.00     0.016 A 
ATOM     34  C   UNL A   1      40.268  25.231  26.496  1.00  0.00     0.016 A 
ATOM     35  C   UNL A   1      41.926  25.947  28.641  1.00  0.00     0.010 A 
ATOM     36  C   UNL A   1      40.056  26.432  27.139  1.00  0.00     0.010 A 
ATOM     37  C   UNL A   1      40.875  26.771  28.213  1.00  0.00    -0.014 A 
BRANCH  37  38
ATOM     38  C   UNL A   1      40.860  28.126  28.732  1.00  0.00     0.031 A 
ATOM     39  C   UNL A   1      41.986  28.922  28.178  1.00  0.00     0.074 A 
ATOM     40  C   UNL A   1      39.892  28.622  29.523  1.00  0.00     0.049 A 
ATOM     41  N   UNL A   1      43.014  29.360  28.821  1.00  0.00    -0.248 NA
ATOM     42  C   UNL A   1      42.097  29.062  26.714  1.00  0.00     0.031 C 
ATOM     43  C   UNL A   1      38.619  27.995  29.883  1.00  0.00     0.029 A 
ATOM     44  N   UNL A   1      39.808  29.848  30.112  1.00  0.00    -0.354 N 
ATOM     45  C   UNL A   1      43.790  30.031  27.879  1.00  0.00     0.074 A 
ATOM     46  C   UNL A   1      43.290  29.646  26.589  1.00  0.00     0.031 C 
ATOM     47  C   UNL A   1      37.799  28.924  30.428  1.00  0.00     0.029 A 
ATOM     48  C   UNL A   1      38.543  30.161  30.599  1.00  0.00     0.049 A 
ATOM     49  H   UNL A   1      40.576  30.459  30.187  1.00  0.00     0.167 HD
ATOM     50  C   UNL A   1      44.557  31.084  28.268  1.00  0.00     0.037 A 
ATOM     51  C   UNL A   1      38.150  31.368  31.074  1.00  0.00     0.037 A 
ATOM     52  C   UNL A   1      44.735  31.077  29.697  1.00  0.00     0.049 A 
ATOM     53  C   UNL A   1      39.371  32.099  31.480  1.00  0.00     0.074 A 
ATOM     54  C   UNL A   1      45.530  30.415  30.606  1.00  0.00     0.029 A 
ATOM     55  N   UNL A   1      43.668  31.591  30.383  1.00  0.00    -0.354 N 
ATOM     56  N   UNL A   1      40.112  31.743  32.491  1.00  0.00    -0.248 NA
ATOM     57  C   UNL A   1      39.980  33.049  30.553  1.00  0.00     0.031 C 
ATOM     58  C   UNL A   1      44.828  30.446  31.849  1.00  0.00     0.029 A 
ATOM     59  C   UNL A   1      43.649  31.165  31.681  1.00  0.00     0.049 A 
ATOM     60  H   UNL A   1      42.996  32.193  29.988  1.00  0.00     0.167 HD
ATOM     61  C   UNL A   1      41.391  32.080  32.104  1.00  0.00     0.074 A 
ATOM     62  C   UNL A   1      41.235  33.030  31.012  1.00  0.00     0.031 C 
ATOM     63  C   UNL A   1      42.448  31.302  32.467  1.00  0.00     0.037 A 
BRANCH  50  64
ATOM     64  C   UNL A   1      44.689  32.372  27.479  1.00  0.00     0.064 A 
ATOM     65  C   UNL A   1      45.859  32.589  26.722  1.00  0.00     0.173 A 
ATOM     66  C   UNL A   1      43.887  33.516  27.689  1.00  0.00     0.173 A 
ATOM     67  F   UNL A   1      46.714  31.583  26.481  1.00  0.00    -0.203 F 
ATOM     68  C   UNL A   1      46.224  33.862  26.269  1.00  0.00     0.198 A 
ATOM     69  C   UNL A   1      44.229  34.773  27.193  1.00  0.00     0.198 A 
ATOM     70  F   UNL A   1      42.806  33.500  28.476  1.00  0.00    -0.203 F 
ATOM     71  F   UNL A   1      47.401  34.038  25.654  1.00  0.00    -0.200 F 
ATOM     72  C   UNL A   1      45.410  34.953  26.508  1.00  0.00     0.200 A 
ATOM     73  F   UNL A   1      43.439  35.822  27.462  1.00  0.00    -0.200 F 
ATOM     74  F   UNL A   1      45.782  36.180  26.124  1.00  0.00    -0.200 F 
ENDBRANCH  50  64
BRANCH  51  75
ATOM     75  C   UNL A   1      36.846  32.064  30.988  1.00  0.00     0.064 A 
ATOM     76  C   UNL A   1      36.056  32.239  32.140  1.00  0.00     0.173 A 
ATOM     77  C   UNL A   1      36.527  32.867  29.879  1.00  0.00     0.173 A 
ATOM     78  F   UNL A   1      36.309  31.524  33.246  1.00  0.00    -0.203 F 
ATOM     79  C   UNL A   1      35.060  33.217  32.205  1.00  0.00     0.198 A 
ATOM     80  C   UNL A   1      35.528  33.841  29.944  1.00  0.00     0.198 A 
ATOM     81  F   UNL A   1      37.252  32.798  28.753  1.00  0.00    -0.203 F 
ATOM     82  F   UNL A   1      34.396  33.418  33.351  1.00  0.00    -0.200 F 
ATOM     83  C   UNL A   1      34.813  34.034  31.115  1.00  0.00     0.200 A 
ATOM     84  F   UNL A   1      35.316  34.648  28.894  1.00  0.00    -0.200 F 
ATOM     85  F   UNL A   1      33.923  35.032  31.205  1.00  0.00    -0.200 F 
ENDBRANCH  51  75
BRANCH  63  86
ATOM     86  C   UNL A   1      42.279  30.435  33.672  1.00  0.00     0.064 A 
ATOM     87  C   UNL A   1      42.428  30.872  34.997  1.00  0.00     0.173 A 
ATOM     88  C   UNL A   1      41.874  29.111  33.462  1.00  0.00     0.173 A 
ATOM     89  F   UNL A   1      42.752  32.143  35.273  1.00  0.00    -0.203 F 
ATOM     90  C   UNL A   1      42.200  30.006  36.066  1.00  0.00     0.198 A 
ATOM     91  C   UNL A   1      41.615  28.260  34.528  1.00  0.00     0.198 A 
ATOM     92  F   UNL A   1      41.690  28.657  32.212  1.00  0.00    -0.203 F 
ATOM     93  F   UNL A   1      42.355  30.436  37.327  1.00  0.00    -0.200 F 
ATOM     94  C   UNL A   1      41.785  28.704  35.830  1.00  0.00     0.200 A 
ATOM     95  F   UNL A   1      41.178  27.016  34.293  1.00  0.00    -0.200 F 
ATOM     96  F   UNL A   1      41.528  27.882  36.856  1.00  0.00    -0.200 F 
ENDBRANCH  63  86
ENDBRANCH  37  38
ENDBRANCH  30  32
ENDBRANCH  29  30
ENDBRANCH  28  29
ENDBRANCH  27  28
ENDBRANCH  26  27
ENDBRANCH   1  26
TORSDOF 17
ENDMDL
MODEL 2
REMARK VINA RESULT:     -12.0      3.012      9.182
REMARK SMILES Cc1nc2nc(CNC(=O)OC(C)(C)C)nn2c(C)c1CCC(=O)OCCOC(=O)c1ccc(-c2c3nc(c(-c4c(F)c(F)c(F)c(F)c4F)c4ccc([nH]4)c(-c4c(F)c(F)c(F)c(F)c4F)c4nc(c(-c5c(F)c(F)c(F)c(F)c5F)c5ccc2[nH]5)C=C4)C=C3)cc1
REMARK SMILES IDX 23 1 24 2 22 3 21 4 20 5 1 6 2 7 3 8 4 9 18 10 5 11 17 12
REMARK SMILES IDX 19 13 6 14 16 15 7 16 8 17 9 18 10 20 11 21 12 22 13 23
REMARK SMILES IDX 14 24 15 25 25 26 26 27 27 28 28 29 29 30 30 31 31 32 32 33
REMARK SMILES IDX 93 34 33 35 92 36 34 37 35 38 36 39 86 40 37 41 91 42 85 43
REMARK SMILES IDX 87 44 38 45 90 46 84 47 83 48 39 50 71 51 51 52 70 53 52 54
REMARK SMILES IDX 55 55 69 56 88 57 53 58 54 59 68 61 89 62 56 63 40 64 41 65
REMARK SMILES IDX 49 66 42 67 43 68 47 69 50 70 44 71 45 72 48 73 46 74 72 75
REMARK SMILES IDX 73 76 81 77 74 78 75 79 79 80 82 81 76 82 77 83 80 84 78 85
REMARK SMILES IDX 57 86 58 87 66 88 59 89 60 90 64 91 67 92 61 93 62 94 65 95
REMARK SMILES IDX 63 96
REMARK H PARENT 8 19 87 49 55 60
REMARK Flexibility Score: inf
ROOT
ATOM      1  C   UNL A   1      32.615  29.289  24.477  1.00  0.00     0.306 C 
ATOM      2  O   UNL A   1      33.714  28.865  24.135  1.00  0.00    -0.252 OA
ENDROOT
BRANCH   1   3
ATOM      3  C   UNL A   1      31.366  29.105  23.624  1.00  0.00     0.127 C 
BRANCH   3   4
ATOM      4  C   UNL A   1      31.224  27.870  22.712  1.00  0.00     0.051 C 
BRANCH   4   5
ATOM      5  C   UNL A   1      31.167  26.553  23.441  1.00  0.00    -0.005 A 
ATOM      6  C   UNL A   1      28.626  26.815  23.881  1.00  0.00     0.067 C 
ATOM      7  C   UNL A   1      29.950  26.191  24.273  1.00  0.00     0.046 A 
ATOM      8  N   UNL A   1      29.931  25.306  25.229  1.00  0.00    -0.216 NA
ATOM      9  C   UNL A   1      31.082  24.595  25.404  1.00  0.00     0.252 A 
ATOM     10  C   UNL A   1      32.119  25.594  23.427  1.00  0.00     0.048 A 
ATOM     11  N   UNL A   1      31.453  23.788  26.379  1.00  0.00    -0.192 NA
ATOM     12  N   UNL A   1      32.096  24.637  24.446  1.00  0.00    -0.201 N 
ATOM     13  C   UNL A   1      33.318  25.541  22.532  1.00  0.00     0.067 C 
ATOM     14  C   UNL A   1      32.675  23.323  25.964  1.00  0.00     0.172 A 
ATOM     15  N   UNL A   1      33.065  23.752  24.764  1.00  0.00    -0.148 NA
BRANCH  14  16
ATOM     16  C   UNL A   1      33.533  22.377  26.729  1.00  0.00     0.199 C 
BRANCH  16  17
ATOM     17  N   UNL A   1      34.011  21.288  25.912  1.00  0.00    -0.314 N 
ATOM     18  C   UNL A   1      35.326  21.051  25.656  1.00  0.00     0.408 C 
ATOM     19  H   UNL A   1      33.345  20.679  25.517  1.00  0.00     0.167 HD
ATOM     20  O   UNL A   1      35.697  20.098  24.995  1.00  0.00    -0.225 OA
BRANCH  18  21
ATOM     21  O   UNL A   1      36.117  22.005  26.200  1.00  0.00    -0.444 OA
BRANCH  21  22
ATOM     22  C   UNL A   1      37.180  22.627  25.444  1.00  0.00     0.106 C 
ATOM     23  C   UNL A   1      38.477  21.823  25.544  1.00  0.00     0.056 C 
ATOM     24  C   UNL A   1      36.744  22.865  23.994  1.00  0.00     0.056 C 
ATOM     25  C   UNL A   1      37.386  23.990  26.122  1.00  0.00     0.056 C 
ENDBRANCH  21  22
ENDBRANCH  18  21
ENDBRANCH  16  17
ENDBRANCH  14  16
ENDBRANCH   4   5
ENDBRANCH   3   4
ENDBRANCH   1   3
BRANCH   1  26
ATOM     26  O   UNL A   1      32.395  30.009  25.608  1.00  0.00    -0.462 OA
BRANCH  26  27
ATOM     27  C   UNL A   1      33.273  29.747  26.719  1.00  0.00     0.274 C 
BRANCH  27  28
ATOM     28  C   UNL A   1      33.417  30.965  27.628  1.00  0.00     0.275 C 
BRANCH  28  29
ATOM     29  O   UNL A   1      34.691  31.617  27.529  1.00  0.00    -0.458 OA
BRANCH  29  30
ATOM     30  C   UNL A   1      35.320  31.790  28.710  1.00  0.00     0.338 C 
ATOM     31  O   UNL A   1      35.087  32.635  29.556  1.00  0.00    -0.246 OA
BRANCH  30  32
ATOM     32  C   UNL A   1      36.508  30.950  28.825  1.00  0.00     0.060 A 
ATOM     33  C   UNL A   1      37.677  31.577  29.270  1.00  0.00     0.016 A 
ATOM     34  C   UNL A   1      36.510  29.631  28.356  1.00  0.00     0.016 A 
ATOM     35  C   UNL A   1      38.867  30.891  29.201  1.00  0.00     0.010 A 
ATOM     36  C   UNL A   1      37.700  28.939  28.297  1.00  0.00     0.010 A 
ATOM     37  C   UNL A   1      38.868  29.579  28.704  1.00  0.00    -0.014 A 
BRANCH  37  38
ATOM     38  C   UNL A   1      40.079  28.807  28.911  1.00  0.00     0.031 A 
ATOM     39  C   UNL A   1      40.333  28.591  30.359  1.00  0.00     0.074 A 
ATOM     40  C   UNL A   1      40.811  28.268  27.920  1.00  0.00     0.049 A 
ATOM     41  N   UNL A   1      41.289  29.097  31.062  1.00  0.00    -0.248 NA
ATOM     42  C   UNL A   1      39.295  27.920  31.164  1.00  0.00     0.031 C 
ATOM     43  C   UNL A   1      40.479  28.199  26.496  1.00  0.00     0.029 A 
ATOM     44  N   UNL A   1      41.987  27.583  27.995  1.00  0.00    -0.354 N 
ATOM     45  C   UNL A   1      41.100  28.618  32.356  1.00  0.00     0.074 A 
ATOM     46  C   UNL A   1      39.770  28.078  32.401  1.00  0.00     0.031 C 
ATOM     47  C   UNL A   1      41.306  27.318  25.884  1.00  0.00     0.029 A 
ATOM     48  C   UNL A   1      42.317  26.889  26.836  1.00  0.00     0.049 A 
ATOM     49  H   UNL A   1      42.555  27.581  28.799  1.00  0.00     0.167 HD
ATOM     50  C   UNL A   1      42.175  28.428  33.165  1.00  0.00     0.037 A 
ATOM     51  C   UNL A   1      43.335  26.003  26.701  1.00  0.00     0.037 A 
ATOM     52  C   UNL A   1      43.319  29.142  32.659  1.00  0.00     0.049 A 
ATOM     53  C   UNL A   1      44.316  26.298  27.769  1.00  0.00     0.074 A 
ATOM     54  C   UNL A   1      43.781  30.439  32.678  1.00  0.00     0.029 A 
ATOM     55  N   UNL A   1      43.961  28.493  31.640  1.00  0.00    -0.354 N 
ATOM     56  N   UNL A   1      45.032  27.387  27.800  1.00  0.00    -0.248 NA
ATOM     57  C   UNL A   1      44.275  25.534  29.013  1.00  0.00     0.031 C 
ATOM     58  C   UNL A   1      44.639  30.575  31.544  1.00  0.00     0.029 A 
ATOM     59  C   UNL A   1      44.716  29.350  30.890  1.00  0.00     0.049 A 
ATOM     60  H   UNL A   1      43.887  27.526  31.468  1.00  0.00     0.167 HD
ATOM     61  C   UNL A   1      45.169  27.659  29.144  1.00  0.00     0.074 A 
ATOM     62  C   UNL A   1      44.856  26.415  29.833  1.00  0.00     0.031 C 
ATOM     63  C   UNL A   1      45.186  28.946  29.588  1.00  0.00     0.037 A 
BRANCH  50  64
ATOM     64  C   UNL A   1      42.353  27.223  34.067  1.00  0.00     0.064 A 
ATOM     65  C   UNL A   1      42.048  27.347  35.438  1.00  0.00     0.173 A 
ATOM     66  C   UNL A   1      43.104  26.077  33.719  1.00  0.00     0.173 A 
ATOM     67  F   UNL A   1      41.364  28.409  35.892  1.00  0.00    -0.203 F 
ATOM     68  C   UNL A   1      42.512  26.429  36.387  1.00  0.00     0.198 A 
ATOM     69  C   UNL A   1      43.521  25.139  34.661  1.00  0.00     0.198 A 
ATOM     70  F   UNL A   1      43.566  25.870  32.481  1.00  0.00    -0.203 F 
ATOM     71  F   UNL A   1      42.294  26.651  37.690  1.00  0.00    -0.200 F 
ATOM     72  C   UNL A   1      43.251  25.328  35.998  1.00  0.00     0.200 A 
ATOM     73  F   UNL A   1      44.261  24.094  34.264  1.00  0.00    -0.200 F 
ATOM     74  F   UNL A   1      43.742  24.478  36.908  1.00  0.00    -0.200 F 
ENDBRANCH  50  64
BRANCH  51  75
ATOM     75  C   UNL A   1      43.440  24.763  25.900  1.00  0.00     0.064 A 
ATOM     76  C   UNL A   1      44.551  24.549  25.064  1.00  0.00     0.173 A 
ATOM     77  C   UNL A   1      42.657  23.637  26.206  1.00  0.00     0.173 A 
ATOM     78  F   UNL A   1      45.358  25.570  24.740  1.00  0.00    -0.203 F 
ATOM     79  C   UNL A   1      44.905  23.270  24.627  1.00  0.00     0.198 A 
ATOM     80  C   UNL A   1      43.010  22.359  25.765  1.00  0.00     0.198 A 
ATOM     81  F   UNL A   1      41.603  23.738  27.029  1.00  0.00    -0.203 F 
ATOM     82  F   UNL A   1      46.025  23.094  23.912  1.00  0.00    -0.200 F 
ATOM     83  C   UNL A   1      44.147  22.172  24.998  1.00  0.00     0.200 A 
ATOM     84  F   UNL A   1      42.288  21.298  26.155  1.00  0.00    -0.200 F 
ATOM     85  F   UNL A   1      44.536  20.936  24.658  1.00  0.00    -0.200 F 
ENDBRANCH  51  75
BRANCH  63  86
ATOM     86  C   UNL A   1      45.577  30.004  28.610  1.00  0.00     0.064 A 
ATOM     87  C   UNL A   1      44.677  30.721  27.806  1.00  0.00     0.173 A 
ATOM     88  C   UNL A   1      46.932  30.352  28.543  1.00  0.00     0.173 A 
ATOM     89  F   UNL A   1      43.359  30.483  27.866  1.00  0.00    -0.203 F 
ATOM     90  C   UNL A   1      45.125  31.731  26.956  1.00  0.00     0.198 A 
ATOM     91  C   UNL A   1      47.371  31.380  27.719  1.00  0.00     0.198 A 
ATOM     92  F   UNL A   1      47.826  29.714  29.315  1.00  0.00    -0.203 F 
ATOM     93  F   UNL A   1      44.253  32.400  26.187  1.00  0.00    -0.200 F 
ATOM     94  C   UNL A   1      46.470  32.065  26.920  1.00  0.00     0.200 A 
ATOM     95  F   UNL A   1      48.666  31.723  27.720  1.00  0.00    -0.200 F 
ATOM     96  F   UNL A   1      46.896  33.061  26.132  1.00  0.00    -0.200 F 
ENDBRANCH  63  86
ENDBRANCH  37  38
ENDBRANCH  30  32
ENDBRANCH  29  30
ENDBRANCH  28  29
ENDBRANCH  27  28
ENDBRANCH  26  27
ENDBRANCH   1  26
TORSDOF 17
ENDMDL
MODEL 3
REMARK VINA RESULT:     -11.9      0.936      1.545
REMARK SMILES Cc1nc2nc(CNC(=O)OC(C)(C)C)nn2c(C)c1CCC(=O)OCCOC(=O)c1ccc(-c2c3nc(c(-c4c(F)c(F)c(F)c(F)c4F)c4ccc([nH]4)c(-c4c(F)c(F)c(F)c(F)c4F)c4nc(c(-c5c(F)c(F)c(F)c(F)c5F)c5ccc2[nH]5)C=C4)C=C3)cc1
REMARK SMILES IDX 23 1 24 2 22 3 21 4 20 5 1 6 2 7 3 8 4 9 18 10 5 11 17 12
REMARK SMILES IDX 19 13 6 14 16 15 7 16 8 17 9 18 10 20 11 21 12 22 13 23
REMARK SMILES IDX 14 24 15 25 25 26 26 27 27 28 28 29 29 30 30 31 31 32 32 33
REMARK SMILES IDX 93 34 33 35 92 36 34 37 35 38 36 39 86 40 37 41 91 42 85 43
REMARK SMILES IDX 87 44 38 45 90 46 84 47 83 48 39 50 71 51 51 52 70 53 52 54
REMARK SMILES IDX 55 55 69 56 88 57 53 58 54 59 68 61 89 62 56 63 40 64 41 65
REMARK SMILES IDX 49 66 42 67 43 68 47 69 50 70 44 71 45 72 48 73 46 74 72 75
REMARK SMILES IDX 73 76 81 77 74 78 75 79 79 80 82 81 76 82 77 83 80 84 78 85
REMARK SMILES IDX 57 86 58 87 66 88 59 89 60 90 64 91 67 92 61 93 62 94 65 95
REMARK SMILES IDX 63 96
REMARK H PARENT 8 19 87 49 55 60
REMARK Flexibility Score: inf
ROOT
ATOM      1  C   UNL A   1      37.652  22.252  25.354  1.00  0.00     0.306 C 
ATOM      2  O   UNL A   1      37.510  23.414  25.719  1.00  0.00    -0.252 OA
ENDROOT
BRANCH   1   3
ATOM      3  C   UNL A   1      36.567  21.493  24.600  1.00  0.00     0.127 C 
BRANCH   3   4
ATOM      4  C   UNL A   1      35.504  20.688  25.375  1.00  0.00     0.051 C 
BRANCH   4   5
ATOM      5  C   UNL A   1      34.116  21.270  25.326  1.00  0.00    -0.005 A 
ATOM      6  C   UNL A   1      33.221  19.238  23.988  1.00  0.00     0.067 C 
ATOM      7  C   UNL A   1      33.076  20.694  24.382  1.00  0.00     0.046 A 
ATOM      8  N   UNL A   1      32.010  21.319  23.968  1.00  0.00    -0.216 NA
ATOM      9  C   UNL A   1      31.787  22.545  24.522  1.00  0.00     0.252 A 
ATOM     10  C   UNL A   1      33.655  22.294  26.079  1.00  0.00     0.048 A 
ATOM     11  N   UNL A   1      30.934  23.495  24.189  1.00  0.00    -0.192 NA
ATOM     12  N   UNL A   1      32.507  22.960  25.643  1.00  0.00    -0.201 N 
ATOM     13  C   UNL A   1      34.346  22.919  27.253  1.00  0.00     0.067 C 
ATOM     14  C   UNL A   1      31.130  24.454  25.150  1.00  0.00     0.172 A 
ATOM     15  N   UNL A   1      32.018  24.136  26.093  1.00  0.00    -0.148 NA
BRANCH  14  16
ATOM     16  C   UNL A   1      30.411  25.755  25.218  1.00  0.00     0.199 C 
BRANCH  16  17
ATOM     17  N   UNL A   1      30.806  26.654  24.161  1.00  0.00    -0.314 N 
ATOM     18  C   UNL A   1      31.874  27.494  24.237  1.00  0.00     0.408 C 
ATOM     19  H   UNL A   1      30.271  26.661  23.333  1.00  0.00     0.167 HD
ATOM     20  O   UNL A   1      32.203  28.211  23.310  1.00  0.00    -0.225 OA
BRANCH  18  21
ATOM     21  O   UNL A   1      32.468  27.431  25.452  1.00  0.00    -0.444 OA
BRANCH  21  22
ATOM     22  C   UNL A   1      32.412  28.538  26.379  1.00  0.00     0.106 C 
ATOM     23  C   UNL A   1      31.644  28.163  27.647  1.00  0.00     0.056 C 
ATOM     24  C   UNL A   1      33.820  29.065  26.678  1.00  0.00     0.056 C 
ATOM     25  C   UNL A   1      31.632  29.628  25.628  1.00  0.00     0.056 C 
ENDBRANCH  21  22
ENDBRANCH  18  21
ENDBRANCH  16  17
ENDBRANCH  14  16
ENDBRANCH   4   5
ENDBRANCH   3   4
ENDBRANCH   1   3
BRANCH   1  26
ATOM     26  O   UNL A   1      38.751  21.499  25.621  1.00  0.00    -0.462 OA
BRANCH  26  27
ATOM     27  C   UNL A   1      39.718  22.068  26.524  1.00  0.00     0.274 C 
BRANCH  27  28
ATOM     28  C   UNL A   1      41.139  21.625  26.186  1.00  0.00     0.275 C 
BRANCH  28  29
ATOM     29  O   UNL A   1      42.156  22.512  26.674  1.00  0.00    -0.458 OA
BRANCH  29  30
ATOM     30  C   UNL A   1      42.459  23.525  25.837  1.00  0.00     0.338 C 
ATOM     31  O   UNL A   1      43.051  23.456  24.775  1.00  0.00    -0.246 OA
BRANCH  30  32
ATOM     32  C   UNL A   1      42.174  24.828  26.431  1.00  0.00     0.060 A 
ATOM     33  C   UNL A   1      42.817  25.119  27.639  1.00  0.00     0.016 A 
ATOM     34  C   UNL A   1      41.185  25.664  25.899  1.00  0.00     0.016 A 
ATOM     35  C   UNL A   1      42.432  26.236  28.344  1.00  0.00     0.010 A 
ATOM     36  C   UNL A   1      40.807  26.789  26.600  1.00  0.00     0.010 A 
ATOM     37  C   UNL A   1      41.421  27.055  27.822  1.00  0.00    -0.014 A 
BRANCH  37  38
ATOM     38  C   UNL A   1      41.248  28.352  28.448  1.00  0.00     0.031 A 
ATOM     39  C   UNL A   1      42.347  29.278  28.071  1.00  0.00     0.074 A 
ATOM     40  C   UNL A   1      40.176  28.700  29.183  1.00  0.00     0.049 A 
ATOM     41  N   UNL A   1      43.275  29.733  28.842  1.00  0.00    -0.248 NA
ATOM     42  C   UNL A   1      42.573  29.558  26.640  1.00  0.00     0.031 C 
ATOM     43  C   UNL A   1      38.933  27.949  29.368  1.00  0.00     0.029 A 
ATOM     44  N   UNL A   1      39.939  29.858  29.861  1.00  0.00    -0.354 N 
ATOM     45  C   UNL A   1      44.072  30.543  28.036  1.00  0.00     0.074 A 
ATOM     46  C   UNL A   1      43.720  30.239  26.678  1.00  0.00     0.031 C 
ATOM     47  C   UNL A   1      37.995  28.761  29.909  1.00  0.00     0.029 A 
ATOM     48  C   UNL A   1      38.615  30.030  30.252  1.00  0.00     0.049 A 
ATOM     49  H   UNL A   1      40.644  30.516  30.060  1.00  0.00     0.167 HD
ATOM     50  C   UNL A   1      44.711  31.611  28.582  1.00  0.00     0.037 A 
ATOM     51  C   UNL A   1      38.083  31.156  30.787  1.00  0.00     0.037 A 
ATOM     52  C   UNL A   1      44.764  31.488  30.016  1.00  0.00     0.049 A 
ATOM     53  C   UNL A   1      39.199  31.936  31.365  1.00  0.00     0.074 A 
ATOM     54  C   UNL A   1      45.529  30.808  30.937  1.00  0.00     0.029 A 
ATOM     55  N   UNL A   1      43.603  31.855  30.639  1.00  0.00    -0.354 N 
ATOM     56  N   UNL A   1      39.876  31.547  32.409  1.00  0.00    -0.248 NA
ATOM     57  C   UNL A   1      39.806  33.010  30.583  1.00  0.00     0.031 C 
ATOM     58  C   UNL A   1      44.722  30.674  32.108  1.00  0.00     0.029 A 
ATOM     59  C   UNL A   1      43.506  31.313  31.890  1.00  0.00     0.049 A 
ATOM     60  H   UNL A   1      42.920  32.438  30.234  1.00  0.00     0.167 HD
ATOM     61  C   UNL A   1      41.151  32.013  32.172  1.00  0.00     0.074 A 
ATOM     62  C   UNL A   1      41.013  33.044  31.154  1.00  0.00     0.031 C 
ATOM     63  C   UNL A   1      42.234  31.288  32.568  1.00  0.00     0.037 A 
BRANCH  50  64
ATOM     64  C   UNL A   1      44.805  32.971  27.919  1.00  0.00     0.064 A 
ATOM     65  C   UNL A   1      46.059  33.417  27.454  1.00  0.00     0.173 A 
ATOM     66  C   UNL A   1      43.808  33.969  28.014  1.00  0.00     0.173 A 
ATOM     67  F   UNL A   1      47.091  32.565  27.349  1.00  0.00    -0.203 F 
ATOM     68  C   UNL A   1      46.308  34.764  27.169  1.00  0.00     0.198 A 
ATOM     69  C   UNL A   1      44.047  35.300  27.680  1.00  0.00     0.198 A 
ATOM     70  F   UNL A   1      42.602  33.731  28.539  1.00  0.00    -0.203 F 
ATOM     71  F   UNL A   1      47.546  35.158  26.840  1.00  0.00    -0.200 F 
ATOM     72  C   UNL A   1      45.302  35.705  27.286  1.00  0.00     0.200 A 
ATOM     73  F   UNL A   1      43.064  36.201  27.830  1.00  0.00    -0.200 F 
ATOM     74  F   UNL A   1      45.551  37.002  27.066  1.00  0.00    -0.200 F 
ENDBRANCH  50  64
BRANCH  51  75
ATOM     75  C   UNL A   1      36.738  31.756  30.637  1.00  0.00     0.064 A 
ATOM     76  C   UNL A   1      35.887  31.880  31.750  1.00  0.00     0.173 A 
ATOM     77  C   UNL A   1      36.414  32.529  29.508  1.00  0.00     0.173 A 
ATOM     78  F   UNL A   1      36.139  31.190  32.872  1.00  0.00    -0.203 F 
ATOM     79  C   UNL A   1      34.822  32.784  31.763  1.00  0.00     0.198 A 
ATOM     80  C   UNL A   1      35.346  33.430  29.521  1.00  0.00     0.198 A 
ATOM     81  F   UNL A   1      37.192  32.507  28.416  1.00  0.00    -0.203 F 
ATOM     82  F   UNL A   1      34.093  32.942  32.876  1.00  0.00    -0.200 F 
ATOM     83  C   UNL A   1      34.567  33.576  30.656  1.00  0.00     0.200 A 
ATOM     84  F   UNL A   1      35.125  34.215  28.456  1.00  0.00    -0.200 F 
ATOM     85  F   UNL A   1      33.605  34.509  30.699  1.00  0.00    -0.200 F 
ENDBRANCH  51  75
BRANCH  63  86
ATOM     86  C   UNL A   1      42.033  30.305  33.675  1.00  0.00     0.064 A 
ATOM     87  C   UNL A   1      41.660  28.964  33.495  1.00  0.00     0.173 A 
ATOM     88  C   UNL A   1      42.308  30.738  34.978  1.00  0.00     0.173 A 
ATOM     89  F   UNL A   1      41.444  28.467  32.269  1.00  0.00    -0.203 F 
ATOM     90  C   UNL A   1      41.546  28.101  34.584  1.00  0.00     0.198 A 
ATOM     91  C   UNL A   1      42.225  29.868  36.058  1.00  0.00     0.198 A 
ATOM     92  F   UNL A   1      42.697  32.004  35.196  1.00  0.00    -0.203 F 
ATOM     93  F   UNL A   1      41.179  26.825  34.397  1.00  0.00    -0.200 F 
ATOM     94  C   UNL A   1      41.838  28.552  35.862  1.00  0.00     0.200 A 
ATOM     95  F   UNL A   1      42.546  30.301  37.284  1.00  0.00    -0.200 F 
ATOM     96  F   UNL A   1      41.766  27.714  36.905  1.00  0.00    -0.200 F 
ENDBRANCH  63  86
ENDBRANCH  37  38
ENDBRANCH  30  32
ENDBRANCH  29  30
ENDBRANCH  28  29
ENDBRANCH  27  28
ENDBRANCH  26  27
ENDBRANCH   1  26
TORSDOF 17
ENDMDL
