MODEL 1
REMARK VINA RESULT:     -12.1      0.000      0.000
REMARK SMILES C[C@H](C(=O)OCCOC(=O)c1ccc(-c2c3nc(c(-c4c(F)c(F)c(F)c(F)c4F)c4ccc([nH]4)c(-c4c(F)c(F)c(F)c(F)c4F)c4nc(c(-c5c(F)c(F)c(F)c(F)c5F)c5ccc2[nH]5)C=C4)C=C3)cc1)c1ccc(C[C@@H]2CCC[C@H]2O)cc1
REMARK SMILES IDX 6 1 5 2 3 3 4 4 2 5 1 6 74 7 75 8 86 9 76 10 85 11 77 12
REMARK SMILES IDX 78 13 79 14 80 15 83 16 81 17 82 18 84 19 7 21 8 22 9 23
REMARK SMILES IDX 10 24 11 25 12 26 73 27 13 28 72 29 14 30 15 31 16 32 66 33
REMARK SMILES IDX 17 34 71 35 65 36 67 37 18 38 70 39 64 40 63 41 19 43 51 44
REMARK SMILES IDX 31 45 50 46 32 47 35 48 49 49 68 50 33 51 34 52 48 54 69 55
REMARK SMILES IDX 36 56 20 57 21 58 29 59 22 60 23 61 27 62 30 63 24 64 25 65
REMARK SMILES IDX 28 66 26 67 52 68 53 69 61 70 54 71 55 72 59 73 62 74 56 75
REMARK SMILES IDX 57 76 60 77 58 78 37 79 38 80 46 81 39 82 40 83 44 84 47 85
REMARK SMILES IDX 41 86 42 87 45 88 43 89
REMARK H PARENT 84 20 67 42 35 53
REMARK Flexibility Score: inf
ROOT
ATOM      1  C   UNL A   1      31.678  28.361  27.044  1.00  0.00     0.274 C 
ENDROOT
BRANCH   1   2
ATOM      2  O   UNL A   1      32.476  27.239  26.624  1.00  0.00    -0.462 OA
BRANCH   2   3
ATOM      3  C   UNL A   1      31.808  26.167  26.094  1.00  0.00     0.313 C 
ATOM      4  O   UNL A   1      30.740  25.748  26.516  1.00  0.00    -0.252 OA
BRANCH   3   5
ATOM      5  C   UNL A   1      32.631  25.565  24.954  1.00  0.00     0.126 C 
ATOM      6  C   UNL A   1      34.002  26.246  24.963  1.00  0.00     0.025 C 
BRANCH   5   7
ATOM      7  C   UNL A   1      32.722  24.036  24.874  1.00  0.00    -0.034 A 
ATOM      8  C   UNL A   1      33.039  23.310  26.035  1.00  0.00     0.005 A 
ATOM      9  C   UNL A   1      32.615  23.302  23.687  1.00  0.00     0.005 A 
ATOM     10  C   UNL A   1      33.301  21.932  25.997  1.00  0.00     0.004 A 
ATOM     11  C   UNL A   1      32.906  21.928  23.653  1.00  0.00     0.004 A 
ATOM     12  C   UNL A   1      33.329  21.234  24.793  1.00  0.00    -0.048 A 
BRANCH  12  13
ATOM     13  C   UNL A   1      33.711  19.772  24.688  1.00  0.00     0.041 C 
BRANCH  13  14
ATOM     14  C   UNL A   1      32.710  18.687  24.202  1.00  0.00     0.022 C 
ATOM     15  C   UNL A   1      32.567  17.459  25.108  1.00  0.00     0.007 C 
ATOM     16  C   UNL A   1      32.991  18.082  22.827  1.00  0.00     0.117 C 
ATOM     17  C   UNL A   1      33.322  16.309  24.430  1.00  0.00     0.003 C 
ATOM     18  C   UNL A   1      33.838  16.846  23.098  1.00  0.00     0.032 C 
BRANCH  16  19
ATOM     19  O   UNL A   1      31.772  17.677  22.203  1.00  0.00    -0.393 OA
ATOM     20  H   UNL A   1      31.843  17.804  21.244  1.00  0.00     0.210 HD
ENDBRANCH  16  19
ENDBRANCH  13  14
ENDBRANCH  12  13
ENDBRANCH   5   7
ENDBRANCH   3   5
ENDBRANCH   2   3
ENDBRANCH   1   2
BRANCH   1  21
ATOM     21  C   UNL A   1      31.760  29.497  26.019  1.00  0.00     0.275 C 
BRANCH  21  22
ATOM     22  O   UNL A   1      33.074  30.088  25.979  1.00  0.00    -0.458 OA
BRANCH  22  23
ATOM     23  C   UNL A   1      33.259  31.115  26.843  1.00  0.00     0.338 C 
ATOM     24  O   UNL A   1      32.483  32.031  27.071  1.00  0.00    -0.246 OA
BRANCH  23  25
ATOM     25  C   UNL A   1      34.488  30.901  27.629  1.00  0.00     0.060 A 
ATOM     26  C   UNL A   1      34.769  29.593  28.005  1.00  0.00     0.016 A 
ATOM     27  C   UNL A   1      35.344  31.936  28.023  1.00  0.00     0.016 A 
ATOM     28  C   UNL A   1      35.923  29.312  28.727  1.00  0.00     0.010 A 
ATOM     29  C   UNL A   1      36.488  31.648  28.791  1.00  0.00     0.010 A 
ATOM     30  C   UNL A   1      36.790  30.326  29.145  1.00  0.00    -0.014 A 
BRANCH  30  31
ATOM     31  C   UNL A   1      37.942  29.961  30.014  1.00  0.00     0.031 A 
ATOM     32  C   UNL A   1      39.066  29.138  29.448  1.00  0.00     0.074 A 
ATOM     33  C   UNL A   1      38.067  30.475  31.253  1.00  0.00     0.049 A 
ATOM     34  N   UNL A   1      40.160  28.710  30.027  1.00  0.00    -0.248 NA
ATOM     35  C   UNL A   1      38.935  28.748  28.037  1.00  0.00     0.031 C 
ATOM     36  C   UNL A   1      37.109  31.373  31.887  1.00  0.00     0.029 A 
ATOM     37  N   UNL A   1      39.072  30.345  32.183  1.00  0.00    -0.354 N 
ATOM     38  C   UNL A   1      40.847  27.997  29.055  1.00  0.00     0.074 A 
ATOM     39  C   UNL A   1      40.039  28.038  27.852  1.00  0.00     0.031 C 
ATOM     40  C   UNL A   1      37.587  31.745  33.088  1.00  0.00     0.029 A 
ATOM     41  C   UNL A   1      38.852  31.055  33.339  1.00  0.00     0.049 A 
ATOM     42  H   UNL A   1      39.875  29.796  32.034  1.00  0.00     0.167 HD
ATOM     43  C   UNL A   1      42.036  27.355  29.158  1.00  0.00     0.037 A 
ATOM     44  C   UNL A   1      39.571  31.117  34.479  1.00  0.00     0.037 A 
ATOM     45  C   UNL A   1      42.848  27.317  30.347  1.00  0.00     0.049 A 
ATOM     46  C   UNL A   1      40.836  30.299  34.605  1.00  0.00     0.074 A 
ATOM     47  C   UNL A   1      44.044  26.653  30.555  1.00  0.00     0.029 A 
ATOM     48  N   UNL A   1      42.548  27.976  31.532  1.00  0.00    -0.354 N 
ATOM     49  N   UNL A   1      41.451  29.574  33.704  1.00  0.00    -0.248 NA
ATOM     50  C   UNL A   1      41.493  30.291  35.922  1.00  0.00     0.031 C 
ATOM     51  C   UNL A   1      44.432  26.849  31.884  1.00  0.00     0.029 A 
ATOM     52  C   UNL A   1      43.516  27.695  32.486  1.00  0.00     0.049 A 
ATOM     53  H   UNL A   1      41.765  28.554  31.673  1.00  0.00     0.167 HD
ATOM     54  C   UNL A   1      42.574  29.047  34.332  1.00  0.00     0.074 A 
ATOM     55  C   UNL A   1      42.569  29.552  35.688  1.00  0.00     0.031 C 
ATOM     56  C   UNL A   1      43.517  28.212  33.831  1.00  0.00     0.037 A 
BRANCH  43  57
ATOM     57  C   UNL A   1      42.495  26.562  27.969  1.00  0.00     0.064 A 
ATOM     58  C   UNL A   1      42.089  25.240  27.745  1.00  0.00     0.173 A 
ATOM     59  C   UNL A   1      43.346  27.158  27.022  1.00  0.00     0.173 A 
ATOM     60  F   UNL A   1      41.290  24.619  28.626  1.00  0.00    -0.203 F 
ATOM     61  C   UNL A   1      42.539  24.533  26.633  1.00  0.00     0.198 A 
ATOM     62  C   UNL A   1      43.767  26.459  25.895  1.00  0.00     0.198 A 
ATOM     63  F   UNL A   1      43.760  28.423  27.186  1.00  0.00    -0.203 F 
ATOM     64  F   UNL A   1      42.180  23.253  26.464  1.00  0.00    -0.200 F 
ATOM     65  C   UNL A   1      43.371  25.145  25.706  1.00  0.00     0.200 A 
ATOM     66  F   UNL A   1      44.558  27.058  24.995  1.00  0.00    -0.200 F 
ATOM     67  F   UNL A   1      43.798  24.464  24.633  1.00  0.00    -0.200 F 
ENDBRANCH  43  57
BRANCH  44  68
ATOM     68  C   UNL A   1      39.096  31.932  35.634  1.00  0.00     0.064 A 
ATOM     69  C   UNL A   1      39.530  33.254  35.820  1.00  0.00     0.173 A 
ATOM     70  C   UNL A   1      38.254  31.384  36.613  1.00  0.00     0.173 A 
ATOM     71  F   UNL A   1      40.366  33.816  34.934  1.00  0.00    -0.203 F 
ATOM     72  C   UNL A   1      39.161  33.983  36.950  1.00  0.00     0.198 A 
ATOM     73  C   UNL A   1      37.855  32.127  37.723  1.00  0.00     0.198 A 
ATOM     74  F   UNL A   1      37.821  30.121  36.498  1.00  0.00    -0.203 F 
ATOM     75  F   UNL A   1      39.648  35.217  37.137  1.00  0.00    -0.200 F 
ATOM     76  C   UNL A   1      38.318  33.421  37.897  1.00  0.00     0.200 A 
ATOM     77  F   UNL A   1      37.032  31.582  38.629  1.00  0.00    -0.200 F 
ATOM     78  F   UNL A   1      37.967  34.120  38.986  1.00  0.00    -0.200 F 
ENDBRANCH  44  68
BRANCH  56  79
ATOM     79  C   UNL A   1      44.652  27.815  34.735  1.00  0.00     0.064 A 
ATOM     80  C   UNL A   1      45.818  28.588  34.845  1.00  0.00     0.173 A 
ATOM     81  C   UNL A   1      44.551  26.669  35.540  1.00  0.00     0.173 A 
ATOM     82  F   UNL A   1      45.974  29.686  34.092  1.00  0.00    -0.203 F 
ATOM     83  C   UNL A   1      46.848  28.215  35.707  1.00  0.00     0.198 A 
ATOM     84  C   UNL A   1      45.568  26.318  36.425  1.00  0.00     0.198 A 
ATOM     85  F   UNL A   1      43.456  25.896  35.483  1.00  0.00    -0.203 F 
ATOM     86  F   UNL A   1      47.973  28.944  35.759  1.00  0.00    -0.200 F 
ATOM     87  C   UNL A   1      46.719  27.087  36.502  1.00  0.00     0.200 A 
ATOM     88  F   UNL A   1      45.433  25.237  37.205  1.00  0.00    -0.200 F 
ATOM     89  F   UNL A   1      47.706  26.737  37.337  1.00  0.00    -0.200 F 
ENDBRANCH  56  79
ENDBRANCH  30  31
ENDBRANCH  23  25
ENDBRANCH  22  23
ENDBRANCH  21  22
ENDBRANCH   1  21
TORSDOF 15
ENDMDL
MODEL 2
REMARK VINA RESULT:     -12.0      3.602      9.033
REMARK SMILES C[C@H](C(=O)OCCOC(=O)c1ccc(-c2c3nc(c(-c4c(F)c(F)c(F)c(F)c4F)c4ccc([nH]4)c(-c4c(F)c(F)c(F)c(F)c4F)c4nc(c(-c5c(F)c(F)c(F)c(F)c5F)c5ccc2[nH]5)C=C4)C=C3)cc1)c1ccc(C[C@@H]2CCC[C@H]2O)cc1
REMARK SMILES IDX 6 1 5 2 3 3 4 4 2 5 1 6 74 7 75 8 86 9 76 10 85 11 77 12
REMARK SMILES IDX 78 13 79 14 80 15 83 16 81 17 82 18 84 19 7 21 8 22 9 23
REMARK SMILES IDX 10 24 11 25 12 26 73 27 13 28 72 29 14 30 15 31 16 32 66 33
REMARK SMILES IDX 17 34 71 35 65 36 67 37 18 38 70 39 64 40 63 41 19 43 51 44
REMARK SMILES IDX 31 45 50 46 32 47 35 48 49 49 68 50 33 51 34 52 48 54 69 55
REMARK SMILES IDX 36 56 20 57 21 58 29 59 22 60 23 61 27 62 30 63 24 64 25 65
REMARK SMILES IDX 28 66 26 67 52 68 53 69 61 70 54 71 55 72 59 73 62 74 56 75
REMARK SMILES IDX 57 76 60 77 58 78 37 79 38 80 46 81 39 82 40 83 44 84 47 85
REMARK SMILES IDX 41 86 42 87 45 88 43 89
REMARK H PARENT 84 20 67 42 35 53
REMARK Flexibility Score: inf
ROOT
ATOM      1  C   UNL A   1      33.246  35.103  28.770  1.00  0.00     0.274 C 
ENDROOT
BRANCH   1   2
ATOM      2  O   UNL A   1      34.494  34.452  29.075  1.00  0.00    -0.462 OA
BRANCH   2   3
ATOM      3  C   UNL A   1      34.460  33.094  29.245  1.00  0.00     0.313 C 
ATOM      4  O   UNL A   1      34.173  32.542  30.298  1.00  0.00    -0.252 OA
BRANCH   3   5
ATOM      5  C   UNL A   1      34.887  32.405  27.948  1.00  0.00     0.126 C 
ATOM      6  C   UNL A   1      36.417  32.344  27.939  1.00  0.00     0.025 C 
BRANCH   5   7
ATOM      7  C   UNL A   1      34.232  31.061  27.608  1.00  0.00    -0.034 A 
ATOM      8  C   UNL A   1      35.028  29.903  27.578  1.00  0.00     0.005 A 
ATOM      9  C   UNL A   1      32.898  30.912  27.214  1.00  0.00     0.005 A 
ATOM     10  C   UNL A   1      34.531  28.675  27.114  1.00  0.00     0.004 A 
ATOM     11  C   UNL A   1      32.415  29.687  26.725  1.00  0.00     0.004 A 
ATOM     12  C   UNL A   1      33.243  28.566  26.595  1.00  0.00    -0.048 A 
BRANCH  12  13
ATOM     13  C   UNL A   1      32.698  27.291  25.985  1.00  0.00     0.041 C 
BRANCH  13  14
ATOM     14  C   UNL A   1      32.698  27.041  24.451  1.00  0.00     0.022 C 
ATOM     15  C   UNL A   1      33.852  27.680  23.671  1.00  0.00     0.007 C 
ATOM     16  C   UNL A   1      31.456  27.511  23.695  1.00  0.00     0.117 C 
ATOM     17  C   UNL A   1      33.279  28.898  22.937  1.00  0.00     0.003 C 
ATOM     18  C   UNL A   1      31.781  28.924  23.228  1.00  0.00     0.032 C 
BRANCH  16  19
ATOM     19  O   UNL A   1      31.229  26.689  22.550  1.00  0.00    -0.393 OA
ATOM     20  H   UNL A   1      30.860  25.838  22.832  1.00  0.00     0.210 HD
ENDBRANCH  16  19
ENDBRANCH  13  14
ENDBRANCH  12  13
ENDBRANCH   5   7
ENDBRANCH   3   5
ENDBRANCH   2   3
ENDBRANCH   1   2
BRANCH   1  21
ATOM     21  C   UNL A   1      32.893  36.128  29.852  1.00  0.00     0.275 C 
BRANCH  21  22
ATOM     22  O   UNL A   1      32.248  35.512  30.983  1.00  0.00    -0.458 OA
BRANCH  22  23
ATOM     23  C   UNL A   1      32.699  35.931  32.190  1.00  0.00     0.338 C 
ATOM     24  O   UNL A   1      32.168  36.748  32.928  1.00  0.00    -0.246 OA
BRANCH  23  25
ATOM     25  C   UNL A   1      33.869  35.133  32.600  1.00  0.00     0.060 A 
ATOM     26  C   UNL A   1      35.120  35.656  32.293  1.00  0.00     0.016 A 
ATOM     27  C   UNL A   1      33.773  33.895  33.245  1.00  0.00     0.016 A 
ATOM     28  C   UNL A   1      36.269  34.972  32.670  1.00  0.00     0.010 A 
ATOM     29  C   UNL A   1      34.942  33.188  33.585  1.00  0.00     0.010 A 
ATOM     30  C   UNL A   1      36.205  33.728  33.304  1.00  0.00    -0.014 A 
BRANCH  30  31
ATOM     31  C   UNL A   1      37.476  33.001  33.572  1.00  0.00     0.031 A 
ATOM     32  C   UNL A   1      38.172  33.188  34.891  1.00  0.00     0.074 A 
ATOM     33  C   UNL A   1      37.937  32.071  32.714  1.00  0.00     0.049 A 
ATOM     34  N   UNL A   1      39.285  32.654  35.330  1.00  0.00    -0.248 NA
ATOM     35  C   UNL A   1      37.521  34.099  35.843  1.00  0.00     0.031 C 
ATOM     36  C   UNL A   1      37.305  31.709  31.451  1.00  0.00     0.029 A 
ATOM     37  N   UNL A   1      39.025  31.232  32.797  1.00  0.00    -0.354 N 
ATOM     38  C   UNL A   1      39.472  33.167  36.606  1.00  0.00     0.074 A 
ATOM     39  C   UNL A   1      38.365  34.066  36.865  1.00  0.00     0.031 C 
ATOM     40  C   UNL A   1      37.992  30.697  30.892  1.00  0.00     0.029 A 
ATOM     41  C   UNL A   1      39.155  30.386  31.722  1.00  0.00     0.049 A 
ATOM     42  H   UNL A   1      39.651  31.237  33.557  1.00  0.00     0.167 HD
ATOM     43  C   UNL A   1      40.481  32.922  37.477  1.00  0.00     0.037 A 
ATOM     44  C   UNL A   1      40.117  29.487  31.427  1.00  0.00     0.037 A 
ATOM     45  C   UNL A   1      41.579  32.024  37.229  1.00  0.00     0.049 A 
ATOM     46  C   UNL A   1      41.290  29.318  32.364  1.00  0.00     0.074 A 
ATOM     47  C   UNL A   1      42.669  31.750  38.037  1.00  0.00     0.029 A 
ATOM     48  N   UNL A   1      41.726  31.249  36.087  1.00  0.00    -0.354 N 
ATOM     49  N   UNL A   1      41.496  29.853  33.543  1.00  0.00    -0.248 NA
ATOM     50  C   UNL A   1      42.379  28.436  31.915  1.00  0.00     0.031 C 
ATOM     51  C   UNL A   1      43.512  30.867  37.355  1.00  0.00     0.029 A 
ATOM     52  C   UNL A   1      42.912  30.532  36.152  1.00  0.00     0.049 A 
ATOM     53  H   UNL A   1      41.085  31.215  35.342  1.00  0.00     0.167 HD
ATOM     54  C   UNL A   1      42.718  29.356  33.984  1.00  0.00     0.074 A 
ATOM     55  C   UNL A   1      43.199  28.458  32.957  1.00  0.00     0.031 C 
ATOM     56  C   UNL A   1      43.382  29.627  35.134  1.00  0.00     0.037 A 
BRANCH  43  57
ATOM     57  C   UNL A   1      40.490  33.706  38.757  1.00  0.00     0.064 A 
ATOM     58  C   UNL A   1      39.772  33.302  39.890  1.00  0.00     0.173 A 
ATOM     59  C   UNL A   1      41.259  34.879  38.849  1.00  0.00     0.173 A 
ATOM     60  F   UNL A   1      39.009  32.199  39.851  1.00  0.00    -0.203 F 
ATOM     61  C   UNL A   1      39.800  34.057  41.060  1.00  0.00     0.198 A 
ATOM     62  C   UNL A   1      41.310  35.612  40.030  1.00  0.00     0.198 A 
ATOM     63  F   UNL A   1      41.969  35.307  37.795  1.00  0.00    -0.203 F 
ATOM     64  F   UNL A   1      39.065  33.681  42.117  1.00  0.00    -0.200 F 
ATOM     65  C   UNL A   1      40.574  35.207  41.132  1.00  0.00     0.200 A 
ATOM     66  F   UNL A   1      42.071  36.714  40.100  1.00  0.00    -0.200 F 
ATOM     67  F   UNL A   1      40.604  35.928  42.261  1.00  0.00    -0.200 F 
ENDBRANCH  43  57
BRANCH  44  68
ATOM     68  C   UNL A   1      40.065  28.709  30.156  1.00  0.00     0.064 A 
ATOM     69  C   UNL A   1      39.435  27.456  30.093  1.00  0.00     0.173 A 
ATOM     70  C   UNL A   1      40.705  29.168  28.995  1.00  0.00     0.173 A 
ATOM     71  F   UNL A   1      38.840  26.951  31.184  1.00  0.00    -0.203 F 
ATOM     72  C   UNL A   1      39.469  26.687  28.931  1.00  0.00     0.198 A 
ATOM     73  C   UNL A   1      40.706  28.416  27.822  1.00  0.00     0.198 A 
ATOM     74  F   UNL A   1      41.339  30.350  28.998  1.00  0.00    -0.203 F 
ATOM     75  F   UNL A   1      38.920  25.465  28.922  1.00  0.00    -0.200 F 
ATOM     76  C   UNL A   1      40.099  27.171  27.794  1.00  0.00     0.200 A 
ATOM     77  F   UNL A   1      41.307  28.893  26.724  1.00  0.00    -0.200 F 
ATOM     78  F   UNL A   1      40.136  26.429  26.678  1.00  0.00    -0.200 F 
ENDBRANCH  44  68
BRANCH  56  79
ATOM     79  C   UNL A   1      44.689  28.920  35.372  1.00  0.00     0.064 A 
ATOM     80  C   UNL A   1      45.916  29.478  34.982  1.00  0.00     0.173 A 
ATOM     81  C   UNL A   1      44.718  27.688  36.045  1.00  0.00     0.173 A 
ATOM     82  F   UNL A   1      45.948  30.647  34.324  1.00  0.00    -0.203 F 
ATOM     83  C   UNL A   1      47.117  28.818  35.233  1.00  0.00     0.198 A 
ATOM     84  C   UNL A   1      45.922  27.048  36.325  1.00  0.00     0.198 A 
ATOM     85  F   UNL A   1      43.576  27.112  36.450  1.00  0.00    -0.203 F 
ATOM     86  F   UNL A   1      48.274  29.348  34.807  1.00  0.00    -0.200 F 
ATOM     87  C   UNL A   1      47.120  27.609  35.912  1.00  0.00     0.200 A 
ATOM     88  F   UNL A   1      45.923  25.888  36.997  1.00  0.00    -0.200 F 
ATOM     89  F   UNL A   1      48.277  26.981  36.162  1.00  0.00    -0.200 F 
ENDBRANCH  56  79
ENDBRANCH  30  31
ENDBRANCH  23  25
ENDBRANCH  22  23
ENDBRANCH  21  22
ENDBRANCH   1  21
TORSDOF 15
ENDMDL
MODEL 3
REMARK VINA RESULT:     -12.0      0.606      1.841
REMARK SMILES C[C@H](C(=O)OCCOC(=O)c1ccc(-c2c3nc(c(-c4c(F)c(F)c(F)c(F)c4F)c4ccc([nH]4)c(-c4c(F)c(F)c(F)c(F)c4F)c4nc(c(-c5c(F)c(F)c(F)c(F)c5F)c5ccc2[nH]5)C=C4)C=C3)cc1)c1ccc(C[C@@H]2CCC[C@H]2O)cc1
REMARK SMILES IDX 6 1 5 2 3 3 4 4 2 5 1 6 74 7 75 8 86 9 76 10 85 11 77 12
REMARK SMILES IDX 78 13 79 14 80 15 83 16 81 17 82 18 84 19 7 21 8 22 9 23
REMARK SMILES IDX 10 24 11 25 12 26 73 27 13 28 72 29 14 30 15 31 16 32 66 33
REMARK SMILES IDX 17 34 71 35 65 36 67 37 18 38 70 39 64 40 63 41 19 43 51 44
REMARK SMILES IDX 31 45 50 46 32 47 35 48 49 49 68 50 33 51 34 52 48 54 69 55
REMARK SMILES IDX 36 56 20 57 21 58 29 59 22 60 23 61 27 62 30 63 24 64 25 65
REMARK SMILES IDX 28 66 26 67 52 68 53 69 61 70 54 71 55 72 59 73 62 74 56 75
REMARK SMILES IDX 57 76 60 77 58 78 37 79 38 80 46 81 39 82 40 83 44 84 47 85
REMARK SMILES IDX 41 86 42 87 45 88 43 89
REMARK H PARENT 84 20 67 42 35 53
REMARK Flexibility Score: inf
ROOT
ATOM      1  C   UNL A   1      31.940  28.307  24.746  1.00  0.00     0.274 C 
ENDROOT
BRANCH   1   2
ATOM      2  O   UNL A   1      31.466  27.277  25.634  1.00  0.00    -0.462 OA
BRANCH   2   3
ATOM      3  C   UNL A   1      32.388  26.365  26.074  1.00  0.00     0.313 C 
ATOM      4  O   UNL A   1      33.591  26.577  26.127  1.00  0.00    -0.252 OA
BRANCH   3   5
ATOM      5  C   UNL A   1      31.683  25.053  26.422  1.00  0.00     0.126 C 
ATOM      6  C   UNL A   1      30.201  25.218  26.075  1.00  0.00     0.025 C 
BRANCH   5   7
ATOM      7  C   UNL A   1      32.287  23.754  25.874  1.00  0.00    -0.034 A 
ATOM      8  C   UNL A   1      31.495  22.923  25.065  1.00  0.00     0.005 A 
ATOM      9  C   UNL A   1      33.557  23.273  26.211  1.00  0.00     0.005 A 
ATOM     10  C   UNL A   1      31.925  21.647  24.669  1.00  0.00     0.004 A 
ATOM     11  C   UNL A   1      33.970  21.984  25.834  1.00  0.00     0.004 A 
ATOM     12  C   UNL A   1      33.131  21.118  25.122  1.00  0.00    -0.048 A 
BRANCH  12  13
ATOM     13  C   UNL A   1      33.590  19.708  24.811  1.00  0.00     0.041 C 
BRANCH  13  14
ATOM     14  C   UNL A   1      32.626  18.631  24.240  1.00  0.00     0.022 C 
ATOM     15  C   UNL A   1      32.434  17.383  25.108  1.00  0.00     0.007 C 
ATOM     16  C   UNL A   1      32.995  18.058  22.872  1.00  0.00     0.117 C 
ATOM     17  C   UNL A   1      33.235  16.251  24.453  1.00  0.00     0.003 C 
ATOM     18  C   UNL A   1      33.830  16.820  23.167  1.00  0.00     0.032 C 
BRANCH  16  19
ATOM     19  O   UNL A   1      31.819  17.663  22.165  1.00  0.00    -0.393 OA
ATOM     20  H   UNL A   1      31.223  18.424  22.078  1.00  0.00     0.210 HD
ENDBRANCH  16  19
ENDBRANCH  13  14
ENDBRANCH  12  13
ENDBRANCH   5   7
ENDBRANCH   3   5
ENDBRANCH   2   3
ENDBRANCH   1   2
BRANCH   1  21
ATOM     21  C   UNL A   1      31.888  29.676  25.430  1.00  0.00     0.275 C 
BRANCH  21  22
ATOM     22  O   UNL A   1      33.207  30.183  25.714  1.00  0.00    -0.458 OA
BRANCH  22  23
ATOM     23  C   UNL A   1      33.268  31.054  26.749  1.00  0.00     0.338 C 
ATOM     24  O   UNL A   1      32.388  31.818  27.119  1.00  0.00    -0.246 OA
BRANCH  23  25
ATOM     25  C   UNL A   1      34.513  30.850  27.512  1.00  0.00     0.060 A 
ATOM     26  C   UNL A   1      34.777  29.555  27.942  1.00  0.00     0.016 A 
ATOM     27  C   UNL A   1      35.402  31.883  27.833  1.00  0.00     0.016 A 
ATOM     28  C   UNL A   1      35.945  29.282  28.645  1.00  0.00     0.010 A 
ATOM     29  C   UNL A   1      36.561  31.605  28.583  1.00  0.00     0.010 A 
ATOM     30  C   UNL A   1      36.844  30.294  28.990  1.00  0.00    -0.014 A 
BRANCH  30  31
ATOM     31  C   UNL A   1      38.012  29.945  29.844  1.00  0.00     0.031 A 
ATOM     32  C   UNL A   1      39.117  29.097  29.278  1.00  0.00     0.074 A 
ATOM     33  C   UNL A   1      38.167  30.491  31.066  1.00  0.00     0.049 A 
ATOM     34  N   UNL A   1      40.220  28.677  29.845  1.00  0.00    -0.248 NA
ATOM     35  C   UNL A   1      38.953  28.670  27.881  1.00  0.00     0.031 C 
ATOM     36  C   UNL A   1      37.230  31.414  31.695  1.00  0.00     0.029 A 
ATOM     37  N   UNL A   1      39.191  30.380  31.977  1.00  0.00    -0.354 N 
ATOM     38  C   UNL A   1      40.881  27.932  28.879  1.00  0.00     0.074 A 
ATOM     39  C   UNL A   1      40.048  27.946  27.693  1.00  0.00     0.031 C 
ATOM     40  C   UNL A   1      37.736  31.816  32.875  1.00  0.00     0.029 A 
ATOM     41  C   UNL A   1      39.001  31.123  33.117  1.00  0.00     0.049 A 
ATOM     42  H   UNL A   1      39.987  29.820  31.827  1.00  0.00     0.167 HD
ATOM     43  C   UNL A   1      42.067  27.283  28.975  1.00  0.00     0.037 A 
ATOM     44  C   UNL A   1      39.746  31.210  34.240  1.00  0.00     0.037 A 
ATOM     45  C   UNL A   1      42.904  27.272  30.147  1.00  0.00     0.049 A 
ATOM     46  C   UNL A   1      41.006  30.387  34.362  1.00  0.00     0.074 A 
ATOM     47  C   UNL A   1      44.100  26.604  30.348  1.00  0.00     0.029 A 
ATOM     48  N   UNL A   1      42.635  27.965  31.319  1.00  0.00    -0.354 N 
ATOM     49  N   UNL A   1      41.597  29.632  33.468  1.00  0.00    -0.248 NA
ATOM     50  C   UNL A   1      41.692  30.410  35.664  1.00  0.00     0.031 C 
ATOM     51  C   UNL A   1      44.518  26.834  31.662  1.00  0.00     0.029 A 
ATOM     52  C   UNL A   1      43.621  27.704  32.260  1.00  0.00     0.049 A 
ATOM     53  H   UNL A   1      41.859  28.554  31.461  1.00  0.00     0.167 HD
ATOM     54  C   UNL A   1      42.729  29.113  34.087  1.00  0.00     0.074 A 
ATOM     55  C   UNL A   1      42.757  29.656  35.428  1.00  0.00     0.031 C 
ATOM     56  C   UNL A   1      43.655  28.257  33.590  1.00  0.00     0.037 A 
BRANCH  43  57
ATOM     57  C   UNL A   1      42.495  26.454  27.799  1.00  0.00     0.064 A 
ATOM     58  C   UNL A   1      42.013  25.157  27.579  1.00  0.00     0.173 A 
ATOM     59  C   UNL A   1      43.394  26.989  26.860  1.00  0.00     0.173 A 
ATOM     60  F   UNL A   1      41.165  24.592  28.452  1.00  0.00    -0.203 F 
ATOM     61  C   UNL A   1      42.435  24.415  26.479  1.00  0.00     0.198 A 
ATOM     62  C   UNL A   1      43.788  26.257  25.745  1.00  0.00     0.198 A 
ATOM     63  F   UNL A   1      43.881  28.229  27.021  1.00  0.00    -0.203 F 
ATOM     64  F   UNL A   1      42.002  23.157  26.314  1.00  0.00    -0.200 F 
ATOM     65  C   UNL A   1      43.316  24.967  25.560  1.00  0.00     0.200 A 
ATOM     66  F   UNL A   1      44.627  26.800  24.852  1.00  0.00    -0.200 F 
ATOM     67  F   UNL A   1      43.717  24.254  24.498  1.00  0.00    -0.200 F 
ENDBRANCH  43  57
BRANCH  44  68
ATOM     68  C   UNL A   1      39.301  32.061  35.381  1.00  0.00     0.064 A 
ATOM     69  C   UNL A   1      38.482  31.547  36.399  1.00  0.00     0.173 A 
ATOM     70  C   UNL A   1      39.628  33.424  35.443  1.00  0.00     0.173 A 
ATOM     71  F   UNL A   1      38.107  30.259  36.370  1.00  0.00    -0.203 F 
ATOM     72  C   UNL A   1      37.990  32.367  37.414  1.00  0.00     0.198 A 
ATOM     73  C   UNL A   1      39.167  34.234  36.479  1.00  0.00     0.198 A 
ATOM     74  F   UNL A   1      40.394  33.977  34.490  1.00  0.00    -0.203 F 
ATOM     75  F   UNL A   1      37.152  31.864  38.331  1.00  0.00    -0.200 F 
ATOM     76  C   UNL A   1      38.338  33.708  37.456  1.00  0.00     0.200 A 
ATOM     77  F   UNL A   1      39.516  35.527  36.520  1.00  0.00    -0.200 F 
ATOM     78  F   UNL A   1      37.860  34.497  38.429  1.00  0.00    -0.200 F 
ENDBRANCH  44  68
BRANCH  56  79
ATOM     79  C   UNL A   1      44.806  27.876  34.479  1.00  0.00     0.064 A 
ATOM     80  C   UNL A   1      44.780  26.718  35.271  1.00  0.00     0.173 A 
ATOM     81  C   UNL A   1      45.974  28.656  34.503  1.00  0.00     0.173 A 
ATOM     82  F   UNL A   1      43.687  25.942  35.297  1.00  0.00    -0.203 F 
ATOM     83  C   UNL A   1      45.868  26.370  36.070  1.00  0.00     0.198 A 
ATOM     84  C   UNL A   1      47.071  28.287  35.276  1.00  0.00     0.198 A 
ATOM     85  F   UNL A   1      46.058  29.770  33.760  1.00  0.00    -0.203 F 
ATOM     86  F   UNL A   1      45.801  25.284  36.854  1.00  0.00    -0.200 F 
ATOM     87  C   UNL A   1      47.015  27.148  36.065  1.00  0.00     0.200 A 
ATOM     88  F   UNL A   1      48.185  29.032  35.257  1.00  0.00    -0.200 F 
ATOM     89  F   UNL A   1      48.063  26.806  36.826  1.00  0.00    -0.200 F 
ENDBRANCH  56  79
ENDBRANCH  30  31
ENDBRANCH  23  25
ENDBRANCH  22  23
ENDBRANCH  21  22
ENDBRANCH   1  21
TORSDOF 15
ENDMDL
