MODEL 1
REMARK VINA RESULT:      -9.4      0.000      0.000
REMARK SMILES CCC(CC)[C@@H](C)[NH2+][C@@H](C)[C@@H](C)C(=O)OCCOC(=O)c1ccc(-c2c3nc(c(-c4c(F)c(F)c(F)c(F)c4F)c4ccc([nH]4)c(-c4c(F)c(F)c(F)c(F)c4F)c4nc(c(-c5c(F)c(F)c(F)c(F)c5F)c5ccc2[nH]5)C=C4)C=C3)cc1
REMARK SMILES IDX 15 1 13 2 14 3 11 4 12 5 9 6 10 7 8 8 6 11 7 12 3 13 2 14
REMARK SMILES IDX 1 15 4 16 5 17 16 18 17 19 18 20 19 21 20 22 21 23 22 24
REMARK SMILES IDX 83 25 23 26 82 27 24 28 25 29 26 30 76 31 27 32 81 33 75 34
REMARK SMILES IDX 77 35 28 36 80 37 74 38 73 39 29 41 61 42 41 43 60 44 42 45
REMARK SMILES IDX 45 46 59 47 78 48 43 49 44 50 58 52 79 53 46 54 30 55 31 56
REMARK SMILES IDX 39 57 32 58 33 59 37 60 40 61 34 62 35 63 38 64 36 65 62 66
REMARK SMILES IDX 63 67 71 68 64 69 65 70 69 71 72 72 66 73 67 74 70 75 68 76
REMARK SMILES IDX 47 77 48 78 56 79 49 80 50 81 54 82 57 83 51 84 52 85 55 86
REMARK SMILES IDX 53 87
REMARK H PARENT 8 9 8 10 77 40 45 51
REMARK Flexibility Score: inf
ROOT
ATOM      1  O   UNL A   1      41.512  20.642  25.766  1.00  0.00    -0.462 OA
ENDROOT
BRANCH   1   2
ATOM      2  C   UNL A   1      40.979  21.141  26.912  1.00  0.00     0.314 C 
ATOM      3  O   UNL A   1      40.393  20.469  27.756  1.00  0.00    -0.252 OA
BRANCH   2   4
ATOM      4  C   UNL A   1      41.143  22.644  27.070  1.00  0.00     0.154 C 
ATOM      5  C   UNL A   1      41.726  22.869  28.469  1.00  0.00     0.026 C 
BRANCH   4   6
ATOM      6  C   UNL A   1      39.895  23.529  26.781  1.00  0.00     0.193 C 
ATOM      7  C   UNL A   1      39.536  24.410  27.984  1.00  0.00     0.076 C 
BRANCH   6   8
ATOM      8  N   UNL A   1      38.783  22.614  26.450  1.00  0.00    -0.341 N 
ATOM      9  H   UNL A   1      39.186  21.832  25.933  1.00  0.00     0.346 HD
ATOM     10  H   UNL A   1      38.368  22.403  27.357  1.00  0.00     0.346 HD
BRANCH   8  11
ATOM     11  C   UNL A   1      37.647  23.111  25.657  1.00  0.00     0.182 C 
ATOM     12  C   UNL A   1      36.385  23.197  26.533  1.00  0.00     0.075 C 
BRANCH  11  13
ATOM     13  C   UNL A   1      37.420  22.119  24.452  1.00  0.00     0.046 C 
BRANCH  13  14
ATOM     14  C   UNL A   1      36.706  20.812  24.894  1.00  0.00     0.006 C 
ATOM     15  C   UNL A   1      37.608  19.584  24.921  1.00  0.00     0.004 C 
ENDBRANCH  13  14
BRANCH  13  16
ATOM     16  C   UNL A   1      36.694  22.778  23.247  1.00  0.00     0.006 C 
ATOM     17  C   UNL A   1      35.176  22.828  23.356  1.00  0.00     0.004 C 
ENDBRANCH  13  16
ENDBRANCH  11  13
ENDBRANCH   8  11
ENDBRANCH   6   8
ENDBRANCH   4   6
ENDBRANCH   2   4
ENDBRANCH   1   2
BRANCH   1  18
ATOM     18  C   UNL A   1      41.730  19.214  25.771  1.00  0.00     0.274 C 
BRANCH  18  19
ATOM     19  C   UNL A   1      43.224  18.890  25.695  1.00  0.00     0.275 C 
BRANCH  19  20
ATOM     20  O   UNL A   1      43.707  19.111  24.360  1.00  0.00    -0.458 OA
BRANCH  20  21
ATOM     21  C   UNL A   1      44.987  19.536  24.261  1.00  0.00     0.338 C 
ATOM     22  O   UNL A   1      45.958  18.858  23.952  1.00  0.00    -0.246 OA
BRANCH  21  23
ATOM     23  C   UNL A   1      45.080  20.974  24.592  1.00  0.00     0.060 A 
ATOM     24  C   UNL A   1      44.666  21.968  23.698  1.00  0.00     0.016 A 
ATOM     25  C   UNL A   1      45.653  21.337  25.812  1.00  0.00     0.016 A 
ATOM     26  C   UNL A   1      44.847  23.318  24.009  1.00  0.00     0.010 A 
ATOM     27  C   UNL A   1      45.781  22.685  26.150  1.00  0.00     0.010 A 
ATOM     28  C   UNL A   1      45.390  23.689  25.247  1.00  0.00    -0.014 A 
BRANCH  28  29
ATOM     29  C   UNL A   1      45.548  25.116  25.632  1.00  0.00     0.031 A 
ATOM     30  C   UNL A   1      46.898  25.771  25.561  1.00  0.00     0.074 A 
ATOM     31  C   UNL A   1      44.494  25.800  26.116  1.00  0.00     0.049 A 
ATOM     32  N   UNL A   1      47.292  26.919  26.052  1.00  0.00    -0.248 NA
ATOM     33  C   UNL A   1      47.950  25.028  24.851  1.00  0.00     0.031 C 
ATOM     34  C   UNL A   1      43.127  25.290  26.216  1.00  0.00     0.029 A 
ATOM     35  N   UNL A   1      44.418  27.067  26.640  1.00  0.00    -0.354 N 
ATOM     36  C   UNL A   1      48.641  27.021  25.742  1.00  0.00     0.074 A 
ATOM     37  C   UNL A   1      49.002  25.816  25.026  1.00  0.00     0.031 C 
ATOM     38  C   UNL A   1      42.348  26.229  26.777  1.00  0.00     0.029 A 
ATOM     39  C   UNL A   1      43.173  27.379  27.132  1.00  0.00     0.049 A 
ATOM     40  H   UNL A   1      45.179  27.691  26.662  1.00  0.00     0.167 HD
ATOM     41  C   UNL A   1      49.496  28.031  26.031  1.00  0.00     0.037 A 
ATOM     42  C   UNL A   1      42.752  28.449  27.831  1.00  0.00     0.037 A 
ATOM     43  C   UNL A   1      49.128  29.238  26.725  1.00  0.00     0.049 A 
ATOM     44  C   UNL A   1      43.730  29.537  28.175  1.00  0.00     0.074 A 
ATOM     45  C   UNL A   1      49.921  30.327  27.048  1.00  0.00     0.029 A 
ATOM     46  N   UNL A   1      47.856  29.517  27.201  1.00  0.00    -0.354 N 
ATOM     47  N   UNL A   1      45.008  29.619  27.897  1.00  0.00    -0.248 NA
ATOM     48  C   UNL A   1      43.210  30.678  28.942  1.00  0.00     0.031 C 
ATOM     49  C   UNL A   1      49.135  31.249  27.748  1.00  0.00     0.029 A 
ATOM     50  C   UNL A   1      47.844  30.753  27.826  1.00  0.00     0.049 A 
ATOM     51  H   UNL A   1      47.075  28.923  27.108  1.00  0.00     0.167 HD
ATOM     52  C   UNL A   1      45.441  30.821  28.436  1.00  0.00     0.074 A 
ATOM     53  C   UNL A   1      44.286  31.445  29.048  1.00  0.00     0.031 C 
ATOM     54  C   UNL A   1      46.685  31.359  28.428  1.00  0.00     0.037 A 
BRANCH  41  55
ATOM     55  C   UNL A   1      50.929  27.866  25.616  1.00  0.00     0.064 A 
ATOM     56  C   UNL A   1      51.362  28.181  24.321  1.00  0.00     0.173 A 
ATOM     57  C   UNL A   1      51.890  27.435  26.545  1.00  0.00     0.173 A 
ATOM     58  F   UNL A   1      50.480  28.586  23.395  1.00  0.00    -0.203 F 
ATOM     59  C   UNL A   1      52.702  28.052  23.963  1.00  0.00     0.198 A 
ATOM     60  C   UNL A   1      53.233  27.330  26.189  1.00  0.00     0.198 A 
ATOM     61  F   UNL A   1      51.528  27.126  27.799  1.00  0.00    -0.203 F 
ATOM     62  F   UNL A   1      53.088  28.325  22.708  1.00  0.00    -0.200 F 
ATOM     63  C   UNL A   1      53.636  27.635  24.899  1.00  0.00     0.200 A 
ATOM     64  F   UNL A   1      54.136  26.936  27.098  1.00  0.00    -0.200 F 
ATOM     65  F   UNL A   1      54.926  27.519  24.554  1.00  0.00    -0.200 F 
ENDBRANCH  41  55
BRANCH  42  66
ATOM     66  C   UNL A   1      41.340  28.525  28.278  1.00  0.00     0.064 A 
ATOM     67  C   UNL A   1      40.973  28.139  29.574  1.00  0.00     0.173 A 
ATOM     68  C   UNL A   1      40.331  28.999  27.426  1.00  0.00     0.173 A 
ATOM     69  F   UNL A   1      41.899  27.655  30.415  1.00  0.00    -0.203 F 
ATOM     70  C   UNL A   1      39.648  28.217  29.998  1.00  0.00     0.198 A 
ATOM     71  C   UNL A   1      39.011  29.102  27.860  1.00  0.00     0.198 A 
ATOM     72  F   UNL A   1      40.632  29.380  26.176  1.00  0.00    -0.203 F 
ATOM     73  F   UNL A   1      39.318  27.809  31.231  1.00  0.00    -0.200 F 
ATOM     74  C   UNL A   1      38.671  28.706  29.145  1.00  0.00     0.200 A 
ATOM     75  F   UNL A   1      38.073  29.585  27.036  1.00  0.00    -0.200 F 
ATOM     76  F   UNL A   1      37.399  28.789  29.557  1.00  0.00    -0.200 F 
ENDBRANCH  42  66
BRANCH  54  77
ATOM     77  C   UNL A   1      46.852  32.701  29.076  1.00  0.00     0.064 A 
ATOM     78  C   UNL A   1      47.210  32.823  30.426  1.00  0.00     0.173 A 
ATOM     79  C   UNL A   1      46.677  33.876  28.330  1.00  0.00     0.173 A 
ATOM     80  F   UNL A   1      47.372  31.729  31.184  1.00  0.00    -0.203 F 
ATOM     81  C   UNL A   1      47.368  34.077  31.011  1.00  0.00     0.198 A 
ATOM     82  C   UNL A   1      46.857  35.127  28.913  1.00  0.00     0.198 A 
ATOM     83  F   UNL A   1      46.337  33.810  27.035  1.00  0.00    -0.203 F 
ATOM     84  F   UNL A   1      47.670  34.172  32.314  1.00  0.00    -0.200 F 
ATOM     85  C   UNL A   1      47.197  35.226  30.255  1.00  0.00     0.200 A 
ATOM     86  F   UNL A   1      46.699  36.236  28.178  1.00  0.00    -0.200 F 
ATOM     87  F   UNL A   1      47.349  36.432  30.820  1.00  0.00    -0.200 F 
ENDBRANCH  54  77
ENDBRANCH  28  29
ENDBRANCH  21  23
ENDBRANCH  20  21
ENDBRANCH  19  20
ENDBRANCH  18  19
ENDBRANCH   1  18
TORSDOF 17
ENDMDL
MODEL 2
REMARK VINA RESULT:      -9.4      6.235     10.070
REMARK SMILES CCC(CC)[C@@H](C)[NH2+][C@@H](C)[C@@H](C)C(=O)OCCOC(=O)c1ccc(-c2c3nc(c(-c4c(F)c(F)c(F)c(F)c4F)c4ccc([nH]4)c(-c4c(F)c(F)c(F)c(F)c4F)c4nc(c(-c5c(F)c(F)c(F)c(F)c5F)c5ccc2[nH]5)C=C4)C=C3)cc1
REMARK SMILES IDX 15 1 13 2 14 3 11 4 12 5 9 6 10 7 8 8 6 11 7 12 3 13 2 14
REMARK SMILES IDX 1 15 4 16 5 17 16 18 17 19 18 20 19 21 20 22 21 23 22 24
REMARK SMILES IDX 83 25 23 26 82 27 24 28 25 29 26 30 76 31 27 32 81 33 75 34
REMARK SMILES IDX 77 35 28 36 80 37 74 38 73 39 29 41 61 42 41 43 60 44 42 45
REMARK SMILES IDX 45 46 59 47 78 48 43 49 44 50 58 52 79 53 46 54 30 55 31 56
REMARK SMILES IDX 39 57 32 58 33 59 37 60 40 61 34 62 35 63 38 64 36 65 62 66
REMARK SMILES IDX 63 67 71 68 64 69 65 70 69 71 72 72 66 73 67 74 70 75 68 76
REMARK SMILES IDX 47 77 48 78 56 79 49 80 50 81 54 82 57 83 51 84 52 85 55 86
REMARK SMILES IDX 53 87
REMARK H PARENT 8 9 8 10 77 40 45 51
REMARK Flexibility Score: inf
ROOT
ATOM      1  O   UNL A   1      31.620  27.791  25.942  1.00  0.00    -0.462 OA
ENDROOT
BRANCH   1   2
ATOM      2  C   UNL A   1      30.854  26.706  25.656  1.00  0.00     0.314 C 
ATOM      3  O   UNL A   1      30.300  26.005  26.497  1.00  0.00    -0.252 OA
BRANCH   2   4
ATOM      4  C   UNL A   1      30.747  26.395  24.171  1.00  0.00     0.154 C 
ATOM      5  C   UNL A   1      29.251  26.311  23.855  1.00  0.00     0.026 C 
BRANCH   4   6
ATOM      6  C   UNL A   1      31.551  25.170  23.642  1.00  0.00     0.193 C 
ATOM      7  C   UNL A   1      30.649  23.947  23.441  1.00  0.00     0.076 C 
BRANCH   6   8
ATOM      8  N   UNL A   1      32.608  24.886  24.634  1.00  0.00    -0.341 N 
ATOM      9  H   UNL A   1      33.500  25.095  24.186  1.00  0.00     0.346 HD
ATOM     10  H   UNL A   1      32.347  25.462  25.435  1.00  0.00     0.346 HD
BRANCH   8  11
ATOM     11  C   UNL A   1      32.722  23.533  25.204  1.00  0.00     0.182 C 
ATOM     12  C   UNL A   1      32.466  23.573  26.721  1.00  0.00     0.075 C 
BRANCH  11  13
ATOM     13  C   UNL A   1      34.173  22.995  24.900  1.00  0.00     0.046 C 
BRANCH  13  14
ATOM     14  C   UNL A   1      34.254  21.446  24.982  1.00  0.00     0.006 C 
ATOM     15  C   UNL A   1      33.079  20.723  24.335  1.00  0.00     0.004 C 
ENDBRANCH  13  14
BRANCH  13  16
ATOM     16  C   UNL A   1      34.750  23.519  23.556  1.00  0.00     0.006 C 
ATOM     17  C   UNL A   1      36.197  23.135  23.281  1.00  0.00     0.004 C 
ENDBRANCH  13  16
ENDBRANCH  11  13
ENDBRANCH   8  11
ENDBRANCH   6   8
ENDBRANCH   4   6
ENDBRANCH   2   4
ENDBRANCH   1   2
BRANCH   1  18
ATOM     18  C   UNL A   1      31.592  28.833  24.942  1.00  0.00     0.274 C 
BRANCH  18  19
ATOM     19  C   UNL A   1      31.799  30.209  25.581  1.00  0.00     0.275 C 
BRANCH  19  20
ATOM     20  O   UNL A   1      32.792  30.124  26.616  1.00  0.00    -0.458 OA
BRANCH  20  21
ATOM     21  C   UNL A   1      33.230  31.305  27.109  1.00  0.00     0.338 C 
ATOM     22  O   UNL A   1      32.693  32.396  26.970  1.00  0.00    -0.246 OA
BRANCH  21  23
ATOM     23  C   UNL A   1      34.491  31.116  27.856  1.00  0.00     0.060 A 
ATOM     24  C   UNL A   1      35.398  32.163  28.055  1.00  0.00     0.016 A 
ATOM     25  C   UNL A   1      34.800  29.837  28.321  1.00  0.00     0.016 A 
ATOM     26  C   UNL A   1      36.619  31.928  28.692  1.00  0.00     0.010 A 
ATOM     27  C   UNL A   1      35.993  29.613  29.010  1.00  0.00     0.010 A 
ATOM     28  C   UNL A   1      36.920  30.654  29.193  1.00  0.00    -0.014 A 
BRANCH  28  29
ATOM     29  C   UNL A   1      38.186  30.381  29.921  1.00  0.00     0.031 A 
ATOM     30  C   UNL A   1      39.209  29.451  29.335  1.00  0.00     0.074 A 
ATOM     31  C   UNL A   1      38.383  30.912  31.143  1.00  0.00     0.049 A 
ATOM     32  N   UNL A   1      40.262  28.912  29.896  1.00  0.00    -0.248 NA
ATOM     33  C   UNL A   1      39.013  29.064  27.929  1.00  0.00     0.031 C 
ATOM     34  C   UNL A   1      37.482  31.847  31.815  1.00  0.00     0.029 A 
ATOM     35  N   UNL A   1      39.398  30.716  32.047  1.00  0.00    -0.354 N 
ATOM     36  C   UNL A   1      40.834  28.099  28.928  1.00  0.00     0.074 A 
ATOM     37  C   UNL A   1      40.008  28.207  27.744  1.00  0.00     0.031 C 
ATOM     38  C   UNL A   1      37.977  32.137  33.029  1.00  0.00     0.029 A 
ATOM     39  C   UNL A   1      39.194  31.361  33.243  1.00  0.00     0.049 A 
ATOM     40  H   UNL A   1      40.194  30.168  31.859  1.00  0.00     0.167 HD
ATOM     41  C   UNL A   1      41.947  27.332  29.023  1.00  0.00     0.037 A 
ATOM     42  C   UNL A   1      39.881  31.299  34.399  1.00  0.00     0.037 A 
ATOM     43  C   UNL A   1      42.778  27.244  30.196  1.00  0.00     0.049 A 
ATOM     44  C   UNL A   1      41.089  30.409  34.492  1.00  0.00     0.074 A 
ATOM     45  C   UNL A   1      43.936  26.508  30.382  1.00  0.00     0.029 A 
ATOM     46  N   UNL A   1      42.538  27.917  31.385  1.00  0.00    -0.354 N 
ATOM     47  N   UNL A   1      41.613  29.628  33.580  1.00  0.00    -0.248 NA
ATOM     48  C   UNL A   1      41.796  30.383  35.781  1.00  0.00     0.031 C 
ATOM     49  C   UNL A   1      44.378  26.712  31.694  1.00  0.00     0.029 A 
ATOM     50  C   UNL A   1      43.518  27.604  32.312  1.00  0.00     0.049 A 
ATOM     51  H   UNL A   1      41.782  28.528  31.545  1.00  0.00     0.167 HD
ATOM     52  C   UNL A   1      42.716  29.033  34.175  1.00  0.00     0.074 A 
ATOM     53  C   UNL A   1      42.795  29.553  35.523  1.00  0.00     0.031 C 
ATOM     54  C   UNL A   1      43.583  28.132  33.650  1.00  0.00     0.037 A 
BRANCH  41  55
ATOM     55  C   UNL A   1      42.324  26.505  27.829  1.00  0.00     0.064 A 
ATOM     56  C   UNL A   1      41.763  25.241  27.601  1.00  0.00     0.173 A 
ATOM     57  C   UNL A   1      43.223  27.008  26.875  1.00  0.00     0.173 A 
ATOM     58  F   UNL A   1      40.909  24.712  28.489  1.00  0.00    -0.203 F 
ATOM     59  C   UNL A   1      42.102  24.502  26.470  1.00  0.00     0.198 A 
ATOM     60  C   UNL A   1      43.541  26.275  25.734  1.00  0.00     0.198 A 
ATOM     61  F   UNL A   1      43.784  28.215  27.044  1.00  0.00    -0.203 F 
ATOM     62  F   UNL A   1      41.580  23.280  26.290  1.00  0.00    -0.200 F 
ATOM     63  C   UNL A   1      42.984  25.022  25.535  1.00  0.00     0.200 A 
ATOM     64  F   UNL A   1      44.385  26.785  24.826  1.00  0.00    -0.200 F 
ATOM     65  F   UNL A   1      43.302  24.312  24.444  1.00  0.00    -0.200 F 
ENDBRANCH  41  55
BRANCH  42  66
ATOM     66  C   UNL A   1      39.420  32.083  35.571  1.00  0.00     0.064 A 
ATOM     67  C   UNL A   1      39.868  33.393  35.782  1.00  0.00     0.173 A 
ATOM     68  C   UNL A   1      38.510  31.545  36.494  1.00  0.00     0.173 A 
ATOM     69  F   UNL A   1      40.757  33.940  34.940  1.00  0.00    -0.203 F 
ATOM     70  C   UNL A   1      39.429  34.134  36.877  1.00  0.00     0.198 A 
ATOM     71  C   UNL A   1      38.052  32.295  37.574  1.00  0.00     0.198 A 
ATOM     72  F   UNL A   1      38.054  30.294  36.335  1.00  0.00    -0.203 F 
ATOM     73  F   UNL A   1      39.899  35.373  37.076  1.00  0.00    -0.200 F 
ATOM     74  C   UNL A   1      38.517  33.588  37.767  1.00  0.00     0.200 A 
ATOM     75  F   UNL A   1      37.162  31.768  38.425  1.00  0.00    -0.200 F 
ATOM     76  F   UNL A   1      38.089  34.305  38.815  1.00  0.00    -0.200 F 
ENDBRANCH  42  66
BRANCH  54  77
ATOM     77  C   UNL A   1      44.709  27.677  34.530  1.00  0.00     0.064 A 
ATOM     78  C   UNL A   1      45.920  28.381  34.593  1.00  0.00     0.173 A 
ATOM     79  C   UNL A   1      44.563  26.540  35.338  1.00  0.00     0.173 A 
ATOM     80  F   UNL A   1      46.112  29.465  33.826  1.00  0.00    -0.203 F 
ATOM     81  C   UNL A   1      46.954  27.950  35.419  1.00  0.00     0.198 A 
ATOM     82  C   UNL A   1      45.591  26.125  36.180  1.00  0.00     0.198 A 
ATOM     83  F   UNL A   1      43.422  25.836  35.315  1.00  0.00    -0.203 F 
ATOM     84  F   UNL A   1      48.119  28.613  35.433  1.00  0.00    -0.200 F 
ATOM     85  C   UNL A   1      46.787  26.826  36.215  1.00  0.00     0.200 A 
ATOM     86  F   UNL A   1      45.425  25.044  36.954  1.00  0.00    -0.200 F 
ATOM     87  F   UNL A   1      47.784  26.413  37.011  1.00  0.00    -0.200 F 
ENDBRANCH  54  77
ENDBRANCH  28  29
ENDBRANCH  21  23
ENDBRANCH  20  21
ENDBRANCH  19  20
ENDBRANCH  18  19
ENDBRANCH   1  18
TORSDOF 17
ENDMDL
MODEL 3
REMARK VINA RESULT:      -9.4      0.782      2.063
REMARK SMILES CCC(CC)[C@@H](C)[NH2+][C@@H](C)[C@@H](C)C(=O)OCCOC(=O)c1ccc(-c2c3nc(c(-c4c(F)c(F)c(F)c(F)c4F)c4ccc([nH]4)c(-c4c(F)c(F)c(F)c(F)c4F)c4nc(c(-c5c(F)c(F)c(F)c(F)c5F)c5ccc2[nH]5)C=C4)C=C3)cc1
REMARK SMILES IDX 15 1 13 2 14 3 11 4 12 5 9 6 10 7 8 8 6 11 7 12 3 13 2 14
REMARK SMILES IDX 1 15 4 16 5 17 16 18 17 19 18 20 19 21 20 22 21 23 22 24
REMARK SMILES IDX 83 25 23 26 82 27 24 28 25 29 26 30 76 31 27 32 81 33 75 34
REMARK SMILES IDX 77 35 28 36 80 37 74 38 73 39 29 41 61 42 41 43 60 44 42 45
REMARK SMILES IDX 45 46 59 47 78 48 43 49 44 50 58 52 79 53 46 54 30 55 31 56
REMARK SMILES IDX 39 57 32 58 33 59 37 60 40 61 34 62 35 63 38 64 36 65 62 66
REMARK SMILES IDX 63 67 71 68 64 69 65 70 69 71 72 72 66 73 67 74 70 75 68 76
REMARK SMILES IDX 47 77 48 78 56 79 49 80 50 81 54 82 57 83 51 84 52 85 55 86
REMARK SMILES IDX 53 87
REMARK H PARENT 8 9 8 10 77 40 45 51
REMARK Flexibility Score: inf
ROOT
ATOM      1  O   UNL A   1      41.788  20.405  26.227  1.00  0.00    -0.462 OA
ENDROOT
BRANCH   1   2
ATOM      2  C   UNL A   1      40.509  20.836  26.072  1.00  0.00     0.314 C 
ATOM      3  O   UNL A   1      39.580  20.131  25.688  1.00  0.00    -0.252 OA
BRANCH   2   4
ATOM      4  C   UNL A   1      40.306  22.307  26.395  1.00  0.00     0.154 C 
ATOM      5  C   UNL A   1      40.588  22.462  27.893  1.00  0.00     0.026 C 
BRANCH   4   6
ATOM      6  C   UNL A   1      38.956  22.951  25.960  1.00  0.00     0.193 C 
ATOM      7  C   UNL A   1      38.816  24.383  26.491  1.00  0.00     0.076 C 
BRANCH   6   8
ATOM      8  N   UNL A   1      37.877  22.089  26.485  1.00  0.00    -0.341 N 
ATOM      9  H   UNL A   1      38.310  21.209  26.767  1.00  0.00     0.346 HD
ATOM     10  H   UNL A   1      37.456  22.654  27.222  1.00  0.00     0.346 HD
BRANCH   8  11
ATOM     11  C   UNL A   1      36.738  21.746  25.618  1.00  0.00     0.182 C 
ATOM     12  C   UNL A   1      37.040  22.146  24.163  1.00  0.00     0.075 C 
BRANCH  11  13
ATOM     13  C   UNL A   1      35.468  22.514  26.153  1.00  0.00     0.046 C 
BRANCH  13  14
ATOM     14  C   UNL A   1      34.794  23.374  25.049  1.00  0.00     0.006 C 
ATOM     15  C   UNL A   1      34.773  24.869  25.348  1.00  0.00     0.004 C 
ENDBRANCH  13  14
BRANCH  13  16
ATOM     16  C   UNL A   1      34.439  21.581  26.847  1.00  0.00     0.006 C 
ATOM     17  C   UNL A   1      33.440  22.284  27.756  1.00  0.00     0.004 C 
ENDBRANCH  13  16
ENDBRANCH  11  13
ENDBRANCH   8  11
ENDBRANCH   6   8
ENDBRANCH   4   6
ENDBRANCH   2   4
ENDBRANCH   1   2
BRANCH   1  18
ATOM     18  C   UNL A   1      41.924  18.989  26.479  1.00  0.00     0.274 C 
BRANCH  18  19
ATOM     19  C   UNL A   1      43.283  18.476  25.994  1.00  0.00     0.275 C 
BRANCH  19  20
ATOM     20  O   UNL A   1      43.503  18.884  24.633  1.00  0.00    -0.458 OA
BRANCH  20  21
ATOM     21  C   UNL A   1      44.743  19.344  24.350  1.00  0.00     0.338 C 
ATOM     22  O   UNL A   1      45.679  18.691  23.909  1.00  0.00    -0.246 OA
BRANCH  21  23
ATOM     23  C   UNL A   1      44.840  20.787  24.659  1.00  0.00     0.060 A 
ATOM     24  C   UNL A   1      44.472  21.769  23.732  1.00  0.00     0.016 A 
ATOM     25  C   UNL A   1      45.371  21.166  25.893  1.00  0.00     0.016 A 
ATOM     26  C   UNL A   1      44.658  23.122  24.025  1.00  0.00     0.010 A 
ATOM     27  C   UNL A   1      45.502  22.518  26.211  1.00  0.00     0.010 A 
ATOM     28  C   UNL A   1      45.157  23.510  25.276  1.00  0.00    -0.014 A 
BRANCH  28  29
ATOM     29  C   UNL A   1      45.318  24.941  25.641  1.00  0.00     0.031 A 
ATOM     30  C   UNL A   1      46.665  25.599  25.543  1.00  0.00     0.074 A 
ATOM     31  C   UNL A   1      44.269  25.630  26.130  1.00  0.00     0.049 A 
ATOM     32  N   UNL A   1      47.063  26.753  26.015  1.00  0.00    -0.248 NA
ATOM     33  C   UNL A   1      47.709  24.849  24.829  1.00  0.00     0.031 C 
ATOM     34  C   UNL A   1      42.905  25.118  26.256  1.00  0.00     0.029 A 
ATOM     35  N   UNL A   1      44.197  26.903  26.640  1.00  0.00    -0.354 N 
ATOM     36  C   UNL A   1      48.407  26.854  25.685  1.00  0.00     0.074 A 
ATOM     37  C   UNL A   1      48.762  25.641  24.980  1.00  0.00     0.031 C 
ATOM     38  C   UNL A   1      42.131  26.062  26.815  1.00  0.00     0.029 A 
ATOM     39  C   UNL A   1      42.959  27.219  27.144  1.00  0.00     0.049 A 
ATOM     40  H   UNL A   1      44.957  27.529  26.644  1.00  0.00     0.167 HD
ATOM     41  C   UNL A   1      49.265  27.869  25.950  1.00  0.00     0.037 A 
ATOM     42  C   UNL A   1      42.545  28.297  27.836  1.00  0.00     0.037 A 
ATOM     43  C   UNL A   1      48.903  29.084  26.633  1.00  0.00     0.049 A 
ATOM     44  C   UNL A   1      43.525  29.391  28.153  1.00  0.00     0.074 A 
ATOM     45  C   UNL A   1      49.698  30.179  26.932  1.00  0.00     0.029 A 
ATOM     46  N   UNL A   1      47.636  29.366  27.123  1.00  0.00    -0.354 N 
ATOM     47  N   UNL A   1      44.799  29.471  27.856  1.00  0.00    -0.248 NA
ATOM     48  C   UNL A   1      43.012  30.541  28.912  1.00  0.00     0.031 C 
ATOM     49  C   UNL A   1      48.919  31.108  27.631  1.00  0.00     0.029 A 
ATOM     50  C   UNL A   1      47.630  30.610  27.733  1.00  0.00     0.049 A 
ATOM     51  H   UNL A   1      46.856  28.770  27.048  1.00  0.00     0.167 HD
ATOM     52  C   UNL A   1      45.236  30.682  28.375  1.00  0.00     0.074 A 
ATOM     53  C   UNL A   1      44.088  31.310  28.994  1.00  0.00     0.031 C 
ATOM     54  C   UNL A   1      46.479  31.222  28.343  1.00  0.00     0.037 A 
BRANCH  41  55
ATOM     55  C   UNL A   1      50.692  27.703  25.518  1.00  0.00     0.064 A 
ATOM     56  C   UNL A   1      51.692  27.306  26.416  1.00  0.00     0.173 A 
ATOM     57  C   UNL A   1      51.052  27.895  24.175  1.00  0.00     0.173 A 
ATOM     58  F   UNL A   1      51.401  27.121  27.713  1.00  0.00    -0.203 F 
ATOM     59  C   UNL A   1      53.006  27.126  25.990  1.00  0.00     0.198 A 
ATOM     60  C   UNL A   1      52.363  27.691  23.749  1.00  0.00     0.198 A 
ATOM     61  F   UNL A   1      50.132  28.271  23.275  1.00  0.00    -0.203 F 
ATOM     62  F   UNL A   1      53.954  26.780  26.874  1.00  0.00    -0.200 F 
ATOM     63  C   UNL A   1      53.338  27.311  24.657  1.00  0.00     0.200 A 
ATOM     64  F   UNL A   1      52.680  27.861  22.457  1.00  0.00    -0.200 F 
ATOM     65  F   UNL A   1      54.602  27.130  24.248  1.00  0.00    -0.200 F 
ENDBRANCH  41  55
BRANCH  42  66
ATOM     66  C   UNL A   1      41.138  28.375  28.301  1.00  0.00     0.064 A 
ATOM     67  C   UNL A   1      40.775  27.925  29.577  1.00  0.00     0.173 A 
ATOM     68  C   UNL A   1      40.131  28.916  27.487  1.00  0.00     0.173 A 
ATOM     69  F   UNL A   1      41.699  27.376  30.380  1.00  0.00    -0.203 F 
ATOM     70  C   UNL A   1      39.456  28.006  30.018  1.00  0.00     0.198 A 
ATOM     71  C   UNL A   1      38.818  29.021  27.939  1.00  0.00     0.198 A 
ATOM     72  F   UNL A   1      40.429  29.360  26.256  1.00  0.00    -0.203 F 
ATOM     73  F   UNL A   1      39.129  27.535  31.230  1.00  0.00    -0.200 F 
ATOM     74  C   UNL A   1      38.481  28.560  29.204  1.00  0.00     0.200 A 
ATOM     75  F   UNL A   1      37.882  29.568  27.153  1.00  0.00    -0.200 F 
ATOM     76  F   UNL A   1      37.215  28.645  29.633  1.00  0.00    -0.200 F 
ENDBRANCH  42  66
BRANCH  54  77
ATOM     77  C   UNL A   1      46.652  32.572  28.971  1.00  0.00     0.064 A 
ATOM     78  C   UNL A   1      46.446  33.751  28.241  1.00  0.00     0.173 A 
ATOM     79  C   UNL A   1      47.001  32.686  30.325  1.00  0.00     0.173 A 
ATOM     80  F   UNL A   1      46.128  33.693  26.939  1.00  0.00    -0.203 F 
ATOM     81  C   UNL A   1      46.605  34.998  28.840  1.00  0.00     0.198 A 
ATOM     82  C   UNL A   1      47.136  33.935  30.926  1.00  0.00     0.198 A 
ATOM     83  F   UNL A   1      47.205  31.587  31.065  1.00  0.00    -0.203 F 
ATOM     84  F   UNL A   1      46.445  36.113  28.113  1.00  0.00    -0.200 F 
ATOM     85  C   UNL A   1      46.944  35.089  30.181  1.00  0.00     0.200 A 
ATOM     86  F   UNL A   1      47.456  34.020  32.224  1.00  0.00    -0.200 F 
ATOM     87  F   UNL A   1      47.096  36.290  30.756  1.00  0.00    -0.200 F 
ENDBRANCH  54  77
ENDBRANCH  28  29
ENDBRANCH  21  23
ENDBRANCH  20  21
ENDBRANCH  19  20
ENDBRANCH  18  19
ENDBRANCH   1  18
TORSDOF 17
ENDMDL
