MODEL 1
REMARK VINA RESULT:     -10.9      0.000      0.000
REMARK SMILES CCC(CC)[C@H](C(=O)OCCOC(=O)c1ccc(-c2c3nc(c(-c4c(F)c(F)c(F)c(F)c4F)c4ccc([nH]4)c(-c4c(F)c(F)c(F)c(F)c4F)c4nc(c(-c5c(F)c(F)c(F)c(F)c5F)c5ccc2[nH]5)C=C4)C=C3)cc1)c1ccccc1
REMARK SMILES IDX 10 1 9 2 7 3 8 4 6 5 3 6 2 7 1 8 4 9 5 10 78 11 79 12 83 13
REMARK SMILES IDX 80 14 82 15 81 16 11 17 12 18 13 19 14 20 15 21 16 22 77 23
REMARK SMILES IDX 17 24 76 25 18 26 19 27 20 28 70 29 21 30 75 31 69 32 71 33
REMARK SMILES IDX 22 34 74 35 68 36 67 37 23 39 55 40 35 41 54 42 36 43 39 44
REMARK SMILES IDX 53 45 72 46 37 47 38 48 52 50 73 51 40 52 24 53 25 54 33 55
REMARK SMILES IDX 26 56 27 57 31 58 34 59 28 60 29 61 32 62 30 63 56 64 57 65
REMARK SMILES IDX 65 66 58 67 59 68 63 69 66 70 60 71 61 72 64 73 62 74 41 75
REMARK SMILES IDX 42 76 50 77 43 78 44 79 48 80 51 81 45 82 46 83 49 84 47 85
REMARK H PARENT 71 38 39 49
REMARK Flexibility Score: inf
ROOT
ATOM      1  C   UNL A   1      31.778  28.583  27.335  1.00  0.00     0.274 C 
ENDROOT
BRANCH   1   2
ATOM      2  O   UNL A   1      32.157  27.594  26.359  1.00  0.00    -0.462 OA
BRANCH   2   3
ATOM      3  C   UNL A   1      31.149  26.975  25.689  1.00  0.00     0.313 C 
ATOM      4  O   UNL A   1      30.311  26.317  26.293  1.00  0.00    -0.252 OA
BRANCH   3   5
ATOM      5  C   UNL A   1      31.129  27.321  24.167  1.00  0.00     0.132 C 
BRANCH   5   6
ATOM      6  C   UNL A   1      31.382  26.087  23.201  1.00  0.00     0.007 C 
BRANCH   6   7
ATOM      7  C   UNL A   1      30.397  24.899  23.391  1.00  0.00     0.001 C 
ATOM      8  C   UNL A   1      31.076  23.556  23.649  1.00  0.00     0.004 C 
ENDBRANCH   6   7
BRANCH   6   9
ATOM      9  C   UNL A   1      31.597  26.479  21.722  1.00  0.00     0.001 C 
ATOM     10  C   UNL A   1      32.527  25.580  20.929  1.00  0.00     0.004 C 
ENDBRANCH   6   9
ENDBRANCH   5   6
BRANCH   5  11
ATOM     11  C   UNL A   1      29.927  28.214  23.709  1.00  0.00    -0.034 A 
ATOM     12  C   UNL A   1      28.613  27.733  23.547  1.00  0.00     0.004 A 
ATOM     13  C   UNL A   1      30.098  29.595  23.477  1.00  0.00     0.004 A 
ATOM     14  C   UNL A   1      27.574  28.534  23.058  1.00  0.00     0.000 A 
ATOM     15  C   UNL A   1      29.061  30.403  22.986  1.00  0.00     0.000 A 
ATOM     16  C   UNL A   1      27.803  29.865  22.755  1.00  0.00     0.000 A 
ENDBRANCH   5  11
ENDBRANCH   3   5
ENDBRANCH   2   3
ENDBRANCH   1   2
BRANCH   1  17
ATOM     17  C   UNL A   1      31.798  29.992  26.738  1.00  0.00     0.275 C 
BRANCH  17  18
ATOM     18  O   UNL A   1      33.137  30.449  26.469  1.00  0.00    -0.458 OA
BRANCH  18  19
ATOM     19  C   UNL A   1      33.551  31.505  27.211  1.00  0.00     0.338 C 
ATOM     20  O   UNL A   1      32.938  32.541  27.423  1.00  0.00    -0.246 OA
BRANCH  19  21
ATOM     21  C   UNL A   1      34.830  31.186  27.873  1.00  0.00     0.060 A 
ATOM     22  C   UNL A   1      35.015  29.887  28.362  1.00  0.00     0.016 A 
ATOM     23  C   UNL A   1      35.824  32.152  28.050  1.00  0.00     0.016 A 
ATOM     24  C   UNL A   1      36.193  29.542  29.018  1.00  0.00     0.010 A 
ATOM     25  C   UNL A   1      36.999  31.811  28.723  1.00  0.00     0.010 A 
ATOM     26  C   UNL A   1      37.185  30.508  29.216  1.00  0.00    -0.014 A 
BRANCH  26  27
ATOM     27  C   UNL A   1      38.387  30.182  30.016  1.00  0.00     0.031 A 
ATOM     28  C   UNL A   1      39.400  29.229  29.456  1.00  0.00     0.074 A 
ATOM     29  C   UNL A   1      38.560  30.730  31.231  1.00  0.00     0.049 A 
ATOM     30  N   UNL A   1      40.459  28.714  30.026  1.00  0.00    -0.248 NA
ATOM     31  C   UNL A   1      39.189  28.796  28.067  1.00  0.00     0.031 C 
ATOM     32  C   UNL A   1      37.671  31.712  31.848  1.00  0.00     0.029 A 
ATOM     33  N   UNL A   1      39.538  30.521  32.170  1.00  0.00    -0.354 N 
ATOM     34  C   UNL A   1      41.034  27.888  29.071  1.00  0.00     0.074 A 
ATOM     35  C   UNL A   1      40.195  27.952  27.892  1.00  0.00     0.031 C 
ATOM     36  C   UNL A   1      38.131  32.003  33.076  1.00  0.00     0.029 A 
ATOM     37  C   UNL A   1      39.319  31.196  33.345  1.00  0.00     0.049 A 
ATOM     38  H   UNL A   1      40.319  29.941  32.017  1.00  0.00     0.167 HD
ATOM     39  C   UNL A   1      42.161  27.145  29.174  1.00  0.00     0.037 A 
ATOM     40  C   UNL A   1      39.983  31.137  34.516  1.00  0.00     0.037 A 
ATOM     41  C   UNL A   1      42.984  27.086  30.353  1.00  0.00     0.049 A 
ATOM     42  C   UNL A   1      41.182  30.231  34.634  1.00  0.00     0.074 A 
ATOM     43  C   UNL A   1      44.152  26.374  30.556  1.00  0.00     0.029 A 
ATOM     44  N   UNL A   1      42.717  27.762  31.536  1.00  0.00    -0.354 N 
ATOM     45  N   UNL A   1      41.732  29.460  33.726  1.00  0.00    -0.248 NA
ATOM     46  C   UNL A   1      41.854  30.185  35.941  1.00  0.00     0.031 C 
ATOM     47  C   UNL A   1      44.561  26.572  31.879  1.00  0.00     0.029 A 
ATOM     48  C   UNL A   1      43.683  27.459  32.482  1.00  0.00     0.049 A 
ATOM     49  H   UNL A   1      41.954  28.368  31.681  1.00  0.00     0.167 HD
ATOM     50  C   UNL A   1      42.828  28.866  34.339  1.00  0.00     0.074 A 
ATOM     51  C   UNL A   1      42.870  29.370  35.695  1.00  0.00     0.031 C 
ATOM     52  C   UNL A   1      43.719  27.985  33.824  1.00  0.00     0.037 A 
BRANCH  39  53
ATOM     53  C   UNL A   1      42.548  26.303  27.993  1.00  0.00     0.064 A 
ATOM     54  C   UNL A   1      43.452  26.760  27.023  1.00  0.00     0.173 A 
ATOM     55  C   UNL A   1      42.029  25.008  27.847  1.00  0.00     0.173 A 
ATOM     56  F   UNL A   1      43.968  27.995  27.109  1.00  0.00    -0.203 F 
ATOM     57  C   UNL A   1      43.804  25.960  25.939  1.00  0.00     0.198 A 
ATOM     58  C   UNL A   1      42.405  24.200  26.778  1.00  0.00     0.198 A 
ATOM     59  F   UNL A   1      41.162  24.521  28.749  1.00  0.00    -0.203 F 
ATOM     60  F   UNL A   1      44.634  26.434  24.999  1.00  0.00    -0.200 F 
ATOM     61  C   UNL A   1      43.286  24.679  25.821  1.00  0.00     0.200 A 
ATOM     62  F   UNL A   1      41.913  22.957  26.674  1.00  0.00    -0.200 F 
ATOM     63  F   UNL A   1      43.630  23.907  24.780  1.00  0.00    -0.200 F 
ENDBRANCH  39  53
BRANCH  40  64
ATOM     64  C   UNL A   1      39.516  31.936  35.677  1.00  0.00     0.064 A 
ATOM     65  C   UNL A   1      38.510  31.458  36.527  1.00  0.00     0.173 A 
ATOM     66  C   UNL A   1      40.052  33.204  35.952  1.00  0.00     0.173 A 
ATOM     67  F   UNL A   1      37.947  30.263  36.292  1.00  0.00    -0.203 F 
ATOM     68  C   UNL A   1      38.044  32.223  37.594  1.00  0.00     0.198 A 
ATOM     69  C   UNL A   1      39.607  33.956  37.036  1.00  0.00     0.198 A 
ATOM     70  F   UNL A   1      41.014  33.711  35.167  1.00  0.00    -0.203 F 
ATOM     71  F   UNL A   1      37.046  31.763  38.361  1.00  0.00    -0.200 F 
ATOM     72  C   UNL A   1      38.596  33.469  37.852  1.00  0.00     0.200 A 
ATOM     73  F   UNL A   1      40.152  35.154  37.289  1.00  0.00    -0.200 F 
ATOM     74  F   UNL A   1      38.149  34.204  38.879  1.00  0.00    -0.200 F 
ENDBRANCH  40  64
BRANCH  52  75
ATOM     75  C   UNL A   1      44.851  27.543  34.706  1.00  0.00     0.064 A 
ATOM     76  C   UNL A   1      44.764  26.389  35.498  1.00  0.00     0.173 A 
ATOM     77  C   UNL A   1      46.062  28.252  34.707  1.00  0.00     0.173 A 
ATOM     78  F   UNL A   1      43.623  25.685  35.542  1.00  0.00    -0.203 F 
ATOM     79  C   UNL A   1      45.845  25.968  36.268  1.00  0.00     0.198 A 
ATOM     80  C   UNL A   1      47.151  27.811  35.456  1.00  0.00     0.198 A 
ATOM     81  F   UNL A   1      46.200  29.359  33.962  1.00  0.00    -0.203 F 
ATOM     82  F   UNL A   1      45.729  24.883  37.047  1.00  0.00    -0.200 F 
ATOM     83  C   UNL A   1      47.039  26.673  36.239  1.00  0.00     0.200 A 
ATOM     84  F   UNL A   1      48.309  28.484  35.413  1.00  0.00    -0.200 F 
ATOM     85  F   UNL A   1      48.083  26.257  36.970  1.00  0.00    -0.200 F 
ENDBRANCH  52  75
ENDBRANCH  26  27
ENDBRANCH  19  21
ENDBRANCH  18  19
ENDBRANCH  17  18
ENDBRANCH   1  17
TORSDOF 15
ENDMDL
MODEL 2
REMARK VINA RESULT:     -10.9      1.632      3.287
REMARK SMILES CCC(CC)[C@H](C(=O)OCCOC(=O)c1ccc(-c2c3nc(c(-c4c(F)c(F)c(F)c(F)c4F)c4ccc([nH]4)c(-c4c(F)c(F)c(F)c(F)c4F)c4nc(c(-c5c(F)c(F)c(F)c(F)c5F)c5ccc2[nH]5)C=C4)C=C3)cc1)c1ccccc1
REMARK SMILES IDX 10 1 9 2 7 3 8 4 6 5 3 6 2 7 1 8 4 9 5 10 78 11 79 12 83 13
REMARK SMILES IDX 80 14 82 15 81 16 11 17 12 18 13 19 14 20 15 21 16 22 77 23
REMARK SMILES IDX 17 24 76 25 18 26 19 27 20 28 70 29 21 30 75 31 69 32 71 33
REMARK SMILES IDX 22 34 74 35 68 36 67 37 23 39 55 40 35 41 54 42 36 43 39 44
REMARK SMILES IDX 53 45 72 46 37 47 38 48 52 50 73 51 40 52 24 53 25 54 33 55
REMARK SMILES IDX 26 56 27 57 31 58 34 59 28 60 29 61 32 62 30 63 56 64 57 65
REMARK SMILES IDX 65 66 58 67 59 68 63 69 66 70 60 71 61 72 64 73 62 74 41 75
REMARK SMILES IDX 42 76 50 77 43 78 44 79 48 80 51 81 45 82 46 83 49 84 47 85
REMARK H PARENT 71 38 39 49
REMARK Flexibility Score: inf
ROOT
ATOM      1  C   UNL A   1      33.185  29.166  24.814  1.00  0.00     0.274 C 
ENDROOT
BRANCH   1   2
ATOM      2  O   UNL A   1      33.398  27.920  25.504  1.00  0.00    -0.462 OA
BRANCH   2   3
ATOM      3  C   UNL A   1      33.671  26.832  24.735  1.00  0.00     0.313 C 
ATOM      4  O   UNL A   1      33.823  26.945  23.525  1.00  0.00    -0.252 OA
BRANCH   3   5
ATOM      5  C   UNL A   1      33.895  25.536  25.576  1.00  0.00     0.132 C 
BRANCH   5   6
ATOM      6  C   UNL A   1      32.569  24.872  26.142  1.00  0.00     0.007 C 
BRANCH   6   7
ATOM      7  C   UNL A   1      31.343  24.956  25.191  1.00  0.00     0.001 C 
ATOM      8  C   UNL A   1      30.222  25.865  25.690  1.00  0.00     0.004 C 
ENDBRANCH   6   7
BRANCH   6   9
ATOM      9  C   UNL A   1      32.780  23.470  26.755  1.00  0.00     0.001 C 
ATOM     10  C   UNL A   1      31.970  22.347  26.133  1.00  0.00     0.004 C 
ENDBRANCH   6   9
ENDBRANCH   5   6
BRANCH   5  11
ATOM     11  C   UNL A   1      34.870  24.492  24.932  1.00  0.00    -0.034 A 
ATOM     12  C   UNL A   1      36.103  24.120  25.504  1.00  0.00     0.004 A 
ATOM     13  C   UNL A   1      34.529  23.820  23.741  1.00  0.00     0.004 A 
ATOM     14  C   UNL A   1      36.993  23.246  24.867  1.00  0.00     0.000 A 
ATOM     15  C   UNL A   1      35.417  22.945  23.097  1.00  0.00     0.000 A 
ATOM     16  C   UNL A   1      36.660  22.675  23.651  1.00  0.00     0.000 A 
ENDBRANCH   5  11
ENDBRANCH   3   5
ENDBRANCH   2   3
ENDBRANCH   1   2
BRANCH   1  17
ATOM     17  C   UNL A   1      32.223  30.073  25.587  1.00  0.00     0.275 C 
BRANCH  17  18
ATOM     18  O   UNL A   1      32.622  30.243  26.960  1.00  0.00    -0.458 OA
BRANCH  18  19
ATOM     19  C   UNL A   1      33.268  31.402  27.238  1.00  0.00     0.338 C 
ATOM     20  O   UNL A   1      32.831  32.536  27.113  1.00  0.00    -0.246 OA
BRANCH  19  21
ATOM     21  C   UNL A   1      34.571  31.115  27.867  1.00  0.00     0.060 A 
ATOM     22  C   UNL A   1      34.810  29.816  28.330  1.00  0.00     0.016 A 
ATOM     23  C   UNL A   1      35.537  32.110  28.038  1.00  0.00     0.016 A 
ATOM     24  C   UNL A   1      36.014  29.500  28.954  1.00  0.00     0.010 A 
ATOM     25  C   UNL A   1      36.738  31.798  28.678  1.00  0.00     0.010 A 
ATOM     26  C   UNL A   1      36.977  30.494  29.146  1.00  0.00    -0.014 A 
BRANCH  26  27
ATOM     27  C   UNL A   1      38.207  30.196  29.913  1.00  0.00     0.031 A 
ATOM     28  C   UNL A   1      39.214  29.246  29.338  1.00  0.00     0.074 A 
ATOM     29  C   UNL A   1      38.410  30.765  31.113  1.00  0.00     0.049 A 
ATOM     30  N   UNL A   1      40.296  28.753  29.883  1.00  0.00    -0.248 NA
ATOM     31  C   UNL A   1      38.966  28.787  27.963  1.00  0.00     0.031 C 
ATOM     32  C   UNL A   1      37.529  31.747  31.742  1.00  0.00     0.029 A 
ATOM     33  N   UNL A   1      39.419  30.584  32.026  1.00  0.00    -0.354 N 
ATOM     34  C   UNL A   1      40.852  27.918  28.924  1.00  0.00     0.074 A 
ATOM     35  C   UNL A   1      39.977  27.953  27.772  1.00  0.00     0.031 C 
ATOM     36  C   UNL A   1      38.022  32.064  32.950  1.00  0.00     0.029 A 
ATOM     37  C   UNL A   1      39.228  31.276  33.195  1.00  0.00     0.049 A 
ATOM     38  H   UNL A   1      40.203  30.011  31.858  1.00  0.00     0.167 HD
ATOM     39  C   UNL A   1      41.990  27.190  29.005  1.00  0.00     0.037 A 
ATOM     40  C   UNL A   1      39.929  31.243  34.346  1.00  0.00     0.037 A 
ATOM     41  C   UNL A   1      42.851  27.160  30.159  1.00  0.00     0.049 A 
ATOM     42  C   UNL A   1      41.142  30.354  34.442  1.00  0.00     0.074 A 
ATOM     43  C   UNL A   1      44.033  26.466  30.337  1.00  0.00     0.029 A 
ATOM     44  N   UNL A   1      42.611  27.853  31.338  1.00  0.00    -0.354 N 
ATOM     45  N   UNL A   1      41.672  29.574  33.530  1.00  0.00    -0.248 NA
ATOM     46  C   UNL A   1      41.853  30.337  35.728  1.00  0.00     0.031 C 
ATOM     47  C   UNL A   1      44.479  26.690  31.643  1.00  0.00     0.029 A 
ATOM     48  C   UNL A   1      43.609  27.577  32.259  1.00  0.00     0.049 A 
ATOM     49  H   UNL A   1      41.846  28.452  31.497  1.00  0.00     0.167 HD
ATOM     50  C   UNL A   1      42.794  29.004  34.118  1.00  0.00     0.074 A 
ATOM     51  C   UNL A   1      42.872  29.531  35.464  1.00  0.00     0.031 C 
ATOM     52  C   UNL A   1      43.680  28.125  33.590  1.00  0.00     0.037 A 
BRANCH  39  53
ATOM     53  C   UNL A   1      42.352  26.334  27.826  1.00  0.00     0.064 A 
ATOM     54  C   UNL A   1      41.759  25.082  27.610  1.00  0.00     0.173 A 
ATOM     55  C   UNL A   1      43.286  26.789  26.882  1.00  0.00     0.173 A 
ATOM     56  F   UNL A   1      40.870  24.595  28.490  1.00  0.00    -0.203 F 
ATOM     57  C   UNL A   1      42.104  24.307  26.506  1.00  0.00     0.198 A 
ATOM     58  C   UNL A   1      43.606  26.024  25.764  1.00  0.00     0.198 A 
ATOM     59  F   UNL A   1      43.881  27.981  27.039  1.00  0.00    -0.203 F 
ATOM     60  F   UNL A   1      41.559  23.093  26.344  1.00  0.00    -0.200 F 
ATOM     61  C   UNL A   1      43.021  24.781  25.581  1.00  0.00     0.200 A 
ATOM     62  F   UNL A   1      44.483  26.492  24.864  1.00  0.00    -0.200 F 
ATOM     63  F   UNL A   1      43.347  24.037  24.515  1.00  0.00    -0.200 F 
ENDBRANCH  39  53
BRANCH  40  64
ATOM     64  C   UNL A   1      39.487  32.056  35.508  1.00  0.00     0.064 A 
ATOM     65  C   UNL A   1      38.598  31.537  36.459  1.00  0.00     0.173 A 
ATOM     66  C   UNL A   1      39.930  33.377  35.684  1.00  0.00     0.173 A 
ATOM     67  F   UNL A   1      38.125  30.289  36.322  1.00  0.00    -0.203 F 
ATOM     68  C   UNL A   1      38.154  32.312  37.528  1.00  0.00     0.198 A 
ATOM     69  C   UNL A   1      39.509  34.140  36.770  1.00  0.00     0.198 A 
ATOM     70  F   UNL A   1      40.778  33.924  34.801  1.00  0.00    -0.203 F 
ATOM     71  F   UNL A   1      37.264  31.807  38.394  1.00  0.00    -0.200 F 
ATOM     72  C   UNL A   1      38.613  33.610  37.687  1.00  0.00     0.200 A 
ATOM     73  F   UNL A   1      39.965  35.390  36.926  1.00  0.00    -0.200 F 
ATOM     74  F   UNL A   1      38.186  34.354  38.716  1.00  0.00    -0.200 F 
ENDBRANCH  40  64
BRANCH  52  75
ATOM     75  C   UNL A   1      44.844  27.711  34.445  1.00  0.00     0.064 A 
ATOM     76  C   UNL A   1      46.032  28.454  34.486  1.00  0.00     0.173 A 
ATOM     77  C   UNL A   1      44.739  26.590  35.283  1.00  0.00     0.173 A 
ATOM     78  F   UNL A   1      46.186  29.525  33.694  1.00  0.00    -0.203 F 
ATOM     79  C   UNL A   1      47.078  28.082  35.326  1.00  0.00     0.198 A 
ATOM     80  C   UNL A   1      45.776  26.238  36.143  1.00  0.00     0.198 A 
ATOM     81  F   UNL A   1      43.621  25.849  35.286  1.00  0.00    -0.203 F 
ATOM     82  F   UNL A   1      48.220  28.784  35.323  1.00  0.00    -0.200 F 
ATOM     83  C   UNL A   1      46.946  26.982  36.160  1.00  0.00     0.200 A 
ATOM     84  F   UNL A   1      45.639  25.185  36.960  1.00  0.00    -0.200 F 
ATOM     85  F   UNL A   1      47.949  26.634  36.979  1.00  0.00    -0.200 F 
ENDBRANCH  52  75
ENDBRANCH  26  27
ENDBRANCH  19  21
ENDBRANCH  18  19
ENDBRANCH  17  18
ENDBRANCH   1  17
TORSDOF 15
ENDMDL
MODEL 3
REMARK VINA RESULT:     -10.8      1.913      3.195
REMARK SMILES CCC(CC)[C@H](C(=O)OCCOC(=O)c1ccc(-c2c3nc(c(-c4c(F)c(F)c(F)c(F)c4F)c4ccc([nH]4)c(-c4c(F)c(F)c(F)c(F)c4F)c4nc(c(-c5c(F)c(F)c(F)c(F)c5F)c5ccc2[nH]5)C=C4)C=C3)cc1)c1ccccc1
REMARK SMILES IDX 10 1 9 2 7 3 8 4 6 5 3 6 2 7 1 8 4 9 5 10 78 11 79 12 83 13
REMARK SMILES IDX 80 14 82 15 81 16 11 17 12 18 13 19 14 20 15 21 16 22 77 23
REMARK SMILES IDX 17 24 76 25 18 26 19 27 20 28 70 29 21 30 75 31 69 32 71 33
REMARK SMILES IDX 22 34 74 35 68 36 67 37 23 39 55 40 35 41 54 42 36 43 39 44
REMARK SMILES IDX 53 45 72 46 37 47 38 48 52 50 73 51 40 52 24 53 25 54 33 55
REMARK SMILES IDX 26 56 27 57 31 58 34 59 28 60 29 61 32 62 30 63 56 64 57 65
REMARK SMILES IDX 65 66 58 67 59 68 63 69 66 70 60 71 61 72 64 73 62 74 41 75
REMARK SMILES IDX 42 76 50 77 43 78 44 79 48 80 51 81 45 82 46 83 49 84 47 85
REMARK H PARENT 71 38 39 49
REMARK Flexibility Score: inf
ROOT
ATOM      1  C   UNL A   1      32.442  31.472  27.012  1.00  0.00     0.274 C 
ENDROOT
BRANCH   1   2
ATOM      2  O   UNL A   1      32.861  30.156  27.421  1.00  0.00    -0.462 OA
BRANCH   2   3
ATOM      3  C   UNL A   1      32.166  29.105  26.911  1.00  0.00     0.313 C 
ATOM      4  O   UNL A   1      31.371  28.487  27.608  1.00  0.00    -0.252 OA
BRANCH   3   5
ATOM      5  C   UNL A   1      32.398  28.908  25.380  1.00  0.00     0.132 C 
BRANCH   5   6
ATOM      6  C   UNL A   1      33.662  28.023  25.007  1.00  0.00     0.007 C 
BRANCH   6   7
ATOM      7  C   UNL A   1      33.998  26.904  26.032  1.00  0.00     0.001 C 
ATOM      8  C   UNL A   1      33.672  25.493  25.550  1.00  0.00     0.004 C 
ENDBRANCH   6   7
BRANCH   6   9
ATOM      9  C   UNL A   1      33.684  27.544  23.539  1.00  0.00     0.001 C 
ATOM     10  C   UNL A   1      34.135  28.569  22.515  1.00  0.00     0.004 C 
ENDBRANCH   6   9
ENDBRANCH   5   6
BRANCH   5  11
ATOM     11  C   UNL A   1      31.120  28.515  24.564  1.00  0.00    -0.034 A 
ATOM     12  C   UNL A   1      30.437  29.403  23.710  1.00  0.00     0.004 A 
ATOM     13  C   UNL A   1      30.606  27.203  24.608  1.00  0.00     0.004 A 
ATOM     14  C   UNL A   1      29.250  29.051  23.055  1.00  0.00     0.000 A 
ATOM     15  C   UNL A   1      29.417  26.845  23.956  1.00  0.00     0.000 A 
ATOM     16  C   UNL A   1      28.726  27.778  23.196  1.00  0.00     0.000 A 
ENDBRANCH   5  11
ENDBRANCH   3   5
ENDBRANCH   2   3
ENDBRANCH   1   2
BRANCH   1  17
ATOM     17  C   UNL A   1      33.174  32.561  27.801  1.00  0.00     0.275 C 
BRANCH  17  18
ATOM     18  O   UNL A   1      32.539  33.847  27.672  1.00  0.00    -0.458 OA
BRANCH  18  19
ATOM     19  C   UNL A   1      32.962  34.795  28.543  1.00  0.00     0.338 C 
ATOM     20  O   UNL A   1      32.424  35.865  28.784  1.00  0.00    -0.246 OA
BRANCH  19  21
ATOM     21  C   UNL A   1      34.129  34.301  29.298  1.00  0.00     0.060 A 
ATOM     22  C   UNL A   1      35.402  34.488  28.746  1.00  0.00     0.016 A 
ATOM     23  C   UNL A   1      33.983  33.629  30.515  1.00  0.00     0.016 A 
ATOM     24  C   UNL A   1      36.533  34.019  29.407  1.00  0.00     0.010 A 
ATOM     25  C   UNL A   1      35.116  33.143  31.170  1.00  0.00     0.010 A 
ATOM     26  C   UNL A   1      36.395  33.329  30.615  1.00  0.00    -0.014 A 
BRANCH  26  27
ATOM     27  C   UNL A   1      37.579  32.722  31.263  1.00  0.00     0.031 A 
ATOM     28  C   UNL A   1      38.283  31.588  30.581  1.00  0.00     0.074 A 
ATOM     29  C   UNL A   1      38.008  33.180  32.451  1.00  0.00     0.049 A 
ATOM     30  N   UNL A   1      39.260  30.835  31.017  1.00  0.00    -0.248 NA
ATOM     31  C   UNL A   1      37.821  31.255  29.225  1.00  0.00     0.031 C 
ATOM     32  C   UNL A   1      37.437  34.313  33.175  1.00  0.00     0.029 A 
ATOM     33  N   UNL A   1      39.018  32.732  33.266  1.00  0.00    -0.354 N 
ATOM     34  C   UNL A   1      39.522  29.933  29.996  1.00  0.00     0.074 A 
ATOM     35  C   UNL A   1      38.588  30.217  28.927  1.00  0.00     0.031 C 
ATOM     36  C   UNL A   1      38.089  34.458  34.340  1.00  0.00     0.029 A 
ATOM     37  C   UNL A   1      39.092  33.402  34.461  1.00  0.00     0.049 A 
ATOM     38  H   UNL A   1      39.628  32.000  33.017  1.00  0.00     0.167 HD
ATOM     39  C   UNL A   1      40.460  28.957  29.960  1.00  0.00     0.037 A 
ATOM     40  C   UNL A   1      39.857  33.161  35.544  1.00  0.00     0.037 A 
ATOM     41  C   UNL A   1      41.382  28.682  31.031  1.00  0.00     0.049 A 
ATOM     42  C   UNL A   1      40.831  32.011  35.513  1.00  0.00     0.074 A 
ATOM     43  C   UNL A   1      42.378  27.725  31.089  1.00  0.00     0.029 A 
ATOM     44  N   UNL A   1      41.409  29.364  32.241  1.00  0.00    -0.354 N 
ATOM     45  N   UNL A   1      41.086  31.166  34.542  1.00  0.00    -0.248 NA
ATOM     46  C   UNL A   1      41.622  31.777  36.729  1.00  0.00     0.031 C 
ATOM     47  C   UNL A   1      42.970  27.787  32.354  1.00  0.00     0.029 A 
ATOM     48  C   UNL A   1      42.387  28.826  33.063  1.00  0.00     0.049 A 
ATOM     49  H   UNL A   1      40.822  30.117  32.479  1.00  0.00     0.167 HD
ATOM     50  C   UNL A   1      42.087  30.327  35.016  1.00  0.00     0.074 A 
ATOM     51  C   UNL A   1      42.397  30.767  36.359  1.00  0.00     0.031 C 
ATOM     52  C   UNL A   1      42.694  29.288  34.393  1.00  0.00     0.037 A 
BRANCH  39  53
ATOM     53  C   UNL A   1      40.512  28.089  28.737  1.00  0.00     0.064 A 
ATOM     54  C   UNL A   1      41.274  28.437  27.613  1.00  0.00     0.173 A 
ATOM     55  C   UNL A   1      39.811  26.873  28.703  1.00  0.00     0.173 A 
ATOM     56  F   UNL A   1      41.953  29.594  27.589  1.00  0.00    -0.203 F 
ATOM     57  C   UNL A   1      41.314  27.613  26.491  1.00  0.00     0.198 A 
ATOM     58  C   UNL A   1      39.876  26.039  27.591  1.00  0.00     0.198 A 
ATOM     59  F   UNL A   1      39.068  26.491  29.754  1.00  0.00    -0.203 F 
ATOM     60  F   UNL A   1      42.011  27.988  25.409  1.00  0.00    -0.200 F 
ATOM     61  C   UNL A   1      40.622  26.412  26.484  1.00  0.00     0.200 A 
ATOM     62  F   UNL A   1      39.217  24.871  27.593  1.00  0.00    -0.200 F 
ATOM     63  F   UNL A   1      40.666  25.616  25.406  1.00  0.00    -0.200 F 
ENDBRANCH  39  53
BRANCH  40  64
ATOM     64  C   UNL A   1      39.717  34.007  36.756  1.00  0.00     0.064 A 
ATOM     65  C   UNL A   1      40.421  35.212  36.884  1.00  0.00     0.173 A 
ATOM     66  C   UNL A   1      38.888  33.622  37.822  1.00  0.00     0.173 A 
ATOM     67  F   UNL A   1      41.246  35.612  35.905  1.00  0.00    -0.203 F 
ATOM     68  C   UNL A   1      40.319  35.987  38.038  1.00  0.00     0.198 A 
ATOM     69  C   UNL A   1      38.763  34.412  38.961  1.00  0.00     0.198 A 
ATOM     70  F   UNL A   1      38.194  32.476  37.753  1.00  0.00    -0.203 F 
ATOM     71  F   UNL A   1      41.044  37.108  38.155  1.00  0.00    -0.200 F 
ATOM     72  C   UNL A   1      39.486  35.591  39.073  1.00  0.00     0.200 A 
ATOM     73  F   UNL A   1      37.948  34.031  39.954  1.00  0.00    -0.200 F 
ATOM     74  F   UNL A   1      39.387  36.337  40.181  1.00  0.00    -0.200 F 
ENDBRANCH  40  64
BRANCH  52  75
ATOM     75  C   UNL A   1      43.794  28.581  35.132  1.00  0.00     0.064 A 
ATOM     76  C   UNL A   1      45.134  28.979  35.021  1.00  0.00     0.173 A 
ATOM     77  C   UNL A   1      43.490  27.532  36.013  1.00  0.00     0.173 A 
ATOM     78  F   UNL A   1      45.478  29.967  34.181  1.00  0.00    -0.203 F 
ATOM     79  C   UNL A   1      46.131  28.343  35.756  1.00  0.00     0.198 A 
ATOM     80  C   UNL A   1      44.486  26.918  36.768  1.00  0.00     0.198 A 
ATOM     81  F   UNL A   1      42.223  27.117  36.161  1.00  0.00    -0.203 F 
ATOM     82  F   UNL A   1      47.411  28.714  35.607  1.00  0.00    -0.200 F 
ATOM     83  C   UNL A   1      45.806  27.322  36.636  1.00  0.00     0.200 A 
ATOM     84  F   UNL A   1      44.167  25.943  37.630  1.00  0.00    -0.200 F 
ATOM     85  F   UNL A   1      46.766  26.722  37.354  1.00  0.00    -0.200 F 
ENDBRANCH  52  75
ENDBRANCH  26  27
ENDBRANCH  19  21
ENDBRANCH  18  19
ENDBRANCH  17  18
ENDBRANCH   1  17
TORSDOF 15
ENDMDL
