MODEL 1
REMARK VINA RESULT:     -10.9      0.000      0.000
REMARK SMILES C[C@H](O)C[C@@H](Cc1cccc(Br)c1)C(=O)OCCOC(=O)c1ccc(-c2c3nc(c(-c4c(F)c(F)c(F)c(F)c4F)c4ccc([nH]4)c(-c4c(F)c(F)c(F)c(F)c4F)c4nc(c(-c5c(F)c(F)c(F)c(F)c5F)c5ccc2[nH]5)C=C4)C=C3)cc1
REMARK SMILES IDX 17 1 16 2 14 3 15 4 5 5 4 6 2 7 1 8 3 9 6 11 7 12 8 13 13 14
REMARK SMILES IDX 9 15 11 16 10 17 12 18 18 19 19 20 20 21 21 22 22 23 23 24
REMARK SMILES IDX 84 25 24 26 83 27 25 28 26 29 27 30 77 31 28 32 82 33 76 34
REMARK SMILES IDX 78 35 29 36 81 37 75 38 74 39 30 41 62 42 42 43 61 44 43 45
REMARK SMILES IDX 46 46 60 47 79 48 44 49 45 50 59 52 80 53 47 54 31 55 32 56
REMARK SMILES IDX 40 57 33 58 34 59 38 60 41 61 35 62 36 63 39 64 37 65 63 66
REMARK SMILES IDX 64 67 72 68 65 69 66 70 70 71 73 72 67 73 68 74 71 75 69 76
REMARK SMILES IDX 48 77 49 78 57 79 50 80 51 81 55 82 58 83 52 84 53 85 56 86
REMARK SMILES IDX 54 87
REMARK H PARENT 3 10 78 40 46 51
REMARK Flexibility Score: inf
ROOT
ATOM      1  C   UNL A   1      31.659  29.700  25.450  1.00  0.00     0.274 C 
ENDROOT
BRANCH   1   2
ATOM      2  O   UNL A   1      32.944  29.157  25.095  1.00  0.00    -0.462 OA
BRANCH   2   3
ATOM      3  C   UNL A   1      33.054  28.633  23.847  1.00  0.00     0.309 C 
ATOM      4  O   UNL A   1      33.048  29.283  22.808  1.00  0.00    -0.252 OA
BRANCH   3   5
ATOM      5  C   UNL A   1      33.140  27.116  23.848  1.00  0.00     0.106 C 
BRANCH   5   6
ATOM      6  C   UNL A   1      33.456  26.513  22.466  1.00  0.00     0.047 C 
BRANCH   6   7
ATOM      7  C   UNL A   1      32.209  26.008  21.730  1.00  0.00     0.112 C 
ATOM      8  C   UNL A   1      32.561  25.466  20.352  1.00  0.00     0.038 C 
BRANCH   7   9
ATOM      9  O   UNL A   1      31.298  27.091  21.559  1.00  0.00    -0.393 OA
ATOM     10  H   UNL A   1      31.585  27.844  22.100  1.00  0.00     0.210 HD
ENDBRANCH   7   9
ENDBRANCH   6   7
ENDBRANCH   5   6
BRANCH   5  11
ATOM     11  C   UNL A   1      34.036  26.642  25.007  1.00  0.00     0.051 C 
BRANCH  11  12
ATOM     12  C   UNL A   1      33.756  25.259  25.546  1.00  0.00    -0.046 A 
ATOM     13  C   UNL A   1      34.787  24.329  25.740  1.00  0.00     0.004 A 
ATOM     14  C   UNL A   1      32.440  24.879  25.849  1.00  0.00     0.019 A 
ATOM     15  C   UNL A   1      34.519  23.065  26.268  1.00  0.00     0.001 A 
ATOM     16  C   UNL A   1      32.174  23.604  26.351  1.00  0.00     0.018 A 
ATOM     17  C   UNL A   1      33.209  22.699  26.573  1.00  0.00     0.016 A 
ATOM     18  Br  UNL A   1      30.392  23.098  26.725  1.00  0.00    -0.051 Br
ENDBRANCH  11  12
ENDBRANCH   5  11
ENDBRANCH   3   5
ENDBRANCH   2   3
ENDBRANCH   1   2
BRANCH   1  19
ATOM     19  C   UNL A   1      31.798  31.057  26.142  1.00  0.00     0.275 C 
BRANCH  19  20
ATOM     20  O   UNL A   1      32.629  30.959  27.314  1.00  0.00    -0.458 OA
BRANCH  20  21
ATOM     21  C   UNL A   1      33.415  32.035  27.540  1.00  0.00     0.338 C 
ATOM     22  O   UNL A   1      33.087  33.209  27.541  1.00  0.00    -0.246 OA
BRANCH  21  23
ATOM     23  C   UNL A   1      34.767  31.595  27.916  1.00  0.00     0.060 A 
ATOM     24  C   UNL A   1      34.957  30.241  28.201  1.00  0.00     0.016 A 
ATOM     25  C   UNL A   1      35.797  32.516  28.118  1.00  0.00     0.016 A 
ATOM     26  C   UNL A   1      36.167  29.801  28.722  1.00  0.00     0.010 A 
ATOM     27  C   UNL A   1      37.017  32.071  28.642  1.00  0.00     0.010 A 
ATOM     28  C   UNL A   1      37.194  30.717  28.974  1.00  0.00    -0.014 A 
BRANCH  28  29
ATOM     29  C   UNL A   1      38.399  30.254  29.700  1.00  0.00     0.031 A 
ATOM     30  C   UNL A   1      38.607  30.676  31.127  1.00  0.00     0.074 A 
ATOM     31  C   UNL A   1      39.257  29.402  29.113  1.00  0.00     0.049 A 
ATOM     32  N   UNL A   1      39.585  30.383  31.946  1.00  0.00    -0.248 NA
ATOM     33  C   UNL A   1      37.573  31.545  31.709  1.00  0.00     0.031 C 
ATOM     34  C   UNL A   1      39.131  28.881  27.754  1.00  0.00     0.029 A 
ATOM     35  N   UNL A   1      40.399  28.814  29.596  1.00  0.00    -0.354 N 
ATOM     36  C   UNL A   1      39.294  31.045  33.130  1.00  0.00     0.074 A 
ATOM     37  C   UNL A   1      38.057  31.767  32.923  1.00  0.00     0.031 C 
ATOM     38  C   UNL A   1      40.150  28.038  27.513  1.00  0.00     0.029 A 
ATOM     39  C   UNL A   1      41.013  27.986  28.691  1.00  0.00     0.049 A 
ATOM     40  H   UNL A   1      40.745  28.972  30.504  1.00  0.00     0.167 HD
ATOM     41  C   UNL A   1      39.997  31.046  34.289  1.00  0.00     0.037 A 
ATOM     42  C   UNL A   1      42.149  27.272  28.803  1.00  0.00     0.037 A 
ATOM     43  C   UNL A   1      41.211  30.308  34.504  1.00  0.00     0.049 A 
ATOM     44  C   UNL A   1      42.925  27.315  30.091  1.00  0.00     0.074 A 
ATOM     45  C   UNL A   1      41.991  30.239  35.646  1.00  0.00     0.029 A 
ATOM     46  N   UNL A   1      41.820  29.502  33.553  1.00  0.00    -0.354 N 
ATOM     47  N   UNL A   1      42.647  27.948  31.205  1.00  0.00    -0.248 NA
ATOM     48  C   UNL A   1      44.174  26.542  30.137  1.00  0.00     0.031 C 
ATOM     49  C   UNL A   1      43.089  29.414  35.376  1.00  0.00     0.029 A 
ATOM     50  C   UNL A   1      42.973  28.942  34.078  1.00  0.00     0.049 A 
ATOM     51  H   UNL A   1      41.483  29.350  32.642  1.00  0.00     0.167 HD
ATOM     52  C   UNL A   1      43.669  27.633  32.088  1.00  0.00     0.074 A 
ATOM     53  C   UNL A   1      44.570  26.742  31.386  1.00  0.00     0.031 C 
ATOM     54  C   UNL A   1      43.848  28.046  33.367  1.00  0.00     0.037 A 
BRANCH  41  55
ATOM     55  C   UNL A   1      39.477  31.902  35.404  1.00  0.00     0.064 A 
ATOM     56  C   UNL A   1      38.572  31.406  36.354  1.00  0.00     0.173 A 
ATOM     57  C   UNL A   1      39.909  33.230  35.535  1.00  0.00     0.173 A 
ATOM     58  F   UNL A   1      38.118  30.148  36.262  1.00  0.00    -0.203 F 
ATOM     59  C   UNL A   1      38.102  32.219  37.384  1.00  0.00     0.198 A 
ATOM     60  C   UNL A   1      39.454  34.032  36.578  1.00  0.00     0.198 A 
ATOM     61  F   UNL A   1      40.776  33.748  34.651  1.00  0.00    -0.203 F 
ATOM     62  F   UNL A   1      37.207  31.738  38.258  1.00  0.00    -0.200 F 
ATOM     63  C   UNL A   1      38.547  33.528  37.497  1.00  0.00     0.200 A 
ATOM     64  F   UNL A   1      39.890  35.294  36.690  1.00  0.00    -0.200 F 
ATOM     65  F   UNL A   1      38.094  34.307  38.490  1.00  0.00    -0.200 F 
ENDBRANCH  41  55
BRANCH  42  66
ATOM     66  C   UNL A   1      42.622  26.451  27.660  1.00  0.00     0.064 A 
ATOM     67  C   UNL A   1      42.164  25.138  27.479  1.00  0.00     0.173 A 
ATOM     68  C   UNL A   1      43.543  26.958  26.733  1.00  0.00     0.173 A 
ATOM     69  F   UNL A   1      41.302  24.603  28.355  1.00  0.00    -0.203 F 
ATOM     70  C   UNL A   1      42.623  24.359  26.419  1.00  0.00     0.198 A 
ATOM     71  C   UNL A   1      43.983  26.185  25.661  1.00  0.00     0.198 A 
ATOM     72  F   UNL A   1      44.013  28.207  26.866  1.00  0.00    -0.203 F 
ATOM     73  F   UNL A   1      42.201  23.094  26.290  1.00  0.00    -0.200 F 
ATOM     74  C   UNL A   1      43.527  24.884  25.508  1.00  0.00     0.200 A 
ATOM     75  F   UNL A   1      44.852  26.698  24.779  1.00  0.00    -0.200 F 
ATOM     76  F   UNL A   1      43.966  24.134  24.489  1.00  0.00    -0.200 F 
ENDBRANCH  42  66
BRANCH  54  77
ATOM     77  C   UNL A   1      45.043  27.512  34.097  1.00  0.00     0.064 A 
ATOM     78  C   UNL A   1      44.988  26.307  34.811  1.00  0.00     0.173 A 
ATOM     79  C   UNL A   1      46.265  28.199  34.055  1.00  0.00     0.173 A 
ATOM     80  F   UNL A   1      43.837  25.623  34.892  1.00  0.00    -0.203 F 
ATOM     81  C   UNL A   1      46.109  25.820  35.477  1.00  0.00     0.198 A 
ATOM     82  C   UNL A   1      47.390  27.697  34.703  1.00  0.00     0.198 A 
ATOM     83  F   UNL A   1      46.369  29.355  33.381  1.00  0.00    -0.203 F 
ATOM     84  F   UNL A   1      46.024  24.687  36.188  1.00  0.00    -0.200 F 
ATOM     85  C   UNL A   1      47.310  26.512  35.418  1.00  0.00     0.200 A 
ATOM     86  F   UNL A   1      48.552  28.365  34.639  1.00  0.00    -0.200 F 
ATOM     87  F   UNL A   1      48.388  26.041  36.059  1.00  0.00    -0.200 F 
ENDBRANCH  54  77
ENDBRANCH  28  29
ENDBRANCH  21  23
ENDBRANCH  20  21
ENDBRANCH  19  20
ENDBRANCH   1  19
TORSDOF 16
ENDMDL
MODEL 2
REMARK VINA RESULT:     -10.8      1.525      2.932
REMARK SMILES C[C@H](O)C[C@@H](Cc1cccc(Br)c1)C(=O)OCCOC(=O)c1ccc(-c2c3nc(c(-c4c(F)c(F)c(F)c(F)c4F)c4ccc([nH]4)c(-c4c(F)c(F)c(F)c(F)c4F)c4nc(c(-c5c(F)c(F)c(F)c(F)c5F)c5ccc2[nH]5)C=C4)C=C3)cc1
REMARK SMILES IDX 17 1 16 2 14 3 15 4 5 5 4 6 2 7 1 8 3 9 6 11 7 12 8 13 13 14
REMARK SMILES IDX 9 15 11 16 10 17 12 18 18 19 19 20 20 21 21 22 22 23 23 24
REMARK SMILES IDX 84 25 24 26 83 27 25 28 26 29 27 30 77 31 28 32 82 33 76 34
REMARK SMILES IDX 78 35 29 36 81 37 75 38 74 39 30 41 62 42 42 43 61 44 43 45
REMARK SMILES IDX 46 46 60 47 79 48 44 49 45 50 59 52 80 53 47 54 31 55 32 56
REMARK SMILES IDX 40 57 33 58 34 59 38 60 41 61 35 62 36 63 39 64 37 65 63 66
REMARK SMILES IDX 64 67 72 68 65 69 66 70 70 71 73 72 67 73 68 74 71 75 69 76
REMARK SMILES IDX 48 77 49 78 57 79 50 80 51 81 55 82 58 83 52 84 53 85 56 86
REMARK SMILES IDX 54 87
REMARK H PARENT 3 10 78 40 46 51
REMARK Flexibility Score: inf
ROOT
ATOM      1  C   UNL A   1      31.459  28.754  25.970  1.00  0.00     0.274 C 
ENDROOT
BRANCH   1   2
ATOM      2  O   UNL A   1      32.247  27.652  26.461  1.00  0.00    -0.462 OA
BRANCH   2   3
ATOM      3  C   UNL A   1      31.680  26.421  26.379  1.00  0.00     0.309 C 
ATOM      4  O   UNL A   1      30.483  26.188  26.512  1.00  0.00    -0.252 OA
BRANCH   3   5
ATOM      5  C   UNL A   1      32.696  25.316  26.147  1.00  0.00     0.106 C 
BRANCH   5   6
ATOM      6  C   UNL A   1      32.074  23.908  26.076  1.00  0.00     0.047 C 
BRANCH   6   7
ATOM      7  C   UNL A   1      32.739  22.907  27.028  1.00  0.00     0.112 C 
ATOM      8  C   UNL A   1      33.229  21.675  26.281  1.00  0.00     0.038 C 
BRANCH   7   9
ATOM      9  O   UNL A   1      31.786  22.485  28.000  1.00  0.00    -0.393 OA
ATOM     10  H   UNL A   1      30.956  22.972  27.873  1.00  0.00     0.210 HD
ENDBRANCH   7   9
ENDBRANCH   6   7
ENDBRANCH   5   6
BRANCH   5  11
ATOM     11  C   UNL A   1      33.628  25.697  24.983  1.00  0.00     0.051 C 
BRANCH  11  12
ATOM     12  C   UNL A   1      34.659  24.665  24.587  1.00  0.00    -0.046 A 
ATOM     13  C   UNL A   1      34.501  23.881  23.436  1.00  0.00     0.004 A 
ATOM     14  C   UNL A   1      35.794  24.466  25.387  1.00  0.00     0.019 A 
ATOM     15  C   UNL A   1      35.475  22.952  23.064  1.00  0.00     0.001 A 
ATOM     16  C   UNL A   1      36.752  23.516  25.026  1.00  0.00     0.018 A 
ATOM     17  C   UNL A   1      36.603  22.767  23.861  1.00  0.00     0.016 A 
ATOM     18  Br  UNL A   1      38.260  23.240  26.131  1.00  0.00    -0.051 Br
ENDBRANCH  11  12
ENDBRANCH   5  11
ENDBRANCH   3   5
ENDBRANCH   2   3
ENDBRANCH   1   2
BRANCH   1  19
ATOM     19  C   UNL A   1      31.794  30.052  26.706  1.00  0.00     0.275 C 
BRANCH  19  20
ATOM     20  O   UNL A   1      33.131  30.491  26.401  1.00  0.00    -0.458 OA
BRANCH  20  21
ATOM     21  C   UNL A   1      33.617  31.440  27.233  1.00  0.00     0.338 C 
ATOM     22  O   UNL A   1      33.036  32.422  27.662  1.00  0.00    -0.246 OA
BRANCH  21  23
ATOM     23  C   UNL A   1      34.971  31.070  27.674  1.00  0.00     0.060 A 
ATOM     24  C   UNL A   1      35.252  29.714  27.849  1.00  0.00     0.016 A 
ATOM     25  C   UNL A   1      35.902  32.043  28.040  1.00  0.00     0.016 A 
ATOM     26  C   UNL A   1      36.454  29.319  28.424  1.00  0.00     0.010 A 
ATOM     27  C   UNL A   1      37.114  31.644  28.618  1.00  0.00     0.010 A 
ATOM     28  C   UNL A   1      37.380  30.282  28.839  1.00  0.00    -0.014 A 
BRANCH  28  29
ATOM     29  C   UNL A   1      38.563  29.844  29.614  1.00  0.00     0.031 A 
ATOM     30  C   UNL A   1      38.753  30.351  31.017  1.00  0.00     0.074 A 
ATOM     31  C   UNL A   1      39.416  28.944  29.098  1.00  0.00     0.049 A 
ATOM     32  N   UNL A   1      39.711  30.092  31.870  1.00  0.00    -0.248 NA
ATOM     33  C   UNL A   1      37.725  31.271  31.525  1.00  0.00     0.031 C 
ATOM     34  C   UNL A   1      39.304  28.342  27.770  1.00  0.00     0.029 A 
ATOM     35  N   UNL A   1      40.539  28.368  29.636  1.00  0.00    -0.354 N 
ATOM     36  C   UNL A   1      39.412  30.831  33.006  1.00  0.00     0.074 A 
ATOM     37  C   UNL A   1      38.192  31.559  32.732  1.00  0.00     0.031 C 
ATOM     38  C   UNL A   1      40.312  27.469  27.601  1.00  0.00     0.029 A 
ATOM     39  C   UNL A   1      41.153  27.475  28.795  1.00  0.00     0.049 A 
ATOM     40  H   UNL A   1      40.871  28.575  30.539  1.00  0.00     0.167 HD
ATOM     41  C   UNL A   1      40.094  30.891  34.175  1.00  0.00     0.037 A 
ATOM     42  C   UNL A   1      42.274  26.751  28.972  1.00  0.00     0.037 A 
ATOM     43  C   UNL A   1      41.291  30.148  34.458  1.00  0.00     0.049 A 
ATOM     44  C   UNL A   1      43.028  26.860  30.269  1.00  0.00     0.074 A 
ATOM     45  C   UNL A   1      42.050  30.136  35.616  1.00  0.00     0.029 A 
ATOM     46  N   UNL A   1      41.902  29.275  33.570  1.00  0.00    -0.354 N 
ATOM     47  N   UNL A   1      42.742  27.565  31.336  1.00  0.00    -0.248 NA
ATOM     48  C   UNL A   1      44.262  26.070  30.386  1.00  0.00     0.031 C 
ATOM     49  C   UNL A   1      43.137  29.277  35.418  1.00  0.00     0.029 A 
ATOM     50  C   UNL A   1      43.036  28.728  34.149  1.00  0.00     0.049 A 
ATOM     51  H   UNL A   1      41.578  29.073  32.663  1.00  0.00     0.167 HD
ATOM     52  C   UNL A   1      43.743  27.288  32.256  1.00  0.00     0.074 A 
ATOM     53  C   UNL A   1      44.639  26.340  31.627  1.00  0.00     0.031 C 
ATOM     54  C   UNL A   1      43.907  27.776  33.510  1.00  0.00     0.037 A 
BRANCH  41  55
ATOM     55  C   UNL A   1      39.570  31.823  35.226  1.00  0.00     0.064 A 
ATOM     56  C   UNL A   1      39.951  33.172  35.273  1.00  0.00     0.173 A 
ATOM     57  C   UNL A   1      38.658  31.362  36.187  1.00  0.00     0.173 A 
ATOM     58  F   UNL A   1      40.832  33.655  34.385  1.00  0.00    -0.203 F 
ATOM     59  C   UNL A   1      39.451  34.020  36.258  1.00  0.00     0.198 A 
ATOM     60  C   UNL A   1      38.144  32.218  37.156  1.00  0.00     0.198 A 
ATOM     61  F   UNL A   1      38.262  30.079  36.182  1.00  0.00    -0.203 F 
ATOM     62  F   UNL A   1      39.858  35.297  36.309  1.00  0.00    -0.200 F 
ATOM     63  C   UNL A   1      38.546  33.544  37.194  1.00  0.00     0.200 A 
ATOM     64  F   UNL A   1      37.264  31.758  38.056  1.00  0.00    -0.200 F 
ATOM     65  F   UNL A   1      38.065  34.364  38.140  1.00  0.00    -0.200 F 
ENDBRANCH  41  55
BRANCH  42  66
ATOM     66  C   UNL A   1      42.752  25.853  27.890  1.00  0.00     0.064 A 
ATOM     67  C   UNL A   1      43.689  26.298  26.947  1.00  0.00     0.173 A 
ATOM     68  C   UNL A   1      42.280  24.539  27.775  1.00  0.00     0.173 A 
ATOM     69  F   UNL A   1      44.150  27.556  27.003  1.00  0.00    -0.203 F 
ATOM     70  C   UNL A   1      44.123  25.465  25.919  1.00  0.00     0.198 A 
ATOM     71  C   UNL A   1      42.732  23.699  26.760  1.00  0.00     0.198 A 
ATOM     72  F   UNL A   1      41.381  24.068  28.652  1.00  0.00    -0.203 F 
ATOM     73  F   UNL A   1      44.988  25.927  25.005  1.00  0.00    -0.200 F 
ATOM     74  C   UNL A   1      43.649  24.164  25.829  1.00  0.00     0.200 A 
ATOM     75  F   UNL A   1      42.277  22.441  26.681  1.00  0.00    -0.200 F 
ATOM     76  F   UNL A   1      44.068  23.363  24.841  1.00  0.00    -0.200 F 
ENDBRANCH  42  66
BRANCH  54  77
ATOM     77  C   UNL A   1      45.079  27.267  34.294  1.00  0.00     0.064 A 
ATOM     78  C   UNL A   1      46.313  27.932  34.282  1.00  0.00     0.173 A 
ATOM     79  C   UNL A   1      44.955  26.118  35.089  1.00  0.00     0.173 A 
ATOM     80  F   UNL A   1      46.483  29.025  33.524  1.00  0.00    -0.203 F 
ATOM     81  C   UNL A   1      47.390  27.450  35.022  1.00  0.00     0.198 A 
ATOM     82  C   UNL A   1      46.026  25.654  35.846  1.00  0.00     0.198 A 
ATOM     83  F   UNL A   1      43.792  25.451  35.137  1.00  0.00    -0.203 F 
ATOM     84  F   UNL A   1      48.573  28.077  34.964  1.00  0.00    -0.200 F 
ATOM     85  C   UNL A   1      47.244  26.315  35.807  1.00  0.00     0.200 A 
ATOM     86  F   UNL A   1      45.882  24.561  36.609  1.00  0.00    -0.200 F 
ATOM     87  F   UNL A   1      48.282  25.854  36.519  1.00  0.00    -0.200 F 
ENDBRANCH  54  77
ENDBRANCH  28  29
ENDBRANCH  21  23
ENDBRANCH  20  21
ENDBRANCH  19  20
ENDBRANCH   1  19
TORSDOF 16
ENDMDL
MODEL 3
REMARK VINA RESULT:     -10.7      1.155      1.859
REMARK SMILES C[C@H](O)C[C@@H](Cc1cccc(Br)c1)C(=O)OCCOC(=O)c1ccc(-c2c3nc(c(-c4c(F)c(F)c(F)c(F)c4F)c4ccc([nH]4)c(-c4c(F)c(F)c(F)c(F)c4F)c4nc(c(-c5c(F)c(F)c(F)c(F)c5F)c5ccc2[nH]5)C=C4)C=C3)cc1
REMARK SMILES IDX 17 1 16 2 14 3 15 4 5 5 4 6 2 7 1 8 3 9 6 11 7 12 8 13 13 14
REMARK SMILES IDX 9 15 11 16 10 17 12 18 18 19 19 20 20 21 21 22 22 23 23 24
REMARK SMILES IDX 84 25 24 26 83 27 25 28 26 29 27 30 77 31 28 32 82 33 76 34
REMARK SMILES IDX 78 35 29 36 81 37 75 38 74 39 30 41 62 42 42 43 61 44 43 45
REMARK SMILES IDX 46 46 60 47 79 48 44 49 45 50 59 52 80 53 47 54 31 55 32 56
REMARK SMILES IDX 40 57 33 58 34 59 38 60 41 61 35 62 36 63 39 64 37 65 63 66
REMARK SMILES IDX 64 67 72 68 65 69 66 70 70 71 73 72 67 73 68 74 71 75 69 76
REMARK SMILES IDX 48 77 49 78 57 79 50 80 51 81 55 82 58 83 52 84 53 85 56 86
REMARK SMILES IDX 54 87
REMARK H PARENT 3 10 78 40 46 51
REMARK Flexibility Score: inf
ROOT
ATOM      1  C   UNL A   1      31.454  29.246  25.637  1.00  0.00     0.274 C 
ENDROOT
BRANCH   1   2
ATOM      2  O   UNL A   1      32.423  28.183  25.725  1.00  0.00    -0.462 OA
BRANCH   2   3
ATOM      3  C   UNL A   1      31.935  26.940  25.966  1.00  0.00     0.309 C 
ATOM      4  O   UNL A   1      31.095  26.666  26.817  1.00  0.00    -0.252 OA
BRANCH   3   5
ATOM      5  C   UNL A   1      32.573  25.874  25.091  1.00  0.00     0.106 C 
BRANCH   5   6
ATOM      6  C   UNL A   1      32.334  26.085  23.584  1.00  0.00     0.047 C 
BRANCH   6   7
ATOM      7  C   UNL A   1      33.609  26.453  22.817  1.00  0.00     0.112 C 
ATOM      8  C   UNL A   1      33.616  27.923  22.426  1.00  0.00     0.038 C 
BRANCH   7   9
ATOM      9  O   UNL A   1      33.675  25.677  21.623  1.00  0.00    -0.393 OA
ATOM     10  H   UNL A   1      32.861  25.158  21.529  1.00  0.00     0.210 HD
ENDBRANCH   7   9
ENDBRANCH   6   7
ENDBRANCH   5   6
BRANCH   5  11
ATOM     11  C   UNL A   1      34.037  25.656  25.514  1.00  0.00     0.051 C 
BRANCH  11  12
ATOM     12  C   UNL A   1      34.445  24.229  25.801  1.00  0.00    -0.046 A 
ATOM     13  C   UNL A   1      33.553  23.319  26.385  1.00  0.00     0.004 A 
ATOM     14  C   UNL A   1      35.744  23.798  25.496  1.00  0.00     0.019 A 
ATOM     15  C   UNL A   1      33.932  21.996  26.617  1.00  0.00     0.001 A 
ATOM     16  C   UNL A   1      36.127  22.481  25.755  1.00  0.00     0.018 A 
ATOM     17  C   UNL A   1      35.223  21.575  26.303  1.00  0.00     0.016 A 
ATOM     18  Br  UNL A   1      37.891  21.924  25.365  1.00  0.00    -0.051 Br
ENDBRANCH  11  12
ENDBRANCH   5  11
ENDBRANCH   3   5
ENDBRANCH   2   3
ENDBRANCH   1   2
BRANCH   1  19
ATOM     19  C   UNL A   1      31.808  30.403  26.573  1.00  0.00     0.275 C 
BRANCH  19  20
ATOM     20  O   UNL A   1      33.172  30.823  26.386  1.00  0.00    -0.458 OA
BRANCH  20  21
ATOM     21  C   UNL A   1      33.632  31.682  27.323  1.00  0.00     0.338 C 
ATOM     22  O   UNL A   1      33.031  32.606  27.843  1.00  0.00    -0.246 OA
BRANCH  21  23
ATOM     23  C   UNL A   1      34.981  31.282  27.749  1.00  0.00     0.060 A 
ATOM     24  C   UNL A   1      35.218  29.924  27.976  1.00  0.00     0.016 A 
ATOM     25  C   UNL A   1      35.956  32.234  28.049  1.00  0.00     0.016 A 
ATOM     26  C   UNL A   1      36.419  29.510  28.539  1.00  0.00     0.010 A 
ATOM     27  C   UNL A   1      37.167  31.815  28.615  1.00  0.00     0.010 A 
ATOM     28  C   UNL A   1      37.389  30.455  28.889  1.00  0.00    -0.014 A 
BRANCH  28  29
ATOM     29  C   UNL A   1      38.575  30.007  29.655  1.00  0.00     0.031 A 
ATOM     30  C   UNL A   1      38.767  30.490  31.065  1.00  0.00     0.074 A 
ATOM     31  C   UNL A   1      39.429  29.117  29.122  1.00  0.00     0.049 A 
ATOM     32  N   UNL A   1      39.727  30.220  31.912  1.00  0.00    -0.248 NA
ATOM     33  C   UNL A   1      37.737  31.400  31.591  1.00  0.00     0.031 C 
ATOM     34  C   UNL A   1      39.315  28.537  27.785  1.00  0.00     0.029 A 
ATOM     35  N   UNL A   1      40.554  28.534  29.648  1.00  0.00    -0.354 N 
ATOM     36  C   UNL A   1      39.429  30.939  33.061  1.00  0.00     0.074 A 
ATOM     37  C   UNL A   1      38.206  31.669  32.802  1.00  0.00     0.031 C 
ATOM     38  C   UNL A   1      40.324  27.669  27.599  1.00  0.00     0.029 A 
ATOM     39  C   UNL A   1      41.168  27.657  28.792  1.00  0.00     0.049 A 
ATOM     40  H   UNL A   1      40.887  28.728  30.554  1.00  0.00     0.167 HD
ATOM     41  C   UNL A   1      40.113  30.982  34.229  1.00  0.00     0.037 A 
ATOM     42  C   UNL A   1      42.291  26.932  28.954  1.00  0.00     0.037 A 
ATOM     43  C   UNL A   1      41.312  30.236  34.497  1.00  0.00     0.049 A 
ATOM     44  C   UNL A   1      43.048  27.022  30.251  1.00  0.00     0.074 A 
ATOM     45  C   UNL A   1      42.073  30.207  35.653  1.00  0.00     0.029 A 
ATOM     46  N   UNL A   1      41.923  29.379  33.594  1.00  0.00    -0.354 N 
ATOM     47  N   UNL A   1      42.762  27.709  31.330  1.00  0.00    -0.248 NA
ATOM     48  C   UNL A   1      44.284  26.233  30.352  1.00  0.00     0.031 C 
ATOM     49  C   UNL A   1      43.162  29.354  35.439  1.00  0.00     0.029 A 
ATOM     50  C   UNL A   1      43.060  28.826  34.161  1.00  0.00     0.049 A 
ATOM     51  H   UNL A   1      41.598  29.191  32.684  1.00  0.00     0.167 HD
ATOM     52  C   UNL A   1      43.766  27.419  32.244  1.00  0.00     0.074 A 
ATOM     53  C   UNL A   1      44.663  26.483  31.597  1.00  0.00     0.031 C 
ATOM     54  C   UNL A   1      43.931  27.886  33.505  1.00  0.00     0.037 A 
BRANCH  41  55
ATOM     55  C   UNL A   1      39.590  31.894  35.297  1.00  0.00     0.064 A 
ATOM     56  C   UNL A   1      39.947  33.250  35.349  1.00  0.00     0.173 A 
ATOM     57  C   UNL A   1      38.701  31.409  36.267  1.00  0.00     0.173 A 
ATOM     58  F   UNL A   1      40.805  33.757  34.452  1.00  0.00    -0.203 F 
ATOM     59  C   UNL A   1      39.448  34.081  36.349  1.00  0.00     0.198 A 
ATOM     60  C   UNL A   1      38.188  32.248  37.252  1.00  0.00     0.198 A 
ATOM     61  F   UNL A   1      38.328  30.119  36.257  1.00  0.00    -0.203 F 
ATOM     62  F   UNL A   1      39.832  35.364  36.405  1.00  0.00    -0.200 F 
ATOM     63  C   UNL A   1      38.566  33.580  37.296  1.00  0.00     0.200 A 
ATOM     64  F   UNL A   1      37.330  31.764  38.162  1.00  0.00    -0.200 F 
ATOM     65  F   UNL A   1      38.086  34.383  38.256  1.00  0.00    -0.200 F 
ENDBRANCH  41  55
BRANCH  42  66
ATOM     66  C   UNL A   1      42.769  26.054  27.857  1.00  0.00     0.064 A 
ATOM     67  C   UNL A   1      42.348  24.719  27.768  1.00  0.00     0.173 A 
ATOM     68  C   UNL A   1      43.659  26.526  26.882  1.00  0.00     0.173 A 
ATOM     69  F   UNL A   1      41.517  24.216  28.693  1.00  0.00    -0.203 F 
ATOM     70  C   UNL A   1      42.811  23.887  26.752  1.00  0.00     0.198 A 
ATOM     71  C   UNL A   1      44.103  25.699  25.853  1.00  0.00     0.198 A 
ATOM     72  F   UNL A   1      44.093  27.794  26.927  1.00  0.00    -0.203 F 
ATOM     73  F   UNL A   1      42.425  22.604  26.712  1.00  0.00    -0.200 F 
ATOM     74  C   UNL A   1      43.684  24.379  25.792  1.00  0.00     0.200 A 
ATOM     75  F   UNL A   1      44.941  26.180  24.924  1.00  0.00    -0.200 F 
ATOM     76  F   UNL A   1      44.128  23.578  24.815  1.00  0.00    -0.200 F 
ENDBRANCH  42  66
BRANCH  54  77
ATOM     77  C   UNL A   1      45.106  27.367  34.278  1.00  0.00     0.064 A 
ATOM     78  C   UNL A   1      45.019  26.200  35.049  1.00  0.00     0.173 A 
ATOM     79  C   UNL A   1      46.341  28.031  34.220  1.00  0.00     0.173 A 
ATOM     80  F   UNL A   1      43.855  25.541  35.146  1.00  0.00    -0.203 F 
ATOM     81  C   UNL A   1      46.123  25.727  35.754  1.00  0.00     0.198 A 
ATOM     82  C   UNL A   1      47.448  27.542  34.908  1.00  0.00     0.198 A 
ATOM     83  F   UNL A   1      46.475  29.149  33.492  1.00  0.00    -0.203 F 
ATOM     84  F   UNL A   1      46.007  24.631  36.518  1.00  0.00    -0.200 F 
ATOM     85  C   UNL A   1      47.337  26.394  35.679  1.00  0.00     0.200 A 
ATOM     86  F   UNL A   1      48.622  28.184  34.829  1.00  0.00    -0.200 F 
ATOM     87  F   UNL A   1      48.397  25.937  36.358  1.00  0.00    -0.200 F 
ENDBRANCH  54  77
ENDBRANCH  28  29
ENDBRANCH  21  23
ENDBRANCH  20  21
ENDBRANCH  19  20
ENDBRANCH   1  19
TORSDOF 16
ENDMDL
