MODEL 1
REMARK VINA RESULT:     -13.2      0.000      0.000
REMARK SMILES [NH3+][C@@H](Cc1cn(-c2nc(Cl)nc(N3CCOCC3)n2)c2ccccc12)C(=O)OCCOC(=O)c1ccc(-c2c3nc(c(-c4c(F)c(F)c(F)c(F)c4F)c4ccc([nH]4)c(-c4c(F)c(F)c(F)c(F)c4F)c4nc(c(-c5c(F)c(F)c(F)c(F)c5F)c5ccc2[nH]5)C=C4)C=C3)cc1
REMARK SMILES IDX 29 1 28 2 26 3 27 4 2 5 1 6 3 10 4 11 5 12 25 13 6 14 20 15
REMARK SMILES IDX 24 16 21 17 23 18 22 19 7 20 8 21 19 22 9 23 12 24 10 25
REMARK SMILES IDX 11 26 13 27 14 28 18 29 15 30 17 31 16 32 30 33 31 34 32 35
REMARK SMILES IDX 33 36 34 37 35 38 96 39 36 40 95 41 37 42 38 43 39 44 89 45
REMARK SMILES IDX 40 46 94 47 88 48 90 49 41 50 93 51 87 52 86 53 42 55 74 56
REMARK SMILES IDX 54 57 73 58 55 59 58 60 72 61 91 62 56 63 57 64 71 66 92 67
REMARK SMILES IDX 59 68 43 69 44 70 52 71 45 72 46 73 50 74 53 75 47 76 48 77
REMARK SMILES IDX 51 78 49 79 75 80 76 81 84 82 77 83 78 84 82 85 85 86 79 87
REMARK SMILES IDX 80 88 83 89 81 90 60 91 61 92 69 93 62 94 63 95 67 96 70 97
REMARK SMILES IDX 64 98 65 99 68 100 66 101
REMARK H PARENT 1 7 1 8 1 9 90 54 58 65
REMARK Flexibility Score: inf
ROOT
ATOM      1  C   UNL A   1      40.362  20.485  26.479  1.00  0.00     0.274 C 
ENDROOT
BRANCH   1   2
ATOM      2  O   UNL A   1      39.474  21.457  25.887  1.00  0.00    -0.458 OA
BRANCH   2   3
ATOM      3  C   UNL A   1      38.301  20.985  25.374  1.00  0.00     0.365 C 
ATOM      4  O   UNL A   1      38.173  19.857  24.915  1.00  0.00    -0.245 OA
BRANCH   3   5
ATOM      5  C   UNL A   1      37.150  22.024  25.464  1.00  0.00     0.296 C 
BRANCH   5   6
ATOM      6  N   UNL A   1      37.492  23.147  26.369  1.00  0.00    -0.346 N 
ATOM      7  H   UNL A   1      38.452  23.444  26.195  1.00  0.00     0.345 HD
ATOM      8  H   UNL A   1      37.400  22.842  27.338  1.00  0.00     0.345 HD
ATOM      9  H   UNL A   1      36.858  23.927  26.197  1.00  0.00     0.345 HD
ENDBRANCH   5   6
BRANCH   5  10
ATOM     10  C   UNL A   1      36.518  22.432  24.131  1.00  0.00     0.115 C 
BRANCH  10  11
ATOM     11  C   UNL A   1      35.232  23.113  24.315  1.00  0.00    -0.015 A 
ATOM     12  C   UNL A   1      35.003  24.466  24.378  1.00  0.00     0.099 A 
ATOM     13  C   UNL A   1      34.009  22.458  24.562  1.00  0.00     0.004 A 
ATOM     14  N   UNL A   1      33.711  24.661  24.823  1.00  0.00    -0.285 N 
ATOM     15  C   UNL A   1      33.101  23.425  24.997  1.00  0.00     0.056 A 
ATOM     16  C   UNL A   1      33.640  21.103  24.517  1.00  0.00     0.010 A 
ATOM     17  C   UNL A   1      31.819  23.054  25.425  1.00  0.00     0.027 A 
ATOM     18  C   UNL A   1      32.375  20.728  24.944  1.00  0.00     0.001 A 
ATOM     19  C   UNL A   1      31.483  21.692  25.399  1.00  0.00     0.002 A 
BRANCH  14  20
ATOM     20  C   UNL A   1      33.160  25.948  25.041  1.00  0.00     0.240 A 
ATOM     21  N   UNL A   1      33.554  26.657  26.087  1.00  0.00    -0.181 NA
ATOM     22  N   UNL A   1      32.307  26.373  24.107  1.00  0.00    -0.176 NA
ATOM     23  C   UNL A   1      33.098  27.901  26.043  1.00  0.00     0.228 A 
ATOM     24  C   UNL A   1      31.832  27.602  24.244  1.00  0.00     0.231 A 
ATOM     25  Cl  UNL A   1      33.671  28.940  27.273  1.00  0.00    -0.041 Cl
ATOM     26  N   UNL A   1      32.262  28.446  25.163  1.00  0.00    -0.182 NA
BRANCH  24  27
ATOM     27  N   UNL A   1      30.848  27.966  23.380  1.00  0.00    -0.336 N 
ATOM     28  C   UNL A   1      31.099  29.012  22.395  1.00  0.00     0.148 C 
ATOM     29  C   UNL A   1      29.618  27.210  23.229  1.00  0.00     0.148 C 
ATOM     30  C   UNL A   1      29.873  29.927  22.302  1.00  0.00     0.181 C 
ATOM     31  C   UNL A   1      28.458  28.221  23.140  1.00  0.00     0.181 C 
ATOM     32  O   UNL A   1      28.666  29.175  22.078  1.00  0.00    -0.378 OA
ENDBRANCH  24  27
ENDBRANCH  14  20
ENDBRANCH  10  11
ENDBRANCH   5  10
ENDBRANCH   3   5
ENDBRANCH   2   3
ENDBRANCH   1   2
BRANCH   1  33
ATOM     33  C   UNL A   1      41.810  20.815  26.094  1.00  0.00     0.275 C 
BRANCH  33  34
ATOM     34  O   UNL A   1      41.845  22.125  25.506  1.00  0.00    -0.458 OA
BRANCH  34  35
ATOM     35  C   UNL A   1      42.768  22.994  26.003  1.00  0.00     0.338 C 
ATOM     36  O   UNL A   1      43.896  23.168  25.610  1.00  0.00    -0.246 OA
BRANCH  35  37
ATOM     37  C   UNL A   1      42.006  23.929  26.876  1.00  0.00     0.060 A 
ATOM     38  C   UNL A   1      40.899  24.631  26.386  1.00  0.00     0.016 A 
ATOM     39  C   UNL A   1      42.626  24.339  28.053  1.00  0.00     0.016 A 
ATOM     40  C   UNL A   1      40.602  25.892  26.898  1.00  0.00     0.010 A 
ATOM     41  C   UNL A   1      42.294  25.584  28.581  1.00  0.00     0.010 A 
ATOM     42  C   UNL A   1      41.395  26.431  27.913  1.00  0.00    -0.014 A 
BRANCH  42  43
ATOM     43  C   UNL A   1      41.096  27.768  28.454  1.00  0.00     0.031 A 
ATOM     44  C   UNL A   1      42.126  28.712  27.984  1.00  0.00     0.074 A 
ATOM     45  C   UNL A   1      40.096  28.217  29.254  1.00  0.00     0.049 A 
ATOM     46  N   UNL A   1      43.147  29.077  28.684  1.00  0.00    -0.248 NA
ATOM     47  C   UNL A   1      42.192  29.079  26.565  1.00  0.00     0.031 C 
ATOM     48  C   UNL A   1      38.933  27.525  29.789  1.00  0.00     0.029 A 
ATOM     49  N   UNL A   1      39.891  29.489  29.740  1.00  0.00    -0.354 N 
ATOM     50  C   UNL A   1      43.891  29.880  27.843  1.00  0.00     0.074 A 
ATOM     51  C   UNL A   1      43.397  29.647  26.512  1.00  0.00     0.031 C 
ATOM     52  C   UNL A   1      38.014  28.405  30.260  1.00  0.00     0.029 A 
ATOM     53  C   UNL A   1      38.618  29.720  30.276  1.00  0.00     0.049 A 
ATOM     54  H   UNL A   1      40.589  30.183  29.714  1.00  0.00     0.167 HD
ATOM     55  C   UNL A   1      44.636  30.891  28.355  1.00  0.00     0.037 A 
ATOM     56  C   UNL A   1      38.127  30.865  30.824  1.00  0.00     0.037 A 
ATOM     57  C   UNL A   1      44.833  30.727  29.775  1.00  0.00     0.049 A 
ATOM     58  C   UNL A   1      39.296  31.633  31.290  1.00  0.00     0.074 A 
ATOM     59  C   UNL A   1      45.443  29.787  30.582  1.00  0.00     0.029 A 
ATOM     60  N   UNL A   1      44.001  31.447  30.594  1.00  0.00    -0.354 N 
ATOM     61  N   UNL A   1      40.031  31.278  32.303  1.00  0.00    -0.248 NA
ATOM     62  C   UNL A   1      39.895  32.579  30.368  1.00  0.00     0.031 C 
ATOM     63  C   UNL A   1      44.652  29.728  31.769  1.00  0.00     0.029 A 
ATOM     64  C   UNL A   1      43.628  30.669  31.657  1.00  0.00     0.049 A 
ATOM     65  H   UNL A   1      43.719  32.377  30.441  1.00  0.00     0.167 HD
ATOM     66  C   UNL A   1      41.321  31.572  31.899  1.00  0.00     0.074 A 
ATOM     67  C   UNL A   1      41.165  32.477  30.762  1.00  0.00     0.031 C 
ATOM     68  C   UNL A   1      42.367  30.820  32.346  1.00  0.00     0.037 A 
BRANCH  55  69
ATOM     69  C   UNL A   1      44.789  32.218  27.660  1.00  0.00     0.064 A 
ATOM     70  C   UNL A   1      45.960  32.463  26.922  1.00  0.00     0.173 A 
ATOM     71  C   UNL A   1      43.978  33.349  27.912  1.00  0.00     0.173 A 
ATOM     72  F   UNL A   1      46.826  31.470  26.669  1.00  0.00    -0.203 F 
ATOM     73  C   UNL A   1      46.313  33.750  26.510  1.00  0.00     0.198 A 
ATOM     74  C   UNL A   1      44.301  34.619  27.445  1.00  0.00     0.198 A 
ATOM     75  F   UNL A   1      42.912  33.309  28.719  1.00  0.00    -0.203 F 
ATOM     76  F   UNL A   1      47.496  33.956  25.919  1.00  0.00    -0.200 F 
ATOM     77  C   UNL A   1      45.481  34.826  26.769  1.00  0.00     0.200 A 
ATOM     78  F   UNL A   1      43.493  35.650  27.735  1.00  0.00    -0.200 F 
ATOM     79  F   UNL A   1      45.841  36.067  26.418  1.00  0.00    -0.200 F 
ENDBRANCH  55  69
BRANCH  56  80
ATOM     80  C   UNL A   1      36.791  31.512  30.703  1.00  0.00     0.064 A 
ATOM     81  C   UNL A   1      35.983  31.714  31.844  1.00  0.00     0.173 A 
ATOM     82  C   UNL A   1      36.442  32.254  29.561  1.00  0.00     0.173 A 
ATOM     83  F   UNL A   1      36.260  31.073  32.989  1.00  0.00    -0.203 F 
ATOM     84  C   UNL A   1      34.937  32.645  31.858  1.00  0.00     0.198 A 
ATOM     85  C   UNL A   1      35.394  33.183  29.577  1.00  0.00     0.198 A 
ATOM     86  F   UNL A   1      37.176  32.167  28.443  1.00  0.00    -0.203 F 
ATOM     87  F   UNL A   1      34.251  32.866  32.988  1.00  0.00    -0.200 F 
ATOM     88  C   UNL A   1      34.656  33.393  30.729  1.00  0.00     0.200 A 
ATOM     89  F   UNL A   1      35.150  33.929  28.489  1.00  0.00    -0.200 F 
ATOM     90  F   UNL A   1      33.710  34.342  30.763  1.00  0.00    -0.200 F 
ENDBRANCH  56  80
BRANCH  68  91
ATOM     91  C   UNL A   1      42.128  29.932  33.538  1.00  0.00     0.064 A 
ATOM     92  C   UNL A   1      41.692  28.596  33.468  1.00  0.00     0.173 A 
ATOM     93  C   UNL A   1      42.481  30.428  34.800  1.00  0.00     0.173 A 
ATOM     94  F   UNL A   1      41.400  28.024  32.294  1.00  0.00    -0.203 F 
ATOM     95  C   UNL A   1      41.598  27.807  34.617  1.00  0.00     0.198 A 
ATOM     96  C   UNL A   1      42.421  29.629  35.938  1.00  0.00     0.198 A 
ATOM     97  F   UNL A   1      42.934  31.687  34.923  1.00  0.00    -0.203 F 
ATOM     98  F   UNL A   1      41.172  26.537  34.531  1.00  0.00    -0.200 F 
ATOM     99  C   UNL A   1      41.975  28.321  35.848  1.00  0.00     0.200 A 
ATOM    100  F   UNL A   1      42.825  30.120  37.117  1.00  0.00    -0.200 F 
ATOM    101  F   UNL A   1      41.931  27.550  36.943  1.00  0.00    -0.200 F 
ENDBRANCH  68  91
ENDBRANCH  42  43
ENDBRANCH  35  37
ENDBRANCH  34  35
ENDBRANCH  33  34
ENDBRANCH   1  33
TORSDOF 16
ENDMDL
MODEL 2
REMARK VINA RESULT:     -13.1      3.273      9.240
REMARK SMILES [NH3+][C@@H](Cc1cn(-c2nc(Cl)nc(N3CCOCC3)n2)c2ccccc12)C(=O)OCCOC(=O)c1ccc(-c2c3nc(c(-c4c(F)c(F)c(F)c(F)c4F)c4ccc([nH]4)c(-c4c(F)c(F)c(F)c(F)c4F)c4nc(c(-c5c(F)c(F)c(F)c(F)c5F)c5ccc2[nH]5)C=C4)C=C3)cc1
REMARK SMILES IDX 29 1 28 2 26 3 27 4 2 5 1 6 3 10 4 11 5 12 25 13 6 14 20 15
REMARK SMILES IDX 24 16 21 17 23 18 22 19 7 20 8 21 19 22 9 23 12 24 10 25
REMARK SMILES IDX 11 26 13 27 14 28 18 29 15 30 17 31 16 32 30 33 31 34 32 35
REMARK SMILES IDX 33 36 34 37 35 38 96 39 36 40 95 41 37 42 38 43 39 44 89 45
REMARK SMILES IDX 40 46 94 47 88 48 90 49 41 50 93 51 87 52 86 53 42 55 74 56
REMARK SMILES IDX 54 57 73 58 55 59 58 60 72 61 91 62 56 63 57 64 71 66 92 67
REMARK SMILES IDX 59 68 43 69 44 70 52 71 45 72 46 73 50 74 53 75 47 76 48 77
REMARK SMILES IDX 51 78 49 79 75 80 76 81 84 82 77 83 78 84 82 85 85 86 79 87
REMARK SMILES IDX 80 88 83 89 81 90 60 91 61 92 69 93 62 94 63 95 67 96 70 97
REMARK SMILES IDX 64 98 65 99 68 100 66 101
REMARK H PARENT 1 7 1 8 1 9 90 54 58 65
REMARK Flexibility Score: inf
ROOT
ATOM      1  C   UNL A   1      32.306  31.204  26.917  1.00  0.00     0.274 C 
ENDROOT
BRANCH   1   2
ATOM      2  O   UNL A   1      32.716  29.820  26.949  1.00  0.00    -0.458 OA
BRANCH   2   3
ATOM      3  C   UNL A   1      32.041  28.960  26.132  1.00  0.00     0.365 C 
ATOM      4  O   UNL A   1      31.801  29.199  24.955  1.00  0.00    -0.245 OA
BRANCH   3   5
ATOM      5  C   UNL A   1      31.638  27.646  26.853  1.00  0.00     0.296 C 
BRANCH   5   6
ATOM      6  N   UNL A   1      31.264  27.886  28.267  1.00  0.00    -0.346 N 
ATOM      7  H   UNL A   1      30.770  27.071  28.631  1.00  0.00     0.345 HD
ATOM      8  H   UNL A   1      30.659  28.705  28.324  1.00  0.00     0.345 HD
ATOM      9  H   UNL A   1      32.108  28.048  28.819  1.00  0.00     0.345 HD
ENDBRANCH   5   6
BRANCH   5  10
ATOM     10  C   UNL A   1      30.693  26.725  26.077  1.00  0.00     0.115 C 
BRANCH  10  11
ATOM     11  C   UNL A   1      31.418  25.689  25.333  1.00  0.00    -0.015 A 
ATOM     12  C   UNL A   1      32.090  24.607  25.846  1.00  0.00     0.099 A 
ATOM     13  C   UNL A   1      31.624  25.703  23.939  1.00  0.00     0.004 A 
ATOM     14  N   UNL A   1      32.842  24.051  24.831  1.00  0.00    -0.285 N 
ATOM     15  C   UNL A   1      32.608  24.755  23.656  1.00  0.00     0.056 A 
ATOM     16  C   UNL A   1      31.094  26.509  22.917  1.00  0.00     0.010 A 
ATOM     17  C   UNL A   1      33.106  24.615  22.353  1.00  0.00     0.027 A 
ATOM     18  C   UNL A   1      31.586  26.379  21.627  1.00  0.00     0.001 A 
ATOM     19  C   UNL A   1      32.584  25.451  21.354  1.00  0.00     0.002 A 
BRANCH  14  20
ATOM     20  C   UNL A   1      33.693  22.935  25.028  1.00  0.00     0.240 A 
ATOM     21  N   UNL A   1      33.169  21.721  25.095  1.00  0.00    -0.181 NA
ATOM     22  N   UNL A   1      34.998  23.207  25.071  1.00  0.00    -0.176 NA
ATOM     23  C   UNL A   1      34.101  20.778  25.086  1.00  0.00     0.228 A 
ATOM     24  C   UNL A   1      35.822  22.176  25.180  1.00  0.00     0.231 A 
ATOM     25  Cl  UNL A   1      33.522  19.171  25.020  1.00  0.00    -0.041 Cl
ATOM     26  N   UNL A   1      35.423  20.920  25.111  1.00  0.00    -0.182 NA
BRANCH  24  27
ATOM     27  N   UNL A   1      37.133  22.473  25.382  1.00  0.00    -0.336 N 
ATOM     28  C   UNL A   1      38.149  21.450  25.162  1.00  0.00     0.148 C 
ATOM     29  C   UNL A   1      37.607  23.829  25.590  1.00  0.00     0.148 C 
ATOM     30  C   UNL A   1      39.196  21.525  26.279  1.00  0.00     0.181 C 
ATOM     31  C   UNL A   1      38.653  23.788  26.722  1.00  0.00     0.181 C 
ATOM     32  O   UNL A   1      39.716  22.858  26.430  1.00  0.00    -0.378 OA
ENDBRANCH  24  27
ENDBRANCH  14  20
ENDBRANCH  10  11
ENDBRANCH   5  10
ENDBRANCH   3   5
ENDBRANCH   2   3
ENDBRANCH   1   2
BRANCH   1  33
ATOM     33  C   UNL A   1      33.371  32.068  27.604  1.00  0.00     0.275 C 
BRANCH  33  34
ATOM     34  O   UNL A   1      34.235  31.214  28.370  1.00  0.00    -0.458 OA
BRANCH  34  35
ATOM     35  C   UNL A   1      35.150  31.829  29.170  1.00  0.00     0.338 C 
ATOM     36  O   UNL A   1      34.948  32.379  30.225  1.00  0.00    -0.246 OA
BRANCH  35  37
ATOM     37  C   UNL A   1      36.480  31.378  28.673  1.00  0.00     0.060 A 
ATOM     38  C   UNL A   1      36.605  30.214  27.906  1.00  0.00     0.016 A 
ATOM     39  C   UNL A   1      37.601  31.938  29.279  1.00  0.00     0.016 A 
ATOM     40  C   UNL A   1      37.773  29.459  27.988  1.00  0.00     0.010 A 
ATOM     41  C   UNL A   1      38.777  31.193  29.321  1.00  0.00     0.010 A 
ATOM     42  C   UNL A   1      38.815  29.884  28.813  1.00  0.00    -0.014 A 
BRANCH  42  43
ATOM     43  C   UNL A   1      40.050  29.087  28.914  1.00  0.00     0.031 A 
ATOM     44  C   UNL A   1      40.350  28.855  30.338  1.00  0.00     0.074 A 
ATOM     45  C   UNL A   1      40.880  28.581  27.968  1.00  0.00     0.049 A 
ATOM     46  N   UNL A   1      41.196  29.548  31.023  1.00  0.00    -0.248 NA
ATOM     47  C   UNL A   1      39.482  27.984  31.139  1.00  0.00     0.031 C 
ATOM     48  C   UNL A   1      40.778  28.600  26.516  1.00  0.00     0.029 A 
ATOM     49  N   UNL A   1      42.038  27.856  28.140  1.00  0.00    -0.354 N 
ATOM     50  C   UNL A   1      41.099  29.065  32.313  1.00  0.00     0.074 A 
ATOM     51  C   UNL A   1      39.883  28.298  32.370  1.00  0.00     0.031 C 
ATOM     52  C   UNL A   1      41.628  27.703  25.954  1.00  0.00     0.029 A 
ATOM     53  C   UNL A   1      42.506  27.207  26.992  1.00  0.00     0.049 A 
ATOM     54  H   UNL A   1      42.502  27.801  29.006  1.00  0.00     0.167 HD
ATOM     55  C   UNL A   1      42.183  29.084  33.127  1.00  0.00     0.037 A 
ATOM     56  C   UNL A   1      43.612  26.425  26.854  1.00  0.00     0.037 A 
ATOM     57  C   UNL A   1      43.198  29.978  32.624  1.00  0.00     0.049 A 
ATOM     58  C   UNL A   1      44.540  26.832  27.925  1.00  0.00     0.074 A 
ATOM     59  C   UNL A   1      43.282  31.334  32.380  1.00  0.00     0.029 A 
ATOM     60  N   UNL A   1      44.224  29.402  31.920  1.00  0.00    -0.354 N 
ATOM     61  N   UNL A   1      45.158  27.977  27.945  1.00  0.00    -0.248 NA
ATOM     62  C   UNL A   1      44.458  26.130  29.193  1.00  0.00     0.031 C 
ATOM     63  C   UNL A   1      44.110  31.466  31.225  1.00  0.00     0.029 A 
ATOM     64  C   UNL A   1      44.536  30.193  30.847  1.00  0.00     0.049 A 
ATOM     65  H   UNL A   1      44.666  28.554  32.151  1.00  0.00     0.167 HD
ATOM     66  C   UNL A   1      45.122  28.354  29.274  1.00  0.00     0.074 A 
ATOM     67  C   UNL A   1      44.792  27.133  30.007  1.00  0.00     0.031 C 
ATOM     68  C   UNL A   1      45.075  29.674  29.611  1.00  0.00     0.037 A 
BRANCH  55  69
ATOM     69  C   UNL A   1      42.483  27.977  34.103  1.00  0.00     0.064 A 
ATOM     70  C   UNL A   1      43.049  26.784  33.618  1.00  0.00     0.173 A 
ATOM     71  C   UNL A   1      41.989  27.923  35.427  1.00  0.00     0.173 A 
ATOM     72  F   UNL A   1      43.503  26.709  32.358  1.00  0.00    -0.203 F 
ATOM     73  C   UNL A   1      43.074  25.618  34.385  1.00  0.00     0.198 A 
ATOM     74  C   UNL A   1      42.073  26.778  36.211  1.00  0.00     0.198 A 
ATOM     75  F   UNL A   1      41.294  28.924  35.979  1.00  0.00    -0.203 F 
ATOM     76  F   UNL A   1      43.509  24.475  33.840  1.00  0.00    -0.200 F 
ATOM     77  C   UNL A   1      42.590  25.617  35.682  1.00  0.00     0.200 A 
ATOM     78  F   UNL A   1      41.569  26.794  37.453  1.00  0.00    -0.200 F 
ATOM     79  F   UNL A   1      42.568  24.488  36.402  1.00  0.00    -0.200 F 
ENDBRANCH  55  69
BRANCH  56  80
ATOM     80  C   UNL A   1      43.826  25.156  26.105  1.00  0.00     0.064 A 
ATOM     81  C   UNL A   1      44.914  25.020  25.215  1.00  0.00     0.173 A 
ATOM     82  C   UNL A   1      43.204  23.961  26.505  1.00  0.00     0.173 A 
ATOM     83  F   UNL A   1      45.590  26.103  24.804  1.00  0.00    -0.203 F 
ATOM     84  C   UNL A   1      45.387  23.767  24.805  1.00  0.00     0.198 A 
ATOM     85  C   UNL A   1      43.676  22.708  26.092  1.00  0.00     0.198 A 
ATOM     86  F   UNL A   1      42.192  23.982  27.384  1.00  0.00    -0.203 F 
ATOM     87  F   UNL A   1      46.476  23.682  24.028  1.00  0.00    -0.200 F 
ATOM     88  C   UNL A   1      44.779  22.610  25.261  1.00  0.00     0.200 A 
ATOM     89  F   UNL A   1      43.103  21.592  26.565  1.00  0.00    -0.200 F 
ATOM     90  F   UNL A   1      45.278  21.410  24.937  1.00  0.00    -0.200 F 
ENDBRANCH  56  80
BRANCH  68  91
ATOM     91  C   UNL A   1      45.429  30.678  28.544  1.00  0.00     0.064 A 
ATOM     92  C   UNL A   1      44.523  31.201  27.604  1.00  0.00     0.173 A 
ATOM     93  C   UNL A   1      46.720  31.223  28.568  1.00  0.00     0.173 A 
ATOM     94  F   UNL A   1      43.252  30.784  27.561  1.00  0.00    -0.203 F 
ATOM     95  C   UNL A   1      44.907  32.209  26.717  1.00  0.00     0.198 A 
ATOM     96  C   UNL A   1      47.089  32.252  27.707  1.00  0.00     0.198 A 
ATOM     97  F   UNL A   1      47.617  30.784  29.465  1.00  0.00    -0.203 F 
ATOM     98  F   UNL A   1      44.031  32.690  25.821  1.00  0.00    -0.200 F 
ATOM     99  C   UNL A   1      46.185  32.742  26.778  1.00  0.00     0.200 A 
ATOM    100  F   UNL A   1      48.312  32.789  27.799  1.00  0.00    -0.200 F 
ATOM    101  F   UNL A   1      46.539  33.743  25.960  1.00  0.00    -0.200 F 
ENDBRANCH  68  91
ENDBRANCH  42  43
ENDBRANCH  35  37
ENDBRANCH  34  35
ENDBRANCH  33  34
ENDBRANCH   1  33
TORSDOF 16
ENDMDL
MODEL 3
REMARK VINA RESULT:     -13.0      4.993      8.084
REMARK SMILES [NH3+][C@@H](Cc1cn(-c2nc(Cl)nc(N3CCOCC3)n2)c2ccccc12)C(=O)OCCOC(=O)c1ccc(-c2c3nc(c(-c4c(F)c(F)c(F)c(F)c4F)c4ccc([nH]4)c(-c4c(F)c(F)c(F)c(F)c4F)c4nc(c(-c5c(F)c(F)c(F)c(F)c5F)c5ccc2[nH]5)C=C4)C=C3)cc1
REMARK SMILES IDX 29 1 28 2 26 3 27 4 2 5 1 6 3 10 4 11 5 12 25 13 6 14 20 15
REMARK SMILES IDX 24 16 21 17 23 18 22 19 7 20 8 21 19 22 9 23 12 24 10 25
REMARK SMILES IDX 11 26 13 27 14 28 18 29 15 30 17 31 16 32 30 33 31 34 32 35
REMARK SMILES IDX 33 36 34 37 35 38 96 39 36 40 95 41 37 42 38 43 39 44 89 45
REMARK SMILES IDX 40 46 94 47 88 48 90 49 41 50 93 51 87 52 86 53 42 55 74 56
REMARK SMILES IDX 54 57 73 58 55 59 58 60 72 61 91 62 56 63 57 64 71 66 92 67
REMARK SMILES IDX 59 68 43 69 44 70 52 71 45 72 46 73 50 74 53 75 47 76 48 77
REMARK SMILES IDX 51 78 49 79 75 80 76 81 84 82 77 83 78 84 82 85 85 86 79 87
REMARK SMILES IDX 80 88 83 89 81 90 60 91 61 92 69 93 62 94 63 95 67 96 70 97
REMARK SMILES IDX 64 98 65 99 68 100 66 101
REMARK H PARENT 1 7 1 8 1 9 90 54 58 65
REMARK Flexibility Score: inf
ROOT
ATOM      1  C   UNL A   1      43.531  19.715  25.510  1.00  0.00     0.274 C 
ENDROOT
BRANCH   1   2
ATOM      2  O   UNL A   1      44.171  20.804  24.811  1.00  0.00    -0.458 OA
BRANCH   2   3
ATOM      3  C   UNL A   1      45.488  21.024  25.093  1.00  0.00     0.365 C 
ATOM      4  O   UNL A   1      46.265  20.134  25.415  1.00  0.00    -0.245 OA
BRANCH   3   5
ATOM      5  C   UNL A   1      45.890  22.515  24.933  1.00  0.00     0.296 C 
BRANCH   5   6
ATOM      6  N   UNL A   1      46.204  22.852  23.524  1.00  0.00    -0.346 N 
ATOM      7  H   UNL A   1      45.376  22.709  22.947  1.00  0.00     0.345 HD
ATOM      8  H   UNL A   1      46.960  22.253  23.192  1.00  0.00     0.345 HD
ATOM      9  H   UNL A   1      46.495  23.829  23.465  1.00  0.00     0.345 HD
ENDBRANCH   5   6
BRANCH   5  10
ATOM     10  C   UNL A   1      45.000  23.525  25.661  1.00  0.00     0.115 C 
BRANCH  10  11
ATOM     11  C   UNL A   1      45.764  24.366  26.590  1.00  0.00    -0.015 A 
ATOM     12  C   UNL A   1      45.966  24.157  27.933  1.00  0.00     0.099 A 
ATOM     13  C   UNL A   1      46.342  25.606  26.255  1.00  0.00     0.004 A 
ATOM     14  N   UNL A   1      46.504  25.311  28.467  1.00  0.00    -0.285 N 
ATOM     15  C   UNL A   1      46.689  26.238  27.449  1.00  0.00     0.056 A 
ATOM     16  C   UNL A   1      46.522  26.259  25.023  1.00  0.00     0.010 A 
ATOM     17  C   UNL A   1      47.192  27.547  27.441  1.00  0.00     0.027 A 
ATOM     18  C   UNL A   1      47.014  27.556  25.008  1.00  0.00     0.001 A 
ATOM     19  C   UNL A   1      47.335  28.190  26.202  1.00  0.00     0.002 A 
BRANCH  14  20
ATOM     20  C   UNL A   1      46.800  25.453  29.846  1.00  0.00     0.240 A 
ATOM     21  N   UNL A   1      47.993  25.894  30.213  1.00  0.00    -0.181 NA
ATOM     22  N   UNL A   1      45.796  25.177  30.681  1.00  0.00    -0.176 NA
ATOM     23  C   UNL A   1      48.046  26.154  31.512  1.00  0.00     0.228 A 
ATOM     24  C   UNL A   1      46.020  25.372  31.972  1.00  0.00     0.231 A 
ATOM     25  Cl  UNL A   1      49.499  26.869  32.062  1.00  0.00    -0.041 Cl
ATOM     26  N   UNL A   1      47.116  25.941  32.438  1.00  0.00    -0.182 NA
BRANCH  24  27
ATOM     27  N   UNL A   1      45.051  24.940  32.821  1.00  0.00    -0.336 N 
ATOM     28  C   UNL A   1      44.631  25.787  33.931  1.00  0.00     0.148 C 
ATOM     29  C   UNL A   1      44.242  23.765  32.555  1.00  0.00     0.148 C 
ATOM     30  C   UNL A   1      44.443  24.926  35.185  1.00  0.00     0.181 C 
ATOM     31  C   UNL A   1      44.111  22.980  33.875  1.00  0.00     0.181 C 
ATOM     32  O   UNL A   1      43.578  23.804  34.933  1.00  0.00    -0.378 OA
ENDBRANCH  24  27
ENDBRANCH  14  20
ENDBRANCH  10  11
ENDBRANCH   5  10
ENDBRANCH   3   5
ENDBRANCH   2   3
ENDBRANCH   1   2
BRANCH   1  33
ATOM     33  C   UNL A   1      42.151  20.167  26.007  1.00  0.00     0.275 C 
BRANCH  33  34
ATOM     34  O   UNL A   1      42.147  21.599  26.116  1.00  0.00    -0.458 OA
BRANCH  34  35
ATOM     35  C   UNL A   1      41.236  22.144  26.971  1.00  0.00     0.338 C 
ATOM     36  O   UNL A   1      40.438  21.558  27.660  1.00  0.00    -0.246 OA
BRANCH  35  37
ATOM     37  C   UNL A   1      41.660  23.559  27.154  1.00  0.00     0.060 A 
ATOM     38  C   UNL A   1      42.441  23.941  28.251  1.00  0.00     0.016 A 
ATOM     39  C   UNL A   1      40.977  24.522  26.416  1.00  0.00     0.016 A 
ATOM     40  C   UNL A   1      42.303  25.222  28.781  1.00  0.00     0.010 A 
ATOM     41  C   UNL A   1      40.878  25.811  26.933  1.00  0.00     0.010 A 
ATOM     42  C   UNL A   1      41.408  26.120  28.197  1.00  0.00    -0.014 A 
BRANCH  42  43
ATOM     43  C   UNL A   1      41.248  27.473  28.756  1.00  0.00     0.031 A 
ATOM     44  C   UNL A   1      42.369  28.312  28.297  1.00  0.00     0.074 A 
ATOM     45  C   UNL A   1      40.301  28.011  29.565  1.00  0.00     0.049 A 
ATOM     46  N   UNL A   1      43.423  28.561  28.999  1.00  0.00    -0.248 NA
ATOM     47  C   UNL A   1      42.471  28.690  26.882  1.00  0.00     0.031 C 
ATOM     48  C   UNL A   1      39.073  27.435  30.093  1.00  0.00     0.029 A 
ATOM     49  N   UNL A   1      40.228  29.291  30.068  1.00  0.00    -0.354 N 
ATOM     50  C   UNL A   1      44.246  29.295  28.166  1.00  0.00     0.074 A 
ATOM     51  C   UNL A   1      43.728  29.131  26.834  1.00  0.00     0.031 C 
ATOM     52  C   UNL A   1      38.250  28.399  30.578  1.00  0.00     0.029 A 
ATOM     53  C   UNL A   1      38.987  29.644  30.610  1.00  0.00     0.049 A 
ATOM     54  H   UNL A   1      40.993  29.910  30.049  1.00  0.00     0.167 HD
ATOM     55  C   UNL A   1      45.091  30.217  28.690  1.00  0.00     0.037 A 
ATOM     56  C   UNL A   1      38.616  30.827  31.174  1.00  0.00     0.037 A 
ATOM     57  C   UNL A   1      45.271  30.014  30.107  1.00  0.00     0.049 A 
ATOM     58  C   UNL A   1      39.858  31.464  31.648  1.00  0.00     0.074 A 
ATOM     59  C   UNL A   1      45.782  29.006  30.901  1.00  0.00     0.029 A 
ATOM     60  N   UNL A   1      44.519  30.805  30.937  1.00  0.00    -0.354 N 
ATOM     61  N   UNL A   1      40.554  31.022  32.654  1.00  0.00    -0.248 NA
ATOM     62  C   UNL A   1      40.550  32.356  30.736  1.00  0.00     0.031 C 
ATOM     63  C   UNL A   1      44.991  29.013  32.088  1.00  0.00     0.029 A 
ATOM     64  C   UNL A   1      44.069  30.056  31.991  1.00  0.00     0.049 A 
ATOM     65  H   UNL A   1      44.333  31.761  30.798  1.00  0.00     0.167 HD
ATOM     66  C   UNL A   1      41.867  31.187  32.251  1.00  0.00     0.074 A 
ATOM     67  C   UNL A   1      41.803  32.118  31.125  1.00  0.00     0.031 C 
ATOM     68  C   UNL A   1      42.831  30.327  32.685  1.00  0.00     0.037 A 
BRANCH  55  69
ATOM     69  C   UNL A   1      45.378  31.530  28.011  1.00  0.00     0.064 A 
ATOM     70  C   UNL A   1      44.300  32.371  27.683  1.00  0.00     0.173 A 
ATOM     71  C   UNL A   1      46.618  31.870  27.423  1.00  0.00     0.173 A 
ATOM     72  F   UNL A   1      43.068  32.111  28.146  1.00  0.00    -0.203 F 
ATOM     73  C   UNL A   1      44.446  33.441  26.797  1.00  0.00     0.198 A 
ATOM     74  C   UNL A   1      46.774  32.974  26.592  1.00  0.00     0.198 A 
ATOM     75  F   UNL A   1      47.701  31.091  27.519  1.00  0.00    -0.203 F 
ATOM     76  F   UNL A   1      43.368  34.138  26.417  1.00  0.00    -0.200 F 
ATOM     77  C   UNL A   1      45.683  33.743  26.255  1.00  0.00     0.200 A 
ATOM     78  F   UNL A   1      47.976  33.228  26.055  1.00  0.00    -0.200 F 
ATOM     79  F   UNL A   1      45.815  34.738  25.369  1.00  0.00    -0.200 F 
ENDBRANCH  55  69
BRANCH  56  80
ATOM     80  C   UNL A   1      37.353  31.609  31.065  1.00  0.00     0.064 A 
ATOM     81  C   UNL A   1      36.536  31.817  32.198  1.00  0.00     0.173 A 
ATOM     82  C   UNL A   1      37.112  32.452  29.967  1.00  0.00     0.173 A 
ATOM     83  F   UNL A   1      36.715  31.081  33.304  1.00  0.00    -0.203 F 
ATOM     84  C   UNL A   1      35.585  32.845  32.248  1.00  0.00     0.198 A 
ATOM     85  C   UNL A   1      36.159  33.478  30.019  1.00  0.00     0.198 A 
ATOM     86  F   UNL A   1      37.867  32.364  28.862  1.00  0.00    -0.203 F 
ATOM     87  F   UNL A   1      34.891  33.061  33.375  1.00  0.00    -0.200 F 
ATOM     88  C   UNL A   1      35.412  33.687  31.165  1.00  0.00     0.200 A 
ATOM     89  F   UNL A   1      36.022  34.311  28.977  1.00  0.00    -0.200 F 
ATOM     90  F   UNL A   1      34.562  34.721  31.240  1.00  0.00    -0.200 F 
ENDBRANCH  56  80
BRANCH  68  91
ATOM     91  C   UNL A   1      42.503  29.451  33.866  1.00  0.00     0.064 A 
ATOM     92  C   UNL A   1      41.830  28.219  33.789  1.00  0.00     0.173 A 
ATOM     93  C   UNL A   1      43.011  29.830  35.116  1.00  0.00     0.173 A 
ATOM     94  F   UNL A   1      41.374  27.752  32.620  1.00  0.00    -0.203 F 
ATOM     95  C   UNL A   1      41.660  27.417  34.919  1.00  0.00     0.198 A 
ATOM     96  C   UNL A   1      42.871  29.013  36.234  1.00  0.00     0.198 A 
ATOM     97  F   UNL A   1      43.689  30.982  35.244  1.00  0.00    -0.203 F 
ATOM     98  F   UNL A   1      41.008  26.248  34.827  1.00  0.00    -0.200 F 
ATOM     99  C   UNL A   1      42.192  27.810  36.138  1.00  0.00     0.200 A 
ATOM    100  F   UNL A   1      43.423  29.379  37.399  1.00  0.00    -0.200 F 
ATOM    101  F   UNL A   1      42.072  27.019  37.213  1.00  0.00    -0.200 F 
ENDBRANCH  68  91
ENDBRANCH  42  43
ENDBRANCH  35  37
ENDBRANCH  34  35
ENDBRANCH  33  34
ENDBRANCH   1  33
TORSDOF 16
ENDMDL
