MODEL 1
REMARK VINA RESULT:     -11.4      0.000      0.000
REMARK SMILES Cc1cc(C(=O)OCCOC(=O)c2ccc(-c3c4nc(c(-c5c(F)c(F)c(F)c(F)c5F)c5ccc([nH]5)c(-c5c(F)c(F)c(F)c(F)c5F)c5nc(c(-c6c(F)c(F)c(F)c(F)c6F)c6ccc3[nH]6)C=C5)C=C4)cc2)nn1[C@H]1CCS(=O)(=O)C1
REMARK SMILES IDX 9 1 8 2 7 3 5 4 6 5 4 6 1 7 2 8 3 9 77 10 76 11 78 12 79 13
REMARK SMILES IDX 84 14 80 15 81 16 82 17 83 18 10 19 11 20 12 21 13 22 14 23
REMARK SMILES IDX 75 24 15 25 74 26 16 27 17 28 18 29 68 30 19 31 73 32 67 33
REMARK SMILES IDX 69 34 20 35 72 36 66 37 65 38 21 40 53 41 33 42 52 43 34 44
REMARK SMILES IDX 37 45 51 46 70 47 35 48 36 49 50 51 71 52 38 53 22 54 23 55
REMARK SMILES IDX 31 56 24 57 25 58 29 59 32 60 26 61 27 62 30 63 28 64 54 65
REMARK SMILES IDX 55 66 63 67 56 68 57 69 61 70 64 71 58 72 59 73 62 74 60 75
REMARK SMILES IDX 39 76 40 77 48 78 41 79 42 80 46 81 49 82 43 83 44 84 47 85
REMARK SMILES IDX 45 86
REMARK H PARENT 69 39 37 50
REMARK Flexibility Score: inf
ROOT
ATOM      1  C   UNL A   1      40.786  19.730  26.451  1.00  0.00     0.275 C 
ENDROOT
BRANCH   1   2
ATOM      2  C   UNL A   1      42.168  19.100  26.348  1.00  0.00     0.275 C 
BRANCH   2   3
ATOM      3  O   UNL A   1      42.740  19.310  25.047  1.00  0.00    -0.457 OA
BRANCH   3   4
ATOM      4  C   UNL A   1      44.098  19.560  25.010  1.00  0.00     0.358 C 
ATOM      5  O   UNL A   1      44.940  18.701  24.848  1.00  0.00    -0.244 OA
BRANCH   4   6
ATOM      6  C   UNL A   1      44.377  21.007  25.121  1.00  0.00     0.170 A 
ATOM      7  C   UNL A   1      43.634  24.610  25.001  1.00  0.00     0.066 C 
ATOM      8  C   UNL A   1      44.174  23.233  25.085  1.00  0.00     0.037 A 
ATOM      9  C   UNL A   1      43.503  22.064  24.791  1.00  0.00     0.061 A 
ATOM     10  N   UNL A   1      45.434  22.843  25.472  1.00  0.00    -0.265 N 
ATOM     11  N   UNL A   1      45.557  21.497  25.544  1.00  0.00    -0.165 NA
BRANCH  10  12
ATOM     12  C   UNL A   1      46.614  23.606  25.853  1.00  0.00     0.123 C 
ATOM     13  C   UNL A   1      46.894  24.796  24.913  1.00  0.00     0.044 C 
ATOM     14  C   UNL A   1      46.646  24.200  27.253  1.00  0.00     0.164 C 
ATOM     15  C   UNL A   1      48.118  25.519  25.474  1.00  0.00     0.139 C 
ATOM     16  S   UNL A   1      48.065  25.264  27.240  1.00  0.00     0.152 S 
ATOM     17  O   UNL A   1      49.218  24.481  27.633  1.00  0.00    -0.229 OA
ATOM     18  O   UNL A   1      47.711  26.506  27.894  1.00  0.00    -0.229 OA
ENDBRANCH  10  12
ENDBRANCH   4   6
ENDBRANCH   3   4
ENDBRANCH   2   3
ENDBRANCH   1   2
BRANCH   1  19
ATOM     19  O   UNL A   1      40.832  20.927  27.223  1.00  0.00    -0.458 OA
BRANCH  19  20
ATOM     20  C   UNL A   1      39.981  21.902  26.831  1.00  0.00     0.338 C 
ATOM     21  O   UNL A   1      38.912  21.763  26.258  1.00  0.00    -0.246 OA
BRANCH  20  22
ATOM     22  C   UNL A   1      40.652  23.196  26.975  1.00  0.00     0.060 A 
ATOM     23  C   UNL A   1      41.714  23.272  27.880  1.00  0.00     0.016 A 
ATOM     24  C   UNL A   1      40.027  24.341  26.462  1.00  0.00     0.016 A 
ATOM     25  C   UNL A   1      42.033  24.502  28.414  1.00  0.00     0.010 A 
ATOM     26  C   UNL A   1      40.323  25.559  27.015  1.00  0.00     0.010 A 
ATOM     27  C   UNL A   1      41.274  25.612  28.032  1.00  0.00    -0.014 A 
BRANCH  27  28
ATOM     28  C   UNL A   1      41.571  26.895  28.630  1.00  0.00     0.031 A 
ATOM     29  C   UNL A   1      42.808  27.495  28.083  1.00  0.00     0.074 A 
ATOM     30  C   UNL A   1      40.694  27.508  29.450  1.00  0.00     0.049 A 
ATOM     31  N   UNL A   1      43.884  27.807  28.723  1.00  0.00    -0.248 NA
ATOM     32  C   UNL A   1      42.928  27.618  26.619  1.00  0.00     0.031 C 
ATOM     33  C   UNL A   1      39.326  27.066  29.754  1.00  0.00     0.029 A 
ATOM     34  N   UNL A   1      40.777  28.711  30.086  1.00  0.00    -0.354 N 
ATOM     35  C   UNL A   1      44.724  28.379  27.771  1.00  0.00     0.074 A 
ATOM     36  C   UNL A   1      44.184  28.041  26.485  1.00  0.00     0.031 C 
ATOM     37  C   UNL A   1      38.642  28.087  30.312  1.00  0.00     0.029 A 
ATOM     38  C   UNL A   1      39.552  29.201  30.521  1.00  0.00     0.049 A 
ATOM     39  H   UNL A   1      41.627  29.188  30.224  1.00  0.00     0.167 HD
ATOM     40  C   UNL A   1      45.581  29.369  28.135  1.00  0.00     0.037 A 
ATOM     41  C   UNL A   1      39.291  30.455  30.960  1.00  0.00     0.037 A 
ATOM     42  C   UNL A   1      45.766  29.378  29.563  1.00  0.00     0.049 A 
ATOM     43  C   UNL A   1      40.578  31.081  31.343  1.00  0.00     0.074 A 
ATOM     44  C   UNL A   1      46.469  28.636  30.485  1.00  0.00     0.029 A 
ATOM     45  N   UNL A   1      44.807  30.079  30.242  1.00  0.00    -0.354 N 
ATOM     46  N   UNL A   1      41.290  30.692  32.364  1.00  0.00    -0.248 NA
ATOM     47  C   UNL A   1      41.276  31.932  30.384  1.00  0.00     0.031 C 
ATOM     48  C   UNL A   1      45.807  28.824  31.735  1.00  0.00     0.029 A 
ATOM     49  C   UNL A   1      44.735  29.694  31.551  1.00  0.00     0.049 A 
ATOM     50  H   UNL A   1      44.239  30.774  29.837  1.00  0.00     0.167 HD
ATOM     51  C   UNL A   1      42.596  30.880  31.958  1.00  0.00     0.074 A 
ATOM     52  C   UNL A   1      42.528  31.803  30.835  1.00  0.00     0.031 C 
ATOM     53  C   UNL A   1      43.571  30.009  32.344  1.00  0.00     0.037 A 
BRANCH  40  54
ATOM     54  C   UNL A   1      45.812  30.631  27.325  1.00  0.00     0.064 A 
ATOM     55  C   UNL A   1      47.141  31.048  27.103  1.00  0.00     0.173 A 
ATOM     56  C   UNL A   1      44.823  31.606  27.064  1.00  0.00     0.173 A 
ATOM     57  F   UNL A   1      48.165  30.209  27.323  1.00  0.00    -0.203 F 
ATOM     58  C   UNL A   1      47.455  32.361  26.744  1.00  0.00     0.198 A 
ATOM     59  C   UNL A   1      45.139  32.902  26.657  1.00  0.00     0.198 A 
ATOM     60  F   UNL A   1      43.523  31.399  27.297  1.00  0.00    -0.203 F 
ATOM     61  F   UNL A   1      48.738  32.744  26.674  1.00  0.00    -0.200 F 
ATOM     62  C   UNL A   1      46.454  33.291  26.532  1.00  0.00     0.200 A 
ATOM     63  F   UNL A   1      44.153  33.793  26.478  1.00  0.00    -0.200 F 
ATOM     64  F   UNL A   1      46.753  34.566  26.256  1.00  0.00    -0.200 F 
ENDBRANCH  40  54
BRANCH  41  65
ATOM     65  C   UNL A   1      38.035  31.231  30.851  1.00  0.00     0.064 A 
ATOM     66  C   UNL A   1      37.445  31.495  29.605  1.00  0.00     0.173 A 
ATOM     67  C   UNL A   1      37.251  31.506  31.988  1.00  0.00     0.173 A 
ATOM     68  F   UNL A   1      38.111  31.224  28.473  1.00  0.00    -0.203 F 
ATOM     69  C   UNL A   1      36.137  31.979  29.502  1.00  0.00     0.198 A 
ATOM     70  C   UNL A   1      35.949  31.995  31.885  1.00  0.00     0.198 A 
ATOM     71  F   UNL A   1      37.700  31.214  33.218  1.00  0.00    -0.203 F 
ATOM     72  F   UNL A   1      35.584  32.161  28.295  1.00  0.00    -0.200 F 
ATOM     73  C   UNL A   1      35.387  32.219  30.642  1.00  0.00     0.200 A 
ATOM     74  F   UNL A   1      35.221  32.189  32.995  1.00  0.00    -0.200 F 
ATOM     75  F   UNL A   1      34.112  32.624  30.543  1.00  0.00    -0.200 F 
ENDBRANCH  41  65
BRANCH  53  76
ATOM     76  C   UNL A   1      43.322  29.215  33.585  1.00  0.00     0.064 A 
ATOM     77  C   UNL A   1      42.685  27.965  33.612  1.00  0.00     0.173 A 
ATOM     78  C   UNL A   1      43.812  29.723  34.795  1.00  0.00     0.173 A 
ATOM     79  F   UNL A   1      42.262  27.382  32.483  1.00  0.00    -0.203 F 
ATOM     80  C   UNL A   1      42.507  27.278  34.811  1.00  0.00     0.198 A 
ATOM     81  C   UNL A   1      43.668  29.018  35.984  1.00  0.00     0.198 A 
ATOM     82  F   UNL A   1      44.465  30.896  34.816  1.00  0.00    -0.203 F 
ATOM     83  F   UNL A   1      41.874  26.095  34.820  1.00  0.00    -0.200 F 
ATOM     84  C   UNL A   1      43.004  27.802  35.994  1.00  0.00     0.200 A 
ATOM     85  F   UNL A   1      44.188  29.509  37.116  1.00  0.00    -0.200 F 
ATOM     86  F   UNL A   1      42.862  27.125  37.142  1.00  0.00    -0.200 F 
ENDBRANCH  53  76
ENDBRANCH  27  28
ENDBRANCH  20  22
ENDBRANCH  19  20
ENDBRANCH   1  19
TORSDOF 12
ENDMDL
MODEL 2
REMARK VINA RESULT:     -11.2      4.889     11.080
REMARK SMILES Cc1cc(C(=O)OCCOC(=O)c2ccc(-c3c4nc(c(-c5c(F)c(F)c(F)c(F)c5F)c5ccc([nH]5)c(-c5c(F)c(F)c(F)c(F)c5F)c5nc(c(-c6c(F)c(F)c(F)c(F)c6F)c6ccc3[nH]6)C=C5)C=C4)cc2)nn1[C@H]1CCS(=O)(=O)C1
REMARK SMILES IDX 9 1 8 2 7 3 5 4 6 5 4 6 1 7 2 8 3 9 77 10 76 11 78 12 79 13
REMARK SMILES IDX 84 14 80 15 81 16 82 17 83 18 10 19 11 20 12 21 13 22 14 23
REMARK SMILES IDX 75 24 15 25 74 26 16 27 17 28 18 29 68 30 19 31 73 32 67 33
REMARK SMILES IDX 69 34 20 35 72 36 66 37 65 38 21 40 53 41 33 42 52 43 34 44
REMARK SMILES IDX 37 45 51 46 70 47 35 48 36 49 50 51 71 52 38 53 22 54 23 55
REMARK SMILES IDX 31 56 24 57 25 58 29 59 32 60 26 61 27 62 30 63 28 64 54 65
REMARK SMILES IDX 55 66 63 67 56 68 57 69 61 70 64 71 58 72 59 73 62 74 60 75
REMARK SMILES IDX 39 76 40 77 48 78 41 79 42 80 46 81 49 82 43 83 44 84 47 85
REMARK SMILES IDX 45 86
REMARK H PARENT 69 39 37 50
REMARK Flexibility Score: inf
ROOT
ATOM      1  C   UNL A   1      33.466  34.208  28.046  1.00  0.00     0.275 C 
ENDROOT
BRANCH   1   2
ATOM      2  C   UNL A   1      33.214  35.383  28.981  1.00  0.00     0.275 C 
BRANCH   2   3
ATOM      3  O   UNL A   1      32.761  34.935  30.269  1.00  0.00    -0.457 OA
BRANCH   3   4
ATOM      4  C   UNL A   1      33.300  35.581  31.364  1.00  0.00     0.358 C 
ATOM      5  O   UNL A   1      32.920  36.661  31.768  1.00  0.00    -0.244 OA
BRANCH   4   6
ATOM      6  C   UNL A   1      34.340  34.755  32.012  1.00  0.00     0.170 A 
ATOM      7  C   UNL A   1      36.268  31.703  32.733  1.00  0.00     0.066 C 
ATOM      8  C   UNL A   1      35.625  33.034  32.634  1.00  0.00     0.037 A 
ATOM      9  C   UNL A   1      34.518  33.361  31.879  1.00  0.00     0.061 A 
ATOM     10  N   UNL A   1      35.996  34.199  33.262  1.00  0.00    -0.265 N 
ATOM     11  N   UNL A   1      35.257  35.259  32.859  1.00  0.00    -0.165 NA
BRANCH  10  12
ATOM     12  C   UNL A   1      37.048  34.492  34.224  1.00  0.00     0.123 C 
ATOM     13  C   UNL A   1      37.081  33.500  35.405  1.00  0.00     0.044 C 
ATOM     14  C   UNL A   1      38.479  34.535  33.711  1.00  0.00     0.164 C 
ATOM     15  C   UNL A   1      38.261  33.908  36.286  1.00  0.00     0.139 C 
ATOM     16  S   UNL A   1      39.464  34.630  35.183  1.00  0.00     0.152 S 
ATOM     17  O   UNL A   1      39.630  36.027  35.524  1.00  0.00    -0.229 OA
ATOM     18  O   UNL A   1      40.587  33.727  35.040  1.00  0.00    -0.229 OA
ENDBRANCH  10  12
ENDBRANCH   4   6
ENDBRANCH   3   4
ENDBRANCH   2   3
ENDBRANCH   1   2
BRANCH   1  19
ATOM     19  O   UNL A   1      34.727  33.605  28.318  1.00  0.00    -0.458 OA
BRANCH  19  20
ATOM     20  C   UNL A   1      34.785  32.269  28.120  1.00  0.00     0.338 C 
ATOM     21  O   UNL A   1      33.959  31.570  27.554  1.00  0.00    -0.246 OA
BRANCH  20  22
ATOM     22  C   UNL A   1      35.890  31.725  28.912  1.00  0.00     0.060 A 
ATOM     23  C   UNL A   1      36.994  32.553  29.131  1.00  0.00     0.016 A 
ATOM     24  C   UNL A   1      35.939  30.343  29.142  1.00  0.00     0.016 A 
ATOM     25  C   UNL A   1      38.210  31.966  29.408  1.00  0.00     0.010 A 
ATOM     26  C   UNL A   1      37.153  29.757  29.388  1.00  0.00     0.010 A 
ATOM     27  C   UNL A   1      38.282  30.570  29.449  1.00  0.00    -0.014 A 
BRANCH  27  28
ATOM     28  C   UNL A   1      39.566  29.949  29.687  1.00  0.00     0.031 A 
ATOM     29  C   UNL A   1      39.932  29.950  31.121  1.00  0.00     0.074 A 
ATOM     30  C   UNL A   1      40.224  29.299  28.706  1.00  0.00     0.049 A 
ATOM     31  N   UNL A   1      40.956  30.506  31.674  1.00  0.00    -0.248 NA
ATOM     32  C   UNL A   1      38.957  29.404  32.083  1.00  0.00     0.031 C 
ATOM     33  C   UNL A   1      39.724  29.021  27.353  1.00  0.00     0.029 A 
ATOM     34  N   UNL A   1      41.416  28.639  28.735  1.00  0.00    -0.354 N 
ATOM     35  C   UNL A   1      40.868  30.175  33.024  1.00  0.00     0.074 A 
ATOM     36  C   UNL A   1      39.534  29.696  33.247  1.00  0.00     0.031 C 
ATOM     37  C   UNL A   1      40.490  28.067  26.783  1.00  0.00     0.029 A 
ATOM     38  C   UNL A   1      41.599  27.764  27.672  1.00  0.00     0.049 A 
ATOM     39  H   UNL A   1      42.086  28.770  29.445  1.00  0.00     0.167 HD
ATOM     40  C   UNL A   1      42.003  29.994  33.749  1.00  0.00     0.037 A 
ATOM     41  C   UNL A   1      42.557  26.813  27.560  1.00  0.00     0.037 A 
ATOM     42  C   UNL A   1      43.132  30.587  33.080  1.00  0.00     0.049 A 
ATOM     43  C   UNL A   1      43.645  27.147  28.509  1.00  0.00     0.074 A 
ATOM     44  C   UNL A   1      43.631  31.856  32.896  1.00  0.00     0.029 A 
ATOM     45  N   UNL A   1      43.708  29.777  32.140  1.00  0.00    -0.354 N 
ATOM     46  N   UNL A   1      44.424  28.184  28.371  1.00  0.00    -0.248 NA
ATOM     47  C   UNL A   1      43.663  26.524  29.829  1.00  0.00     0.031 C 
ATOM     48  C   UNL A   1      44.439  31.801  31.720  1.00  0.00     0.029 A 
ATOM     49  C   UNL A   1      44.433  30.496  31.232  1.00  0.00     0.049 A 
ATOM     50  H   UNL A   1      43.611  28.797  32.121  1.00  0.00     0.167 HD
ATOM     51  C   UNL A   1      44.680  28.589  29.666  1.00  0.00     0.074 A 
ATOM     52  C   UNL A   1      44.355  27.446  30.506  1.00  0.00     0.031 C 
ATOM     53  C   UNL A   1      44.802  29.914  29.963  1.00  0.00     0.037 A 
BRANCH  40  54
ATOM     54  C   UNL A   1      42.208  28.858  34.734  1.00  0.00     0.064 A 
ATOM     55  C   UNL A   1      42.962  29.112  35.899  1.00  0.00     0.173 A 
ATOM     56  C   UNL A   1      42.006  27.492  34.434  1.00  0.00     0.173 A 
ATOM     57  F   UNL A   1      43.224  30.371  36.281  1.00  0.00    -0.203 F 
ATOM     58  C   UNL A   1      43.546  28.083  36.643  1.00  0.00     0.198 A 
ATOM     59  C   UNL A   1      42.548  26.467  35.208  1.00  0.00     0.198 A 
ATOM     60  F   UNL A   1      41.380  27.080  33.326  1.00  0.00    -0.203 F 
ATOM     61  F   UNL A   1      44.363  28.380  37.663  1.00  0.00    -0.200 F 
ATOM     62  C   UNL A   1      43.348  26.761  36.290  1.00  0.00     0.200 A 
ATOM     63  F   UNL A   1      42.361  25.193  34.835  1.00  0.00    -0.200 F 
ATOM     64  F   UNL A   1      43.960  25.777  36.958  1.00  0.00    -0.200 F 
ENDBRANCH  40  54
BRANCH  41  65
ATOM     65  C   UNL A   1      42.490  25.510  26.861  1.00  0.00     0.064 A 
ATOM     66  C   UNL A   1      43.263  25.253  25.718  1.00  0.00     0.173 A 
ATOM     67  C   UNL A   1      41.860  24.399  27.456  1.00  0.00     0.173 A 
ATOM     68  F   UNL A   1      43.927  26.250  25.116  1.00  0.00    -0.203 F 
ATOM     69  C   UNL A   1      43.418  23.957  25.215  1.00  0.00     0.198 A 
ATOM     70  C   UNL A   1      42.009  23.109  26.949  1.00  0.00     0.198 A 
ATOM     71  F   UNL A   1      41.164  24.533  28.595  1.00  0.00    -0.203 F 
ATOM     72  F   UNL A   1      44.213  23.742  24.157  1.00  0.00    -0.200 F 
ATOM     73  C   UNL A   1      42.800  22.885  25.837  1.00  0.00     0.200 A 
ATOM     74  F   UNL A   1      41.434  22.075  27.581  1.00  0.00    -0.200 F 
ATOM     75  F   UNL A   1      42.998  21.636  25.392  1.00  0.00    -0.200 F 
ENDBRANCH  41  65
BRANCH  53  76
ATOM     76  C   UNL A   1      45.180  30.831  28.846  1.00  0.00     0.064 A 
ATOM     77  C   UNL A   1      44.261  31.475  28.003  1.00  0.00     0.173 A 
ATOM     78  C   UNL A   1      46.540  31.117  28.667  1.00  0.00     0.173 A 
ATOM     79  F   UNL A   1      42.942  31.310  28.167  1.00  0.00    -0.203 F 
ATOM     80  C   UNL A   1      44.694  32.331  26.993  1.00  0.00     0.198 A 
ATOM     81  C   UNL A   1      46.966  32.002  27.684  1.00  0.00     0.198 A 
ATOM     82  F   UNL A   1      47.455  30.559  29.475  1.00  0.00    -0.203 F 
ATOM     83  F   UNL A   1      43.801  32.918  26.181  1.00  0.00    -0.200 F 
ATOM     84  C   UNL A   1      46.045  32.599  26.839  1.00  0.00     0.200 A 
ATOM     85  F   UNL A   1      48.269  32.290  27.569  1.00  0.00    -0.200 F 
ATOM     86  F   UNL A   1      46.459  33.449  25.889  1.00  0.00    -0.200 F 
ENDBRANCH  53  76
ENDBRANCH  27  28
ENDBRANCH  20  22
ENDBRANCH  19  20
ENDBRANCH   1  19
TORSDOF 12
ENDMDL
MODEL 3
REMARK VINA RESULT:     -11.2      0.932      1.958
REMARK SMILES Cc1cc(C(=O)OCCOC(=O)c2ccc(-c3c4nc(c(-c5c(F)c(F)c(F)c(F)c5F)c5ccc([nH]5)c(-c5c(F)c(F)c(F)c(F)c5F)c5nc(c(-c6c(F)c(F)c(F)c(F)c6F)c6ccc3[nH]6)C=C5)C=C4)cc2)nn1[C@H]1CCS(=O)(=O)C1
REMARK SMILES IDX 9 1 8 2 7 3 5 4 6 5 4 6 1 7 2 8 3 9 77 10 76 11 78 12 79 13
REMARK SMILES IDX 84 14 80 15 81 16 82 17 83 18 10 19 11 20 12 21 13 22 14 23
REMARK SMILES IDX 75 24 15 25 74 26 16 27 17 28 18 29 68 30 19 31 73 32 67 33
REMARK SMILES IDX 69 34 20 35 72 36 66 37 65 38 21 40 53 41 33 42 52 43 34 44
REMARK SMILES IDX 37 45 51 46 70 47 35 48 36 49 50 51 71 52 38 53 22 54 23 55
REMARK SMILES IDX 31 56 24 57 25 58 29 59 32 60 26 61 27 62 30 63 28 64 54 65
REMARK SMILES IDX 55 66 63 67 56 68 57 69 61 70 64 71 58 72 59 73 62 74 60 75
REMARK SMILES IDX 39 76 40 77 48 78 41 79 42 80 46 81 49 82 43 83 44 84 47 85
REMARK SMILES IDX 45 86
REMARK H PARENT 69 39 37 50
REMARK Flexibility Score: inf
ROOT
ATOM      1  C   UNL A   1      41.175  20.312  26.158  1.00  0.00     0.275 C 
ENDROOT
BRANCH   1   2
ATOM      2  C   UNL A   1      42.589  19.751  26.222  1.00  0.00     0.275 C 
BRANCH   2   3
ATOM      3  O   UNL A   1      43.304  20.004  25.001  1.00  0.00    -0.457 OA
BRANCH   3   4
ATOM      4  C   UNL A   1      44.573  20.533  25.136  1.00  0.00     0.358 C 
ATOM      5  O   UNL A   1      45.591  19.877  25.064  1.00  0.00    -0.244 OA
BRANCH   4   6
ATOM      6  C   UNL A   1      44.523  22.000  25.303  1.00  0.00     0.170 A 
ATOM      7  C   UNL A   1      43.120  25.390  25.001  1.00  0.00     0.066 C 
ATOM      8  C   UNL A   1      43.891  24.143  25.213  1.00  0.00     0.037 A 
ATOM      9  C   UNL A   1      43.554  22.880  24.774  1.00  0.00     0.061 A 
ATOM     10  N   UNL A   1      45.081  23.992  25.885  1.00  0.00    -0.265 N 
ATOM     11  N   UNL A   1      45.451  22.694  25.988  1.00  0.00    -0.165 NA
BRANCH  10  12
ATOM     12  C   UNL A   1      45.964  24.953  26.529  1.00  0.00     0.123 C 
ATOM     13  C   UNL A   1      45.463  25.397  27.919  1.00  0.00     0.044 C 
ATOM     14  C   UNL A   1      47.411  24.542  26.750  1.00  0.00     0.164 C 
ATOM     15  C   UNL A   1      46.516  26.354  28.478  1.00  0.00     0.139 C 
ATOM     16  S   UNL A   1      48.072  25.821  27.784  1.00  0.00     0.152 S 
ATOM     17  O   UNL A   1      48.586  26.871  26.929  1.00  0.00    -0.229 OA
ATOM     18  O   UNL A   1      48.873  25.203  28.821  1.00  0.00    -0.229 OA
ENDBRANCH  10  12
ENDBRANCH   4   6
ENDBRANCH   3   4
ENDBRANCH   2   3
ENDBRANCH   1   2
BRANCH   1  19
ATOM     19  O   UNL A   1      40.976  21.302  27.163  1.00  0.00    -0.458 OA
BRANCH  19  20
ATOM     20  C   UNL A   1      40.007  22.207  26.902  1.00  0.00     0.338 C 
ATOM     21  O   UNL A   1      38.906  21.992  26.419  1.00  0.00    -0.246 OA
BRANCH  20  22
ATOM     22  C   UNL A   1      40.568  23.551  27.054  1.00  0.00     0.060 A 
ATOM     23  C   UNL A   1      41.615  23.712  27.965  1.00  0.00     0.016 A 
ATOM     24  C   UNL A   1      39.853  24.643  26.541  1.00  0.00     0.016 A 
ATOM     25  C   UNL A   1      41.829  24.962  28.505  1.00  0.00     0.010 A 
ATOM     26  C   UNL A   1      40.045  25.880  27.100  1.00  0.00     0.010 A 
ATOM     27  C   UNL A   1      40.982  26.007  28.122  1.00  0.00    -0.014 A 
BRANCH  27  28
ATOM     28  C   UNL A   1      41.169  27.308  28.726  1.00  0.00     0.031 A 
ATOM     29  C   UNL A   1      42.355  28.010  28.189  1.00  0.00     0.074 A 
ATOM     30  C   UNL A   1      40.239  27.843  29.543  1.00  0.00     0.049 A 
ATOM     31  N   UNL A   1      43.398  28.407  28.835  1.00  0.00    -0.248 NA
ATOM     32  C   UNL A   1      42.472  28.148  26.726  1.00  0.00     0.031 C 
ATOM     33  C   UNL A   1      38.912  27.288  29.838  1.00  0.00     0.029 A 
ATOM     34  N   UNL A   1      40.219  29.046  30.183  1.00  0.00    -0.354 N 
ATOM     35  C   UNL A   1      44.193  29.050  27.890  1.00  0.00     0.074 A 
ATOM     36  C   UNL A   1      43.689  28.674  26.600  1.00  0.00     0.031 C 
ATOM     37  C   UNL A   1      38.143  28.247  30.395  1.00  0.00     0.029 A 
ATOM     38  C   UNL A   1      38.956  29.431  30.613  1.00  0.00     0.049 A 
ATOM     39  H   UNL A   1      41.026  29.591  30.328  1.00  0.00     0.167 HD
ATOM     40  C   UNL A   1      44.963  30.106  28.262  1.00  0.00     0.037 A 
ATOM     41  C   UNL A   1      38.590  30.658  31.055  1.00  0.00     0.037 A 
ATOM     42  C   UNL A   1      45.140  30.126  29.691  1.00  0.00     0.049 A 
ATOM     43  C   UNL A   1      39.818  31.387  31.448  1.00  0.00     0.074 A 
ATOM     44  C   UNL A   1      45.896  29.441  30.614  1.00  0.00     0.029 A 
ATOM     45  N   UNL A   1      44.122  30.742  30.367  1.00  0.00    -0.354 N 
ATOM     46  N   UNL A   1      40.555  31.054  32.472  1.00  0.00    -0.248 NA
ATOM     47  C   UNL A   1      40.449  32.296  30.495  1.00  0.00     0.031 C 
ATOM     48  C   UNL A   1      45.214  29.568  31.862  1.00  0.00     0.029 A 
ATOM     49  C   UNL A   1      44.075  30.347  31.674  1.00  0.00     0.049 A 
ATOM     50  H   UNL A   1      43.500  31.389  29.961  1.00  0.00     0.167 HD
ATOM     51  C   UNL A   1      41.843  31.351  32.073  1.00  0.00     0.074 A 
ATOM     52  C   UNL A   1      41.704  32.269  30.953  1.00  0.00     0.031 C 
ATOM     53  C   UNL A   1      42.884  30.562  32.462  1.00  0.00     0.037 A 
BRANCH  40  54
ATOM     54  C   UNL A   1      45.093  31.386  27.458  1.00  0.00     0.064 A 
ATOM     55  C   UNL A   1      46.353  31.704  26.908  1.00  0.00     0.173 A 
ATOM     56  C   UNL A   1      44.166  32.452  27.494  1.00  0.00     0.173 A 
ATOM     57  F   UNL A   1      47.316  30.774  26.827  1.00  0.00    -0.203 F 
ATOM     58  C   UNL A   1      46.684  33.004  26.518  1.00  0.00     0.198 A 
ATOM     59  C   UNL A   1      44.485  33.737  27.058  1.00  0.00     0.198 A 
ATOM     60  F   UNL A   1      42.957  32.340  28.053  1.00  0.00    -0.203 F 
ATOM     61  F   UNL A   1      47.935  33.283  26.126  1.00  0.00    -0.200 F 
ATOM     62  C   UNL A   1      45.754  34.023  26.604  1.00  0.00     0.200 A 
ATOM     63  F   UNL A   1      43.574  34.715  27.169  1.00  0.00    -0.200 F 
ATOM     64  F   UNL A   1      46.088  35.282  26.297  1.00  0.00    -0.200 F 
ENDBRANCH  40  54
BRANCH  41  65
ATOM     65  C   UNL A   1      37.275  31.328  30.942  1.00  0.00     0.064 A 
ATOM     66  C   UNL A   1      36.481  31.577  32.072  1.00  0.00     0.173 A 
ATOM     67  C   UNL A   1      36.889  31.972  29.750  1.00  0.00     0.173 A 
ATOM     68  F   UNL A   1      36.804  31.033  33.255  1.00  0.00    -0.203 F 
ATOM     69  C   UNL A   1      35.382  32.440  32.020  1.00  0.00     0.198 A 
ATOM     70  C   UNL A   1      35.788  32.827  29.697  1.00  0.00     0.198 A 
ATOM     71  F   UNL A   1      37.629  31.857  28.637  1.00  0.00    -0.203 F 
ATOM     72  F   UNL A   1      34.684  32.702  33.134  1.00  0.00    -0.200 F 
ATOM     73  C   UNL A   1      35.043  33.072  30.835  1.00  0.00     0.200 A 
ATOM     74  F   UNL A   1      35.492  33.460  28.552  1.00  0.00    -0.200 F 
ATOM     75  F   UNL A   1      34.028  33.947  30.799  1.00  0.00    -0.200 F 
ENDBRANCH  41  65
BRANCH  53  76
ATOM     76  C   UNL A   1      42.695  29.746  33.699  1.00  0.00     0.064 A 
ATOM     77  C   UNL A   1      42.907  30.221  35.003  1.00  0.00     0.173 A 
ATOM     78  C   UNL A   1      42.214  28.438  33.553  1.00  0.00     0.173 A 
ATOM     79  F   UNL A   1      43.291  31.485  35.221  1.00  0.00    -0.203 F 
ATOM     80  C   UNL A   1      42.690  29.401  36.108  1.00  0.00     0.198 A 
ATOM     81  C   UNL A   1      41.961  27.635  34.659  1.00  0.00     0.198 A 
ATOM     82  F   UNL A   1      41.955  27.951  32.329  1.00  0.00    -0.203 F 
ATOM     83  F   UNL A   1      42.922  29.866  37.345  1.00  0.00    -0.200 F 
ATOM     84  C   UNL A   1      42.211  28.112  35.935  1.00  0.00     0.200 A 
ATOM     85  F   UNL A   1      41.457  26.407  34.486  1.00  0.00    -0.200 F 
ATOM     86  F   UNL A   1      41.970  27.335  37.000  1.00  0.00    -0.200 F 
ENDBRANCH  53  76
ENDBRANCH  27  28
ENDBRANCH  20  22
ENDBRANCH  19  20
ENDBRANCH   1  19
TORSDOF 12
ENDMDL
