MODEL 1
REMARK VINA RESULT:     -14.0      0.000      0.000
REMARK SMILES Cc1cc(F)cc(-n2c(C)nc3cc(C(=O)OCCOC(=O)c4ccc(-c5c6nc(c(-c7c(F)c(F)c(F)c(F)c7F)c7ccc([nH]7)c(-c7c(F)c(F)c(F)c(F)c7F)c7nc(c(-c8c(F)c(F)c(F)c(F)c8F)c8ccc5[nH]8)C=C7)C=C6)cc4)ccc32)c1
REMARK SMILES IDX 19 1 18 2 17 3 15 4 16 5 14 6 8 7 9 8 88 9 10 10 11 11 12 12
REMARK SMILES IDX 87 13 13 14 86 15 7 16 1 17 2 18 3 19 89 20 4 21 5 22 6 23
REMARK SMILES IDX 20 24 21 25 22 26 23 27 24 28 85 29 25 30 84 31 26 32 27 33
REMARK SMILES IDX 28 34 78 35 29 36 83 37 77 38 79 39 30 40 82 41 76 42 75 43
REMARK SMILES IDX 31 45 63 46 43 47 62 48 44 49 47 50 61 51 80 52 45 53 46 54
REMARK SMILES IDX 60 56 81 57 48 58 32 59 33 60 41 61 34 62 35 63 39 64 42 65
REMARK SMILES IDX 36 66 37 67 40 68 38 69 64 70 65 71 73 72 66 73 67 74 71 75
REMARK SMILES IDX 74 76 68 77 69 78 72 79 70 80 49 81 50 82 58 83 51 84 52 85
REMARK SMILES IDX 56 86 59 87 53 88 54 89 57 90 55 91
REMARK H PARENT 79 44 47 55
REMARK Flexibility Score: inf
ROOT
ATOM      1  C   UNL A   1      34.556  32.965  29.105  1.00  0.00     0.275 C 
ENDROOT
BRANCH   1   2
ATOM      2  C   UNL A   1      33.512  32.676  28.020  1.00  0.00     0.275 C 
BRANCH   2   3
ATOM      3  O   UNL A   1      33.474  31.288  27.624  1.00  0.00    -0.458 OA
BRANCH   3   4
ATOM      4  C   UNL A   1      32.414  30.896  26.870  1.00  0.00     0.338 C 
ATOM      5  O   UNL A   1      31.471  31.579  26.500  1.00  0.00    -0.246 OA
BRANCH   4   6
ATOM      6  C   UNL A   1      32.599  29.489  26.444  1.00  0.00     0.062 A 
ATOM      7  N   UNL A   1      32.513  25.490  25.460  1.00  0.00    -0.296 N 
ATOM      8  C   UNL A   1      31.344  25.167  26.135  1.00  0.00     0.111 A 
ATOM      9  C   UNL A   1      32.739  26.846  25.649  1.00  0.00     0.073 A 
ATOM     10  C   UNL A   1      30.678  23.838  26.126  1.00  0.00     0.088 C 
ATOM     11  N   UNL A   1      30.941  26.186  26.877  1.00  0.00    -0.233 NA
ATOM     12  C   UNL A   1      31.788  27.219  26.583  1.00  0.00     0.090 A 
ATOM     13  C   UNL A   1      33.642  27.763  25.082  1.00  0.00     0.030 A 
ATOM     14  C   UNL A   1      31.785  28.534  27.056  1.00  0.00     0.046 A 
ATOM     15  C   UNL A   1      33.525  29.107  25.470  1.00  0.00     0.018 A 
BRANCH   7  16
ATOM     16  C   UNL A   1      33.378  24.637  24.745  1.00  0.00     0.051 A 
ATOM     17  C   UNL A   1      36.923  23.317  25.166  1.00  0.00     0.044 C 
ATOM     18  C   UNL A   1      35.572  23.607  24.585  1.00  0.00    -0.046 A 
ATOM     19  C   UNL A   1      35.223  23.133  23.315  1.00  0.00     0.042 A 
ATOM     20  C   UNL A   1      34.645  24.379  25.291  1.00  0.00     0.030 A 
ATOM     21  C   UNL A   1      33.956  23.397  22.790  1.00  0.00     0.125 A 
ATOM     22  F   UNL A   1      33.653  22.953  21.564  1.00  0.00    -0.207 F 
ATOM     23  C   UNL A   1      33.014  24.131  23.500  1.00  0.00     0.066 A 
ENDBRANCH   7  16
ENDBRANCH   4   6
ENDBRANCH   3   4
ENDBRANCH   2   3
ENDBRANCH   1   2
BRANCH   1  24
ATOM     24  O   UNL A   1      35.628  32.019  29.009  1.00  0.00    -0.458 OA
BRANCH  24  25
ATOM     25  C   UNL A   1      35.978  31.377  30.155  1.00  0.00     0.338 C 
ATOM     26  O   UNL A   1      35.580  31.588  31.278  1.00  0.00    -0.246 OA
BRANCH  25  27
ATOM     27  C   UNL A   1      36.686  30.154  29.722  1.00  0.00     0.060 A 
ATOM     28  C   UNL A   1      37.143  29.209  30.648  1.00  0.00     0.016 A 
ATOM     29  C   UNL A   1      37.120  30.125  28.397  1.00  0.00     0.016 A 
ATOM     30  C   UNL A   1      38.192  28.360  30.296  1.00  0.00     0.010 A 
ATOM     31  C   UNL A   1      38.152  29.266  28.047  1.00  0.00     0.010 A 
ATOM     32  C   UNL A   1      38.762  28.466  29.024  1.00  0.00    -0.014 A 
BRANCH  32  33
ATOM     33  C   UNL A   1      40.097  27.941  28.723  1.00  0.00     0.031 A 
ATOM     34  C   UNL A   1      40.315  26.519  28.380  1.00  0.00     0.074 A 
ATOM     35  C   UNL A   1      41.197  28.726  28.804  1.00  0.00     0.049 A 
ATOM     36  N   UNL A   1      41.359  25.839  28.739  1.00  0.00    -0.248 NA
ATOM     37  C   UNL A   1      39.353  25.741  27.617  1.00  0.00     0.031 C 
ATOM     38  C   UNL A   1      42.544  28.383  28.344  1.00  0.00     0.029 A 
ATOM     39  N   UNL A   1      41.379  29.933  29.460  1.00  0.00    -0.354 N 
ATOM     40  C   UNL A   1      41.338  24.643  28.060  1.00  0.00     0.074 A 
ATOM     41  C   UNL A   1      40.033  24.604  27.432  1.00  0.00     0.031 C 
ATOM     42  C   UNL A   1      43.431  29.198  28.935  1.00  0.00     0.029 A 
ATOM     43  C   UNL A   1      42.712  30.039  29.871  1.00  0.00     0.049 A 
ATOM     44  H   UNL A   1      40.680  30.610  29.612  1.00  0.00     0.167 HD
ATOM     45  C   UNL A   1      42.465  23.871  27.997  1.00  0.00     0.037 A 
ATOM     46  C   UNL A   1      43.048  30.221  31.181  1.00  0.00     0.037 A 
ATOM     47  C   UNL A   1      43.612  24.514  28.638  1.00  0.00     0.049 A 
ATOM     48  C   UNL A   1      43.801  29.068  31.812  1.00  0.00     0.074 A 
ATOM     49  C   UNL A   1      44.684  25.240  28.145  1.00  0.00     0.029 A 
ATOM     50  N   UNL A   1      43.658  24.649  30.013  1.00  0.00    -0.354 N 
ATOM     51  N   UNL A   1      44.191  27.991  31.192  1.00  0.00    -0.248 NA
ATOM     52  C   UNL A   1      44.029  28.996  33.259  1.00  0.00     0.031 C 
ATOM     53  C   UNL A   1      45.393  25.792  29.245  1.00  0.00     0.029 A 
ATOM     54  C   UNL A   1      44.740  25.418  30.406  1.00  0.00     0.049 A 
ATOM     55  H   UNL A   1      43.004  24.251  30.632  1.00  0.00     0.167 HD
ATOM     56  C   UNL A   1      44.580  27.062  32.123  1.00  0.00     0.074 A 
ATOM     57  C   UNL A   1      44.469  27.739  33.401  1.00  0.00     0.031 C 
ATOM     58  C   UNL A   1      44.901  25.776  31.803  1.00  0.00     0.037 A 
BRANCH  45  59
ATOM     59  C   UNL A   1      42.631  22.634  27.131  1.00  0.00     0.064 A 
ATOM     60  C   UNL A   1      41.922  21.444  27.425  1.00  0.00     0.173 A 
ATOM     61  C   UNL A   1      43.472  22.544  26.008  1.00  0.00     0.173 A 
ATOM     62  F   UNL A   1      40.966  21.406  28.362  1.00  0.00    -0.203 F 
ATOM     63  C   UNL A   1      42.153  20.241  26.751  1.00  0.00     0.198 A 
ATOM     64  C   UNL A   1      43.744  21.329  25.366  1.00  0.00     0.198 A 
ATOM     65  F   UNL A   1      44.000  23.635  25.441  1.00  0.00    -0.203 F 
ATOM     66  F   UNL A   1      41.454  19.147  27.086  1.00  0.00    -0.200 F 
ATOM     67  C   UNL A   1      43.098  20.174  25.750  1.00  0.00     0.200 A 
ATOM     68  F   UNL A   1      44.633  21.293  24.363  1.00  0.00    -0.200 F 
ATOM     69  F   UNL A   1      43.354  19.012  25.135  1.00  0.00    -0.200 F 
ENDBRANCH  45  59
BRANCH  46  70
ATOM     70  C   UNL A   1      42.051  31.025  31.925  1.00  0.00     0.064 A 
ATOM     71  C   UNL A   1      42.119  32.424  31.855  1.00  0.00     0.173 A 
ATOM     72  C   UNL A   1      40.866  30.440  32.387  1.00  0.00     0.173 A 
ATOM     73  F   UNL A   1      43.244  33.024  31.435  1.00  0.00    -0.203 F 
ATOM     74  C   UNL A   1      41.002  33.204  32.136  1.00  0.00     0.198 A 
ATOM     75  C   UNL A   1      39.750  31.223  32.661  1.00  0.00     0.198 A 
ATOM     76  F   UNL A   1      40.754  29.106  32.475  1.00  0.00    -0.203 F 
ATOM     77  F   UNL A   1      41.059  34.535  31.987  1.00  0.00    -0.200 F 
ATOM     78  C   UNL A   1      39.808  32.599  32.502  1.00  0.00     0.200 A 
ATOM     79  F   UNL A   1      38.597  30.636  33.013  1.00  0.00    -0.200 F 
ATOM     80  F   UNL A   1      38.707  33.342  32.681  1.00  0.00    -0.200 F 
ENDBRANCH  46  70
BRANCH  58  81
ATOM     81  C   UNL A   1      45.373  24.780  32.825  1.00  0.00     0.064 A 
ATOM     82  C   UNL A   1      44.534  23.764  33.318  1.00  0.00     0.173 A 
ATOM     83  C   UNL A   1      46.655  24.853  33.402  1.00  0.00     0.173 A 
ATOM     84  F   UNL A   1      43.259  23.667  32.910  1.00  0.00    -0.203 F 
ATOM     85  C   UNL A   1      44.978  22.827  34.252  1.00  0.00     0.198 A 
ATOM     86  C   UNL A   1      47.079  23.949  34.378  1.00  0.00     0.198 A 
ATOM     87  F   UNL A   1      47.543  25.783  33.019  1.00  0.00    -0.203 F 
ATOM     88  F   UNL A   1      44.167  21.829  34.630  1.00  0.00    -0.200 F 
ATOM     89  C   UNL A   1      46.250  22.923  34.786  1.00  0.00     0.200 A 
ATOM     90  F   UNL A   1      48.302  24.073  34.913  1.00  0.00    -0.200 F 
ATOM     91  F   UNL A   1      46.673  22.030  35.690  1.00  0.00    -0.200 F 
ENDBRANCH  58  81
ENDBRANCH  32  33
ENDBRANCH  25  27
ENDBRANCH  24  25
ENDBRANCH   1  24
TORSDOF 12
ENDMDL
MODEL 2
REMARK VINA RESULT:     -14.0      3.839     10.029
REMARK SMILES Cc1cc(F)cc(-n2c(C)nc3cc(C(=O)OCCOC(=O)c4ccc(-c5c6nc(c(-c7c(F)c(F)c(F)c(F)c7F)c7ccc([nH]7)c(-c7c(F)c(F)c(F)c(F)c7F)c7nc(c(-c8c(F)c(F)c(F)c(F)c8F)c8ccc5[nH]8)C=C7)C=C6)cc4)ccc32)c1
REMARK SMILES IDX 19 1 18 2 17 3 15 4 16 5 14 6 8 7 9 8 88 9 10 10 11 11 12 12
REMARK SMILES IDX 87 13 13 14 86 15 7 16 1 17 2 18 3 19 89 20 4 21 5 22 6 23
REMARK SMILES IDX 20 24 21 25 22 26 23 27 24 28 85 29 25 30 84 31 26 32 27 33
REMARK SMILES IDX 28 34 78 35 29 36 83 37 77 38 79 39 30 40 82 41 76 42 75 43
REMARK SMILES IDX 31 45 63 46 43 47 62 48 44 49 47 50 61 51 80 52 45 53 46 54
REMARK SMILES IDX 60 56 81 57 48 58 32 59 33 60 41 61 34 62 35 63 39 64 42 65
REMARK SMILES IDX 36 66 37 67 40 68 38 69 64 70 65 71 73 72 66 73 67 74 71 75
REMARK SMILES IDX 74 76 68 77 69 78 72 79 70 80 49 81 50 82 58 83 51 84 52 85
REMARK SMILES IDX 56 86 59 87 53 88 54 89 57 90 55 91
REMARK H PARENT 79 44 47 55
REMARK Flexibility Score: inf
ROOT
ATOM      1  C   UNL A   1      41.246  21.833  26.193  1.00  0.00     0.275 C 
ENDROOT
BRANCH   1   2
ATOM      2  C   UNL A   1      40.060  20.866  26.100  1.00  0.00     0.275 C 
BRANCH   2   3
ATOM      3  O   UNL A   1      38.779  21.531  26.170  1.00  0.00    -0.458 OA
BRANCH   3   4
ATOM      4  C   UNL A   1      37.850  21.167  25.248  1.00  0.00     0.338 C 
ATOM      5  O   UNL A   1      37.769  20.101  24.655  1.00  0.00    -0.246 OA
BRANCH   4   6
ATOM      6  C   UNL A   1      36.834  22.237  25.115  1.00  0.00     0.062 A 
ATOM      7  N   UNL A   1      33.605  24.741  24.592  1.00  0.00    -0.296 N 
ATOM      8  C   UNL A   1      32.764  23.818  23.985  1.00  0.00     0.111 A 
ATOM      9  C   UNL A   1      34.795  24.087  24.881  1.00  0.00     0.073 A 
ATOM     10  C   UNL A   1      31.352  24.065  23.591  1.00  0.00     0.088 C 
ATOM     11  N   UNL A   1      33.419  22.702  23.713  1.00  0.00    -0.233 NA
ATOM     12  C   UNL A   1      34.664  22.857  24.260  1.00  0.00     0.090 A 
ATOM     13  C   UNL A   1      35.932  24.437  25.632  1.00  0.00     0.030 A 
ATOM     14  C   UNL A   1      35.736  21.963  24.297  1.00  0.00     0.046 A 
ATOM     15  C   UNL A   1      36.936  23.466  25.772  1.00  0.00     0.018 A 
BRANCH   7  16
ATOM     16  C   UNL A   1      33.372  26.107  24.847  1.00  0.00     0.051 A 
ATOM     17  C   UNL A   1      31.778  28.165  27.625  1.00  0.00     0.044 C 
ATOM     18  C   UNL A   1      32.426  27.785  26.328  1.00  0.00    -0.046 A 
ATOM     19  C   UNL A   1      32.691  28.752  25.351  1.00  0.00     0.042 A 
ATOM     20  C   UNL A   1      32.755  26.454  26.060  1.00  0.00     0.030 A 
ATOM     21  C   UNL A   1      33.309  28.389  24.153  1.00  0.00     0.125 A 
ATOM     22  F   UNL A   1      33.531  29.327  23.223  1.00  0.00    -0.207 F 
ATOM     23  C   UNL A   1      33.674  27.074  23.892  1.00  0.00     0.066 A 
ENDBRANCH   7  16
ENDBRANCH   4   6
ENDBRANCH   3   4
ENDBRANCH   2   3
ENDBRANCH   1   2
BRANCH   1  24
ATOM     24  O   UNL A   1      40.796  23.107  26.670  1.00  0.00    -0.458 OA
BRANCH  24  25
ATOM     25  C   UNL A   1      41.518  24.192  26.285  1.00  0.00     0.338 C 
ATOM     26  O   UNL A   1      42.493  24.221  25.569  1.00  0.00    -0.246 OA
BRANCH  25  27
ATOM     27  C   UNL A   1      40.688  25.364  26.636  1.00  0.00     0.060 A 
ATOM     28  C   UNL A   1      40.986  26.641  26.147  1.00  0.00     0.016 A 
ATOM     29  C   UNL A   1      39.782  25.190  27.681  1.00  0.00     0.016 A 
ATOM     30  C   UNL A   1      40.532  27.761  26.843  1.00  0.00     0.010 A 
ATOM     31  C   UNL A   1      39.319  26.309  28.359  1.00  0.00     0.010 A 
ATOM     32  C   UNL A   1      39.783  27.585  28.010  1.00  0.00    -0.014 A 
BRANCH  32  33
ATOM     33  C   UNL A   1      39.636  28.649  29.009  1.00  0.00     0.031 A 
ATOM     34  C   UNL A   1      38.593  29.691  28.889  1.00  0.00     0.074 A 
ATOM     35  C   UNL A   1      40.490  28.755  30.055  1.00  0.00     0.049 A 
ATOM     36  N   UNL A   1      38.760  30.926  29.241  1.00  0.00    -0.248 NA
ATOM     37  C   UNL A   1      37.277  29.420  28.335  1.00  0.00     0.031 C 
ATOM     38  C   UNL A   1      40.337  29.637  31.213  1.00  0.00     0.029 A 
ATOM     39  N   UNL A   1      41.754  28.216  30.226  1.00  0.00    -0.354 N 
ATOM     40  C   UNL A   1      37.532  31.544  29.208  1.00  0.00     0.074 A 
ATOM     41  C   UNL A   1      36.657  30.583  28.569  1.00  0.00     0.031 C 
ATOM     42  C   UNL A   1      41.525  29.776  31.819  1.00  0.00     0.029 A 
ATOM     43  C   UNL A   1      42.516  29.069  31.031  1.00  0.00     0.049 A 
ATOM     44  H   UNL A   1      42.067  27.365  29.841  1.00  0.00     0.167 HD
ATOM     45  C   UNL A   1      37.354  32.748  29.832  1.00  0.00     0.037 A 
ATOM     46  C   UNL A   1      43.699  29.596  30.602  1.00  0.00     0.037 A 
ATOM     47  C   UNL A   1      38.554  33.183  30.548  1.00  0.00     0.049 A 
ATOM     48  C   UNL A   1      43.700  31.100  30.424  1.00  0.00     0.074 A 
ATOM     49  C   UNL A   1      38.936  33.114  31.878  1.00  0.00     0.029 A 
ATOM     50  N   UNL A   1      39.672  33.595  29.849  1.00  0.00    -0.354 N 
ATOM     51  N   UNL A   1      42.708  31.895  30.706  1.00  0.00    -0.248 NA
ATOM     52  C   UNL A   1      44.803  31.795  29.752  1.00  0.00     0.031 C 
ATOM     53  C   UNL A   1      40.293  33.518  31.974  1.00  0.00     0.029 A 
ATOM     54  C   UNL A   1      40.743  33.813  30.699  1.00  0.00     0.049 A 
ATOM     55  H   UNL A   1      39.703  33.717  28.872  1.00  0.00     0.167 HD
ATOM     56  C   UNL A   1      42.961  33.127  30.159  1.00  0.00     0.074 A 
ATOM     57  C   UNL A   1      44.285  33.019  29.579  1.00  0.00     0.031 C 
ATOM     58  C   UNL A   1      42.046  34.138  30.149  1.00  0.00     0.037 A 
BRANCH  45  59
ATOM     59  C   UNL A   1      36.016  33.441  30.031  1.00  0.00     0.064 A 
ATOM     60  C   UNL A   1      35.316  33.994  28.932  1.00  0.00     0.173 A 
ATOM     61  C   UNL A   1      35.372  33.606  31.270  1.00  0.00     0.173 A 
ATOM     62  F   UNL A   1      35.712  33.789  27.669  1.00  0.00    -0.203 F 
ATOM     63  C   UNL A   1      34.162  34.768  29.083  1.00  0.00     0.198 A 
ATOM     64  C   UNL A   1      34.246  34.425  31.430  1.00  0.00     0.198 A 
ATOM     65  F   UNL A   1      35.757  32.923  32.354  1.00  0.00    -0.203 F 
ATOM     66  F   UNL A   1      33.552  35.270  28.000  1.00  0.00    -0.200 F 
ATOM     67  C   UNL A   1      33.653  35.020  30.338  1.00  0.00     0.200 A 
ATOM     68  F   UNL A   1      33.737  34.620  32.655  1.00  0.00    -0.200 F 
ATOM     69  F   UNL A   1      32.573  35.799  30.489  1.00  0.00    -0.200 F 
ENDBRANCH  45  59
BRANCH  46  70
ATOM     70  C   UNL A   1      44.442  28.685  29.701  1.00  0.00     0.064 A 
ATOM     71  C   UNL A   1      45.231  27.669  30.263  1.00  0.00     0.173 A 
ATOM     72  C   UNL A   1      44.103  28.590  28.347  1.00  0.00     0.173 A 
ATOM     73  F   UNL A   1      45.593  27.733  31.554  1.00  0.00    -0.203 F 
ATOM     74  C   UNL A   1      45.574  26.545  29.520  1.00  0.00     0.198 A 
ATOM     75  C   UNL A   1      44.443  27.462  27.609  1.00  0.00     0.198 A 
ATOM     76  F   UNL A   1      43.354  29.538  27.764  1.00  0.00    -0.203 F 
ATOM     77  F   UNL A   1      46.259  25.545  30.093  1.00  0.00    -0.200 F 
ATOM     78  C   UNL A   1      45.148  26.426  28.204  1.00  0.00     0.200 A 
ATOM     79  F   UNL A   1      44.030  27.349  26.339  1.00  0.00    -0.200 F 
ATOM     80  F   UNL A   1      45.397  25.303  27.517  1.00  0.00    -0.200 F 
ENDBRANCH  46  70
BRANCH  58  81
ATOM     81  C   UNL A   1      42.350  35.500  29.590  1.00  0.00     0.064 A 
ATOM     82  C   UNL A   1      41.847  35.925  28.347  1.00  0.00     0.173 A 
ATOM     83  C   UNL A   1      43.217  36.399  30.242  1.00  0.00     0.173 A 
ATOM     84  F   UNL A   1      41.093  35.108  27.595  1.00  0.00    -0.203 F 
ATOM     85  C   UNL A   1      42.112  37.197  27.837  1.00  0.00     0.198 A 
ATOM     86  C   UNL A   1      43.527  37.649  29.703  1.00  0.00     0.198 A 
ATOM     87  F   UNL A   1      43.765  36.104  31.430  1.00  0.00    -0.203 F 
ATOM     88  F   UNL A   1      41.543  37.585  26.687  1.00  0.00    -0.200 F 
ATOM     89  C   UNL A   1      42.956  38.057  28.513  1.00  0.00     0.200 A 
ATOM     90  F   UNL A   1      44.374  38.461  30.351  1.00  0.00    -0.200 F 
ATOM     91  F   UNL A   1      43.221  39.274  28.019  1.00  0.00    -0.200 F 
ENDBRANCH  58  81
ENDBRANCH  32  33
ENDBRANCH  25  27
ENDBRANCH  24  25
ENDBRANCH   1  24
TORSDOF 12
ENDMDL
MODEL 3
REMARK VINA RESULT:     -13.9      3.808     10.081
REMARK SMILES Cc1cc(F)cc(-n2c(C)nc3cc(C(=O)OCCOC(=O)c4ccc(-c5c6nc(c(-c7c(F)c(F)c(F)c(F)c7F)c7ccc([nH]7)c(-c7c(F)c(F)c(F)c(F)c7F)c7nc(c(-c8c(F)c(F)c(F)c(F)c8F)c8ccc5[nH]8)C=C7)C=C6)cc4)ccc32)c1
REMARK SMILES IDX 19 1 18 2 17 3 15 4 16 5 14 6 8 7 9 8 88 9 10 10 11 11 12 12
REMARK SMILES IDX 87 13 13 14 86 15 7 16 1 17 2 18 3 19 89 20 4 21 5 22 6 23
REMARK SMILES IDX 20 24 21 25 22 26 23 27 24 28 85 29 25 30 84 31 26 32 27 33
REMARK SMILES IDX 28 34 78 35 29 36 83 37 77 38 79 39 30 40 82 41 76 42 75 43
REMARK SMILES IDX 31 45 63 46 43 47 62 48 44 49 47 50 61 51 80 52 45 53 46 54
REMARK SMILES IDX 60 56 81 57 48 58 32 59 33 60 41 61 34 62 35 63 39 64 42 65
REMARK SMILES IDX 36 66 37 67 40 68 38 69 64 70 65 71 73 72 66 73 67 74 71 75
REMARK SMILES IDX 74 76 68 77 69 78 72 79 70 80 49 81 50 82 58 83 51 84 52 85
REMARK SMILES IDX 56 86 59 87 53 88 54 89 57 90 55 91
REMARK H PARENT 79 44 47 55
REMARK Flexibility Score: inf
ROOT
ATOM      1  C   UNL A   1      41.265  21.820  26.451  1.00  0.00     0.275 C 
ENDROOT
BRANCH   1   2
ATOM      2  C   UNL A   1      40.065  20.934  26.097  1.00  0.00     0.275 C 
BRANCH   2   3
ATOM      3  O   UNL A   1      38.807  21.641  26.136  1.00  0.00    -0.458 OA
BRANCH   3   4
ATOM      4  C   UNL A   1      37.852  21.239  25.257  1.00  0.00     0.338 C 
ATOM      5  O   UNL A   1      37.763  20.155  24.700  1.00  0.00    -0.246 OA
BRANCH   4   6
ATOM      6  C   UNL A   1      36.820  22.294  25.124  1.00  0.00     0.062 A 
ATOM      7  N   UNL A   1      33.552  24.749  24.612  1.00  0.00    -0.296 N 
ATOM      8  C   UNL A   1      32.718  23.810  24.022  1.00  0.00     0.111 A 
ATOM      9  C   UNL A   1      34.753  24.114  24.895  1.00  0.00     0.073 A 
ATOM     10  C   UNL A   1      31.299  24.033  23.639  1.00  0.00     0.088 C 
ATOM     11  N   UNL A   1      33.385  22.700  23.752  1.00  0.00    -0.233 NA
ATOM     12  C   UNL A   1      34.633  22.877  24.285  1.00  0.00     0.090 A 
ATOM     13  C   UNL A   1      35.893  24.486  25.631  1.00  0.00     0.030 A 
ATOM     14  C   UNL A   1      35.718  21.998  24.320  1.00  0.00     0.046 A 
ATOM     15  C   UNL A   1      36.912  23.530  25.770  1.00  0.00     0.018 A 
BRANCH   7  16
ATOM     16  C   UNL A   1      33.303  26.114  24.858  1.00  0.00     0.051 A 
ATOM     17  C   UNL A   1      31.697  28.173  27.627  1.00  0.00     0.044 C 
ATOM     18  C   UNL A   1      32.344  27.791  26.330  1.00  0.00    -0.046 A 
ATOM     19  C   UNL A   1      32.591  28.754  25.344  1.00  0.00     0.042 A 
ATOM     20  C   UNL A   1      32.688  26.462  26.071  1.00  0.00     0.030 A 
ATOM     21  C   UNL A   1      33.207  28.389  24.145  1.00  0.00     0.125 A 
ATOM     22  F   UNL A   1      33.412  29.323  23.207  1.00  0.00    -0.207 F 
ATOM     23  C   UNL A   1      33.588  27.077  23.893  1.00  0.00     0.066 A 
ENDBRANCH   7  16
ENDBRANCH   4   6
ENDBRANCH   3   4
ENDBRANCH   2   3
ENDBRANCH   1   2
BRANCH   1  24
ATOM     24  O   UNL A   1      40.806  23.106  26.884  1.00  0.00    -0.458 OA
BRANCH  24  25
ATOM     25  C   UNL A   1      41.438  24.188  26.358  1.00  0.00     0.338 C 
ATOM     26  O   UNL A   1      42.333  24.205  25.544  1.00  0.00    -0.246 OA
BRANCH  25  27
ATOM     27  C   UNL A   1      40.598  25.351  26.719  1.00  0.00     0.060 A 
ATOM     28  C   UNL A   1      40.849  26.623  26.193  1.00  0.00     0.016 A 
ATOM     29  C   UNL A   1      39.740  25.181  27.805  1.00  0.00     0.016 A 
ATOM     30  C   UNL A   1      40.401  27.748  26.884  1.00  0.00     0.010 A 
ATOM     31  C   UNL A   1      39.282  26.305  28.479  1.00  0.00     0.010 A 
ATOM     32  C   UNL A   1      39.705  27.582  28.085  1.00  0.00    -0.014 A 
BRANCH  32  33
ATOM     33  C   UNL A   1      39.577  28.663  29.067  1.00  0.00     0.031 A 
ATOM     34  C   UNL A   1      38.545  29.715  28.937  1.00  0.00     0.074 A 
ATOM     35  C   UNL A   1      40.439  28.777  30.105  1.00  0.00     0.049 A 
ATOM     36  N   UNL A   1      38.728  30.954  29.269  1.00  0.00    -0.248 NA
ATOM     37  C   UNL A   1      37.222  29.450  28.398  1.00  0.00     0.031 C 
ATOM     38  C   UNL A   1      40.305  29.680  31.250  1.00  0.00     0.029 A 
ATOM     39  N   UNL A   1      41.699  28.226  30.276  1.00  0.00    -0.354 N 
ATOM     40  C   UNL A   1      37.507  31.585  29.234  1.00  0.00     0.074 A 
ATOM     41  C   UNL A   1      36.617  30.623  28.617  1.00  0.00     0.031 C 
ATOM     42  C   UNL A   1      41.499  29.815  31.845  1.00  0.00     0.029 A 
ATOM     43  C   UNL A   1      42.476  29.084  31.061  1.00  0.00     0.049 A 
ATOM     44  H   UNL A   1      42.000  27.366  29.903  1.00  0.00     0.167 HD
ATOM     45  C   UNL A   1      37.346  32.801  29.839  1.00  0.00     0.037 A 
ATOM     46  C   UNL A   1      43.662  29.590  30.616  1.00  0.00     0.037 A 
ATOM     47  C   UNL A   1      38.556  33.234  30.540  1.00  0.00     0.049 A 
ATOM     48  C   UNL A   1      43.678  31.092  30.413  1.00  0.00     0.074 A 
ATOM     49  C   UNL A   1      38.947  33.183  31.868  1.00  0.00     0.029 A 
ATOM     50  N   UNL A   1      39.674  33.622  29.826  1.00  0.00    -0.354 N 
ATOM     51  N   UNL A   1      42.697  31.902  30.690  1.00  0.00    -0.248 NA
ATOM     52  C   UNL A   1      44.784  31.763  29.722  1.00  0.00     0.031 C 
ATOM     53  C   UNL A   1      40.310  33.573  31.948  1.00  0.00     0.029 A 
ATOM     54  C   UNL A   1      40.754  33.841  30.665  1.00  0.00     0.049 A 
ATOM     55  H   UNL A   1      39.700  33.728  28.847  1.00  0.00     0.167 HD
ATOM     56  C   UNL A   1      42.960  33.122  30.120  1.00  0.00     0.074 A 
ATOM     57  C   UNL A   1      44.278  32.990  29.533  1.00  0.00     0.031 C 
ATOM     58  C   UNL A   1      42.056  34.143  30.100  1.00  0.00     0.037 A 
BRANCH  45  59
ATOM     59  C   UNL A   1      36.018  33.512  30.037  1.00  0.00     0.064 A 
ATOM     60  C   UNL A   1      35.316  34.054  28.933  1.00  0.00     0.173 A 
ATOM     61  C   UNL A   1      35.385  33.705  31.277  1.00  0.00     0.173 A 
ATOM     62  F   UNL A   1      35.700  33.823  27.671  1.00  0.00    -0.203 F 
ATOM     63  C   UNL A   1      34.172  34.843  29.080  1.00  0.00     0.198 A 
ATOM     64  C   UNL A   1      34.270  34.539  31.432  1.00  0.00     0.198 A 
ATOM     65  F   UNL A   1      35.770  33.036  32.370  1.00  0.00    -0.203 F 
ATOM     66  F   UNL A   1      33.559  35.334  27.993  1.00  0.00    -0.200 F 
ATOM     67  C   UNL A   1      33.675  35.123  30.334  1.00  0.00     0.200 A 
ATOM     68  F   UNL A   1      33.772  34.761  32.657  1.00  0.00    -0.200 F 
ATOM     69  F   UNL A   1      32.605  35.916  30.479  1.00  0.00    -0.200 F 
ENDBRANCH  45  59
BRANCH  46  70
ATOM     70  C   UNL A   1      44.388  28.657  29.725  1.00  0.00     0.064 A 
ATOM     71  C   UNL A   1      45.162  27.635  30.297  1.00  0.00     0.173 A 
ATOM     72  C   UNL A   1      44.044  28.550  28.373  1.00  0.00     0.173 A 
ATOM     73  F   UNL A   1      45.528  27.709  31.587  1.00  0.00    -0.203 F 
ATOM     74  C   UNL A   1      45.485  26.497  29.568  1.00  0.00     0.198 A 
ATOM     75  C   UNL A   1      44.365  27.408  27.649  1.00  0.00     0.198 A 
ATOM     76  F   UNL A   1      43.309  29.503  27.779  1.00  0.00    -0.203 F 
ATOM     77  F   UNL A   1      46.155  25.493  30.152  1.00  0.00    -0.200 F 
ATOM     78  C   UNL A   1      45.054  26.368  28.255  1.00  0.00     0.200 A 
ATOM     79  F   UNL A   1      43.946  27.286  26.381  1.00  0.00    -0.200 F 
ATOM     80  F   UNL A   1      45.284  25.233  27.581  1.00  0.00    -0.200 F 
ENDBRANCH  46  70
BRANCH  58  81
ATOM     81  C   UNL A   1      42.371  35.492  29.517  1.00  0.00     0.064 A 
ATOM     82  C   UNL A   1      43.175  36.427  30.194  1.00  0.00     0.173 A 
ATOM     83  C   UNL A   1      41.819  35.927  28.296  1.00  0.00     0.173 A 
ATOM     84  F   UNL A   1      43.670  36.154  31.411  1.00  0.00    -0.203 F 
ATOM     85  C   UNL A   1      43.485  37.672  29.644  1.00  0.00     0.198 A 
ATOM     86  C   UNL A   1      42.084  37.194  27.774  1.00  0.00     0.198 A 
ATOM     87  F   UNL A   1      41.031  35.127  27.562  1.00  0.00    -0.203 F 
ATOM     88  F   UNL A   1      44.322  38.495  30.291  1.00  0.00    -0.200 F 
ATOM     89  C   UNL A   1      42.935  38.057  28.436  1.00  0.00     0.200 A 
ATOM     90  F   UNL A   1      41.517  37.569  26.619  1.00  0.00    -0.200 F 
ATOM     91  F   UNL A   1      43.223  39.256  27.913  1.00  0.00    -0.200 F 
ENDBRANCH  58  81
ENDBRANCH  32  33
ENDBRANCH  25  27
ENDBRANCH  24  25
ENDBRANCH   1  24
TORSDOF 12
ENDMDL
