MODEL 1
REMARK VINA RESULT:     -12.2      0.000      0.000
REMARK SMILES Nc1nc2ccccc2nc1N1CCC(C(=O)OCCOC(=O)c2ccc(-c3c4nc(c(-c5c(F)c(F)c(F)c(F)c5F)c5ccc([nH]5)c(-c5c(F)c(F)c(F)c(F)c5F)c5nc(c(-c6c(F)c(F)c(F)c(F)c6F)c6ccc3[nH]6)C=C5)C=C4)cc2)CC1
REMARK SMILES IDX 19 1 18 2 16 3 17 4 15 5 12 6 13 7 88 8 14 9 87 10 11 11
REMARK SMILES IDX 2 12 3 13 4 14 10 15 5 16 9 17 6 18 8 19 7 20 1 21 20 24
REMARK SMILES IDX 21 25 22 26 23 27 24 28 25 29 86 30 26 31 85 32 27 33 28 34
REMARK SMILES IDX 29 35 79 36 30 37 84 38 78 39 80 40 31 41 83 42 77 43 76 44
REMARK SMILES IDX 32 46 64 47 44 48 63 49 45 50 48 51 62 52 81 53 46 54 47 55
REMARK SMILES IDX 61 57 82 58 49 59 33 60 34 61 42 62 35 63 36 64 40 65 43 66
REMARK SMILES IDX 37 67 38 68 41 69 39 70 65 71 66 72 74 73 67 74 68 75 72 76
REMARK SMILES IDX 75 77 69 78 70 79 73 80 71 81 50 82 51 83 59 84 52 85 53 86
REMARK SMILES IDX 57 87 60 88 54 89 55 90 58 91 56 92
REMARK H PARENT 1 22 1 23 80 45 48 56
REMARK Flexibility Score: inf
ROOT
ATOM      1  C   UNL A   1      37.240  20.581  24.828  1.00  0.00     0.274 C 
ENDROOT
BRANCH   1   2
ATOM      2  O   UNL A   1      37.384  22.007  24.691  1.00  0.00    -0.462 OA
BRANCH   2   3
ATOM      3  C   UNL A   1      36.527  22.614  23.835  1.00  0.00     0.309 C 
ATOM      4  O   UNL A   1      36.778  22.883  22.664  1.00  0.00    -0.252 OA
BRANCH   3   5
ATOM      5  C   UNL A   1      35.185  22.927  24.452  1.00  0.00     0.103 C 
ATOM      6  N   UNL A   1      32.984  24.300  25.612  1.00  0.00    -0.353 N 
ATOM      7  C   UNL A   1      33.762  23.404  26.458  1.00  0.00     0.119 C 
ATOM      8  C   UNL A   1      33.037  24.142  24.160  1.00  0.00     0.119 C 
ATOM      9  C   UNL A   1      35.193  23.243  25.949  1.00  0.00     0.037 C 
ATOM     10  C   UNL A   1      34.485  24.046  23.688  1.00  0.00     0.037 C 
BRANCH   6  11
ATOM     11  C   UNL A   1      32.717  25.590  26.070  1.00  0.00     0.172 A 
ATOM     12  C   UNL A   1      31.402  25.947  26.477  1.00  0.00     0.167 A 
ATOM     13  N   UNL A   1      31.078  27.191  26.868  1.00  0.00    -0.226 NA
ATOM     14  C   UNL A   1      32.074  28.090  26.872  1.00  0.00     0.091 A 
ATOM     15  N   UNL A   1      33.722  26.491  26.122  1.00  0.00    -0.225 NA
ATOM     16  C   UNL A   1      31.792  29.397  27.243  1.00  0.00     0.031 A 
ATOM     17  C   UNL A   1      33.399  27.742  26.504  1.00  0.00     0.091 A 
ATOM     18  C   UNL A   1      32.783  30.379  27.250  1.00  0.00     0.002 A 
ATOM     19  C   UNL A   1      34.377  28.729  26.522  1.00  0.00     0.031 A 
ATOM     20  C   UNL A   1      34.080  30.044  26.887  1.00  0.00     0.002 A 
BRANCH  12  21
ATOM     21  N   UNL A   1      30.359  25.024  26.465  1.00  0.00    -0.381 N 
ATOM     22  H   UNL A   1      30.288  24.353  27.183  1.00  0.00     0.158 HD
ATOM     23  H   UNL A   1      29.694  25.042  25.739  1.00  0.00     0.158 HD
ENDBRANCH  12  21
ENDBRANCH   6  11
ENDBRANCH   3   5
ENDBRANCH   2   3
ENDBRANCH   1   2
BRANCH   1  24
ATOM     24  C   UNL A   1      38.522  19.946  25.374  1.00  0.00     0.275 C 
BRANCH  24  25
ATOM     25  O   UNL A   1      39.554  20.927  25.592  1.00  0.00    -0.458 OA
BRANCH  25  26
ATOM     26  C   UNL A   1      40.182  20.858  26.789  1.00  0.00     0.338 C 
ATOM     27  O   UNL A   1      40.417  19.862  27.451  1.00  0.00    -0.246 OA
BRANCH  26  28
ATOM     28  C   UNL A   1      40.681  22.192  27.154  1.00  0.00     0.060 A 
ATOM     29  C   UNL A   1      41.626  22.354  28.166  1.00  0.00     0.016 A 
ATOM     30  C   UNL A   1      40.229  23.295  26.423  1.00  0.00     0.016 A 
ATOM     31  C   UNL A   1      42.098  23.637  28.457  1.00  0.00     0.010 A 
ATOM     32  C   UNL A   1      40.702  24.571  26.710  1.00  0.00     0.010 A 
ATOM     33  C   UNL A   1      41.637  24.753  27.735  1.00  0.00    -0.014 A 
BRANCH  33  34
ATOM     34  C   UNL A   1      42.172  26.104  28.024  1.00  0.00     0.031 A 
ATOM     35  C   UNL A   1      43.535  26.507  27.544  1.00  0.00     0.074 A 
ATOM     36  C   UNL A   1      41.411  26.968  28.720  1.00  0.00     0.049 A 
ATOM     37  N   UNL A   1      44.112  27.682  27.601  1.00  0.00    -0.248 NA
ATOM     38  C   UNL A   1      44.364  25.460  26.926  1.00  0.00     0.031 C 
ATOM     39  C   UNL A   1      40.095  26.660  29.283  1.00  0.00     0.029 A 
ATOM     40  N   UNL A   1      41.619  28.281  29.054  1.00  0.00    -0.354 N 
ATOM     41  C   UNL A   1      45.352  27.522  27.000  1.00  0.00     0.074 A 
ATOM     42  C   UNL A   1      45.477  26.124  26.648  1.00  0.00     0.031 C 
ATOM     43  C   UNL A   1      39.590  27.768  29.845  1.00  0.00     0.029 A 
ATOM     44  C   UNL A   1      40.552  28.857  29.701  1.00  0.00     0.049 A 
ATOM     45  H   UNL A   1      42.452  28.765  28.852  1.00  0.00     0.167 HD
ATOM     46  C   UNL A   1      46.285  28.469  26.735  1.00  0.00     0.037 A 
ATOM     47  C   UNL A   1      40.365  30.127  30.109  1.00  0.00     0.037 A 
ATOM     48  C   UNL A   1      46.155  29.856  27.097  1.00  0.00     0.049 A 
ATOM     49  C   UNL A   1      41.437  31.147  29.837  1.00  0.00     0.074 A 
ATOM     50  C   UNL A   1      47.034  30.897  26.854  1.00  0.00     0.029 A 
ATOM     51  N   UNL A   1      45.077  30.394  27.785  1.00  0.00    -0.354 N 
ATOM     52  N   UNL A   1      42.571  31.005  29.195  1.00  0.00    -0.248 NA
ATOM     53  C   UNL A   1      41.199  32.508  30.340  1.00  0.00     0.031 C 
ATOM     54  C   UNL A   1      46.508  32.056  27.430  1.00  0.00     0.029 A 
ATOM     55  C   UNL A   1      45.279  31.750  27.991  1.00  0.00     0.049 A 
ATOM     56  H   UNL A   1      44.286  29.890  28.083  1.00  0.00     0.167 HD
ATOM     57  C   UNL A   1      43.168  32.257  29.193  1.00  0.00     0.074 A 
ATOM     58  C   UNL A   1      42.264  33.153  29.883  1.00  0.00     0.031 C 
ATOM     59  C   UNL A   1      44.361  32.629  28.669  1.00  0.00     0.037 A 
BRANCH  46  60
ATOM     60  C   UNL A   1      47.516  28.052  25.985  1.00  0.00     0.064 A 
ATOM     61  C   UNL A   1      48.706  27.745  26.664  1.00  0.00     0.173 A 
ATOM     62  C   UNL A   1      47.486  27.862  24.595  1.00  0.00     0.173 A 
ATOM     63  F   UNL A   1      48.787  27.913  27.992  1.00  0.00    -0.203 F 
ATOM     64  C   UNL A   1      49.821  27.272  25.978  1.00  0.00     0.198 A 
ATOM     65  C   UNL A   1      48.596  27.364  23.917  1.00  0.00     0.198 A 
ATOM     66  F   UNL A   1      46.371  28.131  23.900  1.00  0.00    -0.203 F 
ATOM     67  F   UNL A   1      50.952  27.007  26.646  1.00  0.00    -0.200 F 
ATOM     68  C   UNL A   1      49.762  27.072  24.607  1.00  0.00     0.200 A 
ATOM     69  F   UNL A   1      48.532  27.155  22.594  1.00  0.00    -0.200 F 
ATOM     70  F   UNL A   1      50.830  26.595  23.953  1.00  0.00    -0.200 F 
ENDBRANCH  46  60
BRANCH  47  71
ATOM     71  C   UNL A   1      39.085  30.515  30.754  1.00  0.00     0.064 A 
ATOM     72  C   UNL A   1      37.978  30.892  29.979  1.00  0.00     0.173 A 
ATOM     73  C   UNL A   1      38.932  30.507  32.147  1.00  0.00     0.173 A 
ATOM     74  F   UNL A   1      38.079  30.932  28.642  1.00  0.00    -0.203 F 
ATOM     75  C   UNL A   1      36.774  31.259  30.574  1.00  0.00     0.198 A 
ATOM     76  C   UNL A   1      37.718  30.848  32.741  1.00  0.00     0.198 A 
ATOM     77  F   UNL A   1      39.958  30.149  32.934  1.00  0.00    -0.203 F 
ATOM     78  F   UNL A   1      35.746  31.653  29.811  1.00  0.00    -0.200 F 
ATOM     79  C   UNL A   1      36.643  31.231  31.955  1.00  0.00     0.200 A 
ATOM     80  F   UNL A   1      37.591  30.804  34.074  1.00  0.00    -0.200 F 
ATOM     81  F   UNL A   1      35.481  31.578  32.526  1.00  0.00    -0.200 F 
ENDBRANCH  47  71
BRANCH  59  82
ATOM     82  C   UNL A   1      44.759  34.071  28.800  1.00  0.00     0.064 A 
ATOM     83  C   UNL A   1      45.530  34.521  29.881  1.00  0.00     0.173 A 
ATOM     84  C   UNL A   1      44.439  34.990  27.790  1.00  0.00     0.173 A 
ATOM     85  F   UNL A   1      45.850  33.682  30.878  1.00  0.00    -0.203 F 
ATOM     86  C   UNL A   1      45.956  35.845  29.952  1.00  0.00     0.198 A 
ATOM     87  C   UNL A   1      44.891  36.305  27.850  1.00  0.00     0.198 A 
ATOM     88  F   UNL A   1      43.711  34.606  26.730  1.00  0.00    -0.203 F 
ATOM     89  F   UNL A   1      46.665  36.261  31.010  1.00  0.00    -0.200 F 
ATOM     90  C   UNL A   1      45.647  36.732  28.931  1.00  0.00     0.200 A 
ATOM     91  F   UNL A   1      44.606  37.157  26.856  1.00  0.00    -0.200 F 
ATOM     92  F   UNL A   1      46.076  37.999  28.992  1.00  0.00    -0.200 F 
ENDBRANCH  59  82
ENDBRANCH  33  34
ENDBRANCH  26  28
ENDBRANCH  25  26
ENDBRANCH  24  25
ENDBRANCH   1  24
TORSDOF 13
ENDMDL
MODEL 2
REMARK VINA RESULT:     -12.1      4.790      9.944
REMARK SMILES Nc1nc2ccccc2nc1N1CCC(C(=O)OCCOC(=O)c2ccc(-c3c4nc(c(-c5c(F)c(F)c(F)c(F)c5F)c5ccc([nH]5)c(-c5c(F)c(F)c(F)c(F)c5F)c5nc(c(-c6c(F)c(F)c(F)c(F)c6F)c6ccc3[nH]6)C=C5)C=C4)cc2)CC1
REMARK SMILES IDX 19 1 18 2 16 3 17 4 15 5 12 6 13 7 88 8 14 9 87 10 11 11
REMARK SMILES IDX 2 12 3 13 4 14 10 15 5 16 9 17 6 18 8 19 7 20 1 21 20 24
REMARK SMILES IDX 21 25 22 26 23 27 24 28 25 29 86 30 26 31 85 32 27 33 28 34
REMARK SMILES IDX 29 35 79 36 30 37 84 38 78 39 80 40 31 41 83 42 77 43 76 44
REMARK SMILES IDX 32 46 64 47 44 48 63 49 45 50 48 51 62 52 81 53 46 54 47 55
REMARK SMILES IDX 61 57 82 58 49 59 33 60 34 61 42 62 35 63 36 64 40 65 43 66
REMARK SMILES IDX 37 67 38 68 41 69 39 70 65 71 66 72 74 73 67 74 68 75 72 76
REMARK SMILES IDX 75 77 69 78 70 79 73 80 71 81 50 82 51 83 59 84 52 85 53 86
REMARK SMILES IDX 57 87 60 88 54 89 55 90 58 91 56 92
REMARK H PARENT 1 22 1 23 80 45 48 56
REMARK Flexibility Score: inf
ROOT
ATOM      1  C   UNL A   1      31.579  28.772  24.711  1.00  0.00     0.274 C 
ENDROOT
BRANCH   1   2
ATOM      2  O   UNL A   1      30.994  27.552  25.201  1.00  0.00    -0.462 OA
BRANCH   2   3
ATOM      3  C   UNL A   1      30.252  26.847  24.313  1.00  0.00     0.309 C 
ATOM      4  O   UNL A   1      29.423  27.332  23.550  1.00  0.00    -0.252 OA
BRANCH   3   5
ATOM      5  C   UNL A   1      30.551  25.366  24.325  1.00  0.00     0.103 C 
ATOM      6  N   UNL A   1      31.887  22.867  24.537  1.00  0.00    -0.353 N 
ATOM      7  C   UNL A   1      31.462  23.314  23.216  1.00  0.00     0.119 C 
ATOM      8  C   UNL A   1      31.254  23.436  25.724  1.00  0.00     0.119 C 
ATOM      9  C   UNL A   1      31.355  24.835  23.137  1.00  0.00     0.037 C 
ATOM     10  C   UNL A   1      31.223  24.960  25.632  1.00  0.00     0.037 C 
BRANCH   6  11
ATOM     11  C   UNL A   1      33.200  22.427  24.704  1.00  0.00     0.172 A 
ATOM     12  C   UNL A   1      33.507  21.041  24.618  1.00  0.00     0.167 A 
ATOM     13  N   UNL A   1      34.743  20.560  24.832  1.00  0.00    -0.226 NA
ATOM     14  C   UNL A   1      35.691  21.464  25.118  1.00  0.00     0.091 A 
ATOM     15  N   UNL A   1      34.172  23.334  24.947  1.00  0.00    -0.225 NA
ATOM     16  C   UNL A   1      36.981  21.020  25.373  1.00  0.00     0.031 A 
ATOM     17  C   UNL A   1      35.410  22.853  25.172  1.00  0.00     0.091 A 
ATOM     18  C   UNL A   1      38.005  21.911  25.692  1.00  0.00     0.002 A 
ATOM     19  C   UNL A   1      36.441  23.730  25.486  1.00  0.00     0.031 A 
ATOM     20  C   UNL A   1      37.734  23.271  25.751  1.00  0.00     0.002 A 
BRANCH  12  21
ATOM     21  N   UNL A   1      32.526  20.095  24.333  1.00  0.00    -0.381 N 
ATOM     22  H   UNL A   1      32.713  19.371  23.691  1.00  0.00     0.158 HD
ATOM     23  H   UNL A   1      31.647  20.148  24.773  1.00  0.00     0.158 HD
ENDBRANCH  12  21
ENDBRANCH   6  11
ENDBRANCH   3   5
ENDBRANCH   2   3
ENDBRANCH   1   2
BRANCH   1  24
ATOM     24  C   UNL A   1      31.722  29.806  25.832  1.00  0.00     0.275 C 
BRANCH  24  25
ATOM     25  O   UNL A   1      33.055  30.348  25.892  1.00  0.00    -0.458 OA
BRANCH  25  26
ATOM     26  C   UNL A   1      33.273  31.256  26.873  1.00  0.00     0.338 C 
ATOM     27  O   UNL A   1      32.518  32.130  27.258  1.00  0.00    -0.246 OA
BRANCH  26  28
ATOM     28  C   UNL A   1      34.553  30.960  27.534  1.00  0.00     0.060 A 
ATOM     29  C   UNL A   1      35.473  31.971  27.802  1.00  0.00     0.016 A 
ATOM     30  C   UNL A   1      34.804  29.646  27.941  1.00  0.00     0.016 A 
ATOM     31  C   UNL A   1      36.663  31.651  28.462  1.00  0.00     0.010 A 
ATOM     32  C   UNL A   1      35.986  29.328  28.602  1.00  0.00     0.010 A 
ATOM     33  C   UNL A   1      36.928  30.329  28.862  1.00  0.00    -0.014 A 
BRANCH  33  34
ATOM     34  C   UNL A   1      38.174  30.006  29.596  1.00  0.00     0.031 A 
ATOM     35  C   UNL A   1      38.424  30.564  30.966  1.00  0.00     0.074 A 
ATOM     36  C   UNL A   1      39.077  29.194  29.015  1.00  0.00     0.049 A 
ATOM     37  N   UNL A   1      39.397  30.293  31.799  1.00  0.00    -0.248 NA
ATOM     38  C   UNL A   1      37.465  31.562  31.466  1.00  0.00     0.031 C 
ATOM     39  C   UNL A   1      38.961  28.642  27.665  1.00  0.00     0.029 A 
ATOM     40  N   UNL A   1      40.255  28.676  29.489  1.00  0.00    -0.354 N 
ATOM     41  C   UNL A   1      39.150  31.059  32.930  1.00  0.00     0.074 A 
ATOM     42  C   UNL A   1      37.977  31.859  32.652  1.00  0.00     0.031 C 
ATOM     43  C   UNL A   1      39.996  27.819  27.438  1.00  0.00     0.029 A 
ATOM     44  C   UNL A   1      40.858  27.801  28.618  1.00  0.00     0.049 A 
ATOM     45  H   UNL A   1      40.633  28.908  30.368  1.00  0.00     0.167 HD
ATOM     46  C   UNL A   1      39.824  31.062  34.105  1.00  0.00     0.037 A 
ATOM     47  C   UNL A   1      41.968  27.053  28.766  1.00  0.00     0.037 A 
ATOM     48  C   UNL A   1      40.996  30.268  34.368  1.00  0.00     0.049 A 
ATOM     49  C   UNL A   1      42.719  27.110  30.069  1.00  0.00     0.074 A 
ATOM     50  C   UNL A   1      41.737  30.184  35.533  1.00  0.00     0.029 A 
ATOM     51  N   UNL A   1      41.599  29.423  33.448  1.00  0.00    -0.354 N 
ATOM     52  N   UNL A   1      42.432  27.774  31.161  1.00  0.00    -0.248 NA
ATOM     53  C   UNL A   1      43.946  26.306  30.161  1.00  0.00     0.031 C 
ATOM     54  C   UNL A   1      42.812  29.321  35.306  1.00  0.00     0.029 A 
ATOM     55  C   UNL A   1      42.715  28.829  34.015  1.00  0.00     0.049 A 
ATOM     56  H   UNL A   1      41.282  29.268  32.529  1.00  0.00     0.167 HD
ATOM     57  C   UNL A   1      43.421  27.450  32.077  1.00  0.00     0.074 A 
ATOM     58  C   UNL A   1      44.310  26.515  31.419  1.00  0.00     0.031 C 
ATOM     59  C   UNL A   1      43.581  27.890  33.349  1.00  0.00     0.037 A 
BRANCH  46  60
ATOM     60  C   UNL A   1      39.295  31.921  35.216  1.00  0.00     0.064 A 
ATOM     61  C   UNL A   1      38.516  31.370  36.246  1.00  0.00     0.173 A 
ATOM     62  C   UNL A   1      39.643  33.277  35.310  1.00  0.00     0.173 A 
ATOM     63  F   UNL A   1      38.152  30.080  36.200  1.00  0.00    -0.203 F 
ATOM     64  C   UNL A   1      38.099  32.146  37.323  1.00  0.00     0.198 A 
ATOM     65  C   UNL A   1      39.246  34.043  36.404  1.00  0.00     0.198 A 
ATOM     66  F   UNL A   1      40.394  33.850  34.358  1.00  0.00    -0.203 F 
ATOM     67  F   UNL A   1      37.337  31.603  38.283  1.00  0.00    -0.200 F 
ATOM     68  C   UNL A   1      38.473  33.479  37.407  1.00  0.00     0.200 A 
ATOM     69  F   UNL A   1      39.622  35.326  36.492  1.00  0.00    -0.200 F 
ATOM     70  F   UNL A   1      38.090  34.219  38.457  1.00  0.00    -0.200 F 
ENDBRANCH  46  60
BRANCH  47  71
ATOM     71  C   UNL A   1      42.394  26.138  27.676  1.00  0.00     0.064 A 
ATOM     72  C   UNL A   1      41.790  24.882  27.520  1.00  0.00     0.173 A 
ATOM     73  C   UNL A   1      43.395  26.499  26.763  1.00  0.00     0.173 A 
ATOM     74  F   UNL A   1      40.840  24.484  28.379  1.00  0.00    -0.203 F 
ATOM     75  C   UNL A   1      42.184  24.015  26.503  1.00  0.00     0.198 A 
ATOM     76  C   UNL A   1      43.767  25.643  25.729  1.00  0.00     0.198 A 
ATOM     77  F   UNL A   1      43.999  27.692  26.864  1.00  0.00    -0.203 F 
ATOM     78  F   UNL A   1      41.618  22.805  26.402  1.00  0.00    -0.200 F 
ATOM     79  C   UNL A   1      43.168  24.399  25.604  1.00  0.00     0.200 A 
ATOM     80  F   UNL A   1      44.707  26.023  24.852  1.00  0.00    -0.200 F 
ATOM     81  F   UNL A   1      43.540  23.568  24.621  1.00  0.00    -0.200 F 
ENDBRANCH  47  71
BRANCH  59  82
ATOM     82  C   UNL A   1      44.748  27.357  34.128  1.00  0.00     0.064 A 
ATOM     83  C   UNL A   1      45.970  28.044  34.176  1.00  0.00     0.173 A 
ATOM     84  C   UNL A   1      44.614  26.195  34.902  1.00  0.00     0.173 A 
ATOM     85  F   UNL A   1      46.150  29.153  33.443  1.00  0.00    -0.203 F 
ATOM     86  C   UNL A   1      47.020  27.579  34.963  1.00  0.00     0.198 A 
ATOM     87  C   UNL A   1      45.656  25.749  35.710  1.00  0.00     0.198 A 
ATOM     88  F   UNL A   1      43.462  25.507  34.897  1.00  0.00    -0.203 F 
ATOM     89  F   UNL A   1      48.189  28.234  34.970  1.00  0.00    -0.200 F 
ATOM     90  C   UNL A   1      46.858  26.440  35.738  1.00  0.00     0.200 A 
ATOM     91  F   UNL A   1      45.494  24.658  36.471  1.00  0.00    -0.200 F 
ATOM     92  F   UNL A   1      47.864  26.007  36.510  1.00  0.00    -0.200 F 
ENDBRANCH  59  82
ENDBRANCH  33  34
ENDBRANCH  26  28
ENDBRANCH  25  26
ENDBRANCH  24  25
ENDBRANCH   1  24
TORSDOF 13
ENDMDL
MODEL 3
REMARK VINA RESULT:     -12.1      4.798     10.048
REMARK SMILES Nc1nc2ccccc2nc1N1CCC(C(=O)OCCOC(=O)c2ccc(-c3c4nc(c(-c5c(F)c(F)c(F)c(F)c5F)c5ccc([nH]5)c(-c5c(F)c(F)c(F)c(F)c5F)c5nc(c(-c6c(F)c(F)c(F)c(F)c6F)c6ccc3[nH]6)C=C5)C=C4)cc2)CC1
REMARK SMILES IDX 19 1 18 2 16 3 17 4 15 5 12 6 13 7 88 8 14 9 87 10 11 11
REMARK SMILES IDX 2 12 3 13 4 14 10 15 5 16 9 17 6 18 8 19 7 20 1 21 20 24
REMARK SMILES IDX 21 25 22 26 23 27 24 28 25 29 86 30 26 31 85 32 27 33 28 34
REMARK SMILES IDX 29 35 79 36 30 37 84 38 78 39 80 40 31 41 83 42 77 43 76 44
REMARK SMILES IDX 32 46 64 47 44 48 63 49 45 50 48 51 62 52 81 53 46 54 47 55
REMARK SMILES IDX 61 57 82 58 49 59 33 60 34 61 42 62 35 63 36 64 40 65 43 66
REMARK SMILES IDX 37 67 38 68 41 69 39 70 65 71 66 72 74 73 67 74 68 75 72 76
REMARK SMILES IDX 75 77 69 78 70 79 73 80 71 81 50 82 51 83 59 84 52 85 53 86
REMARK SMILES IDX 57 87 60 88 54 89 55 90 58 91 56 92
REMARK H PARENT 1 22 1 23 80 45 48 56
REMARK Flexibility Score: inf
ROOT
ATOM      1  C   UNL A   1      31.208  30.329  25.134  1.00  0.00     0.274 C 
ENDROOT
BRANCH   1   2
ATOM      2  O   UNL A   1      31.819  29.188  24.505  1.00  0.00    -0.462 OA
BRANCH   2   3
ATOM      3  C   UNL A   1      31.035  28.487  23.649  1.00  0.00     0.309 C 
ATOM      4  O   UNL A   1      30.541  28.939  22.621  1.00  0.00    -0.252 OA
BRANCH   3   5
ATOM      5  C   UNL A   1      30.826  27.051  24.068  1.00  0.00     0.103 C 
ATOM      6  N   UNL A   1      31.278  24.341  24.793  1.00  0.00    -0.353 N 
ATOM      7  C   UNL A   1      30.653  24.617  23.506  1.00  0.00     0.119 C 
ATOM      8  C   UNL A   1      31.242  25.360  25.840  1.00  0.00     0.119 C 
ATOM      9  C   UNL A   1      31.027  25.999  22.976  1.00  0.00     0.037 C 
ATOM     10  C   UNL A   1      31.682  26.711  25.283  1.00  0.00     0.037 C 
BRANCH   6  11
ATOM     11  C   UNL A   1      32.364  23.468  24.837  1.00  0.00     0.172 A 
ATOM     12  C   UNL A   1      32.256  22.225  25.519  1.00  0.00     0.167 A 
ATOM     13  N   UNL A   1      33.290  21.375  25.642  1.00  0.00    -0.226 NA
ATOM     14  C   UNL A   1      34.441  21.754  25.069  1.00  0.00     0.091 A 
ATOM     15  N   UNL A   1      33.515  23.819  24.224  1.00  0.00    -0.225 NA
ATOM     16  C   UNL A   1      35.550  20.928  25.187  1.00  0.00     0.031 A 
ATOM     17  C   UNL A   1      34.556  22.974  24.355  1.00  0.00     0.091 A 
ATOM     18  C   UNL A   1      36.778  21.276  24.626  1.00  0.00     0.002 A 
ATOM     19  C   UNL A   1      35.785  23.306  23.796  1.00  0.00     0.031 A 
ATOM     20  C   UNL A   1      36.897  22.471  23.930  1.00  0.00     0.002 A 
BRANCH  12  21
ATOM     21  N   UNL A   1      31.067  21.828  26.127  1.00  0.00    -0.381 N 
ATOM     22  H   UNL A   1      30.447  21.229  25.651  1.00  0.00     0.158 HD
ATOM     23  H   UNL A   1      30.847  22.147  27.032  1.00  0.00     0.158 HD
ENDBRANCH  12  21
ENDBRANCH   6  11
ENDBRANCH   3   5
ENDBRANCH   2   3
ENDBRANCH   1   2
BRANCH   1  24
ATOM     24  C   UNL A   1      31.778  30.558  26.537  1.00  0.00     0.275 C 
BRANCH  24  25
ATOM     25  O   UNL A   1      33.194  30.821  26.503  1.00  0.00    -0.458 OA
BRANCH  25  26
ATOM     26  C   UNL A   1      33.622  31.817  27.314  1.00  0.00     0.338 C 
ATOM     27  O   UNL A   1      33.042  32.851  27.594  1.00  0.00    -0.246 OA
BRANCH  26  28
ATOM     28  C   UNL A   1      34.890  31.419  27.945  1.00  0.00     0.060 A 
ATOM     29  C   UNL A   1      35.927  32.334  28.113  1.00  0.00     0.016 A 
ATOM     30  C   UNL A   1      35.012  30.112  28.427  1.00  0.00     0.016 A 
ATOM     31  C   UNL A   1      37.102  31.923  28.748  1.00  0.00     0.010 A 
ATOM     32  C   UNL A   1      36.179  29.704  29.063  1.00  0.00     0.010 A 
ATOM     33  C   UNL A   1      37.237  30.605  29.223  1.00  0.00    -0.014 A 
BRANCH  33  34
ATOM     34  C   UNL A   1      38.470  30.188  29.929  1.00  0.00     0.031 A 
ATOM     35  C   UNL A   1      38.753  30.663  31.324  1.00  0.00     0.074 A 
ATOM     36  C   UNL A   1      39.332  29.367  29.301  1.00  0.00     0.049 A 
ATOM     37  N   UNL A   1      39.717  30.306  32.135  1.00  0.00    -0.248 NA
ATOM     38  C   UNL A   1      37.843  31.677  31.882  1.00  0.00     0.031 C 
ATOM     39  C   UNL A   1      39.183  28.891  27.925  1.00  0.00     0.029 A 
ATOM     40  N   UNL A   1      40.488  28.772  29.739  1.00  0.00    -0.354 N 
ATOM     41  C   UNL A   1      39.511  31.023  33.305  1.00  0.00     0.074 A 
ATOM     42  C   UNL A   1      38.375  31.889  33.078  1.00  0.00     0.031 C 
ATOM     43  C   UNL A   1      40.179  28.035  27.649  1.00  0.00     0.029 A 
ATOM     44  C   UNL A   1      41.045  27.917  28.819  1.00  0.00     0.049 A 
ATOM     45  H   UNL A   1      40.880  28.942  30.625  1.00  0.00     0.167 HD
ATOM     46  C   UNL A   1      40.191  30.935  34.474  1.00  0.00     0.037 A 
ATOM     47  C   UNL A   1      42.120  27.113  28.920  1.00  0.00     0.037 A 
ATOM     48  C   UNL A   1      41.326  30.076  34.687  1.00  0.00     0.049 A 
ATOM     49  C   UNL A   1      42.880  27.068  30.218  1.00  0.00     0.074 A 
ATOM     50  C   UNL A   1      42.069  29.899  35.841  1.00  0.00     0.029 A 
ATOM     51  N   UNL A   1      41.885  29.253  33.720  1.00  0.00    -0.354 N 
ATOM     52  N   UNL A   1      42.629  27.687  31.345  1.00  0.00    -0.248 NA
ATOM     53  C   UNL A   1      44.069  26.205  30.260  1.00  0.00     0.031 C 
ATOM     54  C   UNL A   1      43.103  29.000  35.562  1.00  0.00     0.029 A 
ATOM     55  C   UNL A   1      42.976  28.580  34.247  1.00  0.00     0.049 A 
ATOM     56  H   UNL A   1      41.557  29.159  32.797  1.00  0.00     0.167 HD
ATOM     57  C   UNL A   1      43.608  27.272  32.236  1.00  0.00     0.074 A 
ATOM     58  C   UNL A   1      44.450  26.332  31.524  1.00  0.00     0.031 C 
ATOM     59  C   UNL A   1      43.795  27.638  33.527  1.00  0.00     0.037 A 
BRANCH  46  60
ATOM     60  C   UNL A   1      39.707  31.759  35.631  1.00  0.00     0.064 A 
ATOM     61  C   UNL A   1      40.209  33.051  35.856  1.00  0.00     0.173 A 
ATOM     62  C   UNL A   1      38.673  31.302  36.462  1.00  0.00     0.173 A 
ATOM     63  F   UNL A   1      41.200  33.533  35.092  1.00  0.00    -0.203 F 
ATOM     64  C   UNL A   1      39.698  33.850  36.875  1.00  0.00     0.198 A 
ATOM     65  C   UNL A   1      38.147  32.116  37.463  1.00  0.00     0.198 A 
ATOM     66  F   UNL A   1      38.152  30.079  36.283  1.00  0.00    -0.203 F 
ATOM     67  F   UNL A   1      40.208  35.072  37.084  1.00  0.00    -0.200 F 
ATOM     68  C   UNL A   1      38.661  33.387  37.670  1.00  0.00     0.200 A 
ATOM     69  F   UNL A   1      37.134  31.673  38.220  1.00  0.00    -0.200 F 
ATOM     70  F   UNL A   1      38.155  34.168  38.635  1.00  0.00    -0.200 F 
ENDBRANCH  46  60
BRANCH  47  71
ATOM     71  C   UNL A   1      42.498  26.236  27.782  1.00  0.00     0.064 A 
ATOM     72  C   UNL A   1      43.502  26.624  26.883  1.00  0.00     0.173 A 
ATOM     73  C   UNL A   1      41.879  24.995  27.574  1.00  0.00     0.173 A 
ATOM     74  F   UNL A   1      44.112  27.809  27.030  1.00  0.00    -0.203 F 
ATOM     75  C   UNL A   1      43.862  25.810  25.811  1.00  0.00     0.198 A 
ATOM     76  C   UNL A   1      42.260  24.170  26.517  1.00  0.00     0.198 A 
ATOM     77  F   UNL A   1      40.917  24.575  28.408  1.00  0.00    -0.203 F 
ATOM     78  F   UNL A   1      44.797  26.223  24.945  1.00  0.00    -0.200 F 
ATOM     79  C   UNL A   1      43.245  24.580  25.633  1.00  0.00     0.200 A 
ATOM     80  F   UNL A   1      41.672  22.976  26.358  1.00  0.00    -0.200 F 
ATOM     81  F   UNL A   1      43.598  23.795  24.606  1.00  0.00    -0.200 F 
ENDBRANCH  47  71
BRANCH  59  82
ATOM     82  C   UNL A   1      44.940  27.013  34.270  1.00  0.00     0.064 A 
ATOM     83  C   UNL A   1      46.193  27.638  34.341  1.00  0.00     0.173 A 
ATOM     84  C   UNL A   1      44.756  25.822  34.987  1.00  0.00     0.173 A 
ATOM     85  F   UNL A   1      46.421  28.773  33.661  1.00  0.00    -0.203 F 
ATOM     86  C   UNL A   1      47.225  27.086  35.095  1.00  0.00     0.198 A 
ATOM     87  C   UNL A   1      45.781  25.288  35.763  1.00  0.00     0.198 A 
ATOM     88  F   UNL A   1      43.573  25.190  34.958  1.00  0.00    -0.203 F 
ATOM     89  F   UNL A   1      48.423  27.685  35.123  1.00  0.00    -0.200 F 
ATOM     90  C   UNL A   1      47.015  25.919  35.814  1.00  0.00     0.200 A 
ATOM     91  F   UNL A   1      45.572  24.169  36.470  1.00  0.00    -0.200 F 
ATOM     92  F   UNL A   1      48.003  25.402  36.555  1.00  0.00    -0.200 F 
ENDBRANCH  59  82
ENDBRANCH  33  34
ENDBRANCH  26  28
ENDBRANCH  25  26
ENDBRANCH  24  25
ENDBRANCH   1  24
TORSDOF 13
ENDMDL
