MODEL 1
REMARK VINA RESULT:     -11.8      0.000      0.000
REMARK SMILES Cc1noc(C)c1COc1ccc(C(=O)OCCOC(=O)c2ccc(-c3c4nc(c(-c5c(F)c(F)c(F)c(F)c5F)c5ccc([nH]5)c(-c5c(F)c(F)c(F)c(F)c5F)c5nc(c(-c6c(F)c(F)c(F)c(F)c6F)c6ccc3[nH]6)C=C5)C=C4)cc2)cc1
REMARK SMILES IDX 17 1 16 2 14 3 15 4 13 5 10 6 11 7 86 8 12 9 85 10 9 11 8 12
REMARK SMILES IDX 7 13 1 14 2 15 3 16 4 17 5 18 6 19 18 20 19 21 20 22 21 23
REMARK SMILES IDX 22 24 23 25 84 26 24 27 83 28 25 29 26 30 27 31 77 32 28 33
REMARK SMILES IDX 82 34 76 35 78 36 29 37 81 38 75 39 74 40 30 42 62 43 42 44
REMARK SMILES IDX 61 45 43 46 46 47 60 48 79 49 44 50 45 51 59 53 80 54 47 55
REMARK SMILES IDX 31 56 32 57 40 58 33 59 34 60 38 61 41 62 35 63 36 64 39 65
REMARK SMILES IDX 37 66 63 67 64 68 72 69 65 70 66 71 70 72 73 73 67 74 68 75
REMARK SMILES IDX 71 76 69 77 48 78 49 79 57 80 50 81 51 82 55 83 58 84 52 85
REMARK SMILES IDX 53 86 56 87 54 88
REMARK H PARENT 78 41 46 52
REMARK Flexibility Score: inf
ROOT
ATOM      1  C   UNL A   1      42.184  20.441  26.082  1.00  0.00     0.275 C 
ENDROOT
BRANCH   1   2
ATOM      2  O   UNL A   1      40.924  21.086  26.348  1.00  0.00    -0.458 OA
BRANCH   2   3
ATOM      3  C   UNL A   1      39.826  20.491  25.825  1.00  0.00     0.338 C 
ATOM      4  O   UNL A   1      39.704  19.311  25.538  1.00  0.00    -0.246 OA
BRANCH   3   5
ATOM      5  C   UNL A   1      38.706  21.461  25.723  1.00  0.00     0.060 A 
ATOM      6  C   UNL A   1      36.685  23.373  25.555  1.00  0.00     0.119 A 
ATOM      7  C   UNL A   1      37.831  23.657  26.290  1.00  0.00     0.047 A 
ATOM      8  C   UNL A   1      36.556  22.164  24.872  1.00  0.00     0.047 A 
ATOM      9  C   UNL A   1      38.830  22.691  26.394  1.00  0.00     0.019 A 
ATOM     10  C   UNL A   1      37.561  21.202  24.962  1.00  0.00     0.019 A 
BRANCH   6  11
ATOM     11  O   UNL A   1      35.702  24.319  25.470  1.00  0.00    -0.489 OA
BRANCH  11  12
ATOM     12  C   UNL A   1      34.476  23.743  24.980  1.00  0.00     0.271 C 
BRANCH  12  13
ATOM     13  C   UNL A   1      33.416  23.675  26.018  1.00  0.00     0.055 A 
ATOM     14  C   UNL A   1      31.805  25.571  25.227  1.00  0.00     0.071 C 
ATOM     15  C   UNL A   1      32.249  24.480  26.126  1.00  0.00     0.087 A 
ATOM     16  N   UNL A   1      31.499  24.116  27.173  1.00  0.00    -0.085 NA
ATOM     17  O   UNL A   1      32.157  23.050  27.755  1.00  0.00    -0.361 OA
ATOM     18  C   UNL A   1      33.291  22.779  27.058  1.00  0.00     0.140 A 
ATOM     19  C   UNL A   1      34.084  21.625  27.523  1.00  0.00     0.091 C 
ENDBRANCH  12  13
ENDBRANCH  11  12
ENDBRANCH   6  11
ENDBRANCH   3   5
ENDBRANCH   2   3
ENDBRANCH   1   2
BRANCH   1  20
ATOM     20  C   UNL A   1      43.221  21.467  25.632  1.00  0.00     0.275 C 
BRANCH  20  21
ATOM     21  O   UNL A   1      42.553  22.656  25.168  1.00  0.00    -0.458 OA
BRANCH  21  22
ATOM     22  C   UNL A   1      43.302  23.782  25.135  1.00  0.00     0.338 C 
ATOM     23  O   UNL A   1      44.269  24.021  24.434  1.00  0.00    -0.246 OA
BRANCH  22  24
ATOM     24  C   UNL A   1      42.756  24.747  26.100  1.00  0.00     0.060 A 
ATOM     25  C   UNL A   1      43.195  26.070  26.059  1.00  0.00     0.016 A 
ATOM     26  C   UNL A   1      41.900  24.320  27.113  1.00  0.00     0.016 A 
ATOM     27  C   UNL A   1      42.817  26.965  27.057  1.00  0.00     0.010 A 
ATOM     28  C   UNL A   1      41.472  25.235  28.082  1.00  0.00     0.010 A 
ATOM     29  C   UNL A   1      41.949  26.561  28.080  1.00  0.00    -0.014 A 
BRANCH  29  30
ATOM     30  C   UNL A   1      41.593  27.497  29.182  1.00  0.00     0.031 A 
ATOM     31  C   UNL A   1      42.432  27.540  30.430  1.00  0.00     0.074 A 
ATOM     32  C   UNL A   1      40.537  28.325  29.067  1.00  0.00     0.049 A 
ATOM     33  N   UNL A   1      42.203  28.149  31.567  1.00  0.00    -0.248 NA
ATOM     34  C   UNL A   1      43.697  26.788  30.400  1.00  0.00     0.031 C 
ATOM     35  C   UNL A   1      39.667  28.433  27.897  1.00  0.00     0.029 A 
ATOM     36  N   UNL A   1      40.019  29.242  29.951  1.00  0.00    -0.354 N 
ATOM     37  C   UNL A   1      43.257  27.805  32.402  1.00  0.00     0.074 A 
ATOM     38  C   UNL A   1      44.134  26.941  31.642  1.00  0.00     0.031 C 
ATOM     39  C   UNL A   1      38.745  29.382  28.120  1.00  0.00     0.029 A 
ATOM     40  C   UNL A   1      38.908  29.896  29.476  1.00  0.00     0.049 A 
ATOM     41  H   UNL A   1      40.407  29.415  30.839  1.00  0.00     0.167 HD
ATOM     42  C   UNL A   1      43.472  28.175  33.688  1.00  0.00     0.037 A 
ATOM     43  C   UNL A   1      38.091  30.783  30.077  1.00  0.00     0.037 A 
ATOM     44  C   UNL A   1      42.634  29.085  34.424  1.00  0.00     0.049 A 
ATOM     45  C   UNL A   1      38.344  31.170  31.508  1.00  0.00     0.074 A 
ATOM     46  C   UNL A   1      42.776  29.527  35.728  1.00  0.00     0.029 A 
ATOM     47  N   UNL A   1      41.508  29.711  33.912  1.00  0.00    -0.354 N 
ATOM     48  N   UNL A   1      39.305  30.788  32.311  1.00  0.00    -0.248 NA
ATOM     49  C   UNL A   1      37.384  32.100  32.122  1.00  0.00     0.031 C 
ATOM     50  C   UNL A   1      41.722  30.402  36.013  1.00  0.00     0.029 A 
ATOM     51  C   UNL A   1      40.944  30.532  34.874  1.00  0.00     0.049 A 
ATOM     52  H   UNL A   1      41.162  29.590  32.998  1.00  0.00     0.167 HD
ATOM     53  C   UNL A   1      39.073  31.430  33.519  1.00  0.00     0.074 A 
ATOM     54  C   UNL A   1      37.890  32.246  33.338  1.00  0.00     0.031 C 
ATOM     55  C   UNL A   1      39.771  31.342  34.677  1.00  0.00     0.037 A 
BRANCH  42  56
ATOM     56  C   UNL A   1      44.645  27.567  34.398  1.00  0.00     0.064 A 
ATOM     57  C   UNL A   1      45.881  28.219  34.484  1.00  0.00     0.173 A 
ATOM     58  C   UNL A   1      44.511  26.323  35.035  1.00  0.00     0.173 A 
ATOM     59  F   UNL A   1      46.063  29.403  33.880  1.00  0.00    -0.203 F 
ATOM     60  C   UNL A   1      46.949  27.641  35.166  1.00  0.00     0.198 A 
ATOM     61  C   UNL A   1      45.572  25.759  35.737  1.00  0.00     0.198 A 
ATOM     62  F   UNL A   1      43.345  25.660  34.987  1.00  0.00    -0.203 F 
ATOM     63  F   UNL A   1      48.135  28.263  35.204  1.00  0.00    -0.200 F 
ATOM     64  C   UNL A   1      46.791  26.415  35.797  1.00  0.00     0.200 A 
ATOM     65  F   UNL A   1      45.414  24.580  36.355  1.00  0.00    -0.200 F 
ATOM     66  F   UNL A   1      47.819  25.863  36.459  1.00  0.00    -0.200 F 
ENDBRANCH  42  56
BRANCH  43  67
ATOM     67  C   UNL A   1      36.931  31.338  29.333  1.00  0.00     0.064 A 
ATOM     68  C   UNL A   1      36.915  32.677  28.920  1.00  0.00     0.173 A 
ATOM     69  C   UNL A   1      35.821  30.542  29.015  1.00  0.00     0.173 A 
ATOM     70  F   UNL A   1      37.940  33.485  29.226  1.00  0.00    -0.203 F 
ATOM     71  C   UNL A   1      35.829  33.200  28.220  1.00  0.00     0.198 A 
ATOM     72  C   UNL A   1      34.749  31.059  28.291  1.00  0.00     0.198 A 
ATOM     73  F   UNL A   1      35.787  29.256  29.392  1.00  0.00    -0.203 F 
ATOM     74  F   UNL A   1      35.822  34.493  27.868  1.00  0.00    -0.200 F 
ATOM     75  C   UNL A   1      34.751  32.388  27.899  1.00  0.00     0.200 A 
ATOM     76  F   UNL A   1      33.716  30.267  27.972  1.00  0.00    -0.200 F 
ATOM     77  F   UNL A   1      33.713  32.889  27.217  1.00  0.00    -0.200 F 
ENDBRANCH  43  67
BRANCH  55  78
ATOM     78  C   UNL A   1      39.291  32.170  35.830  1.00  0.00     0.064 A 
ATOM     79  C   UNL A   1      38.374  31.662  36.763  1.00  0.00     0.173 A 
ATOM     80  C   UNL A   1      39.779  33.470  36.025  1.00  0.00     0.173 A 
ATOM     81  F   UNL A   1      37.868  30.430  36.609  1.00  0.00    -0.203 F 
ATOM     82  C   UNL A   1      37.949  32.436  37.839  1.00  0.00     0.198 A 
ATOM     83  C   UNL A   1      39.368  34.233  37.114  1.00  0.00     0.198 A 
ATOM     84  F   UNL A   1      40.660  33.998  35.160  1.00  0.00    -0.203 F 
ATOM     85  F   UNL A   1      37.044  31.947  38.699  1.00  0.00    -0.200 F 
ATOM     86  C   UNL A   1      38.451  33.718  38.017  1.00  0.00     0.200 A 
ATOM     87  F   UNL A   1      39.858  35.468  37.289  1.00  0.00    -0.200 F 
ATOM     88  F   UNL A   1      38.042  34.460  39.055  1.00  0.00    -0.200 F 
ENDBRANCH  55  78
ENDBRANCH  29  30
ENDBRANCH  22  24
ENDBRANCH  21  22
ENDBRANCH  20  21
ENDBRANCH   1  20
TORSDOF 14
ENDMDL
MODEL 2
REMARK VINA RESULT:     -11.7      0.562      1.987
REMARK SMILES Cc1noc(C)c1COc1ccc(C(=O)OCCOC(=O)c2ccc(-c3c4nc(c(-c5c(F)c(F)c(F)c(F)c5F)c5ccc([nH]5)c(-c5c(F)c(F)c(F)c(F)c5F)c5nc(c(-c6c(F)c(F)c(F)c(F)c6F)c6ccc3[nH]6)C=C5)C=C4)cc2)cc1
REMARK SMILES IDX 17 1 16 2 14 3 15 4 13 5 10 6 11 7 86 8 12 9 85 10 9 11 8 12
REMARK SMILES IDX 7 13 1 14 2 15 3 16 4 17 5 18 6 19 18 20 19 21 20 22 21 23
REMARK SMILES IDX 22 24 23 25 84 26 24 27 83 28 25 29 26 30 27 31 77 32 28 33
REMARK SMILES IDX 82 34 76 35 78 36 29 37 81 38 75 39 74 40 30 42 62 43 42 44
REMARK SMILES IDX 61 45 43 46 46 47 60 48 79 49 44 50 45 51 59 53 80 54 47 55
REMARK SMILES IDX 31 56 32 57 40 58 33 59 34 60 38 61 41 62 35 63 36 64 39 65
REMARK SMILES IDX 37 66 63 67 64 68 72 69 65 70 66 71 70 72 73 73 67 74 68 75
REMARK SMILES IDX 71 76 69 77 48 78 49 79 57 80 50 81 51 82 55 83 58 84 52 85
REMARK SMILES IDX 53 86 56 87 54 88
REMARK H PARENT 78 41 46 52
REMARK Flexibility Score: inf
ROOT
ATOM      1  C   UNL A   1      42.432  20.844  26.044  1.00  0.00     0.275 C 
ENDROOT
BRANCH   1   2
ATOM      2  O   UNL A   1      41.095  21.243  25.686  1.00  0.00    -0.458 OA
BRANCH   2   3
ATOM      3  C   UNL A   1      40.271  21.562  26.713  1.00  0.00     0.338 C 
ATOM      4  O   UNL A   1      40.535  21.504  27.903  1.00  0.00    -0.246 OA
BRANCH   3   5
ATOM      5  C   UNL A   1      38.986  22.104  26.201  1.00  0.00     0.060 A 
ATOM      6  C   UNL A   1      36.535  23.004  25.229  1.00  0.00     0.119 A 
ATOM      7  C   UNL A   1      36.969  21.726  24.897  1.00  0.00     0.047 A 
ATOM      8  C   UNL A   1      37.290  23.821  26.071  1.00  0.00     0.047 A 
ATOM      9  C   UNL A   1      38.207  21.286  25.364  1.00  0.00     0.019 A 
ATOM     10  C   UNL A   1      38.521  23.377  26.551  1.00  0.00     0.019 A 
BRANCH   6  11
ATOM     11  O   UNL A   1      35.327  23.436  24.755  1.00  0.00    -0.489 OA
BRANCH  11  12
ATOM     12  C   UNL A   1      34.926  24.657  25.407  1.00  0.00     0.271 C 
BRANCH  12  13
ATOM     13  C   UNL A   1      33.585  24.559  26.038  1.00  0.00     0.055 A 
ATOM     14  C   UNL A   1      33.713  22.198  27.144  1.00  0.00     0.071 C 
ATOM     15  C   UNL A   1      33.055  23.479  26.795  1.00  0.00     0.087 A 
ATOM     16  N   UNL A   1      31.822  23.751  27.238  1.00  0.00    -0.085 NA
ATOM     17  O   UNL A   1      31.534  25.026  26.792  1.00  0.00    -0.361 OA
ATOM     18  C   UNL A   1      32.591  25.512  26.090  1.00  0.00     0.140 A 
ATOM     19  C   UNL A   1      32.463  26.894  25.589  1.00  0.00     0.091 C 
ENDBRANCH  12  13
ENDBRANCH  11  12
ENDBRANCH   6  11
ENDBRANCH   3   5
ENDBRANCH   2   3
ENDBRANCH   1   2
BRANCH   1  20
ATOM     20  C   UNL A   1      43.456  21.706  25.310  1.00  0.00     0.275 C 
BRANCH  20  21
ATOM     21  O   UNL A   1      42.846  22.948  24.913  1.00  0.00    -0.458 OA
BRANCH  21  22
ATOM     22  C   UNL A   1      43.631  24.046  24.992  1.00  0.00     0.338 C 
ATOM     23  O   UNL A   1      44.655  24.284  24.377  1.00  0.00    -0.246 OA
BRANCH  22  24
ATOM     24  C   UNL A   1      43.046  24.983  25.962  1.00  0.00     0.060 A 
ATOM     25  C   UNL A   1      43.516  26.294  26.008  1.00  0.00     0.016 A 
ATOM     26  C   UNL A   1      42.117  24.534  26.899  1.00  0.00     0.016 A 
ATOM     27  C   UNL A   1      43.095  27.155  27.019  1.00  0.00     0.010 A 
ATOM     28  C   UNL A   1      41.649  25.418  27.878  1.00  0.00     0.010 A 
ATOM     29  C   UNL A   1      42.154  26.730  27.966  1.00  0.00    -0.014 A 
BRANCH  29  30
ATOM     30  C   UNL A   1      41.750  27.626  29.083  1.00  0.00     0.031 A 
ATOM     31  C   UNL A   1      42.566  27.666  30.347  1.00  0.00     0.074 A 
ATOM     32  C   UNL A   1      40.669  28.423  28.970  1.00  0.00     0.049 A 
ATOM     33  N   UNL A   1      42.297  28.239  31.494  1.00  0.00    -0.248 NA
ATOM     34  C   UNL A   1      43.854  26.956  30.320  1.00  0.00     0.031 C 
ATOM     35  C   UNL A   1      39.816  28.531  27.787  1.00  0.00     0.029 A 
ATOM     36  N   UNL A   1      40.107  29.300  29.866  1.00  0.00    -0.354 N 
ATOM     37  C   UNL A   1      43.348  27.909  32.339  1.00  0.00     0.074 A 
ATOM     38  C   UNL A   1      44.266  27.093  31.573  1.00  0.00     0.031 C 
ATOM     39  C   UNL A   1      38.859  29.444  28.016  1.00  0.00     0.029 A 
ATOM     40  C   UNL A   1      38.983  29.930  29.388  1.00  0.00     0.049 A 
ATOM     41  H   UNL A   1      40.473  29.464  30.764  1.00  0.00     0.167 HD
ATOM     42  C   UNL A   1      43.529  28.255  33.636  1.00  0.00     0.037 A 
ATOM     43  C   UNL A   1      38.127  30.774  29.995  1.00  0.00     0.037 A 
ATOM     44  C   UNL A   1      42.650  29.118  34.379  1.00  0.00     0.049 A 
ATOM     45  C   UNL A   1      38.343  31.135  31.439  1.00  0.00     0.074 A 
ATOM     46  C   UNL A   1      42.755  29.533  35.696  1.00  0.00     0.029 A 
ATOM     47  N   UNL A   1      41.512  29.720  33.863  1.00  0.00    -0.354 N 
ATOM     48  N   UNL A   1      39.303  30.764  32.250  1.00  0.00    -0.248 NA
ATOM     49  C   UNL A   1      37.343  32.017  32.058  1.00  0.00     0.031 C 
ATOM     50  C   UNL A   1      41.668  30.366  35.983  1.00  0.00     0.029 A 
ATOM     51  C   UNL A   1      40.905  30.498  34.834  1.00  0.00     0.049 A 
ATOM     52  H   UNL A   1      41.185  29.610  32.940  1.00  0.00     0.167 HD
ATOM     53  C   UNL A   1      39.029  31.368  33.468  1.00  0.00     0.074 A 
ATOM     54  C   UNL A   1      37.823  32.150  33.287  1.00  0.00     0.031 C 
ATOM     55  C   UNL A   1      39.710  31.275  34.636  1.00  0.00     0.037 A 
BRANCH  42  56
ATOM     56  C   UNL A   1      44.709  27.667  34.352  1.00  0.00     0.064 A 
ATOM     57  C   UNL A   1      44.632  26.446  35.034  1.00  0.00     0.173 A 
ATOM     58  C   UNL A   1      45.949  28.324  34.318  1.00  0.00     0.173 A 
ATOM     59  F   UNL A   1      43.465  25.786  35.107  1.00  0.00    -0.203 F 
ATOM     60  C   UNL A   1      45.748  25.913  35.674  1.00  0.00     0.198 A 
ATOM     61  C   UNL A   1      47.068  27.777  34.937  1.00  0.00     0.198 A 
ATOM     62  F   UNL A   1      46.077  29.495  33.673  1.00  0.00    -0.203 F 
ATOM     63  F   UNL A   1      45.643  24.762  36.354  1.00  0.00    -0.200 F 
ATOM     64  C   UNL A   1      46.965  26.575  35.619  1.00  0.00     0.200 A 
ATOM     65  F   UNL A   1      48.246  28.413  34.874  1.00  0.00    -0.200 F 
ATOM     66  F   UNL A   1      48.041  26.056  36.230  1.00  0.00    -0.200 F 
ENDBRANCH  42  56
BRANCH  43  67
ATOM     67  C   UNL A   1      36.962  31.310  29.244  1.00  0.00     0.064 A 
ATOM     68  C   UNL A   1      35.864  30.495  28.941  1.00  0.00     0.173 A 
ATOM     69  C   UNL A   1      36.921  32.647  28.822  1.00  0.00     0.173 A 
ATOM     70  F   UNL A   1      35.869  29.203  29.299  1.00  0.00    -0.203 F 
ATOM     71  C   UNL A   1      34.769  30.996  28.239  1.00  0.00     0.198 A 
ATOM     72  C   UNL A   1      35.814  33.154  28.144  1.00  0.00     0.198 A 
ATOM     73  F   UNL A   1      37.950  33.466  29.083  1.00  0.00    -0.203 F 
ATOM     74  F   UNL A   1      33.747  30.187  27.930  1.00  0.00    -0.200 F 
ATOM     75  C   UNL A   1      34.742  32.327  27.849  1.00  0.00     0.200 A 
ATOM     76  F   UNL A   1      35.788  34.443  27.781  1.00  0.00    -0.200 F 
ATOM     77  F   UNL A   1      33.684  32.811  27.184  1.00  0.00    -0.200 F 
ENDBRANCH  43  67
BRANCH  55  78
ATOM     78  C   UNL A   1      39.183  32.058  35.800  1.00  0.00     0.064 A 
ATOM     79  C   UNL A   1      38.289  31.490  36.718  1.00  0.00     0.173 A 
ATOM     80  C   UNL A   1      39.606  33.377  36.019  1.00  0.00     0.173 A 
ATOM     81  F   UNL A   1      37.844  30.237  36.541  1.00  0.00    -0.203 F 
ATOM     82  C   UNL A   1      37.820  32.223  37.805  1.00  0.00     0.198 A 
ATOM     83  C   UNL A   1      39.152  34.100  37.119  1.00  0.00     0.198 A 
ATOM     84  F   UNL A   1      40.464  33.962  35.169  1.00  0.00    -0.203 F 
ATOM     85  F   UNL A   1      36.936  31.675  38.651  1.00  0.00    -0.200 F 
ATOM     86  C   UNL A   1      38.257  33.525  38.008  1.00  0.00     0.200 A 
ATOM     87  F   UNL A   1      39.580  35.354  37.317  1.00  0.00    -0.200 F 
ATOM     88  F   UNL A   1      37.807  34.228  39.056  1.00  0.00    -0.200 F 
ENDBRANCH  55  78
ENDBRANCH  29  30
ENDBRANCH  22  24
ENDBRANCH  21  22
ENDBRANCH  20  21
ENDBRANCH   1  20
TORSDOF 14
ENDMDL
MODEL 3
REMARK VINA RESULT:     -11.7      4.008      8.923
REMARK SMILES Cc1noc(C)c1COc1ccc(C(=O)OCCOC(=O)c2ccc(-c3c4nc(c(-c5c(F)c(F)c(F)c(F)c5F)c5ccc([nH]5)c(-c5c(F)c(F)c(F)c(F)c5F)c5nc(c(-c6c(F)c(F)c(F)c(F)c6F)c6ccc3[nH]6)C=C5)C=C4)cc2)cc1
REMARK SMILES IDX 17 1 16 2 14 3 15 4 13 5 10 6 11 7 86 8 12 9 85 10 9 11 8 12
REMARK SMILES IDX 7 13 1 14 2 15 3 16 4 17 5 18 6 19 18 20 19 21 20 22 21 23
REMARK SMILES IDX 22 24 23 25 84 26 24 27 83 28 25 29 26 30 27 31 77 32 28 33
REMARK SMILES IDX 82 34 76 35 78 36 29 37 81 38 75 39 74 40 30 42 62 43 42 44
REMARK SMILES IDX 61 45 43 46 46 47 60 48 79 49 44 50 45 51 59 53 80 54 47 55
REMARK SMILES IDX 31 56 32 57 40 58 33 59 34 60 38 61 41 62 35 63 36 64 39 65
REMARK SMILES IDX 37 66 63 67 64 68 72 69 65 70 66 71 70 72 73 73 67 74 68 75
REMARK SMILES IDX 71 76 69 77 48 78 49 79 57 80 50 81 51 82 55 83 58 84 52 85
REMARK SMILES IDX 53 86 56 87 54 88
REMARK H PARENT 78 41 46 52
REMARK Flexibility Score: inf
ROOT
ATOM      1  C   UNL A   1      31.793  28.513  27.409  1.00  0.00     0.275 C 
ENDROOT
BRANCH   1   2
ATOM      2  O   UNL A   1      32.758  27.731  26.679  1.00  0.00    -0.458 OA
BRANCH   2   3
ATOM      3  C   UNL A   1      32.254  26.833  25.798  1.00  0.00     0.338 C 
ATOM      4  O   UNL A   1      32.243  25.619  25.921  1.00  0.00    -0.246 OA
BRANCH   3   5
ATOM      5  C   UNL A   1      31.603  27.530  24.658  1.00  0.00     0.060 A 
ATOM      6  C   UNL A   1      30.492  28.836  22.462  1.00  0.00     0.119 A 
ATOM      7  C   UNL A   1      31.860  28.934  22.690  1.00  0.00     0.047 A 
ATOM      8  C   UNL A   1      29.681  28.063  23.294  1.00  0.00     0.047 A 
ATOM      9  C   UNL A   1      32.411  28.300  23.803  1.00  0.00     0.019 A 
ATOM     10  C   UNL A   1      30.233  27.416  24.399  1.00  0.00     0.019 A 
BRANCH   6  11
ATOM     11  O   UNL A   1      29.955  29.473  21.378  1.00  0.00    -0.489 OA
BRANCH  11  12
ATOM     12  C   UNL A   1      28.585  29.843  21.626  1.00  0.00     0.271 C 
BRANCH  12  13
ATOM     13  C   UNL A   1      28.407  31.307  21.802  1.00  0.00     0.055 A 
ATOM     14  C   UNL A   1      29.196  31.623  24.271  1.00  0.00     0.071 C 
ATOM     15  C   UNL A   1      28.671  32.084  22.964  1.00  0.00     0.087 A 
ATOM     16  N   UNL A   1      28.425  33.382  22.751  1.00  0.00    -0.085 NA
ATOM     17  O   UNL A   1      28.013  33.476  21.436  1.00  0.00    -0.361 OA
ATOM     18  C   UNL A   1      28.017  32.242  20.868  1.00  0.00     0.140 A 
ATOM     19  C   UNL A   1      27.652  32.178  19.440  1.00  0.00     0.091 C 
ENDBRANCH  12  13
ENDBRANCH  11  12
ENDBRANCH   6  11
ENDBRANCH   3   5
ENDBRANCH   2   3
ENDBRANCH   1   2
BRANCH   1  20
ATOM     20  C   UNL A   1      31.779  29.950  26.895  1.00  0.00     0.275 C 
BRANCH  20  21
ATOM     21  O   UNL A   1      33.118  30.354  26.553  1.00  0.00    -0.458 OA
BRANCH  21  22
ATOM     22  C   UNL A   1      33.603  31.426  27.221  1.00  0.00     0.338 C 
ATOM     23  O   UNL A   1      33.090  32.522  27.358  1.00  0.00    -0.246 OA
BRANCH  22  24
ATOM     24  C   UNL A   1      34.900  31.071  27.816  1.00  0.00     0.060 A 
ATOM     25  C   UNL A   1      35.120  29.759  28.232  1.00  0.00     0.016 A 
ATOM     26  C   UNL A   1      35.852  32.058  28.064  1.00  0.00     0.016 A 
ATOM     27  C   UNL A   1      36.273  29.433  28.941  1.00  0.00     0.010 A 
ATOM     28  C   UNL A   1      37.038  31.717  28.724  1.00  0.00     0.010 A 
ATOM     29  C   UNL A   1      37.249  30.406  29.194  1.00  0.00    -0.014 A 
BRANCH  29  30
ATOM     30  C   UNL A   1      38.453  30.075  30.005  1.00  0.00     0.031 A 
ATOM     31  C   UNL A   1      39.526  29.191  29.429  1.00  0.00     0.074 A 
ATOM     32  C   UNL A   1      38.606  30.575  31.246  1.00  0.00     0.049 A 
ATOM     33  N   UNL A   1      40.560  28.644  30.019  1.00  0.00    -0.248 NA
ATOM     34  C   UNL A   1      39.416  28.871  27.997  1.00  0.00     0.031 C 
ATOM     35  C   UNL A   1      37.677  31.487  31.913  1.00  0.00     0.029 A 
ATOM     36  N   UNL A   1      39.608  30.389  32.168  1.00  0.00    -0.354 N 
ATOM     37  C   UNL A   1      41.184  27.870  29.050  1.00  0.00     0.074 A 
ATOM     38  C   UNL A   1      40.421  28.022  27.830  1.00  0.00     0.031 C 
ATOM     39  C   UNL A   1      38.165  31.806  33.122  1.00  0.00     0.029 A 
ATOM     40  C   UNL A   1      39.402  31.062  33.348  1.00  0.00     0.049 A 
ATOM     41  H   UNL A   1      40.399  29.828  32.000  1.00  0.00     0.167 HD
ATOM     42  C   UNL A   1      42.293  27.100  29.169  1.00  0.00     0.037 A 
ATOM     43  C   UNL A   1      40.107  31.055  34.496  1.00  0.00     0.037 A 
ATOM     44  C   UNL A   1      43.089  26.998  30.364  1.00  0.00     0.049 A 
ATOM     45  C   UNL A   1      41.328  30.184  34.607  1.00  0.00     0.074 A 
ATOM     46  C   UNL A   1      44.234  26.250  30.578  1.00  0.00     0.029 A 
ATOM     47  N   UNL A   1      42.834  27.682  31.543  1.00  0.00    -0.354 N 
ATOM     48  N   UNL A   1      41.873  29.403  33.707  1.00  0.00    -0.248 NA
ATOM     49  C   UNL A   1      42.022  30.180  35.904  1.00  0.00     0.031 C 
ATOM     50  C   UNL A   1      44.659  26.463  31.894  1.00  0.00     0.029 A 
ATOM     51  C   UNL A   1      43.797  27.372  32.488  1.00  0.00     0.049 A 
ATOM     52  H   UNL A   1      42.079  28.298  31.685  1.00  0.00     0.167 HD
ATOM     53  C   UNL A   1      42.972  28.820  34.322  1.00  0.00     0.074 A 
ATOM     54  C   UNL A   1      43.031  29.354  35.667  1.00  0.00     0.031 C 
ATOM     55  C   UNL A   1      43.847  27.916  33.819  1.00  0.00     0.037 A 
BRANCH  42  56
ATOM     56  C   UNL A   1      42.695  26.274  27.983  1.00  0.00     0.064 A 
ATOM     57  C   UNL A   1      42.171  24.995  27.757  1.00  0.00     0.173 A 
ATOM     58  C   UNL A   1      43.592  26.795  27.037  1.00  0.00     0.173 A 
ATOM     59  F   UNL A   1      41.321  24.448  28.639  1.00  0.00    -0.203 F 
ATOM     60  C   UNL A   1      42.546  24.256  26.637  1.00  0.00     0.198 A 
ATOM     61  C   UNL A   1      43.945  26.065  25.906  1.00  0.00     0.198 A 
ATOM     62  F   UNL A   1      44.117  28.018  27.205  1.00  0.00    -0.203 F 
ATOM     63  F   UNL A   1      42.063  23.019  26.459  1.00  0.00    -0.200 F 
ATOM     64  C   UNL A   1      43.426  24.795  25.710  1.00  0.00     0.200 A 
ATOM     65  F   UNL A   1      44.787  26.591  25.007  1.00  0.00    -0.200 F 
ATOM     66  F   UNL A   1      43.780  24.085  24.628  1.00  0.00    -0.200 F 
ENDBRANCH  42  56
BRANCH  43  67
ATOM     67  C   UNL A   1      39.652  31.877  35.646  1.00  0.00     0.064 A 
ATOM     68  C   UNL A   1      40.199  33.143  35.888  1.00  0.00     0.173 A 
ATOM     69  C   UNL A   1      38.658  31.415  36.522  1.00  0.00     0.173 A 
ATOM     70  F   UNL A   1      41.172  33.615  35.096  1.00  0.00    -0.203 F 
ATOM     71  C   UNL A   1      39.772  33.917  36.966  1.00  0.00     0.198 A 
ATOM     72  C   UNL A   1      38.213  32.201  37.583  1.00  0.00     0.198 A 
ATOM     73  F   UNL A   1      38.107  30.208  36.337  1.00  0.00    -0.203 F 
ATOM     74  F   UNL A   1      40.337  35.110  37.197  1.00  0.00    -0.200 F 
ATOM     75  C   UNL A   1      38.773  33.449  37.807  1.00  0.00     0.200 A 
ATOM     76  F   UNL A   1      37.239  31.749  38.385  1.00  0.00    -0.200 F 
ATOM     77  F   UNL A   1      38.356  34.198  38.837  1.00  0.00    -0.200 F 
ENDBRANCH  43  67
BRANCH  55  78
ATOM     78  C   UNL A   1      44.959  27.467  34.718  1.00  0.00     0.064 A 
ATOM     79  C   UNL A   1      44.834  26.322  35.519  1.00  0.00     0.173 A 
ATOM     80  C   UNL A   1      46.173  28.166  34.752  1.00  0.00     0.173 A 
ATOM     81  F   UNL A   1      43.686  25.630  35.533  1.00  0.00    -0.203 F 
ATOM     82  C   UNL A   1      45.881  25.906  36.337  1.00  0.00     0.198 A 
ATOM     83  C   UNL A   1      47.225  27.735  35.554  1.00  0.00     0.198 A 
ATOM     84  F   UNL A   1      46.341  29.266  33.999  1.00  0.00    -0.203 F 
ATOM     85  F   UNL A   1      45.729  24.831  37.124  1.00  0.00    -0.200 F 
ATOM     86  C   UNL A   1      47.078  26.609  36.349  1.00  0.00     0.200 A 
ATOM     87  F   UNL A   1      48.383  28.411  35.559  1.00  0.00    -0.200 F 
ATOM     88  F   UNL A   1      48.085  26.206  37.135  1.00  0.00    -0.200 F 
ENDBRANCH  55  78
ENDBRANCH  29  30
ENDBRANCH  22  24
ENDBRANCH  21  22
ENDBRANCH  20  21
ENDBRANCH   1  20
TORSDOF 14
ENDMDL
