MODEL 1
REMARK VINA RESULT:     -11.4      0.000      0.000
REMARK SMILES CSCc1ccc(C(=O)N[C@](C)(C(=O)OCCOC(=O)c2ccc(-c3c4nc(c(-c5c(F)c(F)c(F)c(F)c5F)c5ccc([nH]5)c(-c5c(F)c(F)c(F)c(F)c5F)c5nc(c(-c6c(F)c(F)c(F)c(F)c6F)c6ccc3[nH]6)C=C5)C=C4)cc2)C(F)(F)F)o1
REMARK SMILES IDX 16 1 15 2 13 3 14 4 11 5 12 6 10 7 8 8 9 9 7 11 4 12 5 13
REMARK SMILES IDX 88 14 6 15 3 16 2 17 1 18 84 19 85 20 86 21 87 22 17 23
REMARK SMILES IDX 18 24 19 25 20 26 21 27 22 28 83 29 23 30 82 31 24 32 25 33
REMARK SMILES IDX 26 34 76 35 27 36 81 37 75 38 77 39 28 40 80 41 74 42 73 43
REMARK SMILES IDX 29 45 61 46 41 47 60 48 42 49 45 50 59 51 78 52 43 53 44 54
REMARK SMILES IDX 58 56 79 57 46 58 30 59 31 60 39 61 32 62 33 63 37 64 40 65
REMARK SMILES IDX 34 66 35 67 38 68 36 69 62 70 63 71 71 72 64 73 65 74 69 75
REMARK SMILES IDX 72 76 66 77 67 78 70 79 68 80 47 81 48 82 56 83 49 84 50 85
REMARK SMILES IDX 54 86 57 87 51 88 52 89 55 90 53 91
REMARK H PARENT 10 10 77 44 45 55
REMARK Flexibility Score: inf
ROOT
ATOM      1  C   UNL A   1      36.103  20.470  25.018  1.00  0.00     0.274 C 
ENDROOT
BRANCH   1   2
ATOM      2  O   UNL A   1      35.471  21.643  24.468  1.00  0.00    -0.460 OA
BRANCH   2   3
ATOM      3  C   UNL A   1      34.806  22.444  25.345  1.00  0.00     0.341 C 
ATOM      4  O   UNL A   1      34.763  22.228  26.549  1.00  0.00    -0.249 OA
BRANCH   3   5
ATOM      5  C   UNL A   1      33.986  23.525  24.628  1.00  0.00     0.231 C 
ATOM      6  C   UNL A   1      34.115  23.572  23.095  1.00  0.00     0.058 C 
BRANCH   5   7
ATOM      7  N   UNL A   1      32.566  23.365  25.071  1.00  0.00    -0.326 N 
ATOM      8  C   UNL A   1      31.713  22.292  25.123  1.00  0.00     0.288 C 
ATOM      9  O   UNL A   1      30.621  22.500  25.653  1.00  0.00    -0.266 OA
ATOM     10  H   UNL A   1      32.159  24.202  25.392  1.00  0.00     0.165 HD
BRANCH   8  11
ATOM     11  C   UNL A   1      32.109  20.994  24.628  1.00  0.00     0.191 A 
ATOM     12  C   UNL A   1      32.588  18.845  24.874  1.00  0.00     0.114 A 
ATOM     13  C   UNL A   1      32.624  19.103  23.520  1.00  0.00     0.047 A 
ATOM     14  O   UNL A   1      32.281  19.992  25.548  1.00  0.00    -0.455 OA
ATOM     15  C   UNL A   1      32.274  20.467  23.362  1.00  0.00     0.056 A 
BRANCH  12  16
ATOM     16  C   UNL A   1      32.682  17.579  25.651  1.00  0.00     0.144 C 
BRANCH  16  17
ATOM     17  S   UNL A   1      33.569  16.221  24.833  1.00  0.00    -0.157 SA
ATOM     18  C   UNL A   1      32.670  14.796  25.481  1.00  0.00     0.085 C 
ENDBRANCH  16  17
ENDBRANCH  12  16
ENDBRANCH   8  11
ENDBRANCH   5   7
BRANCH   5  19
ATOM     19  C   UNL A   1      34.556  24.860  25.162  1.00  0.00     0.422 C 
ATOM     20  F   UNL A   1      34.401  25.881  24.292  1.00  0.00    -0.168 F 
ATOM     21  F   UNL A   1      33.899  25.219  26.299  1.00  0.00    -0.168 F 
ATOM     22  F   UNL A   1      35.863  24.793  25.491  1.00  0.00    -0.168 F 
ENDBRANCH   5  19
ENDBRANCH   3   5
ENDBRANCH   2   3
ENDBRANCH   1   2
BRANCH   1  23
ATOM     23  C   UNL A   1      37.613  20.527  24.775  1.00  0.00     0.275 C 
BRANCH  23  24
ATOM     24  O   UNL A   1      38.179  21.535  25.629  1.00  0.00    -0.458 OA
BRANCH  24  25
ATOM     25  C   UNL A   1      39.307  21.152  26.271  1.00  0.00     0.338 C 
ATOM     26  O   UNL A   1      39.863  20.070  26.231  1.00  0.00    -0.246 OA
BRANCH  25  27
ATOM     27  C   UNL A   1      39.947  22.369  26.779  1.00  0.00     0.060 A 
ATOM     28  C   UNL A   1      39.500  23.578  26.245  1.00  0.00     0.016 A 
ATOM     29  C   UNL A   1      40.962  22.338  27.729  1.00  0.00     0.016 A 
ATOM     30  C   UNL A   1      40.091  24.775  26.620  1.00  0.00     0.010 A 
ATOM     31  C   UNL A   1      41.551  23.544  28.119  1.00  0.00     0.010 A 
ATOM     32  C   UNL A   1      41.133  24.764  27.550  1.00  0.00    -0.014 A 
BRANCH  32  33
ATOM     33  C   UNL A   1      41.870  26.012  27.847  1.00  0.00     0.031 A 
ATOM     34  C   UNL A   1      41.196  27.062  28.680  1.00  0.00     0.074 A 
ATOM     35  C   UNL A   1      43.123  26.196  27.396  1.00  0.00     0.049 A 
ATOM     36  N   UNL A   1      41.535  28.308  28.881  1.00  0.00    -0.248 NA
ATOM     37  C   UNL A   1      39.963  26.652  29.371  1.00  0.00     0.031 C 
ATOM     38  C   UNL A   1      43.912  25.209  26.661  1.00  0.00     0.029 A 
ATOM     39  N   UNL A   1      43.949  27.288  27.487  1.00  0.00    -0.354 N 
ATOM     40  C   UNL A   1      40.530  28.845  29.672  1.00  0.00     0.074 A 
ATOM     41  C   UNL A   1      39.574  27.790  29.925  1.00  0.00     0.031 C 
ATOM     42  C   UNL A   1      45.108  25.741  26.363  1.00  0.00     0.029 A 
ATOM     43  C   UNL A   1      45.140  27.126  26.824  1.00  0.00     0.049 A 
ATOM     44  H   UNL A   1      43.710  28.107  27.978  1.00  0.00     0.167 HD
ATOM     45  C   UNL A   1      40.418  30.114  30.132  1.00  0.00     0.037 A 
ATOM     46  C   UNL A   1      46.122  28.014  26.579  1.00  0.00     0.037 A 
ATOM     47  C   UNL A   1      41.402  31.137  29.903  1.00  0.00     0.049 A 
ATOM     48  C   UNL A   1      45.960  29.428  27.071  1.00  0.00     0.074 A 
ATOM     49  C   UNL A   1      41.386  32.461  30.303  1.00  0.00     0.029 A 
ATOM     50  N   UNL A   1      42.594  30.938  29.221  1.00  0.00    -0.354 N 
ATOM     51  N   UNL A   1      44.970  29.960  27.747  1.00  0.00    -0.248 NA
ATOM     52  C   UNL A   1      47.042  30.369  26.750  1.00  0.00     0.031 C 
ATOM     53  C   UNL A   1      42.558  33.070  29.840  1.00  0.00     0.029 A 
ATOM     54  C   UNL A   1      43.321  32.116  29.185  1.00  0.00     0.049 A 
ATOM     55  H   UNL A   1      42.881  30.084  28.821  1.00  0.00     0.167 HD
ATOM     56  C   UNL A   1      45.313  31.290  27.946  1.00  0.00     0.074 A 
ATOM     57  C   UNL A   1      46.611  31.481  27.331  1.00  0.00     0.031 C 
ATOM     58  C   UNL A   1      44.617  32.267  28.575  1.00  0.00     0.037 A 
BRANCH  45  59
ATOM     59  C   UNL A   1      39.166  30.469  30.878  1.00  0.00     0.064 A 
ATOM     60  C   UNL A   1      39.080  30.380  32.273  1.00  0.00     0.173 A 
ATOM     61  C   UNL A   1      38.034  30.912  30.176  1.00  0.00     0.173 A 
ATOM     62  F   UNL A   1      40.126  29.939  32.988  1.00  0.00    -0.203 F 
ATOM     63  C   UNL A   1      37.897  30.697  32.939  1.00  0.00     0.198 A 
ATOM     64  C   UNL A   1      36.862  31.253  30.846  1.00  0.00     0.198 A 
ATOM     65  F   UNL A   1      38.063  31.012  28.838  1.00  0.00    -0.203 F 
ATOM     66  F   UNL A   1      37.821  30.557  34.269  1.00  0.00    -0.200 F 
ATOM     67  C   UNL A   1      36.793  31.138  32.226  1.00  0.00     0.200 A 
ATOM     68  F   UNL A   1      35.798  31.685  30.155  1.00  0.00    -0.200 F 
ATOM     69  F   UNL A   1      35.656  31.443  32.867  1.00  0.00    -0.200 F 
ENDBRANCH  45  59
BRANCH  46  70
ATOM     70  C   UNL A   1      47.314  27.603  25.795  1.00  0.00     0.064 A 
ATOM     71  C   UNL A   1      47.333  27.712  24.398  1.00  0.00     0.173 A 
ATOM     72  C   UNL A   1      48.464  27.102  26.426  1.00  0.00     0.173 A 
ATOM     73  F   UNL A   1      46.250  28.160  23.748  1.00  0.00    -0.203 F 
ATOM     74  C   UNL A   1      48.454  27.330  23.662  1.00  0.00     0.198 A 
ATOM     75  C   UNL A   1      49.593  26.746  25.691  1.00  0.00     0.198 A 
ATOM     76  F   UNL A   1      48.495  26.974  27.761  1.00  0.00    -0.203 F 
ATOM     77  F   UNL A   1      48.432  27.410  22.325  1.00  0.00    -0.200 F 
ATOM     78  C   UNL A   1      49.585  26.855  24.309  1.00  0.00     0.200 A 
ATOM     79  F   UNL A   1      50.687  26.300  26.322  1.00  0.00    -0.200 F 
ATOM     80  F   UNL A   1      50.664  26.497  23.601  1.00  0.00    -0.200 F 
ENDBRANCH  46  70
BRANCH  58  81
ATOM     81  C   UNL A   1      45.262  33.617  28.661  1.00  0.00     0.064 A 
ATOM     82  C   UNL A   1      45.018  34.608  27.699  1.00  0.00     0.173 A 
ATOM     83  C   UNL A   1      46.096  33.934  29.743  1.00  0.00     0.173 A 
ATOM     84  F   UNL A   1      44.239  34.342  26.640  1.00  0.00    -0.203 F 
ATOM     85  C   UNL A   1      45.602  35.866  27.811  1.00  0.00     0.198 A 
ATOM     86  C   UNL A   1      46.660  35.201  29.862  1.00  0.00     0.198 A 
ATOM     87  F   UNL A   1      46.353  33.020  30.689  1.00  0.00    -0.203 F 
ATOM     88  F   UNL A   1      45.384  36.789  26.863  1.00  0.00    -0.200 F 
ATOM     89  C   UNL A   1      46.416  36.164  28.893  1.00  0.00     0.200 A 
ATOM     90  F   UNL A   1      47.437  35.491  30.914  1.00  0.00    -0.200 F 
ATOM     91  F   UNL A   1      46.971  37.379  29.002  1.00  0.00    -0.200 F 
ENDBRANCH  58  81
ENDBRANCH  32  33
ENDBRANCH  25  27
ENDBRANCH  24  25
ENDBRANCH  23  24
ENDBRANCH   1  23
TORSDOF 16
ENDMDL
MODEL 2
REMARK VINA RESULT:     -11.3      5.371     10.380
REMARK SMILES CSCc1ccc(C(=O)N[C@](C)(C(=O)OCCOC(=O)c2ccc(-c3c4nc(c(-c5c(F)c(F)c(F)c(F)c5F)c5ccc([nH]5)c(-c5c(F)c(F)c(F)c(F)c5F)c5nc(c(-c6c(F)c(F)c(F)c(F)c6F)c6ccc3[nH]6)C=C5)C=C4)cc2)C(F)(F)F)o1
REMARK SMILES IDX 16 1 15 2 13 3 14 4 11 5 12 6 10 7 8 8 9 9 7 11 4 12 5 13
REMARK SMILES IDX 88 14 6 15 3 16 2 17 1 18 84 19 85 20 86 21 87 22 17 23
REMARK SMILES IDX 18 24 19 25 20 26 21 27 22 28 83 29 23 30 82 31 24 32 25 33
REMARK SMILES IDX 26 34 76 35 27 36 81 37 75 38 77 39 28 40 80 41 74 42 73 43
REMARK SMILES IDX 29 45 61 46 41 47 60 48 42 49 45 50 59 51 78 52 43 53 44 54
REMARK SMILES IDX 58 56 79 57 46 58 30 59 31 60 39 61 32 62 33 63 37 64 40 65
REMARK SMILES IDX 34 66 35 67 38 68 36 69 62 70 63 71 71 72 64 73 65 74 69 75
REMARK SMILES IDX 72 76 66 77 67 78 70 79 68 80 47 81 48 82 56 83 49 84 50 85
REMARK SMILES IDX 54 86 57 87 51 88 52 89 55 90 53 91
REMARK H PARENT 10 10 77 44 45 55
REMARK Flexibility Score: inf
ROOT
ATOM      1  C   UNL A   1      31.421  29.878  25.288  1.00  0.00     0.274 C 
ENDROOT
BRANCH   1   2
ATOM      2  O   UNL A   1      31.897  28.597  25.748  1.00  0.00    -0.460 OA
BRANCH   2   3
ATOM      3  C   UNL A   1      32.747  27.930  24.919  1.00  0.00     0.341 C 
ATOM      4  O   UNL A   1      33.467  28.492  24.104  1.00  0.00    -0.249 OA
BRANCH   3   5
ATOM      5  C   UNL A   1      32.561  26.409  25.009  1.00  0.00     0.231 C 
ATOM      6  C   UNL A   1      31.436  25.914  25.935  1.00  0.00     0.058 C 
BRANCH   5   7
ATOM      7  N   UNL A   1      32.404  25.903  23.609  1.00  0.00    -0.326 N 
ATOM      8  C   UNL A   1      31.527  26.197  22.597  1.00  0.00     0.288 C 
ATOM      9  O   UNL A   1      31.756  25.655  21.515  1.00  0.00    -0.266 OA
ATOM     10  H   UNL A   1      33.068  25.219  23.364  1.00  0.00     0.165 HD
BRANCH   8  11
ATOM     11  C   UNL A   1      30.439  27.126  22.793  1.00  0.00     0.191 A 
ATOM     12  C   UNL A   1      29.336  28.999  22.364  1.00  0.00     0.114 A 
ATOM     13  C   UNL A   1      28.564  28.284  23.256  1.00  0.00     0.047 A 
ATOM     14  O   UNL A   1      30.475  28.301  22.086  1.00  0.00    -0.455 OA
ATOM     15  C   UNL A   1      29.251  27.067  23.495  1.00  0.00     0.056 A 
BRANCH  12  16
ATOM     16  C   UNL A   1      29.077  30.251  21.603  1.00  0.00     0.144 C 
BRANCH  16  17
ATOM     17  S   UNL A   1      27.916  31.415  22.377  1.00  0.00    -0.157 SA
ATOM     18  C   UNL A   1      27.986  32.786  21.204  1.00  0.00     0.085 C 
ENDBRANCH  16  17
ENDBRANCH  12  16
ENDBRANCH   8  11
ENDBRANCH   5   7
BRANCH   5  19
ATOM     19  C   UNL A   1      33.890  25.892  25.609  1.00  0.00     0.422 C 
ATOM     20  F   UNL A   1      33.725  24.795  26.378  1.00  0.00    -0.168 F 
ATOM     21  F   UNL A   1      34.740  25.537  24.608  1.00  0.00    -0.168 F 
ATOM     22  F   UNL A   1      34.543  26.816  26.344  1.00  0.00    -0.168 F 
ENDBRANCH   5  19
ENDBRANCH   3   5
ENDBRANCH   2   3
ENDBRANCH   1   2
BRANCH   1  23
ATOM     23  C   UNL A   1      31.622  30.932  26.378  1.00  0.00     0.275 C 
BRANCH  23  24
ATOM     24  O   UNL A   1      32.955  30.805  26.902  1.00  0.00    -0.458 OA
BRANCH  24  25
ATOM     25  C   UNL A   1      33.502  31.969  27.322  1.00  0.00     0.338 C 
ATOM     26  O   UNL A   1      32.959  33.051  27.450  1.00  0.00    -0.246 OA
BRANCH  25  27
ATOM     27  C   UNL A   1      34.801  31.644  27.918  1.00  0.00     0.060 A 
ATOM     28  C   UNL A   1      34.985  30.322  28.327  1.00  0.00     0.016 A 
ATOM     29  C   UNL A   1      35.800  32.593  28.096  1.00  0.00     0.016 A 
ATOM     30  C   UNL A   1      36.158  29.938  28.959  1.00  0.00     0.010 A 
ATOM     31  C   UNL A   1      36.989  32.207  28.720  1.00  0.00     0.010 A 
ATOM     32  C   UNL A   1      37.163  30.883  29.173  1.00  0.00    -0.014 A 
BRANCH  32  33
ATOM     33  C   UNL A   1      38.354  30.524  29.976  1.00  0.00     0.031 A 
ATOM     34  C   UNL A   1      39.372  29.601  29.376  1.00  0.00     0.074 A 
ATOM     35  C   UNL A   1      38.531  31.028  31.209  1.00  0.00     0.049 A 
ATOM     36  N   UNL A   1      40.362  28.969  29.949  1.00  0.00    -0.248 NA
ATOM     37  C   UNL A   1      39.248  29.347  27.931  1.00  0.00     0.031 C 
ATOM     38  C   UNL A   1      37.659  32.008  31.857  1.00  0.00     0.029 A 
ATOM     39  N   UNL A   1      39.504  30.776  32.142  1.00  0.00    -0.354 N 
ATOM     40  C   UNL A   1      40.941  28.199  28.950  1.00  0.00     0.074 A 
ATOM     41  C   UNL A   1      40.202  28.450  27.733  1.00  0.00     0.031 C 
ATOM     42  C   UNL A   1      38.135  32.271  33.085  1.00  0.00     0.029 A 
ATOM     43  C   UNL A   1      39.300  31.427  33.333  1.00  0.00     0.049 A 
ATOM     44  H   UNL A   1      40.273  30.184  31.974  1.00  0.00     0.167 HD
ATOM     45  C   UNL A   1      41.992  27.350  29.054  1.00  0.00     0.037 A 
ATOM     46  C   UNL A   1      39.955  31.316  34.504  1.00  0.00     0.037 A 
ATOM     47  C   UNL A   1      42.738  27.148  30.266  1.00  0.00     0.049 A 
ATOM     48  C   UNL A   1      41.098  30.341  34.605  1.00  0.00     0.074 A 
ATOM     49  C   UNL A   1      43.807  26.300  30.494  1.00  0.00     0.029 A 
ATOM     50  N   UNL A   1      42.498  27.822  31.455  1.00  0.00    -0.354 N 
ATOM     51  N   UNL A   1      41.594  29.549  33.685  1.00  0.00    -0.248 NA
ATOM     52  C   UNL A   1      41.761  30.230  35.912  1.00  0.00     0.031 C 
ATOM     53  C   UNL A   1      44.198  26.442  31.830  1.00  0.00     0.029 A 
ATOM     54  C   UNL A   1      43.397  27.406  32.423  1.00  0.00     0.049 A 
ATOM     55  H   UNL A   1      41.793  28.495  31.591  1.00  0.00     0.167 HD
ATOM     56  C   UNL A   1      42.633  28.858  34.292  1.00  0.00     0.074 A 
ATOM     57  C   UNL A   1      42.706  29.335  35.659  1.00  0.00     0.031 C 
ATOM     58  C   UNL A   1      43.450  27.912  33.771  1.00  0.00     0.037 A 
BRANCH  45  59
ATOM     59  C   UNL A   1      42.351  26.547  27.840  1.00  0.00     0.064 A 
ATOM     60  C   UNL A   1      41.753  25.311  27.562  1.00  0.00     0.173 A 
ATOM     61  C   UNL A   1      43.309  27.032  26.937  1.00  0.00     0.173 A 
ATOM     62  F   UNL A   1      40.848  24.793  28.406  1.00  0.00    -0.203 F 
ATOM     63  C   UNL A   1      42.120  24.575  26.437  1.00  0.00     0.198 A 
ATOM     64  C   UNL A   1      43.655  26.307  25.799  1.00  0.00     0.198 A 
ATOM     65  F   UNL A   1      43.914  28.209  27.158  1.00  0.00    -0.203 F 
ATOM     66  F   UNL A   1      41.572  23.372  26.216  1.00  0.00    -0.200 F 
ATOM     67  C   UNL A   1      43.066  25.076  25.554  1.00  0.00     0.200 A 
ATOM     68  F   UNL A   1      44.565  26.796  24.946  1.00  0.00    -0.200 F 
ATOM     69  F   UNL A   1      43.418  24.368  24.473  1.00  0.00    -0.200 F 
ENDBRANCH  45  59
BRANCH  46  70
ATOM     70  C   UNL A   1      39.516  32.112  35.678  1.00  0.00     0.064 A 
ATOM     71  C   UNL A   1      38.554  31.616  36.568  1.00  0.00     0.173 A 
ATOM     72  C   UNL A   1      40.055  33.382  35.941  1.00  0.00     0.173 A 
ATOM     73  F   UNL A   1      37.990  30.420  36.345  1.00  0.00    -0.203 F 
ATOM     74  C   UNL A   1      38.143  32.361  37.672  1.00  0.00     0.198 A 
ATOM     75  C   UNL A   1      39.664  34.113  37.060  1.00  0.00     0.198 A 
ATOM     76  F   UNL A   1      40.975  33.903  35.117  1.00  0.00    -0.203 F 
ATOM     77  F   UNL A   1      37.196  31.879  38.487  1.00  0.00    -0.200 F 
ATOM     78  C   UNL A   1      38.704  33.605  37.922  1.00  0.00     0.200 A 
ATOM     79  F   UNL A   1      40.217  35.309  37.303  1.00  0.00    -0.200 F 
ATOM     80  F   UNL A   1      38.315  34.316  38.988  1.00  0.00    -0.200 F 
ENDBRANCH  46  70
BRANCH  58  81
ATOM     81  C   UNL A   1      44.514  27.358  34.670  1.00  0.00     0.064 A 
ATOM     82  C   UNL A   1      45.763  27.982  34.798  1.00  0.00     0.173 A 
ATOM     83  C   UNL A   1      44.259  26.219  35.447  1.00  0.00     0.173 A 
ATOM     84  F   UNL A   1      46.054  29.065  34.062  1.00  0.00    -0.203 F 
ATOM     85  C   UNL A   1      46.728  27.472  35.660  1.00  0.00     0.198 A 
ATOM     86  C   UNL A   1      45.219  25.725  36.326  1.00  0.00     0.198 A 
ATOM     87  F   UNL A   1      43.076  25.593  35.363  1.00  0.00    -0.203 F 
ATOM     88  F   UNL A   1      47.929  28.060  35.742  1.00  0.00    -0.200 F 
ATOM     89  C   UNL A   1      46.454  26.349  36.428  1.00  0.00     0.200 A 
ATOM     90  F   UNL A   1      44.949  24.647  37.074  1.00  0.00    -0.200 F 
ATOM     91  F   UNL A   1      47.382  25.863  37.263  1.00  0.00    -0.200 F 
ENDBRANCH  58  81
ENDBRANCH  32  33
ENDBRANCH  25  27
ENDBRANCH  24  25
ENDBRANCH  23  24
ENDBRANCH   1  23
TORSDOF 16
ENDMDL
MODEL 3
REMARK VINA RESULT:     -11.3      0.359      2.038
REMARK SMILES CSCc1ccc(C(=O)N[C@](C)(C(=O)OCCOC(=O)c2ccc(-c3c4nc(c(-c5c(F)c(F)c(F)c(F)c5F)c5ccc([nH]5)c(-c5c(F)c(F)c(F)c(F)c5F)c5nc(c(-c6c(F)c(F)c(F)c(F)c6F)c6ccc3[nH]6)C=C5)C=C4)cc2)C(F)(F)F)o1
REMARK SMILES IDX 16 1 15 2 13 3 14 4 11 5 12 6 10 7 8 8 9 9 7 11 4 12 5 13
REMARK SMILES IDX 88 14 6 15 3 16 2 17 1 18 84 19 85 20 86 21 87 22 17 23
REMARK SMILES IDX 18 24 19 25 20 26 21 27 22 28 83 29 23 30 82 31 24 32 25 33
REMARK SMILES IDX 26 34 76 35 27 36 81 37 75 38 77 39 28 40 80 41 74 42 73 43
REMARK SMILES IDX 29 45 61 46 41 47 60 48 42 49 45 50 59 51 78 52 43 53 44 54
REMARK SMILES IDX 58 56 79 57 46 58 30 59 31 60 39 61 32 62 33 63 37 64 40 65
REMARK SMILES IDX 34 66 35 67 38 68 36 69 62 70 63 71 71 72 64 73 65 74 69 75
REMARK SMILES IDX 72 76 66 77 67 78 70 79 68 80 47 81 48 82 56 83 49 84 50 85
REMARK SMILES IDX 54 86 57 87 51 88 52 89 55 90 53 91
REMARK H PARENT 10 10 77 44 45 55
REMARK Flexibility Score: inf
ROOT
ATOM      1  C   UNL A   1      35.872  20.786  24.966  1.00  0.00     0.274 C 
ENDROOT
BRANCH   1   2
ATOM      2  O   UNL A   1      35.497  22.128  24.595  1.00  0.00    -0.460 OA
BRANCH   2   3
ATOM      3  C   UNL A   1      34.702  22.802  25.470  1.00  0.00     0.341 C 
ATOM      4  O   UNL A   1      34.694  22.582  26.674  1.00  0.00    -0.249 OA
BRANCH   3   5
ATOM      5  C   UNL A   1      33.709  23.725  24.750  1.00  0.00     0.231 C 
ATOM      6  C   UNL A   1      33.745  23.697  23.212  1.00  0.00     0.058 C 
BRANCH   5   7
ATOM      7  N   UNL A   1      32.349  23.413  25.291  1.00  0.00    -0.326 N 
ATOM      8  C   UNL A   1      31.586  22.274  25.314  1.00  0.00     0.288 C 
ATOM      9  O   UNL A   1      30.532  22.347  25.947  1.00  0.00    -0.266 OA
ATOM     10  H   UNL A   1      31.911  24.184  25.718  1.00  0.00     0.165 HD
BRANCH   8  11
ATOM     11  C   UNL A   1      32.033  21.059  24.673  1.00  0.00     0.191 A 
ATOM     12  C   UNL A   1      32.617  18.922  24.674  1.00  0.00     0.114 A 
ATOM     13  C   UNL A   1      32.613  19.328  23.356  1.00  0.00     0.047 A 
ATOM     14  O   UNL A   1      32.271  19.972  25.474  1.00  0.00    -0.455 OA
ATOM     15  C   UNL A   1      32.196  20.682  23.354  1.00  0.00     0.056 A 
BRANCH  12  16
ATOM     16  C   UNL A   1      32.787  17.585  25.305  1.00  0.00     0.144 C 
BRANCH  16  17
ATOM     17  S   UNL A   1      33.605  16.330  24.277  1.00  0.00    -0.157 SA
ATOM     18  C   UNL A   1      35.004  15.894  25.332  1.00  0.00     0.085 C 
ENDBRANCH  16  17
ENDBRANCH  12  16
ENDBRANCH   8  11
ENDBRANCH   5   7
BRANCH   5  19
ATOM     19  C   UNL A   1      34.129  25.152  25.177  1.00  0.00     0.422 C 
ATOM     20  F   UNL A   1      35.355  25.190  25.742  1.00  0.00    -0.168 F 
ATOM     21  F   UNL A   1      34.182  25.963  24.086  1.00  0.00    -0.168 F 
ATOM     22  F   UNL A   1      33.262  25.733  26.033  1.00  0.00    -0.168 F 
ENDBRANCH   5  19
ENDBRANCH   3   5
ENDBRANCH   2   3
ENDBRANCH   1   2
BRANCH   1  23
ATOM     23  C   UNL A   1      37.389  20.621  24.867  1.00  0.00     0.275 C 
BRANCH  23  24
ATOM     24  O   UNL A   1      38.016  21.621  25.688  1.00  0.00    -0.458 OA
BRANCH  24  25
ATOM     25  C   UNL A   1      39.209  21.249  26.207  1.00  0.00     0.338 C 
ATOM     26  O   UNL A   1      39.798  20.195  26.055  1.00  0.00    -0.246 OA
BRANCH  25  27
ATOM     27  C   UNL A   1      39.847  22.460  26.732  1.00  0.00     0.060 A 
ATOM     28  C   UNL A   1      39.427  23.672  26.184  1.00  0.00     0.016 A 
ATOM     29  C   UNL A   1      40.836  22.420  27.708  1.00  0.00     0.016 A 
ATOM     30  C   UNL A   1      40.019  24.864  26.574  1.00  0.00     0.010 A 
ATOM     31  C   UNL A   1      41.426  23.620  28.113  1.00  0.00     0.010 A 
ATOM     32  C   UNL A   1      41.035  24.844  27.531  1.00  0.00    -0.014 A 
BRANCH  32  33
ATOM     33  C   UNL A   1      41.776  26.085  27.848  1.00  0.00     0.031 A 
ATOM     34  C   UNL A   1      41.096  27.136  28.674  1.00  0.00     0.074 A 
ATOM     35  C   UNL A   1      43.038  26.262  27.419  1.00  0.00     0.049 A 
ATOM     36  N   UNL A   1      41.441  28.378  28.886  1.00  0.00    -0.248 NA
ATOM     37  C   UNL A   1      39.849  26.732  29.342  1.00  0.00     0.031 C 
ATOM     38  C   UNL A   1      43.832  25.272  26.693  1.00  0.00     0.029 A 
ATOM     39  N   UNL A   1      43.871  27.347  27.529  1.00  0.00    -0.354 N 
ATOM     40  C   UNL A   1      40.426  28.920  29.663  1.00  0.00     0.074 A 
ATOM     41  C   UNL A   1      39.458  27.871  29.894  1.00  0.00     0.031 C 
ATOM     42  C   UNL A   1      45.038  25.797  26.418  1.00  0.00     0.029 A 
ATOM     43  C   UNL A   1      45.072  27.179  26.886  1.00  0.00     0.049 A 
ATOM     44  H   UNL A   1      43.629  28.166  28.020  1.00  0.00     0.167 HD
ATOM     45  C   UNL A   1      40.315  30.187  30.127  1.00  0.00     0.037 A 
ATOM     46  C   UNL A   1      46.064  28.061  26.662  1.00  0.00     0.037 A 
ATOM     47  C   UNL A   1      41.311  31.204  29.920  1.00  0.00     0.049 A 
ATOM     48  C   UNL A   1      45.905  29.474  27.158  1.00  0.00     0.074 A 
ATOM     49  C   UNL A   1      41.298  32.526  30.326  1.00  0.00     0.029 A 
ATOM     50  N   UNL A   1      42.513  30.998  29.257  1.00  0.00    -0.354 N 
ATOM     51  N   UNL A   1      44.907  30.010  27.819  1.00  0.00    -0.248 NA
ATOM     52  C   UNL A   1      46.999  30.408  26.860  1.00  0.00     0.031 C 
ATOM     53  C   UNL A   1      42.482  33.128  29.886  1.00  0.00     0.029 A 
ATOM     54  C   UNL A   1      43.249  32.171  29.240  1.00  0.00     0.049 A 
ATOM     55  H   UNL A   1      42.801  30.145  28.858  1.00  0.00     0.167 HD
ATOM     56  C   UNL A   1      45.256  31.336  28.031  1.00  0.00     0.074 A 
ATOM     57  C   UNL A   1      46.566  31.521  27.439  1.00  0.00     0.031 C 
ATOM     58  C   UNL A   1      44.557  32.316  28.653  1.00  0.00     0.037 A 
BRANCH  45  59
ATOM     59  C   UNL A   1      39.054  30.548  30.853  1.00  0.00     0.064 A 
ATOM     60  C   UNL A   1      37.908  30.989  30.179  1.00  0.00     0.173 A 
ATOM     61  C   UNL A   1      38.995  30.443  32.251  1.00  0.00     0.173 A 
ATOM     62  F   UNL A   1      37.920  31.128  28.844  1.00  0.00    -0.203 F 
ATOM     63  C   UNL A   1      36.754  31.336  30.880  1.00  0.00     0.198 A 
ATOM     64  C   UNL A   1      37.833  30.766  32.947  1.00  0.00     0.198 A 
ATOM     65  F   UNL A   1      40.066  30.029  32.945  1.00  0.00    -0.203 F 
ATOM     66  F   UNL A   1      35.686  31.802  30.220  1.00  0.00    -0.200 F 
ATOM     67  C   UNL A   1      36.717  31.219  32.261  1.00  0.00     0.200 A 
ATOM     68  F   UNL A   1      37.797  30.646  34.281  1.00  0.00    -0.200 F 
ATOM     69  F   UNL A   1      35.607  31.554  32.934  1.00  0.00    -0.200 F 
ENDBRANCH  45  59
BRANCH  46  70
ATOM     70  C   UNL A   1      47.267  27.644  25.897  1.00  0.00     0.064 A 
ATOM     71  C   UNL A   1      48.412  27.170  26.554  1.00  0.00     0.173 A 
ATOM     72  C   UNL A   1      47.295  27.701  24.495  1.00  0.00     0.173 A 
ATOM     73  F   UNL A   1      48.443  27.123  27.893  1.00  0.00    -0.203 F 
ATOM     74  C   UNL A   1      49.540  26.776  25.836  1.00  0.00     0.198 A 
ATOM     75  C   UNL A   1      48.414  27.280  23.779  1.00  0.00     0.198 A 
ATOM     76  F   UNL A   1      46.227  28.150  23.820  1.00  0.00    -0.203 F 
ATOM     77  F   UNL A   1      50.634  26.361  26.489  1.00  0.00    -0.200 F 
ATOM     78  C   UNL A   1      49.537  26.822  24.450  1.00  0.00     0.200 A 
ATOM     79  F   UNL A   1      48.402  27.316  22.440  1.00  0.00    -0.200 F 
ATOM     80  F   UNL A   1      50.619  26.434  23.762  1.00  0.00    -0.200 F 
ENDBRANCH  46  70
BRANCH  58  81
ATOM     81  C   UNL A   1      45.211  33.661  28.756  1.00  0.00     0.064 A 
ATOM     82  C   UNL A   1      46.069  33.979  29.818  1.00  0.00     0.173 A 
ATOM     83  C   UNL A   1      45.011  34.621  27.754  1.00  0.00     0.173 A 
ATOM     84  F   UNL A   1      46.276  33.095  30.805  1.00  0.00    -0.203 F 
ATOM     85  C   UNL A   1      46.691  35.221  29.882  1.00  0.00     0.198 A 
ATOM     86  C   UNL A   1      45.653  35.855  27.810  1.00  0.00     0.198 A 
ATOM     87  F   UNL A   1      44.204  34.359  26.716  1.00  0.00    -0.203 F 
ATOM     88  F   UNL A   1      47.480  35.520  30.924  1.00  0.00    -0.200 F 
ATOM     89  C   UNL A   1      46.489  36.155  28.876  1.00  0.00     0.200 A 
ATOM     90  F   UNL A   1      45.465  36.752  26.833  1.00  0.00    -0.200 F 
ATOM     91  F   UNL A   1      47.095  37.349  28.936  1.00  0.00    -0.200 F 
ENDBRANCH  58  81
ENDBRANCH  32  33
ENDBRANCH  25  27
ENDBRANCH  24  25
ENDBRANCH  23  24
ENDBRANCH   1  23
TORSDOF 16
ENDMDL
