MODEL 1
REMARK VINA RESULT:     -12.6      0.000      0.000
REMARK SMILES CC(=O)N[C@H](CC(=O)NCC(=O)OCCOC(=O)c1ccc(-c2c3nc(c(-c4c(F)c(F)c(F)c(F)c4F)c4ccc([nH]4)c(-c4c(F)c(F)c(F)c(F)c4F)c4nc(c(-c5c(F)c(F)c(F)c(F)c5F)c5ccc2[nH]5)C=C4)C=C3)cc1)c1cccs1
REMARK SMILES IDX 14 1 13 2 11 3 12 4 10 5 9 6 7 7 8 8 6 10 5 11 4 12 1 13
REMARK SMILES IDX 2 14 3 15 82 17 83 18 86 19 84 20 85 21 15 22 16 23 17 24
REMARK SMILES IDX 18 25 19 26 20 27 81 28 21 29 80 30 22 31 23 32 24 33 74 34
REMARK SMILES IDX 25 35 79 36 73 37 75 38 26 39 78 40 72 41 71 42 27 44 59 45
REMARK SMILES IDX 39 46 58 47 40 48 43 49 57 50 76 51 41 52 42 53 56 55 77 56
REMARK SMILES IDX 44 57 28 58 29 59 37 60 30 61 31 62 35 63 38 64 32 65 33 66
REMARK SMILES IDX 36 67 34 68 60 69 61 70 69 71 62 72 63 73 67 74 70 75 64 76
REMARK SMILES IDX 65 77 68 78 66 79 45 80 46 81 54 82 47 83 48 84 52 85 55 86
REMARK SMILES IDX 49 87 50 88 53 89 51 90
REMARK H PARENT 9 9 4 16 75 43 43 54
REMARK Flexibility Score: inf
ROOT
ATOM      1  C   UNL A   1      32.973  28.448  25.359  1.00  0.00     0.274 C 
ENDROOT
BRANCH   1   2
ATOM      2  O   UNL A   1      31.850  27.400  24.548  1.00  0.00    -0.461 OA
BRANCH   2   3
ATOM      3  C   UNL A   1      30.368  26.149  24.690  1.00  0.00     0.325 C 
ATOM      4  O   UNL A   1      29.393  26.004  23.870  1.00  0.00    -0.250 OA
BRANCH   3   5
ATOM      5  C   UNL A   1      30.253  24.879  25.770  1.00  0.00     0.238 C 
BRANCH   5   6
ATOM      6  N   UNL A   1      31.067  24.355  26.848  1.00  0.00    -0.345 N 
ATOM      7  C   UNL A   1      31.658  23.127  26.871  1.00  0.00     0.222 C 
ATOM      8  O   UNL A   1      32.248  22.768  27.886  1.00  0.00    -0.275 OA
ATOM      9  H   UNL A   1      31.206  24.936  27.631  1.00  0.00     0.164 HD
BRANCH   7  10
ATOM     10  C   UNL A   1      31.575  22.268  25.632  1.00  0.00     0.130 C 
BRANCH  10  11
ATOM     11  C   UNL A   1      32.732  21.308  25.308  1.00  0.00     0.131 C 
BRANCH  11  12
ATOM     12  N   UNL A   1      32.496  20.490  24.148  1.00  0.00    -0.348 N 
ATOM     13  C   UNL A   1      32.822  18.348  25.350  1.00  0.00     0.114 C 
ATOM     14  C   UNL A   1      32.500  19.124  24.095  1.00  0.00     0.217 C 
ATOM     15  O   UNL A   1      32.242  18.557  23.035  1.00  0.00    -0.275 OA
ATOM     16  H   UNL A   1      32.313  20.963  23.305  1.00  0.00     0.164 HD
ENDBRANCH  11  12
BRANCH  11  17
ATOM     17  C   UNL A   1      34.137  21.882  25.261  1.00  0.00     0.027 A 
ATOM     18  C   UNL A   1      35.700  21.174  25.660  1.00  0.00     0.017 A 
ATOM     19  S   UNL A   1      34.302  23.517  23.632  1.00  0.00    -0.147 S 
ATOM     20  C   UNL A   1      37.064  21.643  24.381  1.00  0.00     0.012 A 
ATOM     21  C   UNL A   1      36.538  22.936  23.235  1.00  0.00     0.065 A 
ENDBRANCH  11  17
ENDBRANCH  10  11
ENDBRANCH   7  10
ENDBRANCH   5   6
ENDBRANCH   3   5
ENDBRANCH   2   3
ENDBRANCH   1   2
BRANCH   1  22
ATOM     22  C   UNL A   1      32.566  29.983  25.509  1.00  0.00     0.275 C 
BRANCH  22  23
ATOM     23  O   UNL A   1      32.464  30.469  26.899  1.00  0.00    -0.458 OA
BRANCH  23  24
ATOM     24  C   UNL A   1      33.206  31.558  27.254  1.00  0.00     0.338 C 
ATOM     25  O   UNL A   1      32.790  32.707  27.286  1.00  0.00    -0.246 OA
BRANCH  24  26
ATOM     26  C   UNL A   1      34.588  31.227  27.765  1.00  0.00     0.060 A 
ATOM     27  C   UNL A   1      34.937  29.958  28.255  1.00  0.00     0.016 A 
ATOM     28  C   UNL A   1      35.502  32.257  27.978  1.00  0.00     0.016 A 
ATOM     29  C   UNL A   1      36.120  29.708  28.952  1.00  0.00     0.010 A 
ATOM     30  C   UNL A   1      36.730  32.002  28.624  1.00  0.00     0.010 A 
ATOM     31  C   UNL A   1      37.047  30.726  29.124  1.00  0.00    -0.014 A 
BRANCH  31  32
ATOM     32  C   UNL A   1      38.326  30.465  29.832  1.00  0.00     0.031 A 
ATOM     33  C   UNL A   1      39.336  29.532  29.231  1.00  0.00     0.074 A 
ATOM     34  C   UNL A   1      38.574  31.037  31.027  1.00  0.00     0.049 A 
ATOM     35  N   UNL A   1      40.358  28.940  29.793  1.00  0.00    -0.248 NA
ATOM     36  C   UNL A   1      39.167  29.221  27.803  1.00  0.00     0.031 C 
ATOM     37  C   UNL A   1      37.737  32.045  31.680  1.00  0.00     0.029 A 
ATOM     38  N   UNL A   1      39.590  30.819  31.927  1.00  0.00    -0.354 N 
ATOM     39  C   UNL A   1      40.922  28.144  28.805  1.00  0.00     0.074 A 
ATOM     40  C   UNL A   1      40.136  28.337  27.604  1.00  0.00     0.031 C 
ATOM     41  C   UNL A   1      38.247  32.326  32.889  1.00  0.00     0.029 A 
ATOM     42  C   UNL A   1      39.400  31.465  33.126  1.00  0.00     0.049 A 
ATOM     43  H   UNL A   1      40.375  30.256  31.733  1.00  0.00     0.167 HD
ATOM     44  C   UNL A   1      41.990  27.316  28.905  1.00  0.00     0.037 A 
ATOM     45  C   UNL A   1      40.034  31.325  34.306  1.00  0.00     0.037 A 
ATOM     46  C   UNL A   1      42.777  27.153  30.102  1.00  0.00     0.049 A 
ATOM     47  C   UNL A   1      41.160  30.332  34.420  1.00  0.00     0.074 A 
ATOM     48  C   UNL A   1      43.882  26.345  30.306  1.00  0.00     0.029 A 
ATOM     49  N   UNL A   1      42.541  27.814  31.299  1.00  0.00    -0.354 N 
ATOM     50  N   UNL A   1      41.664  29.542  33.503  1.00  0.00    -0.248 NA
ATOM     51  C   UNL A   1      41.799  30.205  35.737  1.00  0.00     0.031 C 
ATOM     52  C   UNL A   1      44.283  26.478  31.640  1.00  0.00     0.029 A 
ATOM     53  C   UNL A   1      43.465  27.415  32.251  1.00  0.00     0.049 A 
ATOM     54  H   UNL A   1      41.823  28.471  31.450  1.00  0.00     0.167 HD
ATOM     55  C   UNL A   1      42.696  28.848  34.122  1.00  0.00     0.074 A 
ATOM     56  C   UNL A   1      42.755  29.320  35.489  1.00  0.00     0.031 C 
ATOM     57  C   UNL A   1      43.521  27.905  33.605  1.00  0.00     0.037 A 
BRANCH  44  58
ATOM     58  C   UNL A   1      42.348  26.482  27.710  1.00  0.00     0.064 A 
ATOM     59  C   UNL A   1      43.352  26.862  26.810  1.00  0.00     0.173 A 
ATOM     60  C   UNL A   1      41.707  25.251  27.496  1.00  0.00     0.173 A 
ATOM     61  F   UNL A   1      43.986  28.035  26.960  1.00  0.00    -0.203 F 
ATOM     62  C   UNL A   1      43.692  26.048  25.731  1.00  0.00     0.198 A 
ATOM     63  C   UNL A   1      42.069  24.427  26.434  1.00  0.00     0.198 A 
ATOM     64  F   UNL A   1      40.741  24.837  28.330  1.00  0.00    -0.203 F 
ATOM     65  F   UNL A   1      44.630  26.449  24.861  1.00  0.00    -0.200 F 
ATOM     66  C   UNL A   1      43.056  24.828  25.549  1.00  0.00     0.200 A 
ATOM     67  F   UNL A   1      41.463  23.243  26.269  1.00  0.00    -0.200 F 
ATOM     68  F   UNL A   1      43.394  24.042  24.517  1.00  0.00    -0.200 F 
ENDBRANCH  44  58
BRANCH  45  69
ATOM     69  C   UNL A   1      39.584  32.102  35.492  1.00  0.00     0.064 A 
ATOM     70  C   UNL A   1      38.641  31.572  36.383  1.00  0.00     0.173 A 
ATOM     71  C   UNL A   1      40.067  33.395  35.746  1.00  0.00     0.173 A 
ATOM     72  F   UNL A   1      38.128  30.352  36.167  1.00  0.00    -0.203 F 
ATOM     73  C   UNL A   1      38.184  32.313  37.472  1.00  0.00     0.198 A 
ATOM     74  C   UNL A   1      39.635  34.120  36.854  1.00  0.00     0.198 A 
ATOM     75  F   UNL A   1      40.968  33.951  34.923  1.00  0.00    -0.203 F 
ATOM     76  F   UNL A   1      37.242  31.804  38.277  1.00  0.00    -0.200 F 
ATOM     77  C   UNL A   1      38.687  33.583  37.711  1.00  0.00     0.200 A 
ATOM     78  F   UNL A   1      40.134  35.342  37.088  1.00  0.00    -0.200 F 
ATOM     79  F   UNL A   1      38.249  34.293  38.759  1.00  0.00    -0.200 F 
ENDBRANCH  45  69
BRANCH  57  80
ATOM     80  C   UNL A   1      44.593  27.361  34.504  1.00  0.00     0.064 A 
ATOM     81  C   UNL A   1      45.842  27.983  34.629  1.00  0.00     0.173 A 
ATOM     82  C   UNL A   1      44.351  26.213  35.276  1.00  0.00     0.173 A 
ATOM     83  F   UNL A   1      46.129  29.073  33.900  1.00  0.00    -0.203 F 
ATOM     84  C   UNL A   1      46.821  27.462  35.471  1.00  0.00     0.198 A 
ATOM     85  C   UNL A   1      45.319  25.713  36.141  1.00  0.00     0.198 A 
ATOM     86  F   UNL A   1      43.169  25.582  35.198  1.00  0.00    -0.203 F 
ATOM     87  F   UNL A   1      48.027  28.044  35.535  1.00  0.00    -0.200 F 
ATOM     88  C   UNL A   1      46.556  26.332  36.232  1.00  0.00     0.200 A 
ATOM     89  F   UNL A   1      45.056  24.630  36.885  1.00  0.00    -0.200 F 
ATOM     90  F   UNL A   1      47.497  25.836  37.047  1.00  0.00    -0.200 F 
ENDBRANCH  57  80
ENDBRANCH  31  32
ENDBRANCH  24  26
ENDBRANCH  23  24
ENDBRANCH  22  23
ENDBRANCH   1  22
TORSDOF 16
ENDMDL
MODEL 2
REMARK VINA RESULT:     -12.5      1.393      2.880
REMARK SMILES CC(=O)N[C@H](CC(=O)NCC(=O)OCCOC(=O)c1ccc(-c2c3nc(c(-c4c(F)c(F)c(F)c(F)c4F)c4ccc([nH]4)c(-c4c(F)c(F)c(F)c(F)c4F)c4nc(c(-c5c(F)c(F)c(F)c(F)c5F)c5ccc2[nH]5)C=C4)C=C3)cc1)c1cccs1
REMARK SMILES IDX 14 1 13 2 11 3 12 4 10 5 9 6 7 7 8 8 6 10 5 11 4 12 1 13
REMARK SMILES IDX 2 14 3 15 82 17 83 18 86 19 84 20 85 21 15 22 16 23 17 24
REMARK SMILES IDX 18 25 19 26 20 27 81 28 21 29 80 30 22 31 23 32 24 33 74 34
REMARK SMILES IDX 25 35 79 36 73 37 75 38 26 39 78 40 72 41 71 42 27 44 59 45
REMARK SMILES IDX 39 46 58 47 40 48 43 49 57 50 76 51 41 52 42 53 56 55 77 56
REMARK SMILES IDX 44 57 28 58 29 59 37 60 30 61 31 62 35 63 38 64 32 65 33 66
REMARK SMILES IDX 36 67 34 68 60 69 61 70 69 71 62 72 63 73 67 74 70 75 64 76
REMARK SMILES IDX 65 77 68 78 66 79 45 80 46 81 54 82 47 83 48 84 52 85 55 86
REMARK SMILES IDX 49 87 50 88 53 89 51 90
REMARK H PARENT 9 9 4 16 75 43 43 54
REMARK Flexibility Score: inf
ROOT
ATOM      1  C   UNL A   1      30.961  28.839  24.521  1.00  0.00     0.274 C 
ENDROOT
BRANCH   1   2
ATOM      2  O   UNL A   1      31.759  28.051  23.195  1.00  0.00    -0.461 OA
BRANCH   2   3
ATOM      3  C   UNL A   1      33.055  26.727  22.605  1.00  0.00     0.325 C 
ATOM      4  O   UNL A   1      33.889  26.835  21.637  1.00  0.00    -0.250 OA
BRANCH   3   5
ATOM      5  C   UNL A   1      33.476  25.332  23.422  1.00  0.00     0.238 C 
BRANCH   5   6
ATOM      6  N   UNL A   1      34.582  24.910  24.257  1.00  0.00    -0.345 N 
ATOM      7  C   UNL A   1      34.850  23.627  24.630  1.00  0.00     0.222 C 
ATOM      8  O   UNL A   1      35.768  23.414  25.417  1.00  0.00    -0.275 OA
ATOM      9  H   UNL A   1      35.192  25.610  24.583  1.00  0.00     0.164 HD
BRANCH   7  10
ATOM     10  C   UNL A   1      34.014  22.518  24.038  1.00  0.00     0.130 C 
BRANCH  10  11
ATOM     11  C   UNL A   1      33.164  21.640  24.973  1.00  0.00     0.131 C 
BRANCH  11  12
ATOM     12  N   UNL A   1      32.197  22.381  25.740  1.00  0.00    -0.348 N 
ATOM     13  C   UNL A   1      33.460  22.204  27.865  1.00  0.00     0.114 C 
ATOM     14  C   UNL A   1      32.275  22.696  27.068  1.00  0.00     0.217 C 
ATOM     15  O   UNL A   1      31.388  23.372  27.584  1.00  0.00    -0.275 OA
ATOM     16  H   UNL A   1      31.397  22.692  25.260  1.00  0.00     0.164 HD
ENDBRANCH  11  12
BRANCH  11  17
ATOM     17  C   UNL A   1      32.517  20.399  24.383  1.00  0.00     0.027 A 
ATOM     18  C   UNL A   1      32.154  19.953  22.718  1.00  0.00     0.017 A 
ATOM     19  S   UNL A   1      32.905  18.554  25.725  1.00  0.00    -0.147 S 
ATOM     20  C   UNL A   1      32.561  18.105  22.351  1.00  0.00     0.012 A 
ATOM     21  C   UNL A   1      32.931  17.156  23.843  1.00  0.00     0.065 A 
ENDBRANCH  11  17
ENDBRANCH  10  11
ENDBRANCH   7  10
ENDBRANCH   5   6
ENDBRANCH   3   5
ENDBRANCH   2   3
ENDBRANCH   1   2
BRANCH   1  22
ATOM     22  C   UNL A   1      31.820  29.111  25.837  1.00  0.00     0.275 C 
BRANCH  22  23
ATOM     23  O   UNL A   1      32.932  30.067  25.669  1.00  0.00    -0.458 OA
BRANCH  23  24
ATOM     24  C   UNL A   1      33.237  30.885  26.718  1.00  0.00     0.338 C 
ATOM     25  O   UNL A   1      32.455  31.658  27.253  1.00  0.00    -0.246 OA
BRANCH  24  26
ATOM     26  C   UNL A   1      34.615  30.665  27.296  1.00  0.00     0.060 A 
ATOM     27  C   UNL A   1      35.071  29.408  27.726  1.00  0.00     0.016 A 
ATOM     28  C   UNL A   1      35.399  31.767  27.634  1.00  0.00     0.016 A 
ATOM     29  C   UNL A   1      36.231  29.234  28.481  1.00  0.00     0.010 A 
ATOM     30  C   UNL A   1      36.608  31.596  28.341  1.00  0.00     0.010 A 
ATOM     31  C   UNL A   1      37.031  30.328  28.778  1.00  0.00    -0.014 A 
BRANCH  31  32
ATOM     32  C   UNL A   1      38.288  30.153  29.549  1.00  0.00     0.031 A 
ATOM     33  C   UNL A   1      39.368  29.255  29.023  1.00  0.00     0.074 A 
ATOM     34  C   UNL A   1      38.452  30.770  30.736  1.00  0.00     0.049 A 
ATOM     35  N   UNL A   1      40.392  28.732  29.647  1.00  0.00    -0.248 NA
ATOM     36  C   UNL A   1      39.281  28.894  27.600  1.00  0.00     0.031 C 
ATOM     37  C   UNL A   1      37.538  31.754  31.319  1.00  0.00     0.029 A 
ATOM     38  N   UNL A   1      39.436  30.630  31.686  1.00  0.00    -0.354 N 
ATOM     39  C   UNL A   1      41.039  27.937  28.711  1.00  0.00     0.074 A 
ATOM     40  C   UNL A   1      40.300  28.055  27.471  1.00  0.00     0.031 C 
ATOM     41  C   UNL A   1      37.978  32.095  32.540  1.00  0.00     0.029 A 
ATOM     42  C   UNL A   1      39.159  31.300  32.854  1.00  0.00     0.049 A 
ATOM     43  H   UNL A   1      40.255  30.103  31.544  1.00  0.00     0.167 HD
ATOM     44  C   UNL A   1      42.140  27.167  28.884  1.00  0.00     0.037 A 
ATOM     45  C   UNL A   1      39.746  31.227  34.065  1.00  0.00     0.037 A 
ATOM     46  C   UNL A   1      42.879  27.078  30.119  1.00  0.00     0.049 A 
ATOM     47  C   UNL A   1      40.912  30.296  34.260  1.00  0.00     0.074 A 
ATOM     48  C   UNL A   1      44.012  26.333  30.397  1.00  0.00     0.029 A 
ATOM     49  N   UNL A   1      42.556  27.761  31.284  1.00  0.00    -0.354 N 
ATOM     50  N   UNL A   1      41.495  29.506  33.392  1.00  0.00    -0.248 NA
ATOM     51  C   UNL A   1      41.496  30.238  35.607  1.00  0.00     0.031 C 
ATOM     52  C   UNL A   1      44.344  26.524  31.742  1.00  0.00     0.029 A 
ATOM     53  C   UNL A   1      43.455  27.437  32.287  1.00  0.00     0.049 A 
ATOM     54  H   UNL A   1      41.801  28.385  31.381  1.00  0.00     0.167 HD
ATOM     55  C   UNL A   1      42.531  28.883  34.077  1.00  0.00     0.074 A 
ATOM     56  C   UNL A   1      42.504  29.397  35.430  1.00  0.00     0.031 C 
ATOM     57  C   UNL A   1      43.424  27.968  33.626  1.00  0.00     0.037 A 
BRANCH  44  58
ATOM     58  C   UNL A   1      42.593  26.317  27.732  1.00  0.00     0.064 A 
ATOM     59  C   UNL A   1      42.047  25.051  27.482  1.00  0.00     0.173 A 
ATOM     60  C   UNL A   1      43.552  26.808  26.832  1.00  0.00     0.173 A 
ATOM     61  F   UNL A   1      41.137  24.529  28.319  1.00  0.00    -0.203 F 
ATOM     62  C   UNL A   1      42.456  24.300  26.382  1.00  0.00     0.198 A 
ATOM     63  C   UNL A   1      43.937  26.068  25.718  1.00  0.00     0.198 A 
ATOM     64  F   UNL A   1      44.104  28.016  27.023  1.00  0.00    -0.203 F 
ATOM     65  F   UNL A   1      41.949  23.076  26.182  1.00  0.00    -0.200 F 
ATOM     66  C   UNL A   1      43.394  24.812  25.496  1.00  0.00     0.200 A 
ATOM     67  F   UNL A   1      44.832  26.571  24.857  1.00  0.00    -0.200 F 
ATOM     68  F   UNL A   1      43.776  24.093  24.432  1.00  0.00    -0.200 F 
ENDBRANCH  44  58
BRANCH  45  69
ATOM     69  C   UNL A   1      39.204  32.014  35.205  1.00  0.00     0.064 A 
ATOM     70  C   UNL A   1      39.478  33.383  35.330  1.00  0.00     0.173 A 
ATOM     71  C   UNL A   1      38.424  31.412  36.205  1.00  0.00     0.173 A 
ATOM     72  F   UNL A   1      40.243  33.997  34.416  1.00  0.00    -0.203 F 
ATOM     73  C   UNL A   1      39.008  34.115  36.419  1.00  0.00     0.198 A 
ATOM     74  C   UNL A   1      37.927  32.153  37.275  1.00  0.00     0.198 A 
ATOM     75  F   UNL A   1      38.134  30.104  36.137  1.00  0.00    -0.203 F 
ATOM     76  F   UNL A   1      39.330  35.410  36.541  1.00  0.00    -0.200 F 
ATOM     77  C   UNL A   1      38.227  33.501  37.386  1.00  0.00     0.200 A 
ATOM     78  F   UNL A   1      37.160  31.558  38.200  1.00  0.00    -0.200 F 
ATOM     79  F   UNL A   1      37.774  34.207  38.431  1.00  0.00    -0.200 F 
ENDBRANCH  45  69
BRANCH  57  80
ATOM     80  C   UNL A   1      44.479  27.504  34.589  1.00  0.00     0.064 A 
ATOM     81  C   UNL A   1      44.305  26.364  35.385  1.00  0.00     0.173 A 
ATOM     82  C   UNL A   1      45.695  28.198  34.691  1.00  0.00     0.173 A 
ATOM     83  F   UNL A   1      43.154  25.677  35.338  1.00  0.00    -0.203 F 
ATOM     84  C   UNL A   1      45.298  25.951  36.270  1.00  0.00     0.198 A 
ATOM     85  C   UNL A   1      46.699  27.764  35.552  1.00  0.00     0.198 A 
ATOM     86  F   UNL A   1      45.915  29.292  33.946  1.00  0.00    -0.203 F 
ATOM     87  F   UNL A   1      45.089  24.889  37.060  1.00  0.00    -0.200 F 
ATOM     88  C   UNL A   1      46.497  26.646  36.346  1.00  0.00     0.200 A 
ATOM     89  F   UNL A   1      47.861  28.429  35.614  1.00  0.00    -0.200 F 
ATOM     90  F   UNL A   1      47.453  26.243  37.193  1.00  0.00    -0.200 F 
ENDBRANCH  57  80
ENDBRANCH  31  32
ENDBRANCH  24  26
ENDBRANCH  23  24
ENDBRANCH  22  23
ENDBRANCH   1  22
TORSDOF 16
ENDMDL
MODEL 3
REMARK VINA RESULT:     -12.5      4.320      9.796
REMARK SMILES CC(=O)N[C@H](CC(=O)NCC(=O)OCCOC(=O)c1ccc(-c2c3nc(c(-c4c(F)c(F)c(F)c(F)c4F)c4ccc([nH]4)c(-c4c(F)c(F)c(F)c(F)c4F)c4nc(c(-c5c(F)c(F)c(F)c(F)c5F)c5ccc2[nH]5)C=C4)C=C3)cc1)c1cccs1
REMARK SMILES IDX 14 1 13 2 11 3 12 4 10 5 9 6 7 7 8 8 6 10 5 11 4 12 1 13
REMARK SMILES IDX 2 14 3 15 82 17 83 18 86 19 84 20 85 21 15 22 16 23 17 24
REMARK SMILES IDX 18 25 19 26 20 27 81 28 21 29 80 30 22 31 23 32 24 33 74 34
REMARK SMILES IDX 25 35 79 36 73 37 75 38 26 39 78 40 72 41 71 42 27 44 59 45
REMARK SMILES IDX 39 46 58 47 40 48 43 49 57 50 76 51 41 52 42 53 56 55 77 56
REMARK SMILES IDX 44 57 28 58 29 59 37 60 30 61 31 62 35 63 38 64 32 65 33 66
REMARK SMILES IDX 36 67 34 68 60 69 61 70 69 71 62 72 63 73 67 74 70 75 64 76
REMARK SMILES IDX 65 77 68 78 66 79 45 80 46 81 54 82 47 83 48 84 52 85 55 86
REMARK SMILES IDX 49 87 50 88 53 89 51 90
REMARK H PARENT 9 9 4 16 75 43 43 54
REMARK Flexibility Score: inf
ROOT
ATOM      1  C   UNL A   1      36.442  22.898  23.697  1.00  0.00     0.274 C 
ENDROOT
BRANCH   1   2
ATOM      2  O   UNL A   1      34.732  22.972  23.405  1.00  0.00    -0.461 OA
BRANCH   2   3
ATOM      3  C   UNL A   1      32.966  22.244  23.771  1.00  0.00     0.325 C 
ATOM      4  O   UNL A   1      32.127  21.779  22.921  1.00  0.00    -0.250 OA
BRANCH   3   5
ATOM      5  C   UNL A   1      32.352  21.866  25.278  1.00  0.00     0.238 C 
BRANCH   5   6
ATOM      6  N   UNL A   1      31.158  22.202  26.028  1.00  0.00    -0.345 N 
ATOM      7  C   UNL A   1      30.872  23.423  26.559  1.00  0.00     0.222 C 
ATOM      8  O   UNL A   1      29.866  23.553  27.252  1.00  0.00    -0.275 OA
ATOM      9  H   UNL A   1      30.496  21.486  26.164  1.00  0.00     0.164 HD
BRANCH   7  10
ATOM     10  C   UNL A   1      31.801  24.574  26.253  1.00  0.00     0.130 C 
BRANCH  10  11
ATOM     11  C   UNL A   1      31.275  25.764  25.433  1.00  0.00     0.131 C 
BRANCH  11  12
ATOM     12  N   UNL A   1      29.844  25.772  25.280  1.00  0.00    -0.348 N 
ATOM     13  C   UNL A   1      29.882  27.062  23.165  1.00  0.00     0.114 C 
ATOM     14  C   UNL A   1      29.134  26.331  24.254  1.00  0.00     0.217 C 
ATOM     15  O   UNL A   1      27.909  26.226  24.236  1.00  0.00    -0.275 OA
ATOM     16  H   UNL A   1      29.322  25.331  25.987  1.00  0.00     0.164 HD
ENDBRANCH  11  12
BRANCH  11  17
ATOM     17  C   UNL A   1      31.765  27.152  25.805  1.00  0.00     0.027 A 
ATOM     18  C   UNL A   1      31.788  28.006  27.345  1.00  0.00     0.017 A 
ATOM     19  S   UNL A   1      33.478  27.822  24.401  1.00  0.00    -0.147 S 
ATOM     20  C   UNL A   1      33.435  28.968  27.624  1.00  0.00     0.012 A 
ATOM     21  C   UNL A   1      34.464  29.044  26.143  1.00  0.00     0.065 A 
ENDBRANCH  11  17
ENDBRANCH  10  11
ENDBRANCH   7  10
ENDBRANCH   5   6
ENDBRANCH   3   5
ENDBRANCH   2   3
ENDBRANCH   1   2
BRANCH   1  22
ATOM     22  C   UNL A   1      37.028  21.534  24.283  1.00  0.00     0.275 C 
BRANCH  22  23
ATOM     23  O   UNL A   1      37.403  21.579  25.710  1.00  0.00    -0.458 OA
BRANCH  23  24
ATOM     24  C   UNL A   1      38.724  21.459  26.029  1.00  0.00     0.338 C 
ATOM     25  O   UNL A   1      39.426  20.496  25.753  1.00  0.00    -0.246 OA
BRANCH  24  26
ATOM     26  C   UNL A   1      39.329  22.700  26.642  1.00  0.00     0.060 A 
ATOM     27  C   UNL A   1      39.022  23.997  26.200  1.00  0.00     0.016 A 
ATOM     28  C   UNL A   1      40.401  22.574  27.524  1.00  0.00     0.016 A 
ATOM     29  C   UNL A   1      39.748  25.125  26.582  1.00  0.00     0.010 A 
ATOM     30  C   UNL A   1      41.101  23.715  27.968  1.00  0.00     0.010 A 
ATOM     31  C   UNL A   1      40.786  25.002  27.494  1.00  0.00    -0.014 A 
BRANCH  31  32
ATOM     32  C   UNL A   1      41.544  26.199  27.937  1.00  0.00     0.031 A 
ATOM     33  C   UNL A   1      40.850  27.275  28.718  1.00  0.00     0.074 A 
ATOM     34  C   UNL A   1      42.845  26.341  27.614  1.00  0.00     0.049 A 
ATOM     35  N   UNL A   1      41.223  28.509  28.945  1.00  0.00    -0.248 NA
ATOM     36  C   UNL A   1      39.559  26.914  29.323  1.00  0.00     0.031 C 
ATOM     37  C   UNL A   1      43.675  25.331  26.955  1.00  0.00     0.029 A 
ATOM     38  N   UNL A   1      43.690  27.416  27.765  1.00  0.00    -0.354 N 
ATOM     39  C   UNL A   1      40.189  29.087  29.670  1.00  0.00     0.074 A 
ATOM     40  C   UNL A   1      39.179  28.067  29.856  1.00  0.00     0.031 C 
ATOM     41  C   UNL A   1      44.892  25.846  26.721  1.00  0.00     0.029 A 
ATOM     42  C   UNL A   1      44.903  27.242  27.142  1.00  0.00     0.049 A 
ATOM     43  H   UNL A   1      43.449  28.227  28.269  1.00  0.00     0.167 HD
ATOM     44  C   UNL A   1      40.094  30.361  30.120  1.00  0.00     0.037 A 
ATOM     45  C   UNL A   1      45.884  28.126  26.874  1.00  0.00     0.037 A 
ATOM     46  C   UNL A   1      41.119  31.359  29.947  1.00  0.00     0.049 A 
ATOM     47  C   UNL A   1      45.716  29.559  27.304  1.00  0.00     0.074 A 
ATOM     48  C   UNL A   1      41.124  32.677  30.371  1.00  0.00     0.029 A 
ATOM     49  N   UNL A   1      42.327  31.147  29.297  1.00  0.00    -0.354 N 
ATOM     50  N   UNL A   1      44.721  30.121  27.945  1.00  0.00    -0.248 NA
ATOM     51  C   UNL A   1      46.806  30.483  26.963  1.00  0.00     0.031 C 
ATOM     52  C   UNL A   1      42.309  33.276  29.933  1.00  0.00     0.029 A 
ATOM     53  C   UNL A   1      43.072  32.315  29.289  1.00  0.00     0.049 A 
ATOM     54  H   UNL A   1      42.612  30.292  28.901  1.00  0.00     0.167 HD
ATOM     55  C   UNL A   1      45.077  31.453  28.111  1.00  0.00     0.074 A 
ATOM     56  C   UNL A   1      46.386  31.613  27.515  1.00  0.00     0.031 C 
ATOM     57  C   UNL A   1      44.382  32.455  28.704  1.00  0.00     0.037 A 
BRANCH  44  58
ATOM     58  C   UNL A   1      38.820  30.773  30.801  1.00  0.00     0.064 A 
ATOM     59  C   UNL A   1      38.693  30.787  32.197  1.00  0.00     0.173 A 
ATOM     60  C   UNL A   1      37.727  31.214  30.039  1.00  0.00     0.173 A 
ATOM     61  F   UNL A   1      39.703  30.362  32.972  1.00  0.00    -0.203 F 
ATOM     62  C   UNL A   1      37.513  31.212  32.804  1.00  0.00     0.198 A 
ATOM     63  C   UNL A   1      36.560  31.665  30.649  1.00  0.00     0.198 A 
ATOM     64  F   UNL A   1      37.797  31.224  28.699  1.00  0.00    -0.203 F 
ATOM     65  F   UNL A   1      37.400  31.182  34.139  1.00  0.00    -0.200 F 
ATOM     66  C   UNL A   1      36.452  31.659  32.030  1.00  0.00     0.200 A 
ATOM     67  F   UNL A   1      35.542  32.109  29.899  1.00  0.00    -0.200 F 
ATOM     68  F   UNL A   1      35.323  32.079  32.617  1.00  0.00    -0.200 F 
ENDBRANCH  44  58
BRANCH  45  69
ATOM     69  C   UNL A   1      47.086  27.698  26.111  1.00  0.00     0.064 A 
ATOM     70  C   UNL A   1      47.111  27.760  24.711  1.00  0.00     0.173 A 
ATOM     71  C   UNL A   1      48.225  27.196  26.761  1.00  0.00     0.173 A 
ATOM     72  F   UNL A   1      46.036  28.205  24.043  1.00  0.00    -0.203 F 
ATOM     73  C   UNL A   1      48.219  27.320  23.989  1.00  0.00     0.198 A 
ATOM     74  C   UNL A   1      49.345  26.788  26.039  1.00  0.00     0.198 A 
ATOM     75  F   UNL A   1      48.254  27.110  28.099  1.00  0.00    -0.203 F 
ATOM     76  F   UNL A   1      48.194  27.340  22.650  1.00  0.00    -0.200 F 
ATOM     77  C   UNL A   1      49.338  26.841  24.655  1.00  0.00     0.200 A 
ATOM     78  F   UNL A   1      50.429  26.339  26.688  1.00  0.00    -0.200 F 
ATOM     79  F   UNL A   1      50.404  26.421  23.960  1.00  0.00    -0.200 F 
ENDBRANCH  45  69
BRANCH  57  80
ATOM     80  C   UNL A   1      45.046  33.799  28.786  1.00  0.00     0.064 A 
ATOM     81  C   UNL A   1      45.898  34.140  29.845  1.00  0.00     0.173 A 
ATOM     82  C   UNL A   1      44.848  34.747  27.770  1.00  0.00     0.173 A 
ATOM     83  F   UNL A   1      46.106  33.276  30.850  1.00  0.00    -0.203 F 
ATOM     84  C   UNL A   1      46.506  35.392  29.900  1.00  0.00     0.198 A 
ATOM     85  C   UNL A   1      45.483  35.985  27.811  1.00  0.00     0.198 A 
ATOM     86  F   UNL A   1      44.047  34.468  26.731  1.00  0.00    -0.203 F 
ATOM     87  F   UNL A   1      47.275  35.716  30.949  1.00  0.00    -0.200 F 
ATOM     88  C   UNL A   1      46.304  36.309  28.879  1.00  0.00     0.200 A 
ATOM     89  F   UNL A   1      45.298  36.865  26.817  1.00  0.00    -0.200 F 
ATOM     90  F   UNL A   1      46.895  37.511  28.930  1.00  0.00    -0.200 F 
ENDBRANCH  57  80
ENDBRANCH  31  32
ENDBRANCH  24  26
ENDBRANCH  23  24
ENDBRANCH  22  23
ENDBRANCH   1  22
TORSDOF 16
ENDMDL
