MODEL 1
REMARK VINA RESULT:     -11.8      0.000      0.000
REMARK SMILES CC[NH2+][C@]1(C(=O)OCCOC(=O)c2ccc(-c3c4nc(c(-c5c(F)c(F)c(F)c(F)c5F)c5ccc([nH]5)c(-c5c(F)c(F)c(F)c(F)c5F)c5nc(c(-c6c(F)c(F)c(F)c(F)c6F)c6ccc3[nH]6)C=C5)C=C4)cc2)CCC[C@@H](n2cccn2)C1
REMARK SMILES IDX 8 1 7 2 5 3 6 4 4 5 76 6 85 7 77 8 79 9 78 10 3 11 2 14 1 15
REMARK SMILES IDX 80 16 81 17 84 18 82 19 83 20 9 21 10 22 11 23 12 24 13 25
REMARK SMILES IDX 14 26 75 27 15 28 74 29 16 30 17 31 18 32 68 33 19 34 73 35
REMARK SMILES IDX 67 36 69 37 20 38 72 39 66 40 65 41 21 43 53 44 33 45 52 46
REMARK SMILES IDX 34 47 37 48 51 49 70 50 35 51 36 52 50 54 71 55 38 56 22 57
REMARK SMILES IDX 23 58 31 59 24 60 25 61 29 62 32 63 26 64 27 65 30 66 28 67
REMARK SMILES IDX 54 68 55 69 63 70 56 71 57 72 61 73 64 74 58 75 59 76 62 77
REMARK SMILES IDX 60 78 39 79 40 80 48 81 41 82 42 83 46 84 49 85 43 86 44 87
REMARK SMILES IDX 47 88 45 89
REMARK H PARENT 3 12 3 13 69 42 37 53
REMARK Flexibility Score: inf
ROOT
ATOM      1  C   UNL A   1      32.073  28.242  27.450  1.00  0.00     0.274 C 
ENDROOT
BRANCH   1   2
ATOM      2  O   UNL A   1      31.465  27.221  26.632  1.00  0.00    -0.457 OA
BRANCH   2   3
ATOM      3  C   UNL A   1      31.960  27.087  25.369  1.00  0.00     0.368 C 
ATOM      4  O   UNL A   1      33.160  27.021  25.117  1.00  0.00    -0.245 OA
BRANCH   3   5
ATOM      5  C   UNL A   1      30.834  27.035  24.276  1.00  0.00     0.196 C 
ATOM      6  C   UNL A   1      29.583  26.330  24.843  1.00  0.00     0.081 C 
ATOM      7  C   UNL A   1      30.430  28.468  23.851  1.00  0.00     0.108 C 
ATOM      8  C   UNL A   1      28.401  26.329  23.876  1.00  0.00     0.009 C 
ATOM      9  C   UNL A   1      29.241  28.512  22.871  1.00  0.00     0.114 C 
ATOM     10  C   UNL A   1      28.036  27.738  23.440  1.00  0.00     0.028 C 
BRANCH   5  11
ATOM     11  N   UNL A   1      31.385  26.354  23.056  1.00  0.00    -0.332 N 
ATOM     12  H   UNL A   1      30.802  26.613  22.260  1.00  0.00     0.347 HD
ATOM     13  H   UNL A   1      32.353  26.666  22.971  1.00  0.00     0.347 HD
BRANCH  11  14
ATOM     14  C   UNL A   1      31.435  24.886  23.126  1.00  0.00     0.257 C 
ATOM     15  C   UNL A   1      32.767  24.375  22.598  1.00  0.00     0.071 C 
ENDBRANCH  11  14
ENDBRANCH   5  11
BRANCH   9  16
ATOM     16  N   UNL A   1      28.904  29.900  22.531  1.00  0.00    -0.269 N 
ATOM     17  C   UNL A   1      28.786  30.947  23.407  1.00  0.00     0.109 A 
ATOM     18  N   UNL A   1      28.678  30.268  21.254  1.00  0.00    -0.181 NA
ATOM     19  C   UNL A   1      28.446  32.045  22.652  1.00  0.00     0.042 A 
ATOM     20  C   UNL A   1      28.406  31.570  21.332  1.00  0.00     0.135 A 
ENDBRANCH   9  16
ENDBRANCH   3   5
ENDBRANCH   2   3
ENDBRANCH   1   2
BRANCH   1  21
ATOM     21  C   UNL A   1      31.754  29.632  26.912  1.00  0.00     0.275 C 
BRANCH  21  22
ATOM     22  O   UNL A   1      32.957  30.240  26.416  1.00  0.00    -0.458 OA
BRANCH  22  23
ATOM     23  C   UNL A   1      33.404  31.301  27.123  1.00  0.00     0.338 C 
ATOM     24  O   UNL A   1      32.821  32.348  27.348  1.00  0.00    -0.246 OA
BRANCH  23  25
ATOM     25  C   UNL A   1      34.753  31.023  27.636  1.00  0.00     0.060 A 
ATOM     26  C   UNL A   1      35.149  29.711  27.891  1.00  0.00     0.016 A 
ATOM     27  C   UNL A   1      35.574  32.088  28.000  1.00  0.00     0.016 A 
ATOM     28  C   UNL A   1      36.311  29.462  28.618  1.00  0.00     0.010 A 
ATOM     29  C   UNL A   1      36.792  31.830  28.631  1.00  0.00     0.010 A 
ATOM     30  C   UNL A   1      37.154  30.519  28.989  1.00  0.00    -0.014 A 
BRANCH  30  31
ATOM     31  C   UNL A   1      38.387  30.289  29.791  1.00  0.00     0.031 A 
ATOM     32  C   UNL A   1      39.489  29.432  29.227  1.00  0.00     0.074 A 
ATOM     33  C   UNL A   1      38.526  30.810  31.025  1.00  0.00     0.049 A 
ATOM     34  N   UNL A   1      40.476  28.837  29.845  1.00  0.00    -0.248 NA
ATOM     35  C   UNL A   1      39.460  29.201  27.774  1.00  0.00     0.031 C 
ATOM     36  C   UNL A   1      37.583  31.716  31.679  1.00  0.00     0.029 A 
ATOM     37  N   UNL A   1      39.520  30.635  31.958  1.00  0.00    -0.354 N 
ATOM     38  C   UNL A   1      41.132  28.091  28.873  1.00  0.00     0.074 A 
ATOM     39  C   UNL A   1      40.450  28.334  27.620  1.00  0.00     0.031 C 
ATOM     40  C   UNL A   1      38.052  32.037  32.895  1.00  0.00     0.029 A 
ATOM     41  C   UNL A   1      39.275  31.281  33.144  1.00  0.00     0.049 A 
ATOM     42  H   UNL A   1      40.328  30.099  31.792  1.00  0.00     0.167 HD
ATOM     43  C   UNL A   1      42.193  27.263  29.026  1.00  0.00     0.037 A 
ATOM     44  C   UNL A   1      39.923  31.224  34.322  1.00  0.00     0.037 A 
ATOM     45  C   UNL A   1      42.910  27.087  30.261  1.00  0.00     0.049 A 
ATOM     46  C   UNL A   1      41.102  30.307  34.472  1.00  0.00     0.074 A 
ATOM     47  C   UNL A   1      43.996  26.269  30.524  1.00  0.00     0.029 A 
ATOM     48  N   UNL A   1      42.629  27.768  31.435  1.00  0.00    -0.354 N 
ATOM     49  N   UNL A   1      41.644  29.510  33.585  1.00  0.00    -0.248 NA
ATOM     50  C   UNL A   1      41.739  30.257  35.796  1.00  0.00     0.031 C 
ATOM     51  C   UNL A   1      44.363  26.446  31.863  1.00  0.00     0.029 A 
ATOM     52  C   UNL A   1      43.523  27.395  32.423  1.00  0.00     0.049 A 
ATOM     53  H   UNL A   1      41.901  28.421  31.548  1.00  0.00     0.167 HD
ATOM     54  C   UNL A   1      42.684  28.865  34.238  1.00  0.00     0.074 A 
ATOM     55  C   UNL A   1      42.710  29.377  35.593  1.00  0.00     0.031 C 
ATOM     56  C   UNL A   1      43.535  27.924  33.762  1.00  0.00     0.037 A 
BRANCH  43  57
ATOM     57  C   UNL A   1      42.611  26.448  27.839  1.00  0.00     0.064 A 
ATOM     58  C   UNL A   1      43.601  26.881  26.949  1.00  0.00     0.173 A 
ATOM     59  C   UNL A   1      42.024  25.193  27.613  1.00  0.00     0.173 A 
ATOM     60  F   UNL A   1      44.180  28.080  27.114  1.00  0.00    -0.203 F 
ATOM     61  C   UNL A   1      43.976  26.096  25.861  1.00  0.00     0.198 A 
ATOM     62  C   UNL A   1      42.415  24.402  26.537  1.00  0.00     0.198 A 
ATOM     63  F   UNL A   1      41.072  24.733  28.439  1.00  0.00    -0.203 F 
ATOM     64  F   UNL A   1      44.898  26.545  24.999  1.00  0.00    -0.200 F 
ATOM     65  C   UNL A   1      43.387  24.856  25.660  1.00  0.00     0.200 A 
ATOM     66  F   UNL A   1      41.851  23.201  26.350  1.00  0.00    -0.200 F 
ATOM     67  F   UNL A   1      43.752  24.100  24.614  1.00  0.00    -0.200 F 
ENDBRANCH  43  57
BRANCH  44  68
ATOM     68  C   UNL A   1      39.425  32.025  35.469  1.00  0.00     0.064 A 
ATOM     69  C   UNL A   1      38.544  31.468  36.405  1.00  0.00     0.173 A 
ATOM     70  C   UNL A   1      39.849  33.346  35.671  1.00  0.00     0.173 A 
ATOM     71  F   UNL A   1      38.093  30.217  36.238  1.00  0.00    -0.203 F 
ATOM     72  C   UNL A   1      38.107  32.204  37.504  1.00  0.00     0.198 A 
ATOM     73  C   UNL A   1      39.431  34.072  36.784  1.00  0.00     0.198 A 
ATOM     74  F   UNL A   1      40.692  33.922  34.802  1.00  0.00    -0.203 F 
ATOM     75  F   UNL A   1      37.245  31.658  38.373  1.00  0.00    -0.200 F 
ATOM     76  C   UNL A   1      38.558  33.502  37.697  1.00  0.00     0.200 A 
ATOM     77  F   UNL A   1      39.881  35.320  36.975  1.00  0.00    -0.200 F 
ATOM     78  F   UNL A   1      38.151  34.203  38.765  1.00  0.00    -0.200 F 
ENDBRANCH  44  68
BRANCH  56  79
ATOM     79  C   UNL A   1      44.579  27.409  34.702  1.00  0.00     0.064 A 
ATOM     80  C   UNL A   1      44.358  26.264  35.480  1.00  0.00     0.173 A 
ATOM     81  C   UNL A   1      45.827  28.042  34.792  1.00  0.00     0.173 A 
ATOM     82  F   UNL A   1      43.173  25.636  35.436  1.00  0.00    -0.203 F 
ATOM     83  C   UNL A   1      45.349  25.777  36.327  1.00  0.00     0.198 A 
ATOM     84  C   UNL A   1      46.821  27.543  35.628  1.00  0.00     0.198 A 
ATOM     85  F   UNL A   1      46.082  29.140  34.064  1.00  0.00    -0.203 F 
ATOM     86  F   UNL A   1      45.110  24.698  37.085  1.00  0.00    -0.200 F 
ATOM     87  C   UNL A   1      46.580  26.413  36.397  1.00  0.00     0.200 A 
ATOM     88  F   UNL A   1      48.011  28.155  35.691  1.00  0.00    -0.200 F 
ATOM     89  F   UNL A   1      47.535  25.941  37.210  1.00  0.00    -0.200 F 
ENDBRANCH  56  79
ENDBRANCH  30  31
ENDBRANCH  23  25
ENDBRANCH  22  23
ENDBRANCH  21  22
ENDBRANCH   1  21
TORSDOF 14
ENDMDL
MODEL 2
REMARK VINA RESULT:     -11.8      0.235      1.646
REMARK SMILES CC[NH2+][C@]1(C(=O)OCCOC(=O)c2ccc(-c3c4nc(c(-c5c(F)c(F)c(F)c(F)c5F)c5ccc([nH]5)c(-c5c(F)c(F)c(F)c(F)c5F)c5nc(c(-c6c(F)c(F)c(F)c(F)c6F)c6ccc3[nH]6)C=C5)C=C4)cc2)CCC[C@@H](n2cccn2)C1
REMARK SMILES IDX 8 1 7 2 5 3 6 4 4 5 76 6 85 7 77 8 79 9 78 10 3 11 2 14 1 15
REMARK SMILES IDX 80 16 81 17 84 18 82 19 83 20 9 21 10 22 11 23 12 24 13 25
REMARK SMILES IDX 14 26 75 27 15 28 74 29 16 30 17 31 18 32 68 33 19 34 73 35
REMARK SMILES IDX 67 36 69 37 20 38 72 39 66 40 65 41 21 43 53 44 33 45 52 46
REMARK SMILES IDX 34 47 37 48 51 49 70 50 35 51 36 52 50 54 71 55 38 56 22 57
REMARK SMILES IDX 23 58 31 59 24 60 25 61 29 62 32 63 26 64 27 65 30 66 28 67
REMARK SMILES IDX 54 68 55 69 63 70 56 71 57 72 61 73 64 74 58 75 59 76 62 77
REMARK SMILES IDX 60 78 39 79 40 80 48 81 41 82 42 83 46 84 49 85 43 86 44 87
REMARK SMILES IDX 47 88 45 89
REMARK H PARENT 3 12 3 13 69 42 37 53
REMARK Flexibility Score: inf
ROOT
ATOM      1  C   UNL A   1      32.149  28.127  27.422  1.00  0.00     0.274 C 
ENDROOT
BRANCH   1   2
ATOM      2  O   UNL A   1      31.532  27.153  26.553  1.00  0.00    -0.457 OA
BRANCH   2   3
ATOM      3  C   UNL A   1      32.011  27.094  25.278  1.00  0.00     0.368 C 
ATOM      4  O   UNL A   1      33.208  27.066  25.007  1.00  0.00    -0.245 OA
BRANCH   3   5
ATOM      5  C   UNL A   1      30.870  27.075  24.199  1.00  0.00     0.196 C 
ATOM      6  C   UNL A   1      29.615  26.383  24.772  1.00  0.00     0.081 C 
ATOM      7  C   UNL A   1      30.485  28.520  23.799  1.00  0.00     0.108 C 
ATOM      8  C   UNL A   1      28.421  26.413  23.820  1.00  0.00     0.009 C 
ATOM      9  C   UNL A   1      29.284  28.596  22.835  1.00  0.00     0.114 C 
ATOM     10  C   UNL A   1      28.074  27.835  23.409  1.00  0.00     0.028 C 
BRANCH   5  11
ATOM     11  N   UNL A   1      31.395  26.402  22.963  1.00  0.00    -0.332 N 
ATOM     12  H   UNL A   1      30.787  26.656  22.184  1.00  0.00     0.347 HD
ATOM     13  H   UNL A   1      32.356  26.725  22.852  1.00  0.00     0.347 HD
BRANCH  11  14
ATOM     14  C   UNL A   1      31.463  24.935  23.028  1.00  0.00     0.257 C 
ATOM     15  C   UNL A   1      32.843  24.449  22.611  1.00  0.00     0.071 C 
ENDBRANCH  11  14
ENDBRANCH   5  11
BRANCH   9  16
ATOM     16  N   UNL A   1      28.965  29.994  22.518  1.00  0.00    -0.269 N 
ATOM     17  C   UNL A   1      28.847  31.025  23.412  1.00  0.00     0.109 A 
ATOM     18  N   UNL A   1      28.759  30.389  21.245  1.00  0.00    -0.181 NA
ATOM     19  C   UNL A   1      28.527  32.141  22.675  1.00  0.00     0.042 A 
ATOM     20  C   UNL A   1      28.499  31.692  21.346  1.00  0.00     0.135 A 
ENDBRANCH   9  16
ENDBRANCH   3   5
ENDBRANCH   2   3
ENDBRANCH   1   2
BRANCH   1  21
ATOM     21  C   UNL A   1      31.855  29.544  26.944  1.00  0.00     0.275 C 
BRANCH  21  22
ATOM     22  O   UNL A   1      33.066  30.146  26.460  1.00  0.00    -0.458 OA
BRANCH  22  23
ATOM     23  C   UNL A   1      33.507  31.210  27.166  1.00  0.00     0.338 C 
ATOM     24  O   UNL A   1      32.910  32.245  27.408  1.00  0.00    -0.246 OA
BRANCH  23  25
ATOM     25  C   UNL A   1      34.871  30.954  27.651  1.00  0.00     0.060 A 
ATOM     26  C   UNL A   1      35.315  29.645  27.832  1.00  0.00     0.016 A 
ATOM     27  C   UNL A   1      35.657  32.027  28.065  1.00  0.00     0.016 A 
ATOM     28  C   UNL A   1      36.493  29.400  28.535  1.00  0.00     0.010 A 
ATOM     29  C   UNL A   1      36.890  31.780  28.671  1.00  0.00     0.010 A 
ATOM     30  C   UNL A   1      37.303  30.465  28.955  1.00  0.00    -0.014 A 
BRANCH  30  31
ATOM     31  C   UNL A   1      38.551  30.238  29.732  1.00  0.00     0.031 A 
ATOM     32  C   UNL A   1      39.633  29.365  29.157  1.00  0.00     0.074 A 
ATOM     33  C   UNL A   1      38.720  30.775  30.956  1.00  0.00     0.049 A 
ATOM     34  N   UNL A   1      40.630  28.770  29.761  1.00  0.00    -0.248 NA
ATOM     35  C   UNL A   1      39.571  29.113  27.708  1.00  0.00     0.031 C 
ATOM     36  C   UNL A   1      37.799  31.697  31.617  1.00  0.00     0.029 A 
ATOM     37  N   UNL A   1      39.734  30.605  31.869  1.00  0.00    -0.354 N 
ATOM     38  C   UNL A   1      41.258  28.005  28.786  1.00  0.00     0.074 A 
ATOM     39  C   UNL A   1      40.551  28.236  27.545  1.00  0.00     0.031 C 
ATOM     40  C   UNL A   1      38.297  32.032  32.818  1.00  0.00     0.029 A 
ATOM     41  C   UNL A   1      39.520  31.270  33.051  1.00  0.00     0.049 A 
ATOM     42  H   UNL A   1      40.534  30.061  31.693  1.00  0.00     0.167 HD
ATOM     43  C   UNL A   1      42.317  27.172  28.927  1.00  0.00     0.037 A 
ATOM     44  C   UNL A   1      40.193  31.225  34.215  1.00  0.00     0.037 A 
ATOM     45  C   UNL A   1      43.060  27.008  30.148  1.00  0.00     0.049 A 
ATOM     46  C   UNL A   1      41.369  30.301  34.352  1.00  0.00     0.074 A 
ATOM     47  C   UNL A   1      44.145  26.186  30.399  1.00  0.00     0.029 A 
ATOM     48  N   UNL A   1      42.810  27.708  31.319  1.00  0.00    -0.354 N 
ATOM     49  N   UNL A   1      41.885  29.487  33.465  1.00  0.00    -0.248 NA
ATOM     50  C   UNL A   1      42.034  30.265  35.662  1.00  0.00     0.031 C 
ATOM     51  C   UNL A   1      44.543  26.379  31.727  1.00  0.00     0.029 A 
ATOM     52  C   UNL A   1      43.723  27.342  32.293  1.00  0.00     0.049 A 
ATOM     53  H   UNL A   1      42.089  28.368  31.439  1.00  0.00     0.167 HD
ATOM     54  C   UNL A   1      42.935  28.844  34.104  1.00  0.00     0.074 A 
ATOM     55  C   UNL A   1      42.994  29.375  35.451  1.00  0.00     0.031 C 
ATOM     56  C   UNL A   1      43.768  27.889  33.623  1.00  0.00     0.037 A 
BRANCH  43  57
ATOM     57  C   UNL A   1      42.702  26.337  27.744  1.00  0.00     0.064 A 
ATOM     58  C   UNL A   1      42.106  25.098  27.480  1.00  0.00     0.173 A 
ATOM     59  C   UNL A   1      43.670  26.808  26.843  1.00  0.00     0.173 A 
ATOM     60  F   UNL A   1      41.187  24.598  28.320  1.00  0.00    -0.203 F 
ATOM     61  C   UNL A   1      42.478  24.350  26.365  1.00  0.00     0.198 A 
ATOM     62  C   UNL A   1      44.025  26.067  25.719  1.00  0.00     0.198 A 
ATOM     63  F   UNL A   1      44.269  27.991  27.051  1.00  0.00    -0.203 F 
ATOM     64  F   UNL A   1      41.922  23.149  26.151  1.00  0.00    -0.200 F 
ATOM     65  C   UNL A   1      43.432  24.837  25.484  1.00  0.00     0.200 A 
ATOM     66  F   UNL A   1      44.941  26.545  24.865  1.00  0.00    -0.200 F 
ATOM     67  F   UNL A   1      43.786  24.117  24.410  1.00  0.00    -0.200 F 
ENDBRANCH  43  57
BRANCH  44  68
ATOM     68  C   UNL A   1      39.726  32.046  35.360  1.00  0.00     0.064 A 
ATOM     69  C   UNL A   1      40.197  33.352  35.547  1.00  0.00     0.173 A 
ATOM     70  C   UNL A   1      38.774  31.556  36.267  1.00  0.00     0.173 A 
ATOM     71  F   UNL A   1      41.126  33.853  34.720  1.00  0.00    -0.203 F 
ATOM     72  C   UNL A   1      39.731  34.139  36.597  1.00  0.00     0.198 A 
ATOM     73  C   UNL A   1      38.290  32.353  37.301  1.00  0.00     0.198 A 
ATOM     74  F   UNL A   1      38.293  30.311  36.129  1.00  0.00    -0.203 F 
ATOM     75  F   UNL A   1      40.214  35.377  36.769  1.00  0.00    -0.200 F 
ATOM     76  C   UNL A   1      38.771  33.642  37.467  1.00  0.00     0.200 A 
ATOM     77  F   UNL A   1      37.352  31.874  38.130  1.00  0.00    -0.200 F 
ATOM     78  F   UNL A   1      38.310  34.407  38.467  1.00  0.00    -0.200 F 
ENDBRANCH  44  68
BRANCH  56  79
ATOM     79  C   UNL A   1      44.829  27.381  34.547  1.00  0.00     0.064 A 
ATOM     80  C   UNL A   1      44.618  26.247  35.344  1.00  0.00     0.173 A 
ATOM     81  C   UNL A   1      46.082  28.007  34.602  1.00  0.00     0.173 A 
ATOM     82  F   UNL A   1      43.428  25.626  35.334  1.00  0.00    -0.203 F 
ATOM     83  C   UNL A   1      45.623  25.764  36.176  1.00  0.00     0.198 A 
ATOM     84  C   UNL A   1      47.091  27.512  35.423  1.00  0.00     0.198 A 
ATOM     85  F   UNL A   1      46.328  29.093  33.856  1.00  0.00    -0.203 F 
ATOM     86  F   UNL A   1      45.394  24.696  36.952  1.00  0.00    -0.200 F 
ATOM     87  C   UNL A   1      46.860  26.393  36.211  1.00  0.00     0.200 A 
ATOM     88  F   UNL A   1      48.286  28.118  35.453  1.00  0.00    -0.200 F 
ATOM     89  F   UNL A   1      47.829  25.926  37.011  1.00  0.00    -0.200 F 
ENDBRANCH  56  79
ENDBRANCH  30  31
ENDBRANCH  23  25
ENDBRANCH  22  23
ENDBRANCH  21  22
ENDBRANCH   1  21
TORSDOF 14
ENDMDL
MODEL 3
REMARK VINA RESULT:     -11.7      5.130     10.320
REMARK SMILES CC[NH2+][C@]1(C(=O)OCCOC(=O)c2ccc(-c3c4nc(c(-c5c(F)c(F)c(F)c(F)c5F)c5ccc([nH]5)c(-c5c(F)c(F)c(F)c(F)c5F)c5nc(c(-c6c(F)c(F)c(F)c(F)c6F)c6ccc3[nH]6)C=C5)C=C4)cc2)CCC[C@@H](n2cccn2)C1
REMARK SMILES IDX 8 1 7 2 5 3 6 4 4 5 76 6 85 7 77 8 79 9 78 10 3 11 2 14 1 15
REMARK SMILES IDX 80 16 81 17 84 18 82 19 83 20 9 21 10 22 11 23 12 24 13 25
REMARK SMILES IDX 14 26 75 27 15 28 74 29 16 30 17 31 18 32 68 33 19 34 73 35
REMARK SMILES IDX 67 36 69 37 20 38 72 39 66 40 65 41 21 43 53 44 33 45 52 46
REMARK SMILES IDX 34 47 37 48 51 49 70 50 35 51 36 52 50 54 71 55 38 56 22 57
REMARK SMILES IDX 23 58 31 59 24 60 25 61 29 62 32 63 26 64 27 65 30 66 28 67
REMARK SMILES IDX 54 68 55 69 63 70 56 71 57 72 61 73 64 74 58 75 59 76 62 77
REMARK SMILES IDX 60 78 39 79 40 80 48 81 41 82 42 83 46 84 49 85 43 86 44 87
REMARK SMILES IDX 47 88 45 89
REMARK H PARENT 3 12 3 13 69 42 37 53
REMARK Flexibility Score: inf
ROOT
ATOM      1  C   UNL A   1      36.338  22.901  24.009  1.00  0.00     0.274 C 
ENDROOT
BRANCH   1   2
ATOM      2  O   UNL A   1      35.156  22.906  24.837  1.00  0.00    -0.457 OA
BRANCH   2   3
ATOM      3  C   UNL A   1      34.036  23.453  24.285  1.00  0.00     0.368 C 
ATOM      4  O   UNL A   1      33.900  24.656  24.086  1.00  0.00    -0.245 OA
BRANCH   3   5
ATOM      5  C   UNL A   1      32.941  22.381  23.942  1.00  0.00     0.196 C 
ATOM      6  C   UNL A   1      32.753  22.292  22.412  1.00  0.00     0.081 C 
ATOM      7  C   UNL A   1      33.373  20.986  24.457  1.00  0.00     0.108 C 
ATOM      8  C   UNL A   1      31.778  21.196  21.987  1.00  0.00     0.009 C 
ATOM      9  C   UNL A   1      32.413  19.851  24.052  1.00  0.00     0.114 C 
ATOM     10  C   UNL A   1      32.195  19.839  22.527  1.00  0.00     0.028 C 
BRANCH   5  11
ATOM     11  N   UNL A   1      31.676  22.744  24.665  1.00  0.00    -0.332 N 
ATOM     12  H   UNL A   1      31.342  23.632  24.290  1.00  0.00     0.347 HD
ATOM     13  H   UNL A   1      31.030  21.969  24.512  1.00  0.00     0.347 HD
BRANCH  11  14
ATOM     14  C   UNL A   1      31.806  22.886  26.122  1.00  0.00     0.257 C 
ATOM     15  C   UNL A   1      30.432  22.954  26.773  1.00  0.00     0.071 C 
ENDBRANCH  11  14
ENDBRANCH   5  11
BRANCH   9  16
ATOM     16  N   UNL A   1      32.897  18.560  24.558  1.00  0.00    -0.269 N 
ATOM     17  C   UNL A   1      34.092  17.963  24.252  1.00  0.00     0.109 A 
ATOM     18  N   UNL A   1      32.160  17.828  25.417  1.00  0.00    -0.181 NA
ATOM     19  C   UNL A   1      34.114  16.771  24.937  1.00  0.00     0.042 A 
ATOM     20  C   UNL A   1      32.904  16.747  25.647  1.00  0.00     0.135 A 
ENDBRANCH   9  16
ENDBRANCH   3   5
ENDBRANCH   2   3
ENDBRANCH   1   2
BRANCH   1  21
ATOM     21  C   UNL A   1      37.236  21.717  24.351  1.00  0.00     0.275 C 
BRANCH  21  22
ATOM     22  O   UNL A   1      37.546  21.741  25.754  1.00  0.00    -0.458 OA
BRANCH  22  23
ATOM     23  C   UNL A   1      38.844  21.533  26.064  1.00  0.00     0.338 C 
ATOM     24  O   UNL A   1      39.507  20.529  25.869  1.00  0.00    -0.246 OA
BRANCH  23  25
ATOM     25  C   UNL A   1      39.405  22.740  26.688  1.00  0.00     0.060 A 
ATOM     26  C   UNL A   1      38.919  23.999  26.341  1.00  0.00     0.016 A 
ATOM     27  C   UNL A   1      40.520  22.621  27.515  1.00  0.00     0.016 A 
ATOM     28  C   UNL A   1      39.615  25.145  26.721  1.00  0.00     0.010 A 
ATOM     29  C   UNL A   1      41.151  23.773  27.985  1.00  0.00     0.010 A 
ATOM     30  C   UNL A   1      40.735  25.048  27.558  1.00  0.00    -0.014 A 
BRANCH  30  31
ATOM     31  C   UNL A   1      41.517  26.249  27.957  1.00  0.00     0.031 A 
ATOM     32  C   UNL A   1      40.863  27.314  28.795  1.00  0.00     0.074 A 
ATOM     33  C   UNL A   1      42.793  26.417  27.560  1.00  0.00     0.049 A 
ATOM     34  N   UNL A   1      41.219  28.559  28.984  1.00  0.00    -0.248 NA
ATOM     35  C   UNL A   1      39.629  26.927  29.500  1.00  0.00     0.031 C 
ATOM     36  C   UNL A   1      43.587  25.446  26.808  1.00  0.00     0.029 A 
ATOM     37  N   UNL A   1      43.643  27.484  27.727  1.00  0.00    -0.354 N 
ATOM     38  C   UNL A   1      40.210  29.126  29.753  1.00  0.00     0.074 A 
ATOM     39  C   UNL A   1      39.245  28.083  30.023  1.00  0.00     0.031 C 
ATOM     40  C   UNL A   1      44.814  25.949  26.599  1.00  0.00     0.029 A 
ATOM     41  C   UNL A   1      44.859  27.314  27.112  1.00  0.00     0.049 A 
ATOM     42  H   UNL A   1      43.404  28.291  28.237  1.00  0.00     0.167 HD
ATOM     43  C   UNL A   1      40.097  30.409  30.172  1.00  0.00     0.037 A 
ATOM     44  C   UNL A   1      45.873  28.178  26.923  1.00  0.00     0.037 A 
ATOM     45  C   UNL A   1      41.099  31.420  29.962  1.00  0.00     0.049 A 
ATOM     46  C   UNL A   1      45.734  29.595  27.403  1.00  0.00     0.074 A 
ATOM     47  C   UNL A   1      41.081  32.752  30.343  1.00  0.00     0.029 A 
ATOM     48  N   UNL A   1      42.318  31.199  29.340  1.00  0.00    -0.354 N 
ATOM     49  N   UNL A   1      44.728  30.161  28.020  1.00  0.00    -0.248 NA
ATOM     50  C   UNL A   1      46.859  30.500  27.128  1.00  0.00     0.031 C 
ATOM     51  C   UNL A   1      42.285  33.339  29.937  1.00  0.00     0.029 A 
ATOM     52  C   UNL A   1      43.062  32.366  29.330  1.00  0.00     0.049 A 
ATOM     53  H   UNL A   1      42.610  30.339  28.961  1.00  0.00     0.167 HD
ATOM     54  C   UNL A   1      45.094  31.485  28.211  1.00  0.00     0.074 A 
ATOM     55  C   UNL A   1      46.425  31.636  27.658  1.00  0.00     0.031 C 
ATOM     56  C   UNL A   1      44.387  32.490  28.782  1.00  0.00     0.037 A 
BRANCH  43  57
ATOM     57  C   UNL A   1      38.824  30.803  30.857  1.00  0.00     0.064 A 
ATOM     58  C   UNL A   1      38.703  30.822  32.253  1.00  0.00     0.173 A 
ATOM     59  C   UNL A   1      37.713  31.198  30.094  1.00  0.00     0.173 A 
ATOM     60  F   UNL A   1      39.731  30.438  33.024  1.00  0.00    -0.203 F 
ATOM     61  C   UNL A   1      37.508  31.204  32.860  1.00  0.00     0.198 A 
ATOM     62  C   UNL A   1      36.529  31.599  30.705  1.00  0.00     0.198 A 
ATOM     63  F   UNL A   1      37.781  31.199  28.754  1.00  0.00    -0.203 F 
ATOM     64  F   UNL A   1      37.401  31.179  34.196  1.00  0.00    -0.200 F 
ATOM     65  C   UNL A   1      36.426  31.597  32.087  1.00  0.00     0.200 A 
ATOM     66  F   UNL A   1      35.488  31.986  29.955  1.00  0.00    -0.200 F 
ATOM     67  F   UNL A   1      35.279  31.968  32.674  1.00  0.00    -0.200 F 
ENDBRANCH  43  57
BRANCH  44  68
ATOM     68  C   UNL A   1      47.087  27.731  26.196  1.00  0.00     0.064 A 
ATOM     69  C   UNL A   1      48.205  27.251  26.890  1.00  0.00     0.173 A 
ATOM     70  C   UNL A   1      47.139  27.740  24.794  1.00  0.00     0.173 A 
ATOM     71  F   UNL A   1      48.209  27.248  28.231  1.00  0.00    -0.203 F 
ATOM     72  C   UNL A   1      49.330  26.793  26.209  1.00  0.00     0.198 A 
ATOM     73  C   UNL A   1      48.255  27.258  24.114  1.00  0.00     0.198 A 
ATOM     74  F   UNL A   1      46.093  28.190  24.085  1.00  0.00    -0.203 F 
ATOM     75  F   UNL A   1      50.397  26.360  26.895  1.00  0.00    -0.200 F 
ATOM     76  C   UNL A   1      49.350  26.788  24.822  1.00  0.00     0.200 A 
ATOM     77  F   UNL A   1      48.264  27.241  22.773  1.00  0.00    -0.200 F 
ATOM     78  F   UNL A   1      50.426  26.330  24.167  1.00  0.00    -0.200 F 
ENDBRANCH  44  68
BRANCH  56  79
ATOM     79  C   UNL A   1      45.049  33.830  28.862  1.00  0.00     0.064 A 
ATOM     80  C   UNL A   1      45.820  34.196  29.974  1.00  0.00     0.173 A 
ATOM     81  C   UNL A   1      44.946  34.737  27.798  1.00  0.00     0.173 A 
ATOM     82  F   UNL A   1      45.933  33.365  31.021  1.00  0.00    -0.203 F 
ATOM     83  C   UNL A   1      46.457  35.432  30.022  1.00  0.00     0.198 A 
ATOM     84  C   UNL A   1      45.597  35.966  27.842  1.00  0.00     0.198 A 
ATOM     85  F   UNL A   1      44.220  34.427  26.714  1.00  0.00    -0.203 F 
ATOM     86  F   UNL A   1      47.167  35.777  31.105  1.00  0.00    -0.200 F 
ATOM     87  C   UNL A   1      46.350  36.313  28.956  1.00  0.00     0.200 A 
ATOM     88  F   UNL A   1      45.497  36.814  26.810  1.00  0.00    -0.200 F 
ATOM     89  F   UNL A   1      46.967  37.503  29.002  1.00  0.00    -0.200 F 
ENDBRANCH  56  79
ENDBRANCH  30  31
ENDBRANCH  23  25
ENDBRANCH  22  23
ENDBRANCH  21  22
ENDBRANCH   1  21
TORSDOF 14
ENDMDL
