MODEL 1
REMARK VINA RESULT:     -11.1      0.000      0.000
REMARK SMILES CCN(CC(C)(C)O)C(=O)N[C@@H](C(=O)OCCOC(=O)c1ccc(-c2c3nc(c(-c4c(F)c(F)c(F)c(F)c4F)c4ccc([nH]4)c(-c4c(F)c(F)c(F)c(F)c4F)c4nc(c(-c5c(F)c(F)c(F)c(F)c5F)c5ccc2[nH]5)C=C4)C=C3)cc1)C(C)(C)C
REMARK SMILES IDX 15 1 13 2 14 3 12 4 11 5 9 6 10 7 3 9 2 10 1 11 4 12 5 13
REMARK SMILES IDX 6 14 7 15 8 16 84 18 85 19 86 20 87 21 16 22 17 23 18 24
REMARK SMILES IDX 19 25 20 26 21 27 22 28 83 29 23 30 82 31 24 32 25 33 26 34
REMARK SMILES IDX 76 35 27 36 81 37 75 38 77 39 28 40 80 41 74 42 73 43 29 45
REMARK SMILES IDX 61 46 41 47 60 48 42 49 45 50 59 51 78 52 43 53 44 54 58 56
REMARK SMILES IDX 79 57 46 58 30 59 31 60 39 61 32 62 33 63 37 64 40 65 34 66
REMARK SMILES IDX 35 67 38 68 36 69 62 70 63 71 71 72 64 73 65 74 69 75 72 76
REMARK SMILES IDX 66 77 67 78 70 79 68 80 47 81 48 82 56 83 49 84 50 85 54 86
REMARK SMILES IDX 57 87 51 88 52 89 55 90 53 91
REMARK H PARENT 11 8 8 17 77 44 45 55
REMARK Flexibility Score: inf
ROOT
ATOM      1  O   UNL A   1      31.434  27.063  26.871  1.00  0.00    -0.461 OA
ENDROOT
BRANCH   1   2
ATOM      2  C   UNL A   1      32.405  26.439  26.141  1.00  0.00     0.329 C 
ATOM      3  O   UNL A   1      33.597  26.720  26.191  1.00  0.00    -0.250 OA
BRANCH   2   4
ATOM      4  C   UNL A   1      31.829  25.417  25.130  1.00  0.00     0.199 C 
BRANCH   4   5
ATOM      5  N   UNL A   1      30.437  25.733  24.811  1.00  0.00    -0.324 N 
ATOM      6  C   UNL A   1      29.765  26.645  24.097  1.00  0.00     0.318 C 
ATOM      7  O   UNL A   1      28.540  26.479  24.094  1.00  0.00    -0.249 OA
ATOM      8  H   UNL A   1      29.821  25.096  25.241  1.00  0.00     0.166 HD
BRANCH   6   9
ATOM      9  N   UNL A   1      30.351  27.670  23.404  1.00  0.00    -0.322 N 
BRANCH   9  10
ATOM     10  C   UNL A   1      31.090  27.277  22.198  1.00  0.00     0.118 C 
ATOM     11  C   UNL A   1      32.588  27.493  22.380  1.00  0.00     0.027 C 
ENDBRANCH   9  10
BRANCH   9  12
ATOM     12  C   UNL A   1      30.412  29.105  23.718  1.00  0.00     0.155 C 
BRANCH  12  13
ATOM     13  C   UNL A   1      29.444  30.011  22.899  1.00  0.00     0.077 C 
ATOM     14  C   UNL A   1      28.157  29.361  22.390  1.00  0.00     0.043 C 
ATOM     15  C   UNL A   1      29.077  31.242  23.736  1.00  0.00     0.043 C 
BRANCH  13  16
ATOM     16  O   UNL A   1      30.147  30.487  21.741  1.00  0.00    -0.389 OA
ATOM     17  H   UNL A   1      30.818  31.132  22.011  1.00  0.00     0.211 HD
ENDBRANCH  13  16
ENDBRANCH  12  13
ENDBRANCH   9  12
ENDBRANCH   6   9
ENDBRANCH   4   5
BRANCH   4  18
ATOM     18  C   UNL A   1      32.004  23.909  25.501  1.00  0.00    -0.007 C 
ATOM     19  C   UNL A   1      33.501  23.513  25.482  1.00  0.00     0.013 C 
ATOM     20  C   UNL A   1      31.509  23.648  26.937  1.00  0.00     0.013 C 
ATOM     21  C   UNL A   1      31.272  22.992  24.507  1.00  0.00     0.013 C 
ENDBRANCH   4  18
ENDBRANCH   2   4
ENDBRANCH   1   2
BRANCH   1  22
ATOM     22  C   UNL A   1      31.863  28.200  27.652  1.00  0.00     0.274 C 
BRANCH  22  23
ATOM     23  C   UNL A   1      31.648  29.509  26.899  1.00  0.00     0.275 C 
BRANCH  23  24
ATOM     24  O   UNL A   1      32.926  30.003  26.475  1.00  0.00    -0.458 OA
BRANCH  24  25
ATOM     25  C   UNL A   1      33.401  31.079  27.141  1.00  0.00     0.338 C 
ATOM     26  O   UNL A   1      32.771  32.072  27.464  1.00  0.00    -0.246 OA
BRANCH  25  27
ATOM     27  C   UNL A   1      34.811  30.839  27.540  1.00  0.00     0.060 A 
ATOM     28  C   UNL A   1      35.292  29.541  27.709  1.00  0.00     0.016 A 
ATOM     29  C   UNL A   1      35.621  31.915  27.904  1.00  0.00     0.016 A 
ATOM     30  C   UNL A   1      36.489  29.312  28.383  1.00  0.00     0.010 A 
ATOM     31  C   UNL A   1      36.878  31.680  28.474  1.00  0.00     0.010 A 
ATOM     32  C   UNL A   1      37.302  30.373  28.784  1.00  0.00    -0.014 A 
BRANCH  32  33
ATOM     33  C   UNL A   1      38.508  30.142  29.633  1.00  0.00     0.031 A 
ATOM     34  C   UNL A   1      39.654  29.340  29.070  1.00  0.00     0.074 A 
ATOM     35  C   UNL A   1      38.643  30.663  30.869  1.00  0.00     0.049 A 
ATOM     36  N   UNL A   1      40.610  28.704  29.694  1.00  0.00    -0.248 NA
ATOM     37  C   UNL A   1      39.712  29.220  27.603  1.00  0.00     0.031 C 
ATOM     38  C   UNL A   1      37.700  31.562  31.533  1.00  0.00     0.029 A 
ATOM     39  N   UNL A   1      39.654  30.515  31.790  1.00  0.00    -0.354 N 
ATOM     40  C   UNL A   1      41.301  28.007  28.711  1.00  0.00     0.074 A 
ATOM     41  C   UNL A   1      40.689  28.338  27.443  1.00  0.00     0.031 C 
ATOM     42  C   UNL A   1      38.202  31.934  32.721  1.00  0.00     0.029 A 
ATOM     43  C   UNL A   1      39.436  31.195  32.963  1.00  0.00     0.049 A 
ATOM     44  H   UNL A   1      40.460  29.973  31.624  1.00  0.00     0.167 HD
ATOM     45  C   UNL A   1      42.336  27.147  28.868  1.00  0.00     0.037 A 
ATOM     46  C   UNL A   1      40.109  31.173  34.130  1.00  0.00     0.037 A 
ATOM     47  C   UNL A   1      43.011  26.922  30.119  1.00  0.00     0.049 A 
ATOM     48  C   UNL A   1      41.274  30.235  34.285  1.00  0.00     0.074 A 
ATOM     49  C   UNL A   1      44.050  26.055  30.402  1.00  0.00     0.029 A 
ATOM     50  N   UNL A   1      42.741  27.618  31.287  1.00  0.00    -0.354 N 
ATOM     51  N   UNL A   1      41.800  29.417  33.407  1.00  0.00    -0.248 NA
ATOM     52  C   UNL A   1      41.906  30.183  35.611  1.00  0.00     0.031 C 
ATOM     53  C   UNL A   1      44.407  26.223  31.746  1.00  0.00     0.029 A 
ATOM     54  C   UNL A   1      43.608  27.216  32.288  1.00  0.00     0.049 A 
ATOM     55  H   UNL A   1      42.037  28.299  31.389  1.00  0.00     0.167 HD
ATOM     56  C   UNL A   1      42.816  28.746  34.074  1.00  0.00     0.074 A 
ATOM     57  C   UNL A   1      42.856  29.277  35.421  1.00  0.00     0.031 C 
ATOM     58  C   UNL A   1      43.631  27.763  33.619  1.00  0.00     0.037 A 
BRANCH  45  59
ATOM     59  C   UNL A   1      42.756  26.341  27.676  1.00  0.00     0.064 A 
ATOM     60  C   UNL A   1      43.773  26.756  26.807  1.00  0.00     0.173 A 
ATOM     61  C   UNL A   1      42.135  25.107  27.422  1.00  0.00     0.173 A 
ATOM     62  F   UNL A   1      44.381  27.936  26.996  1.00  0.00    -0.203 F 
ATOM     63  C   UNL A   1      44.137  25.975  25.711  1.00  0.00     0.198 A 
ATOM     64  C   UNL A   1      42.520  24.318  26.342  1.00  0.00     0.198 A 
ATOM     65  F   UNL A   1      41.156  24.664  28.226  1.00  0.00    -0.203 F 
ATOM     66  F   UNL A   1      45.082  26.411  24.866  1.00  0.00    -0.200 F 
ATOM     67  C   UNL A   1      43.517  24.755  25.484  1.00  0.00     0.200 A 
ATOM     68  F   UNL A   1      41.926  23.136  26.132  1.00  0.00    -0.200 F 
ATOM     69  F   UNL A   1      43.875  24.003  24.434  1.00  0.00    -0.200 F 
ENDBRANCH  45  59
BRANCH  46  70
ATOM     70  C   UNL A   1      39.647  32.009  35.268  1.00  0.00     0.064 A 
ATOM     71  C   UNL A   1      40.131  33.312  35.448  1.00  0.00     0.173 A 
ATOM     72  C   UNL A   1      38.710  31.528  36.195  1.00  0.00     0.173 A 
ATOM     73  F   UNL A   1      41.052  33.805  34.608  1.00  0.00    -0.203 F 
ATOM     74  C   UNL A   1      39.695  34.101  36.510  1.00  0.00     0.198 A 
ATOM     75  C   UNL A   1      38.251  32.328  37.238  1.00  0.00     0.198 A 
ATOM     76  F   UNL A   1      38.220  30.285  36.072  1.00  0.00    -0.203 F 
ATOM     77  F   UNL A   1      40.199  35.330  36.680  1.00  0.00    -0.200 F 
ATOM     78  C   UNL A   1      38.747  33.612  37.398  1.00  0.00     0.200 A 
ATOM     79  F   UNL A   1      37.324  31.857  38.083  1.00  0.00    -0.200 F 
ATOM     80  F   UNL A   1      38.317  34.377  38.411  1.00  0.00    -0.200 F 
ENDBRANCH  46  70
BRANCH  58  81
ATOM     81  C   UNL A   1      44.643  27.221  34.579  1.00  0.00     0.064 A 
ATOM     82  C   UNL A   1      44.363  26.103  35.379  1.00  0.00     0.173 A 
ATOM     83  C   UNL A   1      45.912  27.808  34.682  1.00  0.00     0.173 A 
ATOM     84  F   UNL A   1      43.156  25.520  35.325  1.00  0.00    -0.203 F 
ATOM     85  C   UNL A   1      45.314  25.604  36.265  1.00  0.00     0.198 A 
ATOM     86  C   UNL A   1      46.867  27.295  35.555  1.00  0.00     0.198 A 
ATOM     87  F   UNL A   1      46.224  28.877  33.935  1.00  0.00    -0.203 F 
ATOM     88  F   UNL A   1      45.014  24.560  37.048  1.00  0.00    -0.200 F 
ATOM     89  C   UNL A   1      46.565  26.198  36.349  1.00  0.00     0.200 A 
ATOM     90  F   UNL A   1      48.076  27.865  35.632  1.00  0.00    -0.200 F 
ATOM     91  F   UNL A   1      47.479  25.717  37.203  1.00  0.00    -0.200 F 
ENDBRANCH  58  81
ENDBRANCH  32  33
ENDBRANCH  25  27
ENDBRANCH  24  25
ENDBRANCH  23  24
ENDBRANCH  22  23
ENDBRANCH   1  22
TORSDOF 18
ENDMDL
MODEL 2
REMARK VINA RESULT:     -10.9      1.208      3.232
REMARK SMILES CCN(CC(C)(C)O)C(=O)N[C@@H](C(=O)OCCOC(=O)c1ccc(-c2c3nc(c(-c4c(F)c(F)c(F)c(F)c4F)c4ccc([nH]4)c(-c4c(F)c(F)c(F)c(F)c4F)c4nc(c(-c5c(F)c(F)c(F)c(F)c5F)c5ccc2[nH]5)C=C4)C=C3)cc1)C(C)(C)C
REMARK SMILES IDX 15 1 13 2 14 3 12 4 11 5 9 6 10 7 3 9 2 10 1 11 4 12 5 13
REMARK SMILES IDX 6 14 7 15 8 16 84 18 85 19 86 20 87 21 16 22 17 23 18 24
REMARK SMILES IDX 19 25 20 26 21 27 22 28 83 29 23 30 82 31 24 32 25 33 26 34
REMARK SMILES IDX 76 35 27 36 81 37 75 38 77 39 28 40 80 41 74 42 73 43 29 45
REMARK SMILES IDX 61 46 41 47 60 48 42 49 45 50 59 51 78 52 43 53 44 54 58 56
REMARK SMILES IDX 79 57 46 58 30 59 31 60 39 61 32 62 33 63 37 64 40 65 34 66
REMARK SMILES IDX 35 67 38 68 36 69 62 70 63 71 71 72 64 73 65 74 69 75 72 76
REMARK SMILES IDX 66 77 67 78 70 79 68 80 47 81 48 82 56 83 49 84 50 85 54 86
REMARK SMILES IDX 57 87 51 88 52 89 55 90 53 91
REMARK H PARENT 11 8 8 17 77 44 45 55
REMARK Flexibility Score: inf
ROOT
ATOM      1  O   UNL A   1      32.404  28.038  25.471  1.00  0.00    -0.461 OA
ENDROOT
BRANCH   1   2
ATOM      2  C   UNL A   1      31.560  27.060  25.912  1.00  0.00     0.329 C 
ATOM      3  O   UNL A   1      30.921  27.116  26.956  1.00  0.00    -0.250 OA
BRANCH   2   4
ATOM      4  C   UNL A   1      31.592  25.794  25.021  1.00  0.00     0.199 C 
BRANCH   4   5
ATOM      5  N   UNL A   1      32.971  25.397  24.734  1.00  0.00    -0.324 N 
ATOM      6  C   UNL A   1      33.779  24.362  24.994  1.00  0.00     0.318 C 
ATOM      7  O   UNL A   1      34.902  24.461  24.488  1.00  0.00    -0.249 OA
ATOM      8  H   UNL A   1      33.433  26.083  24.200  1.00  0.00     0.166 HD
BRANCH   6   9
ATOM      9  N   UNL A   1      33.420  23.267  25.734  1.00  0.00    -0.322 N 
BRANCH   9  10
ATOM     10  C   UNL A   1      34.108  23.123  27.024  1.00  0.00     0.118 C 
ATOM     11  C   UNL A   1      33.361  22.158  27.936  1.00  0.00     0.027 C 
ENDBRANCH   9  10
BRANCH   9  12
ATOM     12  C   UNL A   1      32.497  22.171  25.407  1.00  0.00     0.155 C 
BRANCH  12  13
ATOM     13  C   UNL A   1      33.042  21.116  24.397  1.00  0.00     0.077 C 
ATOM     14  C   UNL A   1      32.945  19.648  24.814  1.00  0.00     0.043 C 
ATOM     15  C   UNL A   1      32.332  21.295  23.050  1.00  0.00     0.043 C 
BRANCH  13  16
ATOM     16  O   UNL A   1      34.435  21.386  24.174  1.00  0.00    -0.389 OA
ATOM     17  H   UNL A   1      34.967  20.656  24.527  1.00  0.00     0.211 HD
ENDBRANCH  13  16
ENDBRANCH  12  13
ENDBRANCH   9  12
ENDBRANCH   6   9
ENDBRANCH   4   5
BRANCH   4  18
ATOM     18  C   UNL A   1      30.729  25.848  23.718  1.00  0.00    -0.007 C 
ATOM     19  C   UNL A   1      30.314  24.423  23.279  1.00  0.00     0.013 C 
ATOM     20  C   UNL A   1      29.418  26.617  23.975  1.00  0.00     0.013 C 
ATOM     21  C   UNL A   1      31.503  26.484  22.551  1.00  0.00     0.013 C 
ENDBRANCH   4  18
ENDBRANCH   2   4
ENDBRANCH   1   2
BRANCH   1  22
ATOM     22  C   UNL A   1      31.775  29.195  24.877  1.00  0.00     0.274 C 
BRANCH  22  23
ATOM     23  C   UNL A   1      31.598  30.319  25.892  1.00  0.00     0.275 C 
BRANCH  23  24
ATOM     24  O   UNL A   1      32.624  30.196  26.886  1.00  0.00    -0.458 OA
BRANCH  24  25
ATOM     25  C   UNL A   1      33.250  31.341  27.243  1.00  0.00     0.338 C 
ATOM     26  O   UNL A   1      32.748  32.448  27.333  1.00  0.00    -0.246 OA
BRANCH  25  27
ATOM     27  C   UNL A   1      34.653  31.043  27.632  1.00  0.00     0.060 A 
ATOM     28  C   UNL A   1      35.061  29.734  27.880  1.00  0.00     0.016 A 
ATOM     29  C   UNL A   1      35.531  32.091  27.906  1.00  0.00     0.016 A 
ATOM     30  C   UNL A   1      36.257  29.480  28.546  1.00  0.00     0.010 A 
ATOM     31  C   UNL A   1      36.785  31.820  28.469  1.00  0.00     0.010 A 
ATOM     32  C   UNL A   1      37.138  30.515  28.859  1.00  0.00    -0.014 A 
BRANCH  32  33
ATOM     33  C   UNL A   1      38.348  30.269  29.700  1.00  0.00     0.031 A 
ATOM     34  C   UNL A   1      39.488  29.470  29.123  1.00  0.00     0.074 A 
ATOM     35  C   UNL A   1      38.490  30.776  30.942  1.00  0.00     0.049 A 
ATOM     36  N   UNL A   1      40.445  28.823  29.735  1.00  0.00    -0.248 NA
ATOM     37  C   UNL A   1      39.540  29.367  27.655  1.00  0.00     0.031 C 
ATOM     38  C   UNL A   1      37.553  31.670  31.620  1.00  0.00     0.029 A 
ATOM     39  N   UNL A   1      39.504  30.613  31.856  1.00  0.00    -0.354 N 
ATOM     40  C   UNL A   1      41.130  28.136  28.741  1.00  0.00     0.074 A 
ATOM     41  C   UNL A   1      40.513  28.483  27.480  1.00  0.00     0.031 C 
ATOM     42  C   UNL A   1      38.061  32.025  32.810  1.00  0.00     0.029 A 
ATOM     43  C   UNL A   1      39.293  31.279  33.038  1.00  0.00     0.049 A 
ATOM     44  H   UNL A   1      40.307  30.070  31.680  1.00  0.00     0.167 HD
ATOM     45  C   UNL A   1      42.161  27.270  28.884  1.00  0.00     0.037 A 
ATOM     46  C   UNL A   1      39.972  31.242  34.202  1.00  0.00     0.037 A 
ATOM     47  C   UNL A   1      42.841  27.028  30.128  1.00  0.00     0.049 A 
ATOM     48  C   UNL A   1      41.133  30.298  34.341  1.00  0.00     0.074 A 
ATOM     49  C   UNL A   1      43.879  26.154  30.397  1.00  0.00     0.029 A 
ATOM     50  N   UNL A   1      42.579  27.712  31.306  1.00  0.00    -0.354 N 
ATOM     51  N   UNL A   1      41.653  29.488  33.451  1.00  0.00    -0.248 NA
ATOM     52  C   UNL A   1      41.771  30.228  35.663  1.00  0.00     0.031 C 
ATOM     53  C   UNL A   1      44.242  26.305  31.741  1.00  0.00     0.029 A 
ATOM     54  C   UNL A   1      43.448  27.294  32.299  1.00  0.00     0.049 A 
ATOM     55  H   UNL A   1      41.877  28.394  31.420  1.00  0.00     0.167 HD
ATOM     56  C   UNL A   1      42.670  28.806  34.105  1.00  0.00     0.074 A 
ATOM     57  C   UNL A   1      42.717  29.321  35.459  1.00  0.00     0.031 C 
ATOM     58  C   UNL A   1      43.480  27.826  33.635  1.00  0.00     0.037 A 
BRANCH  45  59
ATOM     59  C   UNL A   1      42.574  26.477  27.681  1.00  0.00     0.064 A 
ATOM     60  C   UNL A   1      43.590  26.897  26.813  1.00  0.00     0.173 A 
ATOM     61  C   UNL A   1      41.945  25.250  27.412  1.00  0.00     0.173 A 
ATOM     62  F   UNL A   1      44.207  28.071  27.016  1.00  0.00    -0.203 F 
ATOM     63  C   UNL A   1      43.948  26.128  25.707  1.00  0.00     0.198 A 
ATOM     64  C   UNL A   1      42.323  24.472  26.322  1.00  0.00     0.198 A 
ATOM     65  F   UNL A   1      40.966  24.802  28.213  1.00  0.00    -0.203 F 
ATOM     66  F   UNL A   1      44.893  26.568  24.865  1.00  0.00    -0.200 F 
ATOM     67  C   UNL A   1      43.320  24.914  25.467  1.00  0.00     0.200 A 
ATOM     68  F   UNL A   1      41.720  23.296  26.098  1.00  0.00    -0.200 F 
ATOM     69  F   UNL A   1      43.671  24.174  24.406  1.00  0.00    -0.200 F 
ENDBRANCH  45  59
BRANCH  46  70
ATOM     70  C   UNL A   1      39.518  32.065  35.352  1.00  0.00     0.064 A 
ATOM     71  C   UNL A   1      38.651  31.537  36.318  1.00  0.00     0.173 A 
ATOM     72  C   UNL A   1      39.944  33.393  35.515  1.00  0.00     0.173 A 
ATOM     73  F   UNL A   1      38.190  30.284  36.189  1.00  0.00    -0.203 F 
ATOM     74  C   UNL A   1      38.228  32.303  37.402  1.00  0.00     0.198 A 
ATOM     75  C   UNL A   1      39.546  34.147  36.616  1.00  0.00     0.198 A 
ATOM     76  F   UNL A   1      40.769  33.948  34.615  1.00  0.00    -0.203 F 
ATOM     77  F   UNL A   1      37.372  31.785  38.292  1.00  0.00    -0.200 F 
ATOM     78  C   UNL A   1      38.685  33.604  37.556  1.00  0.00     0.200 A 
ATOM     79  F   UNL A   1      40.002  35.398  36.767  1.00  0.00    -0.200 F 
ATOM     80  F   UNL A   1      38.290  34.336  38.607  1.00  0.00    -0.200 F 
ENDBRANCH  46  70
BRANCH  58  81
ATOM     81  C   UNL A   1      44.493  27.268  34.585  1.00  0.00     0.064 A 
ATOM     82  C   UNL A   1      44.210  26.147  35.379  1.00  0.00     0.173 A 
ATOM     83  C   UNL A   1      45.767  27.845  34.684  1.00  0.00     0.173 A 
ATOM     84  F   UNL A   1      42.998  25.574  35.328  1.00  0.00    -0.203 F 
ATOM     85  C   UNL A   1      45.163  25.634  36.254  1.00  0.00     0.198 A 
ATOM     86  C   UNL A   1      46.724  27.319  35.546  1.00  0.00     0.198 A 
ATOM     87  F   UNL A   1      46.083  28.918  33.942  1.00  0.00    -0.203 F 
ATOM     88  F   UNL A   1      44.860  24.586  37.032  1.00  0.00    -0.200 F 
ATOM     89  C   UNL A   1      46.419  26.218  36.335  1.00  0.00     0.200 A 
ATOM     90  F   UNL A   1      47.938  27.879  35.620  1.00  0.00    -0.200 F 
ATOM     91  F   UNL A   1      47.335  25.724  37.179  1.00  0.00    -0.200 F 
ENDBRANCH  58  81
ENDBRANCH  32  33
ENDBRANCH  25  27
ENDBRANCH  24  25
ENDBRANCH  23  24
ENDBRANCH  22  23
ENDBRANCH   1  22
TORSDOF 18
ENDMDL
MODEL 3
REMARK VINA RESULT:     -10.8      1.251      3.278
REMARK SMILES CCN(CC(C)(C)O)C(=O)N[C@@H](C(=O)OCCOC(=O)c1ccc(-c2c3nc(c(-c4c(F)c(F)c(F)c(F)c4F)c4ccc([nH]4)c(-c4c(F)c(F)c(F)c(F)c4F)c4nc(c(-c5c(F)c(F)c(F)c(F)c5F)c5ccc2[nH]5)C=C4)C=C3)cc1)C(C)(C)C
REMARK SMILES IDX 15 1 13 2 14 3 12 4 11 5 9 6 10 7 3 9 2 10 1 11 4 12 5 13
REMARK SMILES IDX 6 14 7 15 8 16 84 18 85 19 86 20 87 21 16 22 17 23 18 24
REMARK SMILES IDX 19 25 20 26 21 27 22 28 83 29 23 30 82 31 24 32 25 33 26 34
REMARK SMILES IDX 76 35 27 36 81 37 75 38 77 39 28 40 80 41 74 42 73 43 29 45
REMARK SMILES IDX 61 46 41 47 60 48 42 49 45 50 59 51 78 52 43 53 44 54 58 56
REMARK SMILES IDX 79 57 46 58 30 59 31 60 39 61 32 62 33 63 37 64 40 65 34 66
REMARK SMILES IDX 35 67 38 68 36 69 62 70 63 71 71 72 64 73 65 74 69 75 72 76
REMARK SMILES IDX 66 77 67 78 70 79 68 80 47 81 48 82 56 83 49 84 50 85 54 86
REMARK SMILES IDX 57 87 51 88 52 89 55 90 53 91
REMARK H PARENT 11 8 8 17 77 44 45 55
REMARK Flexibility Score: inf
ROOT
ATOM      1  O   UNL A   1      32.598  27.471  26.621  1.00  0.00    -0.461 OA
ENDROOT
BRANCH   1   2
ATOM      2  C   UNL A   1      31.896  26.536  25.916  1.00  0.00     0.329 C 
ATOM      3  O   UNL A   1      30.877  25.988  26.319  1.00  0.00    -0.250 OA
BRANCH   2   4
ATOM      4  C   UNL A   1      32.596  26.132  24.595  1.00  0.00     0.199 C 
BRANCH   4   5
ATOM      5  N   UNL A   1      33.931  25.597  24.859  1.00  0.00    -0.324 N 
ATOM      6  C   UNL A   1      34.481  24.421  25.186  1.00  0.00     0.318 C 
ATOM      7  O   UNL A   1      35.714  24.448  25.270  1.00  0.00    -0.249 OA
ATOM      8  H   UNL A   1      34.617  26.297  24.771  1.00  0.00     0.166 HD
BRANCH   6   9
ATOM      9  N   UNL A   1      33.773  23.268  25.397  1.00  0.00    -0.322 N 
BRANCH   9  10
ATOM     10  C   UNL A   1      33.182  23.125  26.734  1.00  0.00     0.118 C 
ATOM     11  C   UNL A   1      33.684  21.860  27.420  1.00  0.00     0.027 C 
ENDBRANCH   9  10
BRANCH   9  12
ATOM     12  C   UNL A   1      33.568  22.114  24.510  1.00  0.00     0.155 C 
BRANCH  12  13
ATOM     13  C   UNL A   1      32.568  22.342  23.336  1.00  0.00     0.077 C 
ATOM     14  C   UNL A   1      31.289  23.114  23.660  1.00  0.00     0.043 C 
ATOM     15  C   UNL A   1      33.295  23.050  22.186  1.00  0.00     0.043 C 
BRANCH  13  16
ATOM     16  O   UNL A   1      32.156  21.058  22.842  1.00  0.00    -0.389 OA
ATOM     17  H   UNL A   1      31.498  21.177  22.139  1.00  0.00     0.211 HD
ENDBRANCH  13  16
ENDBRANCH  12  13
ENDBRANCH   9  12
ENDBRANCH   6   9
ENDBRANCH   4   5
BRANCH   4  18
ATOM     18  C   UNL A   1      32.626  27.219  23.472  1.00  0.00    -0.007 C 
ATOM     19  C   UNL A   1      31.326  28.061  23.492  1.00  0.00     0.013 C 
ATOM     20  C   UNL A   1      33.782  28.210  23.714  1.00  0.00     0.013 C 
ATOM     21  C   UNL A   1      32.745  26.589  22.075  1.00  0.00     0.013 C 
ENDBRANCH   4  18
ENDBRANCH   2   4
ENDBRANCH   1   2
BRANCH   1  22
ATOM     22  C   UNL A   1      31.822  28.320  27.494  1.00  0.00     0.274 C 
BRANCH  22  23
ATOM     23  C   UNL A   1      31.697  29.733  26.935  1.00  0.00     0.275 C 
BRANCH  23  24
ATOM     24  O   UNL A   1      33.004  30.187  26.557  1.00  0.00    -0.458 OA
BRANCH  24  25
ATOM     25  C   UNL A   1      33.497  31.235  27.256  1.00  0.00     0.338 C 
ATOM     26  O   UNL A   1      32.888  32.232  27.601  1.00  0.00    -0.246 OA
BRANCH  25  27
ATOM     27  C   UNL A   1      34.898  30.951  27.661  1.00  0.00     0.060 A 
ATOM     28  C   UNL A   1      35.326  29.641  27.874  1.00  0.00     0.016 A 
ATOM     29  C   UNL A   1      35.752  32.005  27.983  1.00  0.00     0.016 A 
ATOM     30  C   UNL A   1      36.516  29.388  28.553  1.00  0.00     0.010 A 
ATOM     31  C   UNL A   1      37.001  31.739  28.559  1.00  0.00     0.010 A 
ATOM     32  C   UNL A   1      37.372  30.429  28.914  1.00  0.00    -0.014 A 
BRANCH  32  33
ATOM     33  C   UNL A   1      38.571  30.178  29.768  1.00  0.00     0.031 A 
ATOM     34  C   UNL A   1      39.712  29.370  29.205  1.00  0.00     0.074 A 
ATOM     35  C   UNL A   1      38.704  30.688  31.009  1.00  0.00     0.049 A 
ATOM     36  N   UNL A   1      40.659  28.720  29.829  1.00  0.00    -0.248 NA
ATOM     37  C   UNL A   1      39.778  29.262  27.738  1.00  0.00     0.031 C 
ATOM     38  C   UNL A   1      37.766  31.591  31.675  1.00  0.00     0.029 A 
ATOM     39  N   UNL A   1      39.709  30.523  31.934  1.00  0.00    -0.354 N 
ATOM     40  C   UNL A   1      41.349  28.025  28.844  1.00  0.00     0.074 A 
ATOM     41  C   UNL A   1      40.747  28.372  27.576  1.00  0.00     0.031 C 
ATOM     42  C   UNL A   1      38.265  31.947  32.869  1.00  0.00     0.029 A 
ATOM     43  C   UNL A   1      39.490  31.194  33.112  1.00  0.00     0.049 A 
ATOM     44  H   UNL A   1      40.510  29.974  31.768  1.00  0.00     0.167 HD
ATOM     45  C   UNL A   1      42.374  27.153  29.000  1.00  0.00     0.037 A 
ATOM     46  C   UNL A   1      40.156  31.157  34.282  1.00  0.00     0.037 A 
ATOM     47  C   UNL A   1      43.040  26.911  30.252  1.00  0.00     0.049 A 
ATOM     48  C   UNL A   1      41.311  30.206  34.436  1.00  0.00     0.074 A 
ATOM     49  C   UNL A   1      44.069  26.032  30.535  1.00  0.00     0.029 A 
ATOM     50  N   UNL A   1      42.770  27.601  31.425  1.00  0.00    -0.354 N 
ATOM     51  N   UNL A   1      41.835  29.390  33.555  1.00  0.00    -0.248 NA
ATOM     52  C   UNL A   1      41.935  30.137  35.765  1.00  0.00     0.031 C 
ATOM     53  C   UNL A   1      44.420  26.185  31.882  1.00  0.00     0.029 A 
ATOM     54  C   UNL A   1      43.627  27.181  32.428  1.00  0.00     0.049 A 
ATOM     55  H   UNL A   1      42.072  28.287  31.529  1.00  0.00     0.167 HD
ATOM     56  C   UNL A   1      42.840  28.704  34.221  1.00  0.00     0.074 A 
ATOM     57  C   UNL A   1      42.877  29.223  35.573  1.00  0.00     0.031 C 
ATOM     58  C   UNL A   1      43.648  27.717  33.763  1.00  0.00     0.037 A 
BRANCH  45  59
ATOM     59  C   UNL A   1      42.794  26.353  27.804  1.00  0.00     0.064 A 
ATOM     60  C   UNL A   1      42.214  25.119  27.482  1.00  0.00     0.173 A 
ATOM     61  C   UNL A   1      43.786  26.857  26.948  1.00  0.00     0.173 A 
ATOM     62  F   UNL A   1      41.277  24.586  28.280  1.00  0.00    -0.203 F 
ATOM     63  C   UNL A   1      42.629  24.407  26.358  1.00  0.00     0.198 A 
ATOM     64  C   UNL A   1      44.179  26.156  25.812  1.00  0.00     0.198 A 
ATOM     65  F   UNL A   1      44.372  28.035  27.211  1.00  0.00    -0.203 F 
ATOM     66  F   UNL A   1      42.093  23.208  26.092  1.00  0.00    -0.200 F 
ATOM     67  C   UNL A   1      43.604  24.929  25.521  1.00  0.00     0.200 A 
ATOM     68  F   UNL A   1      45.115  26.667  25.000  1.00  0.00    -0.200 F 
ATOM     69  F   UNL A   1      43.996  24.245  24.437  1.00  0.00    -0.200 F 
ENDBRANCH  45  59
BRANCH  46  70
ATOM     70  C   UNL A   1      39.696  31.987  35.425  1.00  0.00     0.064 A 
ATOM     71  C   UNL A   1      40.235  33.261  35.653  1.00  0.00     0.173 A 
ATOM     72  C   UNL A   1      38.705  31.531  36.308  1.00  0.00     0.173 A 
ATOM     73  F   UNL A   1      41.207  33.727  34.857  1.00  0.00    -0.203 F 
ATOM     74  C   UNL A   1      39.801  34.045  36.720  1.00  0.00     0.198 A 
ATOM     75  C   UNL A   1      38.249  32.329  37.354  1.00  0.00     0.198 A 
ATOM     76  F   UNL A   1      38.161  30.317  36.138  1.00  0.00    -0.203 F 
ATOM     77  F   UNL A   1      40.357  35.244  36.936  1.00  0.00    -0.200 F 
ATOM     78  C   UNL A   1      38.800  33.583  37.562  1.00  0.00     0.200 A 
ATOM     79  F   UNL A   1      37.272  31.884  38.156  1.00  0.00    -0.200 F 
ATOM     80  F   UNL A   1      38.373  34.344  38.579  1.00  0.00    -0.200 F 
ENDBRANCH  46  70
BRANCH  58  81
ATOM     81  C   UNL A   1      44.649  27.157  34.725  1.00  0.00     0.064 A 
ATOM     82  C   UNL A   1      45.940  27.694  34.829  1.00  0.00     0.173 A 
ATOM     83  C   UNL A   1      44.305  26.091  35.568  1.00  0.00     0.173 A 
ATOM     84  F   UNL A   1      46.317  28.704  34.030  1.00  0.00    -0.203 F 
ATOM     85  C   UNL A   1      46.860  27.168  35.731  1.00  0.00     0.198 A 
ATOM     86  C   UNL A   1      45.221  25.580  36.482  1.00  0.00     0.198 A 
ATOM     87  F   UNL A   1      43.080  25.548  35.504  1.00  0.00    -0.203 F 
ATOM     88  F   UNL A   1      48.101  27.670  35.788  1.00  0.00    -0.200 F 
ATOM     89  C   UNL A   1      46.499  26.115  36.559  1.00  0.00     0.200 A 
ATOM     90  F   UNL A   1      44.870  24.567  37.285  1.00  0.00    -0.200 F 
ATOM     91  F   UNL A   1      47.386  25.609  37.426  1.00  0.00    -0.200 F 
ENDBRANCH  58  81
ENDBRANCH  32  33
ENDBRANCH  25  27
ENDBRANCH  24  25
ENDBRANCH  23  24
ENDBRANCH  22  23
ENDBRANCH   1  22
TORSDOF 18
ENDMDL
