MODEL 1
REMARK VINA RESULT:     -12.1      0.000      0.000
REMARK SMILES Cc1cs/c(=N\S(=O)(=O)c2ccc(/C=C/C(=O)OCCOC(=O)c3ccc(-c4c5nc(c(-c6c(F)c(F)c(F)c(F)c6F)c6ccc([nH]6)c(-c6c(F)c(F)c(F)c(F)c6F)c6nc(c(-c7c(F)c(F)c(F)c(F)c7F)c7ccc4[nH]7)C=C6)C=C5)cc3)cc2)[nH]1
REMARK SMILES IDX 19 1 18 2 16 3 17 4 15 5 14 6 13 7 10 8 11 9 88 10 12 11
REMARK SMILES IDX 87 12 7 13 8 14 9 15 6 16 1 17 2 18 3 19 89 20 4 21 5 22
REMARK SMILES IDX 20 24 21 25 22 26 23 27 24 28 25 29 86 30 26 31 85 32 27 33
REMARK SMILES IDX 28 34 29 35 79 36 30 37 84 38 78 39 80 40 31 41 83 42 77 43
REMARK SMILES IDX 76 44 32 46 64 47 44 48 63 49 45 50 48 51 62 52 81 53 46 54
REMARK SMILES IDX 47 55 61 57 82 58 49 59 33 60 34 61 42 62 35 63 36 64 40 65
REMARK SMILES IDX 43 66 37 67 38 68 41 69 39 70 65 71 66 72 74 73 67 74 68 75
REMARK SMILES IDX 72 76 75 77 69 78 70 79 73 80 71 81 50 82 51 83 59 84 52 85
REMARK SMILES IDX 53 86 57 87 60 88 54 89 55 90 58 91 56 92
REMARK H PARENT 89 23 80 45 48 56
REMARK Flexibility Score: inf
ROOT
ATOM      1  C   UNL A   1      42.630  20.635  26.078  1.00  0.00     0.275 C 
ENDROOT
BRANCH   1   2
ATOM      2  O   UNL A   1      41.247  20.881  25.758  1.00  0.00    -0.459 OA
BRANCH   2   3
ATOM      3  C   UNL A   1      40.474  21.292  26.789  1.00  0.00     0.330 C 
ATOM      4  O   UNL A   1      40.719  21.149  27.979  1.00  0.00    -0.247 OA
BRANCH   3   5
ATOM      5  C   UNL A   1      39.265  22.016  26.351  1.00  0.00     0.094 C 
ATOM      6  C   UNL A   1      38.329  21.561  25.503  1.00  0.00     0.015 C 
BRANCH   6   7
ATOM      7  C   UNL A   1      37.205  22.406  25.068  1.00  0.00    -0.025 A 
ATOM      8  C   UNL A   1      35.071  24.034  24.259  1.00  0.00     0.089 A 
ATOM      9  C   UNL A   1      35.726  23.234  23.321  1.00  0.00     0.023 A 
ATOM     10  C   UNL A   1      35.448  24.007  25.604  1.00  0.00     0.023 A 
ATOM     11  C   UNL A   1      36.785  22.420  23.729  1.00  0.00     0.009 A 
ATOM     12  C   UNL A   1      36.511  23.186  26.003  1.00  0.00     0.009 A 
BRANCH   8  13
ATOM     13  S   UNL A   1      33.746  25.081  23.676  1.00  0.00     0.285 S 
ATOM     14  O   UNL A   1      32.531  24.329  23.920  1.00  0.00    -0.199 OA
ATOM     15  O   UNL A   1      34.143  25.467  22.336  1.00  0.00    -0.199 OA
BRANCH  13  16
ATOM     16  N   UNL A   1      33.773  26.376  24.641  1.00  0.00    -0.130 NA
ATOM     17  C   UNL A   1      31.636  30.552  25.861  1.00  0.00     0.065 C 
ATOM     18  C   UNL A   1      31.778  29.299  25.068  1.00  0.00     0.024 A 
ATOM     19  C   UNL A   1      30.962  28.894  24.081  1.00  0.00     0.089 A 
ATOM     20  N   UNL A   1      32.816  28.420  25.309  1.00  0.00    -0.334 N 
ATOM     21  S   UNL A   1      31.484  27.365  23.407  1.00  0.00    -0.104 S 
ATOM     22  C   UNL A   1      32.869  27.286  24.533  1.00  0.00     0.199 A 
ATOM     23  H   UNL A   1      33.488  28.596  26.007  1.00  0.00     0.169 HD
ENDBRANCH  13  16
ENDBRANCH   8  13
ENDBRANCH   6   7
ENDBRANCH   3   5
ENDBRANCH   2   3
ENDBRANCH   1   2
BRANCH   1  24
ATOM     24  C   UNL A   1      43.559  21.650  25.404  1.00  0.00     0.275 C 
BRANCH  24  25
ATOM     25  O   UNL A   1      42.893  22.898  25.131  1.00  0.00    -0.458 OA
BRANCH  25  26
ATOM     26  C   UNL A   1      43.697  23.988  25.139  1.00  0.00     0.338 C 
ATOM     27  O   UNL A   1      44.514  24.308  24.292  1.00  0.00    -0.246 OA
BRANCH  26  28
ATOM     28  C   UNL A   1      43.375  24.844  26.295  1.00  0.00     0.060 A 
ATOM     29  C   UNL A   1      42.449  24.361  27.224  1.00  0.00     0.016 A 
ATOM     30  C   UNL A   1      43.910  26.127  26.430  1.00  0.00     0.016 A 
ATOM     31  C   UNL A   1      42.050  25.162  28.292  1.00  0.00     0.010 A 
ATOM     32  C   UNL A   1      43.507  26.931  27.502  1.00  0.00     0.010 A 
ATOM     33  C   UNL A   1      42.567  26.458  28.434  1.00  0.00    -0.014 A 
BRANCH  33  34
ATOM     34  C   UNL A   1      42.092  27.320  29.544  1.00  0.00     0.031 A 
ATOM     35  C   UNL A   1      42.816  27.327  30.858  1.00  0.00     0.074 A 
ATOM     36  C   UNL A   1      41.024  28.118  29.360  1.00  0.00     0.049 A 
ATOM     37  N   UNL A   1      42.548  27.999  31.950  1.00  0.00    -0.248 NA
ATOM     38  C   UNL A   1      44.002  26.463  30.960  1.00  0.00     0.031 C 
ATOM     39  C   UNL A   1      40.253  28.219  28.121  1.00  0.00     0.029 A 
ATOM     40  N   UNL A   1      40.405  28.996  30.214  1.00  0.00    -0.354 N 
ATOM     41  C   UNL A   1      43.524  27.636  32.868  1.00  0.00     0.074 A 
ATOM     42  C   UNL A   1      44.376  26.665  32.216  1.00  0.00     0.031 C 
ATOM     43  C   UNL A   1      39.264  29.111  28.294  1.00  0.00     0.029 A 
ATOM     44  C   UNL A   1      39.312  29.618  29.664  1.00  0.00     0.049 A 
ATOM     45  H   UNL A   1      40.714  29.164  31.133  1.00  0.00     0.167 HD
ATOM     46  C   UNL A   1      43.697  28.081  34.136  1.00  0.00     0.037 A 
ATOM     47  C   UNL A   1      38.438  30.486  30.208  1.00  0.00     0.037 A 
ATOM     48  C   UNL A   1      42.852  29.053  34.782  1.00  0.00     0.049 A 
ATOM     49  C   UNL A   1      38.621  30.922  31.637  1.00  0.00     0.074 A 
ATOM     50  C   UNL A   1      42.963  29.583  36.056  1.00  0.00     0.029 A 
ATOM     51  N   UNL A   1      41.735  29.638  34.204  1.00  0.00    -0.354 N 
ATOM     52  N   UNL A   1      39.561  30.591  32.489  1.00  0.00    -0.248 NA
ATOM     53  C   UNL A   1      37.621  31.852  32.179  1.00  0.00     0.031 C 
ATOM     54  C   UNL A   1      41.887  30.454  36.266  1.00  0.00     0.029 A 
ATOM     55  C   UNL A   1      41.133  30.503  35.104  1.00  0.00     0.049 A 
ATOM     56  H   UNL A   1      41.417  29.464  33.288  1.00  0.00     0.167 HD
ATOM     57  C   UNL A   1      39.281  31.289  33.657  1.00  0.00     0.074 A 
ATOM     58  C   UNL A   1      38.091  32.072  33.400  1.00  0.00     0.031 C 
ATOM     59  C   UNL A   1      39.950  31.279  34.836  1.00  0.00     0.037 A 
BRANCH  46  60
ATOM     60  C   UNL A   1      44.836  27.504  34.924  1.00  0.00     0.064 A 
ATOM     61  C   UNL A   1      46.100  28.114  34.948  1.00  0.00     0.173 A 
ATOM     62  C   UNL A   1      44.650  26.350  35.700  1.00  0.00     0.173 A 
ATOM     63  F   UNL A   1      46.333  29.213  34.215  1.00  0.00    -0.203 F 
ATOM     64  C   UNL A   1      47.140  27.576  35.701  1.00  0.00     0.198 A 
ATOM     65  C   UNL A   1      45.685  25.830  36.472  1.00  0.00     0.198 A 
ATOM     66  F   UNL A   1      43.459  25.732  35.718  1.00  0.00    -0.203 F 
ATOM     67  F   UNL A   1      48.350  28.151  35.678  1.00  0.00    -0.200 F 
ATOM     68  C   UNL A   1      46.930  26.439  36.467  1.00  0.00     0.200 A 
ATOM     69  F   UNL A   1      45.477  24.738  37.221  1.00  0.00    -0.200 F 
ATOM     70  F   UNL A   1      47.931  25.926  37.196  1.00  0.00    -0.200 F 
ENDBRANCH  46  60
BRANCH  47  71
ATOM     71  C   UNL A   1      37.301  30.994  29.398  1.00  0.00     0.064 A 
ATOM     72  C   UNL A   1      37.297  32.303  28.899  1.00  0.00     0.173 A 
ATOM     73  C   UNL A   1      36.192  30.184  29.116  1.00  0.00     0.173 A 
ATOM     74  F   UNL A   1      38.324  33.125  29.166  1.00  0.00    -0.203 F 
ATOM     75  C   UNL A   1      36.221  32.787  28.157  1.00  0.00     0.198 A 
ATOM     76  C   UNL A   1      35.129  30.659  28.352  1.00  0.00     0.198 A 
ATOM     77  F   UNL A   1      36.145  28.924  29.576  1.00  0.00    -0.203 F 
ATOM     78  F   UNL A   1      36.222  34.056  27.727  1.00  0.00    -0.200 F 
ATOM     79  C   UNL A   1      35.141  31.963  27.879  1.00  0.00     0.200 A 
ATOM     80  F   UNL A   1      34.092  29.856  28.077  1.00  0.00    -0.200 F 
ATOM     81  F   UNL A   1      34.108  32.427  27.164  1.00  0.00    -0.200 F 
ENDBRANCH  47  71
BRANCH  59  82
ATOM     82  C   UNL A   1      39.425  32.162  35.930  1.00  0.00     0.064 A 
ATOM     83  C   UNL A   1      38.441  31.718  36.824  1.00  0.00     0.173 A 
ATOM     84  C   UNL A   1      39.940  33.456  36.108  1.00  0.00     0.173 A 
ATOM     85  F   UNL A   1      37.905  30.497  36.686  1.00  0.00    -0.203 F 
ATOM     86  C   UNL A   1      37.973  32.546  37.842  1.00  0.00     0.198 A 
ATOM     87  C   UNL A   1      39.490  34.270  37.143  1.00  0.00     0.198 A 
ATOM     88  F   UNL A   1      40.888  33.926  35.283  1.00  0.00    -0.203 F 
ATOM     89  F   UNL A   1      36.999  32.118  38.657  1.00  0.00    -0.200 F 
ATOM     90  C   UNL A   1      38.502  33.817  38.005  1.00  0.00     0.200 A 
ATOM     91  F   UNL A   1      40.011  35.494  37.306  1.00  0.00    -0.200 F 
ATOM     92  F   UNL A   1      38.055  34.610  38.987  1.00  0.00    -0.200 F 
ENDBRANCH  59  82
ENDBRANCH  33  34
ENDBRANCH  26  28
ENDBRANCH  25  26
ENDBRANCH  24  25
ENDBRANCH   1  24
TORSDOF 14
ENDMDL
MODEL 2
REMARK VINA RESULT:     -11.9      5.489     10.648
REMARK SMILES Cc1cs/c(=N\S(=O)(=O)c2ccc(/C=C/C(=O)OCCOC(=O)c3ccc(-c4c5nc(c(-c6c(F)c(F)c(F)c(F)c6F)c6ccc([nH]6)c(-c6c(F)c(F)c(F)c(F)c6F)c6nc(c(-c7c(F)c(F)c(F)c(F)c7F)c7ccc4[nH]7)C=C6)C=C5)cc3)cc2)[nH]1
REMARK SMILES IDX 19 1 18 2 16 3 17 4 15 5 14 6 13 7 10 8 11 9 88 10 12 11
REMARK SMILES IDX 87 12 7 13 8 14 9 15 6 16 1 17 2 18 3 19 89 20 4 21 5 22
REMARK SMILES IDX 20 24 21 25 22 26 23 27 24 28 25 29 86 30 26 31 85 32 27 33
REMARK SMILES IDX 28 34 29 35 79 36 30 37 84 38 78 39 80 40 31 41 83 42 77 43
REMARK SMILES IDX 76 44 32 46 64 47 44 48 63 49 45 50 48 51 62 52 81 53 46 54
REMARK SMILES IDX 47 55 61 57 82 58 49 59 33 60 34 61 42 62 35 63 36 64 40 65
REMARK SMILES IDX 43 66 37 67 38 68 41 69 39 70 65 71 66 72 74 73 67 74 68 75
REMARK SMILES IDX 72 76 75 77 69 78 70 79 73 80 71 81 50 82 51 83 59 84 52 85
REMARK SMILES IDX 53 86 57 87 60 88 54 89 55 90 58 91 56 92
REMARK H PARENT 89 23 80 45 48 56
REMARK Flexibility Score: inf
ROOT
ATOM      1  C   UNL A   1      34.311  34.217  29.891  1.00  0.00     0.275 C 
ENDROOT
BRANCH   1   2
ATOM      2  O   UNL A   1      33.791  33.157  29.066  1.00  0.00    -0.459 OA
BRANCH   2   3
ATOM      3  C   UNL A   1      34.630  32.698  28.108  1.00  0.00     0.330 C 
ATOM      4  O   UNL A   1      35.577  33.304  27.627  1.00  0.00    -0.247 OA
BRANCH   3   5
ATOM      5  C   UNL A   1      34.334  31.311  27.700  1.00  0.00     0.094 C 
ATOM      6  C   UNL A   1      33.157  30.848  27.252  1.00  0.00     0.015 C 
BRANCH   6   7
ATOM      7  C   UNL A   1      32.952  29.422  26.953  1.00  0.00    -0.025 A 
ATOM      8  C   UNL A   1      32.531  26.709  26.380  1.00  0.00     0.089 A 
ATOM      9  C   UNL A   1      33.752  27.305  26.055  1.00  0.00     0.023 A 
ATOM     10  C   UNL A   1      31.529  27.444  27.017  1.00  0.00     0.023 A 
ATOM     11  C   UNL A   1      33.959  28.654  26.347  1.00  0.00     0.009 A 
ATOM     12  C   UNL A   1      31.747  28.798  27.307  1.00  0.00     0.009 A 
BRANCH   8  13
ATOM     13  S   UNL A   1      32.308  24.989  25.952  1.00  0.00     0.285 S 
ATOM     14  O   UNL A   1      31.722  25.000  24.626  1.00  0.00    -0.199 OA
ATOM     15  O   UNL A   1      31.608  24.415  27.085  1.00  0.00    -0.199 OA
BRANCH  13  16
ATOM     16  N   UNL A   1      33.799  24.375  25.870  1.00  0.00    -0.130 NA
ATOM     17  C   UNL A   1      36.514  20.455  25.001  1.00  0.00     0.065 C 
ATOM     18  C   UNL A   1      35.227  21.196  25.127  1.00  0.00     0.024 A 
ATOM     19  C   UNL A   1      34.001  20.683  24.932  1.00  0.00     0.089 A 
ATOM     20  N   UNL A   1      35.208  22.533  25.472  1.00  0.00    -0.334 N 
ATOM     21  S   UNL A   1      32.757  21.889  25.181  1.00  0.00    -0.104 S 
ATOM     22  C   UNL A   1      33.977  23.138  25.563  1.00  0.00     0.199 A 
ATOM     23  H   UNL A   1      36.039  23.031  25.644  1.00  0.00     0.169 HD
ENDBRANCH  13  16
ENDBRANCH   8  13
ENDBRANCH   6   7
ENDBRANCH   3   5
ENDBRANCH   2   3
ENDBRANCH   1   2
BRANCH   1  24
ATOM     24  C   UNL A   1      34.395  33.800  31.363  1.00  0.00     0.275 C 
BRANCH  24  25
ATOM     25  O   UNL A   1      34.859  32.446  31.519  1.00  0.00    -0.458 OA
BRANCH  25  26
ATOM     26  C   UNL A   1      35.800  32.271  32.478  1.00  0.00     0.338 C 
ATOM     27  O   UNL A   1      35.642  32.328  33.686  1.00  0.00    -0.246 OA
BRANCH  26  28
ATOM     28  C   UNL A   1      37.079  31.874  31.863  1.00  0.00     0.060 A 
ATOM     29  C   UNL A   1      37.219  32.047  30.483  1.00  0.00     0.016 A 
ATOM     30  C   UNL A   1      38.097  31.274  32.609  1.00  0.00     0.016 A 
ATOM     31  C   UNL A   1      38.378  31.615  29.839  1.00  0.00     0.010 A 
ATOM     32  C   UNL A   1      39.259  30.839  31.961  1.00  0.00     0.010 A 
ATOM     33  C   UNL A   1      39.402  30.997  30.571  1.00  0.00    -0.014 A 
BRANCH  33  34
ATOM     34  C   UNL A   1      40.606  30.492  29.866  1.00  0.00     0.031 A 
ATOM     35  C   UNL A   1      41.786  31.393  29.646  1.00  0.00     0.074 A 
ATOM     36  C   UNL A   1      40.648  29.214  29.447  1.00  0.00     0.049 A 
ATOM     37  N   UNL A   1      42.920  31.142  29.040  1.00  0.00    -0.248 NA
ATOM     38  C   UNL A   1      41.677  32.760  30.177  1.00  0.00     0.031 C 
ATOM     39  C   UNL A   1      39.575  28.235  29.625  1.00  0.00     0.029 A 
ATOM     40  N   UNL A   1      41.631  28.520  28.788  1.00  0.00    -0.354 N 
ATOM     41  C   UNL A   1      43.656  32.317  29.112  1.00  0.00     0.074 A 
ATOM     42  C   UNL A   1      42.831  33.290  29.796  1.00  0.00     0.031 C 
ATOM     43  C   UNL A   1      39.960  27.065  29.090  1.00  0.00     0.029 A 
ATOM     44  C   UNL A   1      41.289  27.221  28.503  1.00  0.00     0.049 A 
ATOM     45  H   UNL A   1      42.498  28.915  28.543  1.00  0.00     0.167 HD
ATOM     46  C   UNL A   1      44.909  32.557  28.656  1.00  0.00     0.037 A 
ATOM     47  C   UNL A   1      41.964  26.270  27.830  1.00  0.00     0.037 A 
ATOM     48  C   UNL A   1      45.732  31.585  27.981  1.00  0.00     0.049 A 
ATOM     49  C   UNL A   1      43.334  26.580  27.286  1.00  0.00     0.074 A 
ATOM     50  C   UNL A   1      47.023  31.729  27.505  1.00  0.00     0.029 A 
ATOM     51  N   UNL A   1      45.340  30.288  27.683  1.00  0.00    -0.354 N 
ATOM     52  N   UNL A   1      44.030  27.687  27.381  1.00  0.00    -0.248 NA
ATOM     53  C   UNL A   1      44.009  25.508  26.542  1.00  0.00     0.031 C 
ATOM     54  C   UNL A   1      47.396  30.535  26.877  1.00  0.00     0.029 A 
ATOM     55  C   UNL A   1      46.354  29.630  27.006  1.00  0.00     0.049 A 
ATOM     56  H   UNL A   1      44.468  29.894  27.918  1.00  0.00     0.167 HD
ATOM     57  C   UNL A   1      45.232  27.437  26.731  1.00  0.00     0.074 A 
ATOM     58  C   UNL A   1      45.176  26.070  26.259  1.00  0.00     0.031 C 
ATOM     59  C   UNL A   1      46.287  28.268  26.542  1.00  0.00     0.037 A 
BRANCH  46  60
ATOM     60  C   UNL A   1      45.467  33.936  28.853  1.00  0.00     0.064 A 
ATOM     61  C   UNL A   1      45.282  34.948  27.899  1.00  0.00     0.173 A 
ATOM     62  C   UNL A   1      46.157  34.262  30.030  1.00  0.00     0.173 A 
ATOM     63  F   UNL A   1      44.639  34.686  26.751  1.00  0.00    -0.203 F 
ATOM     64  C   UNL A   1      45.789  36.229  28.107  1.00  0.00     0.198 A 
ATOM     65  C   UNL A   1      46.639  35.549  30.246  1.00  0.00     0.198 A 
ATOM     66  F   UNL A   1      46.355  33.332  30.977  1.00  0.00    -0.203 F 
ATOM     67  F   UNL A   1      45.637  37.170  27.165  1.00  0.00    -0.200 F 
ATOM     68  C   UNL A   1      46.461  36.530  29.282  1.00  0.00     0.200 A 
ATOM     69  F   UNL A   1      47.278  35.841  31.387  1.00  0.00    -0.200 F 
ATOM     70  F   UNL A   1      46.942  37.764  29.483  1.00  0.00    -0.200 F 
ENDBRANCH  46  60
BRANCH  47  71
ATOM     71  C   UNL A   1      41.349  24.934  27.625  1.00  0.00     0.064 A 
ATOM     72  C   UNL A   1      41.843  23.802  28.287  1.00  0.00     0.173 A 
ATOM     73  C   UNL A   1      40.263  24.761  26.756  1.00  0.00     0.173 A 
ATOM     74  F   UNL A   1      42.899  23.912  29.107  1.00  0.00    -0.203 F 
ATOM     75  C   UNL A   1      41.280  22.544  28.078  1.00  0.00     0.198 A 
ATOM     76  C   UNL A   1      39.683  23.509  26.569  1.00  0.00     0.198 A 
ATOM     77  F   UNL A   1      39.756  25.813  26.095  1.00  0.00    -0.203 F 
ATOM     78  F   UNL A   1      41.798  21.471  28.689  1.00  0.00    -0.200 F 
ATOM     79  C   UNL A   1      40.197  22.400  27.224  1.00  0.00     0.200 A 
ATOM     80  F   UNL A   1      38.630  23.376  25.750  1.00  0.00    -0.200 F 
ATOM     81  F   UNL A   1      39.654  21.191  27.026  1.00  0.00    -0.200 F 
ENDBRANCH  47  71
BRANCH  59  82
ATOM     82  C   UNL A   1      47.477  27.713  25.816  1.00  0.00     0.064 A 
ATOM     83  C   UNL A   1      47.556  27.727  24.416  1.00  0.00     0.173 A 
ATOM     84  C   UNL A   1      48.567  27.193  26.531  1.00  0.00     0.173 A 
ATOM     85  F   UNL A   1      46.534  28.198  23.687  1.00  0.00    -0.203 F 
ATOM     86  C   UNL A   1      48.673  27.219  23.758  1.00  0.00     0.198 A 
ATOM     87  C   UNL A   1      49.694  26.712  25.870  1.00  0.00     0.198 A 
ATOM     88  F   UNL A   1      48.544  27.163  27.872  1.00  0.00    -0.203 F 
ATOM     89  F   UNL A   1      48.708  27.201  22.418  1.00  0.00    -0.200 F 
ATOM     90  C   UNL A   1      49.743  26.719  24.484  1.00  0.00     0.200 A 
ATOM     91  F   UNL A   1      50.731  26.239  26.574  1.00  0.00    -0.200 F 
ATOM     92  F   UNL A   1      50.819  26.235  23.849  1.00  0.00    -0.200 F 
ENDBRANCH  59  82
ENDBRANCH  33  34
ENDBRANCH  26  28
ENDBRANCH  25  26
ENDBRANCH  24  25
ENDBRANCH   1  24
TORSDOF 14
ENDMDL
MODEL 3
REMARK VINA RESULT:     -11.7      4.748      7.081
REMARK SMILES Cc1cs/c(=N\S(=O)(=O)c2ccc(/C=C/C(=O)OCCOC(=O)c3ccc(-c4c5nc(c(-c6c(F)c(F)c(F)c(F)c6F)c6ccc([nH]6)c(-c6c(F)c(F)c(F)c(F)c6F)c6nc(c(-c7c(F)c(F)c(F)c(F)c7F)c7ccc4[nH]7)C=C6)C=C5)cc3)cc2)[nH]1
REMARK SMILES IDX 19 1 18 2 16 3 17 4 15 5 14 6 13 7 10 8 11 9 88 10 12 11
REMARK SMILES IDX 87 12 7 13 8 14 9 15 6 16 1 17 2 18 3 19 89 20 4 21 5 22
REMARK SMILES IDX 20 24 21 25 22 26 23 27 24 28 25 29 86 30 26 31 85 32 27 33
REMARK SMILES IDX 28 34 29 35 79 36 30 37 84 38 78 39 80 40 31 41 83 42 77 43
REMARK SMILES IDX 76 44 32 46 64 47 44 48 63 49 45 50 48 51 62 52 81 53 46 54
REMARK SMILES IDX 47 55 61 57 82 58 49 59 33 60 34 61 42 62 35 63 36 64 40 65
REMARK SMILES IDX 43 66 37 67 38 68 41 69 39 70 65 71 66 72 74 73 67 74 68 75
REMARK SMILES IDX 72 76 75 77 69 78 70 79 73 80 71 81 50 82 51 83 59 84 52 85
REMARK SMILES IDX 53 86 57 87 60 88 54 89 55 90 58 91 56 92
REMARK H PARENT 89 23 80 45 48 56
REMARK Flexibility Score: inf
ROOT
ATOM      1  C   UNL A   1      44.652  19.097  24.850  1.00  0.00     0.275 C 
ENDROOT
BRANCH   1   2
ATOM      2  O   UNL A   1      44.671  20.447  24.347  1.00  0.00    -0.459 OA
BRANCH   2   3
ATOM      3  C   UNL A   1      45.749  21.186  24.700  1.00  0.00     0.330 C 
ATOM      4  O   UNL A   1      46.917  20.828  24.653  1.00  0.00    -0.247 OA
BRANCH   3   5
ATOM      5  C   UNL A   1      45.395  22.555  25.122  1.00  0.00     0.094 C 
ATOM      6  C   UNL A   1      45.840  23.696  24.574  1.00  0.00     0.015 C 
BRANCH   6   7
ATOM      7  C   UNL A   1      45.487  25.010  25.133  1.00  0.00    -0.025 A 
ATOM      8  C   UNL A   1      44.841  27.525  26.194  1.00  0.00     0.089 A 
ATOM      9  C   UNL A   1      43.865  26.784  25.523  1.00  0.00     0.023 A 
ATOM     10  C   UNL A   1      46.128  27.010  26.371  1.00  0.00     0.023 A 
ATOM     11  C   UNL A   1      44.190  25.531  25.001  1.00  0.00     0.009 A 
ATOM     12  C   UNL A   1      46.443  25.750  25.844  1.00  0.00     0.009 A 
BRANCH   8  13
ATOM     13  S   UNL A   1      44.381  29.137  26.812  1.00  0.00     0.285 S 
ATOM     14  O   UNL A   1      44.441  29.022  28.255  1.00  0.00    -0.199 OA
ATOM     15  O   UNL A   1      43.143  29.455  26.127  1.00  0.00    -0.199 OA
BRANCH  13  16
ATOM     16  N   UNL A   1      45.549  30.132  26.308  1.00  0.00    -0.130 NA
ATOM     17  C   UNL A   1      47.125  34.708  26.051  1.00  0.00     0.065 C 
ATOM     18  C   UNL A   1      46.158  33.641  26.434  1.00  0.00     0.024 A 
ATOM     19  C   UNL A   1      45.000  33.826  27.088  1.00  0.00     0.089 A 
ATOM     20  N   UNL A   1      46.403  32.318  26.126  1.00  0.00    -0.334 N 
ATOM     21  S   UNL A   1      44.161  32.311  27.342  1.00  0.00    -0.104 S 
ATOM     22  C   UNL A   1      45.460  31.399  26.520  1.00  0.00     0.199 A 
ATOM     23  H   UNL A   1      47.218  32.043  25.646  1.00  0.00     0.169 HD
ENDBRANCH  13  16
ENDBRANCH   8  13
ENDBRANCH   6   7
ENDBRANCH   3   5
ENDBRANCH   2   3
ENDBRANCH   1   2
BRANCH   1  24
ATOM     24  C   UNL A   1      43.353  18.789  25.601  1.00  0.00     0.275 C 
BRANCH  24  25
ATOM     25  O   UNL A   1      42.228  19.503  25.056  1.00  0.00    -0.458 OA
BRANCH  25  26
ATOM     26  C   UNL A   1      41.319  19.922  25.969  1.00  0.00     0.338 C 
ATOM     27  O   UNL A   1      40.324  19.327  26.346  1.00  0.00    -0.246 OA
BRANCH  26  28
ATOM     28  C   UNL A   1      41.756  21.196  26.567  1.00  0.00     0.060 A 
ATOM     29  C   UNL A   1      41.889  21.251  27.958  1.00  0.00     0.016 A 
ATOM     30  C   UNL A   1      41.961  22.339  25.790  1.00  0.00     0.016 A 
ATOM     31  C   UNL A   1      42.222  22.453  28.580  1.00  0.00     0.010 A 
ATOM     32  C   UNL A   1      42.294  23.546  26.416  1.00  0.00     0.010 A 
ATOM     33  C   UNL A   1      42.416  23.612  27.815  1.00  0.00    -0.014 A 
BRANCH  33  34
ATOM     34  C   UNL A   1      42.716  24.897  28.494  1.00  0.00     0.031 A 
ATOM     35  C   UNL A   1      44.097  25.172  29.016  1.00  0.00     0.074 A 
ATOM     36  C   UNL A   1      41.753  25.829  28.617  1.00  0.00     0.049 A 
ATOM     37  N   UNL A   1      44.550  26.225  29.649  1.00  0.00    -0.248 NA
ATOM     38  C   UNL A   1      45.103  24.121  28.798  1.00  0.00     0.031 C 
ATOM     39  C   UNL A   1      40.381  25.690  28.128  1.00  0.00     0.029 A 
ATOM     40  N   UNL A   1      41.781  27.076  29.189  1.00  0.00    -0.354 N 
ATOM     41  C   UNL A   1      45.889  25.964  29.909  1.00  0.00     0.074 A 
ATOM     42  C   UNL A   1      46.169  24.642  29.390  1.00  0.00     0.031 C 
ATOM     43  C   UNL A   1      39.699  26.809  28.419  1.00  0.00     0.029 A 
ATOM     44  C   UNL A   1      40.575  27.729  29.143  1.00  0.00     0.049 A 
ATOM     45  H   UNL A   1      42.590  27.466  29.593  1.00  0.00     0.167 HD
ATOM     46  C   UNL A   1      46.801  26.759  30.518  1.00  0.00     0.037 A 
ATOM     47  C   UNL A   1      40.212  28.926  29.642  1.00  0.00     0.037 A 
ATOM     48  C   UNL A   1      46.523  28.078  31.028  1.00  0.00     0.049 A 
ATOM     49  C   UNL A   1      41.232  29.766  30.363  1.00  0.00     0.074 A 
ATOM     50  C   UNL A   1      47.389  28.968  31.639  1.00  0.00     0.029 A 
ATOM     51  N   UNL A   1      45.280  28.693  30.991  1.00  0.00    -0.354 N 
ATOM     52  N   UNL A   1      42.501  29.520  30.582  1.00  0.00    -0.248 NA
ATOM     53  C   UNL A   1      40.768  31.051  30.905  1.00  0.00     0.031 C 
ATOM     54  C   UNL A   1      46.661  30.103  32.013  1.00  0.00     0.029 A 
ATOM     55  C   UNL A   1      45.351  29.940  31.591  1.00  0.00     0.049 A 
ATOM     56  H   UNL A   1      44.468  28.301  30.596  1.00  0.00     0.167 HD
ATOM     57  C   UNL A   1      42.992  30.626  31.265  1.00  0.00     0.074 A 
ATOM     58  C   UNL A   1      41.887  31.551  31.411  1.00  0.00     0.031 C 
ATOM     59  C   UNL A   1      44.245  30.853  31.729  1.00  0.00     0.037 A 
BRANCH  46  60
ATOM     60  C   UNL A   1      48.190  26.217  30.687  1.00  0.00     0.064 A 
ATOM     61  C   UNL A   1      49.163  26.358  29.686  1.00  0.00     0.173 A 
ATOM     62  C   UNL A   1      48.566  25.587  31.883  1.00  0.00     0.173 A 
ATOM     63  F   UNL A   1      48.852  26.943  28.519  1.00  0.00    -0.203 F 
ATOM     64  C   UNL A   1      50.454  25.867  29.868  1.00  0.00     0.198 A 
ATOM     65  C   UNL A   1      49.864  25.121  32.071  1.00  0.00     0.198 A 
ATOM     66  F   UNL A   1      47.675  25.434  32.875  1.00  0.00    -0.203 F 
ATOM     67  F   UNL A   1      51.356  25.976  28.883  1.00  0.00    -0.200 F 
ATOM     68  C   UNL A   1      50.804  25.255  31.062  1.00  0.00     0.200 A 
ATOM     69  F   UNL A   1      50.204  24.540  33.230  1.00  0.00    -0.200 F 
ATOM     70  F   UNL A   1      52.048  24.789  31.238  1.00  0.00    -0.200 F 
ENDBRANCH  46  60
BRANCH  47  71
ATOM     71  C   UNL A   1      38.812  29.397  29.486  1.00  0.00     0.064 A 
ATOM     72  C   UNL A   1      37.949  29.477  30.587  1.00  0.00     0.173 A 
ATOM     73  C   UNL A   1      38.307  29.767  28.231  1.00  0.00     0.173 A 
ATOM     74  F   UNL A   1      38.378  29.107  31.803  1.00  0.00    -0.203 F 
ATOM     75  C   UNL A   1      36.630  29.899  30.436  1.00  0.00     0.198 A 
ATOM     76  C   UNL A   1      36.996  30.214  28.086  1.00  0.00     0.198 A 
ATOM     77  F   UNL A   1      39.093  29.703  27.145  1.00  0.00    -0.203 F 
ATOM     78  F   UNL A   1      35.812  29.926  31.497  1.00  0.00    -0.200 F 
ATOM     79  C   UNL A   1      36.156  30.273  29.188  1.00  0.00     0.200 A 
ATOM     80  F   UNL A   1      36.547  30.584  26.879  1.00  0.00    -0.200 F 
ATOM     81  F   UNL A   1      34.888  30.681  29.044  1.00  0.00    -0.200 F 
ENDBRANCH  47  71
BRANCH  59  82
ATOM     82  C   UNL A   1      44.496  32.164  32.416  1.00  0.00     0.064 A 
ATOM     83  C   UNL A   1      44.922  33.295  31.706  1.00  0.00     0.173 A 
ATOM     84  C   UNL A   1      44.273  32.298  33.794  1.00  0.00     0.173 A 
ATOM     85  F   UNL A   1      45.166  33.214  30.389  1.00  0.00    -0.203 F 
ATOM     86  C   UNL A   1      45.139  34.507  32.356  1.00  0.00     0.198 A 
ATOM     87  C   UNL A   1      44.464  33.518  34.436  1.00  0.00     0.198 A 
ATOM     88  F   UNL A   1      43.858  31.247  34.518  1.00  0.00    -0.203 F 
ATOM     89  F   UNL A   1      45.590  35.565  31.666  1.00  0.00    -0.200 F 
ATOM     90  C   UNL A   1      44.904  34.620  33.718  1.00  0.00     0.200 A 
ATOM     91  F   UNL A   1      44.225  33.628  35.750  1.00  0.00    -0.200 F 
ATOM     92  F   UNL A   1      45.108  35.788  34.341  1.00  0.00    -0.200 F 
ENDBRANCH  59  82
ENDBRANCH  33  34
ENDBRANCH  26  28
ENDBRANCH  25  26
ENDBRANCH  24  25
ENDBRANCH   1  24
TORSDOF 14
ENDMDL
