MODEL 1
REMARK VINA RESULT:     -12.0      0.000      0.000
REMARK SMILES CS(=O)(=O)c1ccc(N2N=C(C(=O)OCCOC(=O)c3ccc(-c4c5nc(c(-c6c(F)c(F)c(F)c(F)c6F)c6ccc([nH]6)c(-c6c(F)c(F)c(F)c(F)c6F)c6nc(c(-c7c(F)c(F)c(F)c(F)c7F)c7ccc4[nH]7)C=C6)C=C5)cc3)C[C@H]2c2ccco2)cc1
REMARK SMILES IDX 15 1 14 2 12 3 13 4 11 5 9 6 10 7 84 8 83 9 8 10 5 11 6 12
REMARK SMILES IDX 91 13 7 14 90 15 2 16 1 17 3 18 4 19 85 20 86 21 89 22 87 23
REMARK SMILES IDX 88 24 16 25 17 26 18 27 19 28 20 29 21 30 82 31 22 32 81 33
REMARK SMILES IDX 23 34 24 35 25 36 75 37 26 38 80 39 74 40 76 41 27 42 79 43
REMARK SMILES IDX 73 44 72 45 28 47 60 48 40 49 59 50 41 51 44 52 58 53 77 54
REMARK SMILES IDX 42 55 43 56 57 58 78 59 45 60 29 61 30 62 38 63 31 64 32 65
REMARK SMILES IDX 36 66 39 67 33 68 34 69 37 70 35 71 61 72 62 73 70 74 63 75
REMARK SMILES IDX 64 76 68 77 71 78 65 79 66 80 69 81 67 82 46 83 47 84 55 85
REMARK SMILES IDX 48 86 49 87 53 88 56 89 50 90 51 91 54 92 52 93
REMARK H PARENT 76 46 44 57
REMARK Flexibility Score: inf
ROOT
ATOM      1  C   UNL A   1      32.614  31.971  27.183  1.00  0.00     0.275 C 
ENDROOT
BRANCH   1   2
ATOM      2  O   UNL A   1      33.269  30.990  28.007  1.00  0.00    -0.458 OA
BRANCH   2   3
ATOM      3  C   UNL A   1      34.090  30.133  27.369  1.00  0.00     0.354 C 
ATOM      4  O   UNL A   1      35.292  30.234  27.209  1.00  0.00    -0.245 OA
BRANCH   3   5
ATOM      5  C   UNL A   1      33.316  28.914  26.929  1.00  0.00     0.148 C 
ATOM      6  N   UNL A   1      32.906  26.997  26.135  1.00  0.00    -0.254 N 
ATOM      7  N   UNL A   1      33.904  27.848  26.476  1.00  0.00    -0.169 NA
ATOM      8  C   UNL A   1      31.561  27.559  26.285  1.00  0.00     0.180 C 
ATOM      9  C   UNL A   1      31.832  28.843  27.082  1.00  0.00     0.101 C 
BRANCH   6  10
ATOM     10  C   UNL A   1      33.147  25.643  25.972  1.00  0.00     0.060 A 
ATOM     11  C   UNL A   1      33.635  22.908  25.584  1.00  0.00     0.067 A 
ATOM     12  C   UNL A   1      32.430  23.321  26.157  1.00  0.00     0.022 A 
ATOM     13  C   UNL A   1      34.596  23.843  25.199  1.00  0.00     0.022 A 
ATOM     14  C   UNL A   1      32.198  24.685  26.356  1.00  0.00     0.029 A 
ATOM     15  C   UNL A   1      34.345  25.203  25.395  1.00  0.00     0.029 A 
BRANCH  11  16
ATOM     16  S   UNL A   1      33.915  21.176  25.297  1.00  0.00     0.175 S 
ATOM     17  C   UNL A   1      35.665  21.054  25.036  1.00  0.00     0.163 C 
ATOM     18  O   UNL A   1      33.258  20.823  24.052  1.00  0.00    -0.224 OA
ATOM     19  O   UNL A   1      33.585  20.490  26.532  1.00  0.00    -0.224 OA
ENDBRANCH  11  16
ENDBRANCH   6  10
BRANCH   8  20
ATOM     20  C   UNL A   1      30.860  27.816  24.984  1.00  0.00     0.128 A 
ATOM     21  C   UNL A   1      30.174  26.989  24.116  1.00  0.00     0.048 A 
ATOM     22  O   UNL A   1      30.908  29.082  24.472  1.00  0.00    -0.467 OA
ATOM     23  C   UNL A   1      29.791  27.792  23.015  1.00  0.00     0.042 A 
ATOM     24  C   UNL A   1      30.259  29.056  23.282  1.00  0.00     0.195 A 
ENDBRANCH   8  20
ENDBRANCH   3   5
ENDBRANCH   2   3
ENDBRANCH   1   2
BRANCH   1  25
ATOM     25  C   UNL A   1      33.266  33.345  27.367  1.00  0.00     0.275 C 
BRANCH  25  26
ATOM     26  O   UNL A   1      32.439  34.222  28.157  1.00  0.00    -0.458 OA
BRANCH  26  27
ATOM     27  C   UNL A   1      33.105  35.185  28.839  1.00  0.00     0.338 C 
ATOM     28  O   UNL A   1      32.823  36.369  28.905  1.00  0.00    -0.246 OA
BRANCH  27  29
ATOM     29  C   UNL A   1      34.190  34.573  29.630  1.00  0.00     0.060 A 
ATOM     30  C   UNL A   1      35.497  34.735  29.168  1.00  0.00     0.016 A 
ATOM     31  C   UNL A   1      33.937  33.815  30.776  1.00  0.00     0.016 A 
ATOM     32  C   UNL A   1      36.562  34.155  29.846  1.00  0.00     0.010 A 
ATOM     33  C   UNL A   1      35.006  33.212  31.449  1.00  0.00     0.010 A 
ATOM     34  C   UNL A   1      36.322  33.376  30.982  1.00  0.00    -0.014 A 
BRANCH  34  35
ATOM     35  C   UNL A   1      37.455  32.696  31.643  1.00  0.00     0.031 A 
ATOM     36  C   UNL A   1      38.157  31.571  30.944  1.00  0.00     0.074 A 
ATOM     37  C   UNL A   1      37.886  33.123  32.843  1.00  0.00     0.049 A 
ATOM     38  N   UNL A   1      39.150  30.828  31.362  1.00  0.00    -0.248 NA
ATOM     39  C   UNL A   1      37.688  31.246  29.588  1.00  0.00     0.031 C 
ATOM     40  C   UNL A   1      37.324  34.248  33.588  1.00  0.00     0.029 A 
ATOM     41  N   UNL A   1      38.904  32.663  33.638  1.00  0.00    -0.354 N 
ATOM     42  C   UNL A   1      39.414  29.939  30.332  1.00  0.00     0.074 A 
ATOM     43  C   UNL A   1      38.485  30.237  29.263  1.00  0.00     0.031 C 
ATOM     44  C   UNL A   1      38.006  34.393  34.735  1.00  0.00     0.029 A 
ATOM     45  C   UNL A   1      39.032  33.355  34.815  1.00  0.00     0.049 A 
ATOM     46  H   UNL A   1      39.486  31.909  33.388  1.00  0.00     0.167 HD
ATOM     47  C   UNL A   1      40.347  28.959  30.287  1.00  0.00     0.037 A 
ATOM     48  C   UNL A   1      39.872  33.159  35.848  1.00  0.00     0.037 A 
ATOM     49  C   UNL A   1      41.272  28.662  31.346  1.00  0.00     0.049 A 
ATOM     50  C   UNL A   1      40.864  32.032  35.794  1.00  0.00     0.074 A 
ATOM     51  C   UNL A   1      42.246  27.680  31.393  1.00  0.00     0.029 A 
ATOM     52  N   UNL A   1      41.336  29.349  32.547  1.00  0.00    -0.354 N 
ATOM     53  N   UNL A   1      41.085  31.174  34.829  1.00  0.00    -0.248 NA
ATOM     54  C   UNL A   1      41.710  31.836  36.980  1.00  0.00     0.031 C 
ATOM     55  C   UNL A   1      42.890  27.763  32.634  1.00  0.00     0.029 A 
ATOM     56  C   UNL A   1      42.326  28.807  33.349  1.00  0.00     0.049 A 
ATOM     57  H   UNL A   1      40.763  30.111  32.795  1.00  0.00     0.167 HD
ATOM     58  C   UNL A   1      42.090  30.336  35.288  1.00  0.00     0.074 A 
ATOM     59  C   UNL A   1      42.449  30.797  36.613  1.00  0.00     0.031 C 
ATOM     60  C   UNL A   1      42.659  29.274  34.668  1.00  0.00     0.037 A 
BRANCH  47  61
ATOM     61  C   UNL A   1      40.389  28.117  29.054  1.00  0.00     0.064 A 
ATOM     62  C   UNL A   1      41.155  28.493  27.942  1.00  0.00     0.173 A 
ATOM     63  C   UNL A   1      39.676  26.912  28.993  1.00  0.00     0.173 A 
ATOM     64  F   UNL A   1      41.836  29.648  27.952  1.00  0.00    -0.203 F 
ATOM     65  C   UNL A   1      41.200  27.690  26.805  1.00  0.00     0.198 A 
ATOM     66  C   UNL A   1      39.730  26.107  27.859  1.00  0.00     0.198 A 
ATOM     67  F   UNL A   1      38.924  26.519  30.032  1.00  0.00    -0.203 F 
ATOM     68  F   UNL A   1      41.919  28.075  25.743  1.00  0.00    -0.200 F 
ATOM     69  C   UNL A   1      40.491  26.497  26.766  1.00  0.00     0.200 A 
ATOM     70  F   UNL A   1      39.043  24.957  27.821  1.00  0.00    -0.200 F 
ATOM     71  F   UNL A   1      40.534  25.727  25.671  1.00  0.00    -0.200 F 
ENDBRANCH  47  61
BRANCH  48  72
ATOM     72  C   UNL A   1      39.789  34.042  37.036  1.00  0.00     0.064 A 
ATOM     73  C   UNL A   1      40.514  35.237  37.097  1.00  0.00     0.173 A 
ATOM     74  C   UNL A   1      38.976  33.706  38.127  1.00  0.00     0.173 A 
ATOM     75  F   UNL A   1      41.324  35.581  36.085  1.00  0.00    -0.203 F 
ATOM     76  C   UNL A   1      40.430  36.070  38.210  1.00  0.00     0.198 A 
ATOM     77  C   UNL A   1      38.881  34.546  39.234  1.00  0.00     0.198 A 
ATOM     78  F   UNL A   1      38.271  32.566  38.114  1.00  0.00    -0.203 F 
ATOM     79  F   UNL A   1      41.152  37.197  38.258  1.00  0.00    -0.200 F 
ATOM     80  C   UNL A   1      39.609  35.726  39.276  1.00  0.00     0.200 A 
ATOM     81  F   UNL A   1      38.087  34.212  40.259  1.00  0.00    -0.200 F 
ATOM     82  F   UNL A   1      39.527  36.528  40.346  1.00  0.00    -0.200 F 
ENDBRANCH  48  72
BRANCH  60  83
ATOM     83  C   UNL A   1      43.720  28.537  35.421  1.00  0.00     0.064 A 
ATOM     84  C   UNL A   1      45.076  28.856  35.255  1.00  0.00     0.173 A 
ATOM     85  C   UNL A   1      43.380  27.538  36.343  1.00  0.00     0.173 A 
ATOM     86  F   UNL A   1      45.443  29.797  34.372  1.00  0.00    -0.203 F 
ATOM     87  C   UNL A   1      46.057  28.192  35.983  1.00  0.00     0.198 A 
ATOM     88  C   UNL A   1      44.365  26.884  37.078  1.00  0.00     0.198 A 
ATOM     89  F   UNL A   1      42.097  27.202  36.532  1.00  0.00    -0.203 F 
ATOM     90  F   UNL A   1      47.349  28.496  35.797  1.00  0.00    -0.200 F 
ATOM     91  C   UNL A   1      45.701  27.210  36.897  1.00  0.00     0.200 A 
ATOM     92  F   UNL A   1      44.022  25.936  37.960  1.00  0.00    -0.200 F 
ATOM     93  F   UNL A   1      46.649  26.572  37.598  1.00  0.00    -0.200 F 
ENDBRANCH  60  83
ENDBRANCH  34  35
ENDBRANCH  27  29
ENDBRANCH  26  27
ENDBRANCH  25  26
ENDBRANCH   1  25
TORSDOF 14
ENDMDL
MODEL 2
REMARK VINA RESULT:     -12.0      5.751     11.294
REMARK SMILES CS(=O)(=O)c1ccc(N2N=C(C(=O)OCCOC(=O)c3ccc(-c4c5nc(c(-c6c(F)c(F)c(F)c(F)c6F)c6ccc([nH]6)c(-c6c(F)c(F)c(F)c(F)c6F)c6nc(c(-c7c(F)c(F)c(F)c(F)c7F)c7ccc4[nH]7)C=C6)C=C5)cc3)C[C@H]2c2ccco2)cc1
REMARK SMILES IDX 15 1 14 2 12 3 13 4 11 5 9 6 10 7 84 8 83 9 8 10 5 11 6 12
REMARK SMILES IDX 91 13 7 14 90 15 2 16 1 17 3 18 4 19 85 20 86 21 89 22 87 23
REMARK SMILES IDX 88 24 16 25 17 26 18 27 19 28 20 29 21 30 82 31 22 32 81 33
REMARK SMILES IDX 23 34 24 35 25 36 75 37 26 38 80 39 74 40 76 41 27 42 79 43
REMARK SMILES IDX 73 44 72 45 28 47 60 48 40 49 59 50 41 51 44 52 58 53 77 54
REMARK SMILES IDX 42 55 43 56 57 58 78 59 45 60 29 61 30 62 38 63 31 64 32 65
REMARK SMILES IDX 36 66 39 67 33 68 34 69 37 70 35 71 61 72 62 73 70 74 63 75
REMARK SMILES IDX 64 76 68 77 71 78 65 79 66 80 69 81 67 82 46 83 47 84 55 85
REMARK SMILES IDX 48 86 49 87 53 88 56 89 50 90 51 91 54 92 52 93
REMARK H PARENT 76 46 44 57
REMARK Flexibility Score: inf
ROOT
ATOM      1  C   UNL A   1      39.642  21.342  25.854  1.00  0.00     0.275 C 
ENDROOT
BRANCH   1   2
ATOM      2  O   UNL A   1      38.278  21.737  26.090  1.00  0.00    -0.458 OA
BRANCH   2   3
ATOM      3  C   UNL A   1      38.027  23.059  26.039  1.00  0.00     0.354 C 
ATOM      4  O   UNL A   1      38.700  23.962  26.501  1.00  0.00    -0.245 OA
BRANCH   3   5
ATOM      5  C   UNL A   1      36.791  23.315  25.212  1.00  0.00     0.148 C 
ATOM      6  N   UNL A   1      34.953  24.156  24.588  1.00  0.00    -0.254 N 
ATOM      7  N   UNL A   1      35.948  24.260  25.503  1.00  0.00    -0.169 NA
ATOM      8  C   UNL A   1      35.090  23.014  23.679  1.00  0.00     0.180 C 
ATOM      9  C   UNL A   1      36.526  22.547  23.959  1.00  0.00     0.101 C 
BRANCH   6  10
ATOM     10  C   UNL A   1      34.085  25.209  24.355  1.00  0.00     0.060 A 
ATOM     11  C   UNL A   1      32.286  27.315  23.912  1.00  0.00     0.067 A 
ATOM     12  C   UNL A   1      32.742  26.556  22.832  1.00  0.00     0.022 A 
ATOM     13  C   UNL A   1      32.714  27.033  25.210  1.00  0.00     0.022 A 
ATOM     14  C   UNL A   1      33.646  25.515  23.059  1.00  0.00     0.029 A 
ATOM     15  C   UNL A   1      33.609  25.982  25.422  1.00  0.00     0.029 A 
BRANCH  11  16
ATOM     16  S   UNL A   1      31.109  28.617  23.628  1.00  0.00     0.175 S 
ATOM     17  C   UNL A   1      29.569  27.769  23.392  1.00  0.00     0.163 C 
ATOM     18  O   UNL A   1      31.455  29.258  22.372  1.00  0.00    -0.224 OA
ATOM     19  O   UNL A   1      31.029  29.383  24.856  1.00  0.00    -0.224 OA
ENDBRANCH  11  16
ENDBRANCH   6  10
BRANCH   8  20
ATOM     20  C   UNL A   1      34.072  21.935  23.899  1.00  0.00     0.128 A 
ATOM     21  C   UNL A   1      32.741  21.824  23.546  1.00  0.00     0.048 A 
ATOM     22  O   UNL A   1      34.449  20.839  24.622  1.00  0.00    -0.467 OA
ATOM     23  C   UNL A   1      32.283  20.600  24.089  1.00  0.00     0.042 A 
ATOM     24  C   UNL A   1      33.360  20.038  24.731  1.00  0.00     0.195 A 
ENDBRANCH   8  20
ENDBRANCH   3   5
ENDBRANCH   2   3
ENDBRANCH   1   2
BRANCH   1  25
ATOM     25  C   UNL A   1      39.818  19.843  26.120  1.00  0.00     0.275 C 
BRANCH  25  26
ATOM     26  O   UNL A   1      40.993  19.323  25.468  1.00  0.00    -0.458 OA
BRANCH  26  27
ATOM     27  C   UNL A   1      42.101  19.253  26.243  1.00  0.00     0.338 C 
ATOM     28  O   UNL A   1      42.651  18.244  26.651  1.00  0.00    -0.246 OA
BRANCH  27  29
ATOM     29  C   UNL A   1      42.659  20.605  26.435  1.00  0.00     0.060 A 
ATOM     30  C   UNL A   1      42.651  21.128  27.730  1.00  0.00     0.016 A 
ATOM     31  C   UNL A   1      43.138  21.370  25.370  1.00  0.00     0.016 A 
ATOM     32  C   UNL A   1      43.129  22.410  27.976  1.00  0.00     0.010 A 
ATOM     33  C   UNL A   1      43.601  22.669  25.611  1.00  0.00     0.010 A 
ATOM     34  C   UNL A   1      43.593  23.195  26.915  1.00  0.00    -0.014 A 
BRANCH  34  35
ATOM     35  C   UNL A   1      44.018  24.585  27.179  1.00  0.00     0.031 A 
ATOM     36  C   UNL A   1      43.014  25.592  27.653  1.00  0.00     0.074 A 
ATOM     37  C   UNL A   1      45.310  24.927  27.044  1.00  0.00     0.049 A 
ATOM     38  N   UNL A   1      43.177  26.864  27.912  1.00  0.00    -0.248 NA
ATOM     39  C   UNL A   1      41.647  25.100  27.879  1.00  0.00     0.031 C 
ATOM     40  C   UNL A   1      46.386  24.018  26.653  1.00  0.00     0.029 A 
ATOM     41  N   UNL A   1      45.936  26.133  27.233  1.00  0.00    -0.354 N 
ATOM     42  C   UNL A   1      41.935  27.329  28.314  1.00  0.00     0.074 A 
ATOM     43  C   UNL A   1      41.026  26.203  28.275  1.00  0.00     0.031 C 
ATOM     44  C   UNL A   1      47.544  24.699  26.631  1.00  0.00     0.029 A 
ATOM     45  C   UNL A   1      47.284  26.094  26.979  1.00  0.00     0.049 A 
ATOM     46  H   UNL A   1      45.464  26.947  27.523  1.00  0.00     0.167 HD
ATOM     47  C   UNL A   1      41.586  28.585  28.679  1.00  0.00     0.037 A 
ATOM     48  C   UNL A   1      48.199  27.080  27.009  1.00  0.00     0.037 A 
ATOM     49  C   UNL A   1      42.487  29.704  28.722  1.00  0.00     0.049 A 
ATOM     50  C   UNL A   1      47.775  28.475  27.367  1.00  0.00     0.074 A 
ATOM     51  C   UNL A   1      42.220  31.016  29.069  1.00  0.00     0.029 A 
ATOM     52  N   UNL A   1      43.834  29.639  28.405  1.00  0.00    -0.354 N 
ATOM     53  N   UNL A   1      46.590  28.914  27.715  1.00  0.00    -0.248 NA
ATOM     54  C   UNL A   1      48.812  29.516  27.321  1.00  0.00     0.031 C 
ATOM     55  C   UNL A   1      43.405  31.751  28.945  1.00  0.00     0.029 A 
ATOM     56  C   UNL A   1      44.411  30.890  28.537  1.00  0.00     0.049 A 
ATOM     57  H   UNL A   1      44.311  28.824  28.126  1.00  0.00     0.167 HD
ATOM     58  C   UNL A   1      46.735  30.277  27.926  1.00  0.00     0.074 A 
ATOM     59  C   UNL A   1      48.127  30.594  27.683  1.00  0.00     0.031 C 
ATOM     60  C   UNL A   1      45.795  31.185  28.281  1.00  0.00     0.037 A 
BRANCH  47  61
ATOM     61  C   UNL A   1      40.154  28.816  29.035  1.00  0.00     0.064 A 
ATOM     62  C   UNL A   1      39.702  28.684  30.356  1.00  0.00     0.173 A 
ATOM     63  C   UNL A   1      39.231  29.195  28.052  1.00  0.00     0.173 A 
ATOM     64  F   UNL A   1      40.549  28.303  31.324  1.00  0.00    -0.203 F 
ATOM     65  C   UNL A   1      38.368  28.919  30.677  1.00  0.00     0.198 A 
ATOM     66  C   UNL A   1      37.900  29.439  28.378  1.00  0.00     0.198 A 
ATOM     67  F   UNL A   1      39.620  29.326  26.775  1.00  0.00    -0.203 F 
ATOM     68  F   UNL A   1      37.947  28.766  31.940  1.00  0.00    -0.200 F 
ATOM     69  C   UNL A   1      37.469  29.300  29.690  1.00  0.00     0.200 A 
ATOM     70  F   UNL A   1      37.033  29.804  27.424  1.00  0.00    -0.200 F 
ATOM     71  F   UNL A   1      36.186  29.524  30.001  1.00  0.00    -0.200 F 
ENDBRANCH  47  61
BRANCH  48  72
ATOM     72  C   UNL A   1      49.608  26.780  26.660  1.00  0.00     0.064 A 
ATOM     73  C   UNL A   1      50.038  26.794  25.328  1.00  0.00     0.173 A 
ATOM     74  C   UNL A   1      50.550  26.484  27.655  1.00  0.00     0.173 A 
ATOM     75  F   UNL A   1      49.162  27.047  24.345  1.00  0.00    -0.203 F 
ATOM     76  C   UNL A   1      51.364  26.520  25.001  1.00  0.00     0.198 A 
ATOM     77  C   UNL A   1      51.878  26.224  27.328  1.00  0.00     0.198 A 
ATOM     78  F   UNL A   1      50.179  26.452  28.943  1.00  0.00    -0.203 F 
ATOM     79  F   UNL A   1      51.748  26.513  23.717  1.00  0.00    -0.200 F 
ATOM     80  C   UNL A   1      52.284  26.240  26.002  1.00  0.00     0.200 A 
ATOM     81  F   UNL A   1      52.764  25.956  28.297  1.00  0.00    -0.200 F 
ATOM     82  F   UNL A   1      53.560  25.978  25.687  1.00  0.00    -0.200 F 
ENDBRANCH  48  72
BRANCH  60  83
ATOM     83  C   UNL A   1      46.242  32.606  28.420  1.00  0.00     0.064 A 
ATOM     84  C   UNL A   1      46.176  33.492  27.336  1.00  0.00     0.173 A 
ATOM     85  C   UNL A   1      46.698  33.095  29.652  1.00  0.00     0.173 A 
ATOM     86  F   UNL A   1      45.758  33.060  26.137  1.00  0.00    -0.203 F 
ATOM     87  C   UNL A   1      46.559  34.821  27.479  1.00  0.00     0.198 A 
ATOM     88  C   UNL A   1      47.070  34.428  29.794  1.00  0.00     0.198 A 
ATOM     89  F   UNL A   1      46.777  32.282  30.714  1.00  0.00    -0.203 F 
ATOM     90  F   UNL A   1      46.508  35.649  26.426  1.00  0.00    -0.200 F 
ATOM     91  C   UNL A   1      47.002  35.289  28.708  1.00  0.00     0.200 A 
ATOM     92  F   UNL A   1      47.497  34.881  30.980  1.00  0.00    -0.200 F 
ATOM     93  F   UNL A   1      47.370  36.571  28.844  1.00  0.00    -0.200 F 
ENDBRANCH  60  83
ENDBRANCH  34  35
ENDBRANCH  27  29
ENDBRANCH  26  27
ENDBRANCH  25  26
ENDBRANCH   1  25
TORSDOF 14
ENDMDL
MODEL 3
REMARK VINA RESULT:     -12.0      5.766     11.395
REMARK SMILES CS(=O)(=O)c1ccc(N2N=C(C(=O)OCCOC(=O)c3ccc(-c4c5nc(c(-c6c(F)c(F)c(F)c(F)c6F)c6ccc([nH]6)c(-c6c(F)c(F)c(F)c(F)c6F)c6nc(c(-c7c(F)c(F)c(F)c(F)c7F)c7ccc4[nH]7)C=C6)C=C5)cc3)C[C@H]2c2ccco2)cc1
REMARK SMILES IDX 15 1 14 2 12 3 13 4 11 5 9 6 10 7 84 8 83 9 8 10 5 11 6 12
REMARK SMILES IDX 91 13 7 14 90 15 2 16 1 17 3 18 4 19 85 20 86 21 89 22 87 23
REMARK SMILES IDX 88 24 16 25 17 26 18 27 19 28 20 29 21 30 82 31 22 32 81 33
REMARK SMILES IDX 23 34 24 35 25 36 75 37 26 38 80 39 74 40 76 41 27 42 79 43
REMARK SMILES IDX 73 44 72 45 28 47 60 48 40 49 59 50 41 51 44 52 58 53 77 54
REMARK SMILES IDX 42 55 43 56 57 58 78 59 45 60 29 61 30 62 38 63 31 64 32 65
REMARK SMILES IDX 36 66 39 67 33 68 34 69 37 70 35 71 61 72 62 73 70 74 63 75
REMARK SMILES IDX 64 76 68 77 71 78 65 79 66 80 69 81 67 82 46 83 47 84 55 85
REMARK SMILES IDX 48 86 49 87 53 88 56 89 50 90 51 91 54 92 52 93
REMARK H PARENT 76 46 44 57
REMARK Flexibility Score: inf
ROOT
ATOM      1  C   UNL A   1      39.279  21.177  26.365  1.00  0.00     0.275 C 
ENDROOT
BRANCH   1   2
ATOM      2  O   UNL A   1      38.610  21.965  25.363  1.00  0.00    -0.458 OA
BRANCH   2   3
ATOM      3  C   UNL A   1      38.033  23.103  25.794  1.00  0.00     0.354 C 
ATOM      4  O   UNL A   1      38.471  23.899  26.603  1.00  0.00    -0.245 OA
BRANCH   3   5
ATOM      5  C   UNL A   1      36.745  23.341  25.043  1.00  0.00     0.148 C 
ATOM      6  N   UNL A   1      34.878  24.179  24.510  1.00  0.00    -0.254 N 
ATOM      7  N   UNL A   1      35.934  24.308  25.350  1.00  0.00    -0.169 NA
ATOM      8  C   UNL A   1      34.940  22.998  23.645  1.00  0.00     0.180 C 
ATOM      9  C   UNL A   1      36.386  22.524  23.845  1.00  0.00     0.101 C 
BRANCH   6  10
ATOM     10  C   UNL A   1      34.007  25.234  24.291  1.00  0.00     0.060 A 
ATOM     11  C   UNL A   1      32.202  27.339  23.872  1.00  0.00     0.067 A 
ATOM     12  C   UNL A   1      32.758  26.676  22.775  1.00  0.00     0.022 A 
ATOM     13  C   UNL A   1      32.533  26.961  25.173  1.00  0.00     0.022 A 
ATOM     14  C   UNL A   1      33.665  25.635  22.992  1.00  0.00     0.029 A 
ATOM     15  C   UNL A   1      33.432  25.912  25.374  1.00  0.00     0.029 A 
BRANCH  11  16
ATOM     16  S   UNL A   1      31.022  28.640  23.596  1.00  0.00     0.175 S 
ATOM     17  C   UNL A   1      29.462  27.802  23.502  1.00  0.00     0.163 C 
ATOM     18  O   UNL A   1      31.293  29.213  22.290  1.00  0.00    -0.224 OA
ATOM     19  O   UNL A   1      31.028  29.468  24.787  1.00  0.00    -0.224 OA
ENDBRANCH  11  16
ENDBRANCH   6  10
BRANCH   8  20
ATOM     20  C   UNL A   1      33.927  21.944  23.980  1.00  0.00     0.128 A 
ATOM     21  C   UNL A   1      32.647  21.702  23.521  1.00  0.00     0.048 A 
ATOM     22  O   UNL A   1      34.244  21.041  24.955  1.00  0.00    -0.467 OA
ATOM     23  C   UNL A   1      32.158  20.599  24.260  1.00  0.00     0.042 A 
ATOM     24  C   UNL A   1      33.168  20.232  25.116  1.00  0.00     0.195 A 
ENDBRANCH   8  20
ENDBRANCH   3   5
ENDBRANCH   2   3
ENDBRANCH   1   2
BRANCH   1  25
ATOM     25  C   UNL A   1      39.828  19.886  25.750  1.00  0.00     0.275 C 
BRANCH  25  26
ATOM     26  O   UNL A   1      40.776  19.243  26.625  1.00  0.00    -0.458 OA
BRANCH  26  27
ATOM     27  C   UNL A   1      42.062  19.262  26.199  1.00  0.00     0.338 C 
ATOM     28  O   UNL A   1      42.671  18.356  25.656  1.00  0.00    -0.246 OA
BRANCH  27  29
ATOM     29  C   UNL A   1      42.620  20.618  26.365  1.00  0.00     0.060 A 
ATOM     30  C   UNL A   1      42.623  21.161  27.651  1.00  0.00     0.016 A 
ATOM     31  C   UNL A   1      43.087  21.368  25.283  1.00  0.00     0.016 A 
ATOM     32  C   UNL A   1      43.102  22.447  27.873  1.00  0.00     0.010 A 
ATOM     33  C   UNL A   1      43.550  22.671  25.500  1.00  0.00     0.010 A 
ATOM     34  C   UNL A   1      43.553  23.216  26.796  1.00  0.00    -0.014 A 
BRANCH  34  35
ATOM     35  C   UNL A   1      43.979  24.611  27.035  1.00  0.00     0.031 A 
ATOM     36  C   UNL A   1      42.997  25.606  27.574  1.00  0.00     0.074 A 
ATOM     37  C   UNL A   1      45.256  24.968  26.819  1.00  0.00     0.049 A 
ATOM     38  N   UNL A   1      43.162  26.880  27.825  1.00  0.00    -0.248 NA
ATOM     39  C   UNL A   1      41.652  25.098  27.886  1.00  0.00     0.031 C 
ATOM     40  C   UNL A   1      46.315  24.071  26.358  1.00  0.00     0.029 A 
ATOM     41  N   UNL A   1      45.879  26.180  26.970  1.00  0.00    -0.354 N 
ATOM     42  C   UNL A   1      41.942  27.330  28.305  1.00  0.00     0.074 A 
ATOM     43  C   UNL A   1      41.045  26.194  28.322  1.00  0.00     0.031 C 
ATOM     44  C   UNL A   1      47.461  24.765  26.264  1.00  0.00     0.029 A 
ATOM     45  C   UNL A   1      47.209  26.157  26.630  1.00  0.00     0.049 A 
ATOM     46  H   UNL A   1      45.418  26.989  27.290  1.00  0.00     0.167 HD
ATOM     47  C   UNL A   1      41.603  28.581  28.694  1.00  0.00     0.037 A 
ATOM     48  C   UNL A   1      48.113  27.153  26.603  1.00  0.00     0.037 A 
ATOM     49  C   UNL A   1      42.492  29.710  28.682  1.00  0.00     0.049 A 
ATOM     50  C   UNL A   1      47.697  28.543  26.991  1.00  0.00     0.074 A 
ATOM     51  C   UNL A   1      42.233  31.020  29.048  1.00  0.00     0.029 A 
ATOM     52  N   UNL A   1      43.817  29.661  28.279  1.00  0.00    -0.354 N 
ATOM     53  N   UNL A   1      46.531  28.968  27.414  1.00  0.00    -0.248 NA
ATOM     54  C   UNL A   1      48.716  29.596  26.880  1.00  0.00     0.031 C 
ATOM     55  C   UNL A   1      43.400  31.768  28.850  1.00  0.00     0.029 A 
ATOM     56  C   UNL A   1      44.387  30.919  28.377  1.00  0.00     0.049 A 
ATOM     57  H   UNL A   1      44.284  28.852  27.969  1.00  0.00     0.167 HD
ATOM     58  C   UNL A   1      46.674  30.332  27.617  1.00  0.00     0.074 A 
ATOM     59  C   UNL A   1      48.045  30.665  27.287  1.00  0.00     0.031 C 
ATOM     60  C   UNL A   1      45.749  31.229  28.033  1.00  0.00     0.037 A 
BRANCH  47  61
ATOM     61  C   UNL A   1      40.194  28.796  29.142  1.00  0.00     0.064 A 
ATOM     62  C   UNL A   1      39.186  29.143  28.231  1.00  0.00     0.173 A 
ATOM     63  C   UNL A   1      39.844  28.631  30.488  1.00  0.00     0.173 A 
ATOM     64  F   UNL A   1      39.483  29.330  26.936  1.00  0.00    -0.203 F 
ATOM     65  C   UNL A   1      37.873  29.323  28.658  1.00  0.00     0.198 A 
ATOM     66  C   UNL A   1      38.530  28.802  30.911  1.00  0.00     0.198 A 
ATOM     67  F   UNL A   1      40.779  28.307  31.394  1.00  0.00    -0.203 F 
ATOM     68  F   UNL A   1      36.927  29.677  27.779  1.00  0.00    -0.200 F 
ATOM     69  C   UNL A   1      37.545  29.149  29.995  1.00  0.00     0.200 A 
ATOM     70  F   UNL A   1      38.214  28.637  32.203  1.00  0.00    -0.200 F 
ATOM     71  F   UNL A   1      36.282  29.325  30.405  1.00  0.00    -0.200 F 
ENDBRANCH  47  61
BRANCH  48  72
ATOM     72  C   UNL A   1      49.500  26.870  26.165  1.00  0.00     0.064 A 
ATOM     73  C   UNL A   1      49.862  26.966  24.816  1.00  0.00     0.173 A 
ATOM     74  C   UNL A   1      50.489  26.507  27.089  1.00  0.00     0.173 A 
ATOM     75  F   UNL A   1      48.939  27.285  23.897  1.00  0.00    -0.203 F 
ATOM     76  C   UNL A   1      51.167  26.707  24.405  1.00  0.00     0.198 A 
ATOM     77  C   UNL A   1      51.797  26.262  26.680  1.00  0.00     0.198 A 
ATOM     78  F   UNL A   1      50.183  26.395  28.390  1.00  0.00    -0.203 F 
ATOM     79  F   UNL A   1      51.486  26.780  23.106  1.00  0.00    -0.200 F 
ATOM     80  C   UNL A   1      52.135  26.360  25.338  1.00  0.00     0.200 A 
ATOM     81  F   UNL A   1      52.728  25.930  27.583  1.00  0.00    -0.200 F 
ATOM     82  F   UNL A   1      53.391  26.113  24.942  1.00  0.00    -0.200 F 
ENDBRANCH  48  72
BRANCH  60  83
ATOM     83  C   UNL A   1      46.188  32.655  28.146  1.00  0.00     0.064 A 
ATOM     84  C   UNL A   1      46.796  33.131  29.317  1.00  0.00     0.173 A 
ATOM     85  C   UNL A   1      46.040  33.537  27.067  1.00  0.00     0.173 A 
ATOM     86  F   UNL A   1      46.944  32.323  30.377  1.00  0.00    -0.203 F 
ATOM     87  C   UNL A   1      47.234  34.448  29.405  1.00  0.00     0.198 A 
ATOM     88  C   UNL A   1      46.490  34.850  27.156  1.00  0.00     0.198 A 
ATOM     89  F   UNL A   1      45.464  33.122  25.930  1.00  0.00    -0.203 F 
ATOM     90  F   UNL A   1      47.795  34.892  30.538  1.00  0.00    -0.200 F 
ATOM     91  C   UNL A   1      47.086  35.305  28.324  1.00  0.00     0.200 A 
ATOM     92  F   UNL A   1      46.347  35.678  26.112  1.00  0.00    -0.200 F 
ATOM     93  F   UNL A   1      47.510  36.574  28.411  1.00  0.00    -0.200 F 
ENDBRANCH  60  83
ENDBRANCH  34  35
ENDBRANCH  27  29
ENDBRANCH  26  27
ENDBRANCH  25  26
ENDBRANCH   1  25
TORSDOF 14
ENDMDL
