MODEL 1
REMARK VINA RESULT:     -10.8      0.000      0.000
REMARK SMILES Cc1nn(C)c(OCC(C)(C)[NH+](C)C)c1C(=O)OCCOC(=O)c1ccc(-c2c3nc(c(-c4c(F)c(F)c(F)c(F)c4F)c4ccc([nH]4)c(-c4c(F)c(F)c(F)c(F)c4F)c4nc(c(-c5c(F)c(F)c(F)c(F)c5F)c5ccc2[nH]5)C=C4)C=C3)cc1
REMARK SMILES IDX 19 1 18 2 16 3 17 4 15 5 1 6 2 7 3 8 4 9 6 10 5 11 7 12 8 13
REMARK SMILES IDX 9 14 10 15 11 16 12 17 13 18 14 19 20 21 21 22 22 23 23 24
REMARK SMILES IDX 24 25 25 26 86 27 26 28 85 29 27 30 28 31 29 32 79 33 30 34
REMARK SMILES IDX 84 35 78 36 80 37 31 38 83 39 77 40 76 41 32 43 64 44 44 45
REMARK SMILES IDX 63 46 45 47 48 48 62 49 81 50 46 51 47 52 61 54 82 55 49 56
REMARK SMILES IDX 33 57 34 58 42 59 35 60 36 61 40 62 43 63 37 64 38 65 41 66
REMARK SMILES IDX 39 67 65 68 66 69 74 70 67 71 68 72 72 73 75 74 69 75 70 76
REMARK SMILES IDX 73 77 71 78 50 79 51 80 59 81 52 82 53 83 57 84 60 85 54 86
REMARK SMILES IDX 55 87 58 88 56 89
REMARK H PARENT 12 20 80 42 48 53
REMARK Flexibility Score: inf
ROOT
ATOM      1  C   UNL A   1      31.782  28.226  26.618  1.00  0.00     0.275 C 
ENDROOT
BRANCH   1   2
ATOM      2  O   UNL A   1      31.674  27.121  25.694  1.00  0.00    -0.458 OA
BRANCH   2   3
ATOM      3  C   UNL A   1      32.884  26.539  25.435  1.00  0.00     0.345 C 
ATOM      4  O   UNL A   1      33.896  26.955  25.968  1.00  0.00    -0.246 OA
BRANCH   3   5
ATOM      5  C   UNL A   1      32.872  25.395  24.537  1.00  0.00     0.144 A 
ATOM      6  C   UNL A   1      31.753  26.308  22.315  1.00  0.00     0.070 C 
ATOM      7  C   UNL A   1      32.308  25.276  23.228  1.00  0.00     0.078 A 
ATOM      8  N   UNL A   1      32.355  24.018  22.775  1.00  0.00    -0.174 NA
ATOM      9  N   UNL A   1      32.986  23.352  23.749  1.00  0.00    -0.236 N 
ATOM     10  C   UNL A   1      33.510  24.163  24.731  1.00  0.00     0.227 A 
ATOM     11  C   UNL A   1      33.069  21.911  23.678  1.00  0.00     0.178 C 
BRANCH  10  12
ATOM     12  O   UNL A   1      34.409  23.603  25.547  1.00  0.00    -0.471 OA
BRANCH  12  13
ATOM     13  C   UNL A   1      35.807  23.847  25.452  1.00  0.00     0.299 C 
BRANCH  13  14
ATOM     14  C   UNL A   1      36.745  22.682  24.945  1.00  0.00     0.126 C 
ATOM     15  C   UNL A   1      36.281  21.265  25.357  1.00  0.00     0.082 C 
ATOM     16  C   UNL A   1      36.693  22.777  23.392  1.00  0.00     0.082 C 
BRANCH  14  17
ATOM     17  N   UNL A   1      38.167  22.933  25.371  1.00  0.00    -0.333 N 
ATOM     18  C   UNL A   1      38.289  24.018  26.352  1.00  0.00     0.333 C 
ATOM     19  C   UNL A   1      38.875  21.753  25.871  1.00  0.00     0.333 C 
ATOM     20  H   UNL A   1      38.619  23.213  24.500  1.00  0.00     0.348 HD
ENDBRANCH  14  17
ENDBRANCH  13  14
ENDBRANCH  12  13
ENDBRANCH  10  12
ENDBRANCH   3   5
ENDBRANCH   2   3
ENDBRANCH   1   2
BRANCH   1  21
ATOM     21  C   UNL A   1      31.720  29.616  25.953  1.00  0.00     0.275 C 
BRANCH  21  22
ATOM     22  O   UNL A   1      32.994  30.299  25.885  1.00  0.00    -0.458 OA
BRANCH  22  23
ATOM     23  C   UNL A   1      33.205  31.249  26.833  1.00  0.00     0.338 C 
ATOM     24  O   UNL A   1      32.400  32.102  27.175  1.00  0.00    -0.246 OA
BRANCH  23  25
ATOM     25  C   UNL A   1      34.485  31.026  27.562  1.00  0.00     0.060 A 
ATOM     26  C   UNL A   1      34.766  29.719  27.988  1.00  0.00     0.016 A 
ATOM     27  C   UNL A   1      35.414  32.039  27.819  1.00  0.00     0.016 A 
ATOM     28  C   UNL A   1      35.971  29.420  28.636  1.00  0.00     0.010 A 
ATOM     29  C   UNL A   1      36.605  31.746  28.509  1.00  0.00     0.010 A 
ATOM     30  C   UNL A   1      36.895  30.435  28.925  1.00  0.00    -0.014 A 
BRANCH  30  31
ATOM     31  C   UNL A   1      38.061  30.140  29.809  1.00  0.00     0.031 A 
ATOM     32  C   UNL A   1      39.127  29.205  29.298  1.00  0.00     0.074 A 
ATOM     33  C   UNL A   1      38.206  30.690  31.031  1.00  0.00     0.049 A 
ATOM     34  N   UNL A   1      40.239  28.815  29.869  1.00  0.00    -0.248 NA
ATOM     35  C   UNL A   1      38.904  28.633  27.961  1.00  0.00     0.031 C 
ATOM     36  C   UNL A   1      37.286  31.636  31.650  1.00  0.00     0.029 A 
ATOM     37  N   UNL A   1      39.197  30.526  31.974  1.00  0.00    -0.354 N 
ATOM     38  C   UNL A   1      40.857  27.974  28.954  1.00  0.00     0.074 A 
ATOM     39  C   UNL A   1      39.991  27.894  27.798  1.00  0.00     0.031 C 
ATOM     40  C   UNL A   1      37.753  31.976  32.865  1.00  0.00     0.029 A 
ATOM     41  C   UNL A   1      38.985  31.236  33.134  1.00  0.00     0.049 A 
ATOM     42  H   UNL A   1      39.985  29.953  31.832  1.00  0.00     0.167 HD
ATOM     43  C   UNL A   1      42.034  27.315  29.064  1.00  0.00     0.037 A 
ATOM     44  C   UNL A   1      39.687  31.263  34.286  1.00  0.00     0.037 A 
ATOM     45  C   UNL A   1      42.876  27.325  30.229  1.00  0.00     0.049 A 
ATOM     46  C   UNL A   1      40.934  30.419  34.426  1.00  0.00     0.074 A 
ATOM     47  C   UNL A   1      44.074  26.662  30.432  1.00  0.00     0.029 A 
ATOM     48  N   UNL A   1      42.594  28.010  31.401  1.00  0.00    -0.354 N 
ATOM     49  N   UNL A   1      41.534  29.668  33.536  1.00  0.00    -0.248 NA
ATOM     50  C   UNL A   1      41.598  30.424  35.741  1.00  0.00     0.031 C 
ATOM     51  C   UNL A   1      44.486  26.895  31.747  1.00  0.00     0.029 A 
ATOM     52  C   UNL A   1      43.579  27.756  32.342  1.00  0.00     0.049 A 
ATOM     53  H   UNL A   1      41.811  28.590  31.543  1.00  0.00     0.167 HD
ATOM     54  C   UNL A   1      42.659  29.146  34.168  1.00  0.00     0.074 A 
ATOM     55  C   UNL A   1      42.666  29.674  35.514  1.00  0.00     0.031 C 
ATOM     56  C   UNL A   1      43.598  28.303  33.674  1.00  0.00     0.037 A 
BRANCH  43  57
ATOM     57  C   UNL A   1      42.456  26.475  27.896  1.00  0.00     0.064 A 
ATOM     58  C   UNL A   1      43.360  26.954  26.938  1.00  0.00     0.173 A 
ATOM     59  C   UNL A   1      41.964  25.170  27.746  1.00  0.00     0.173 A 
ATOM     60  F   UNL A   1      43.843  28.202  27.029  1.00  0.00    -0.203 F 
ATOM     61  C   UNL A   1      43.739  26.163  25.857  1.00  0.00     0.198 A 
ATOM     62  C   UNL A   1      42.366  24.373  26.680  1.00  0.00     0.198 A 
ATOM     63  F   UNL A   1      41.096  24.669  28.638  1.00  0.00    -0.203 F 
ATOM     64  F   UNL A   1      44.570  26.655  24.928  1.00  0.00    -0.200 F 
ATOM     65  C   UNL A   1      43.247  24.872  25.733  1.00  0.00     0.200 A 
ATOM     66  F   UNL A   1      41.896  23.123  26.566  1.00  0.00    -0.200 F 
ATOM     67  F   UNL A   1      43.617  24.110  24.694  1.00  0.00    -0.200 F 
ENDBRANCH  43  57
BRANCH  44  68
ATOM     68  C   UNL A   1      39.224  32.084  35.442  1.00  0.00     0.064 A 
ATOM     69  C   UNL A   1      39.665  33.406  35.615  1.00  0.00     0.173 A 
ATOM     70  C   UNL A   1      38.411  31.537  36.445  1.00  0.00     0.173 A 
ATOM     71  F   UNL A   1      40.479  33.965  34.706  1.00  0.00    -0.203 F 
ATOM     72  C   UNL A   1      39.339  34.132  36.760  1.00  0.00     0.198 A 
ATOM     73  C   UNL A   1      38.059  32.275  37.574  1.00  0.00     0.198 A 
ATOM     74  F   UNL A   1      37.975  30.273  36.341  1.00  0.00    -0.203 F 
ATOM     75  F   UNL A   1      39.839  35.363  36.935  1.00  0.00    -0.200 F 
ATOM     76  C   UNL A   1      38.534  33.567  37.737  1.00  0.00     0.200 A 
ATOM     77  F   UNL A   1      37.279  31.725  38.515  1.00  0.00    -0.200 F 
ATOM     78  F   UNL A   1      38.236  34.258  38.846  1.00  0.00    -0.200 F 
ENDBRANCH  44  68
BRANCH  56  79
ATOM     79  C   UNL A   1      44.753  27.934  34.564  1.00  0.00     0.064 A 
ATOM     80  C   UNL A   1      45.920  28.711  34.628  1.00  0.00     0.173 A 
ATOM     81  C   UNL A   1      44.662  26.819  35.413  1.00  0.00     0.173 A 
ATOM     82  F   UNL A   1      46.064  29.780  33.830  1.00  0.00    -0.203 F 
ATOM     83  C   UNL A   1      46.959  28.373  35.492  1.00  0.00     0.198 A 
ATOM     84  C   UNL A   1      45.689  26.504  36.299  1.00  0.00     0.198 A 
ATOM     85  F   UNL A   1      43.566  26.046  35.399  1.00  0.00    -0.203 F 
ATOM     86  F   UNL A   1      48.081  29.106  35.506  1.00  0.00    -0.200 F 
ATOM     87  C   UNL A   1      46.839  27.277  36.333  1.00  0.00     0.200 A 
ATOM     88  F   UNL A   1      45.563  25.454  37.122  1.00  0.00    -0.200 F 
ATOM     89  F   UNL A   1      47.834  26.964  37.174  1.00  0.00    -0.200 F 
ENDBRANCH  56  79
ENDBRANCH  30  31
ENDBRANCH  23  25
ENDBRANCH  22  23
ENDBRANCH  21  22
ENDBRANCH   1  21
TORSDOF 15
ENDMDL
MODEL 2
REMARK VINA RESULT:     -10.7      0.976      2.908
REMARK SMILES Cc1nn(C)c(OCC(C)(C)[NH+](C)C)c1C(=O)OCCOC(=O)c1ccc(-c2c3nc(c(-c4c(F)c(F)c(F)c(F)c4F)c4ccc([nH]4)c(-c4c(F)c(F)c(F)c(F)c4F)c4nc(c(-c5c(F)c(F)c(F)c(F)c5F)c5ccc2[nH]5)C=C4)C=C3)cc1
REMARK SMILES IDX 19 1 18 2 16 3 17 4 15 5 1 6 2 7 3 8 4 9 6 10 5 11 7 12 8 13
REMARK SMILES IDX 9 14 10 15 11 16 12 17 13 18 14 19 20 21 21 22 22 23 23 24
REMARK SMILES IDX 24 25 25 26 86 27 26 28 85 29 27 30 28 31 29 32 79 33 30 34
REMARK SMILES IDX 84 35 78 36 80 37 31 38 83 39 77 40 76 41 32 43 64 44 44 45
REMARK SMILES IDX 63 46 45 47 48 48 62 49 81 50 46 51 47 52 61 54 82 55 49 56
REMARK SMILES IDX 33 57 34 58 42 59 35 60 36 61 40 62 43 63 37 64 38 65 41 66
REMARK SMILES IDX 39 67 65 68 66 69 74 70 67 71 68 72 72 73 75 74 69 75 70 76
REMARK SMILES IDX 73 77 71 78 50 79 51 80 59 81 52 82 53 83 57 84 60 85 54 86
REMARK SMILES IDX 55 87 58 88 56 89
REMARK H PARENT 12 20 80 42 48 53
REMARK Flexibility Score: inf
ROOT
ATOM      1  C   UNL A   1      31.649  27.577  26.632  1.00  0.00     0.275 C 
ENDROOT
BRANCH   1   2
ATOM      2  O   UNL A   1      32.744  26.718  26.242  1.00  0.00    -0.458 OA
BRANCH   2   3
ATOM      3  C   UNL A   1      32.463  25.395  26.440  1.00  0.00     0.345 C 
ATOM      4  O   UNL A   1      31.360  25.047  26.821  1.00  0.00    -0.246 OA
BRANCH   3   5
ATOM      5  C   UNL A   1      33.529  24.455  26.134  1.00  0.00     0.144 A 
ATOM      6  C   UNL A   1      33.316  22.580  27.995  1.00  0.00     0.070 C 
ATOM      7  C   UNL A   1      33.947  23.291  26.854  1.00  0.00     0.078 A 
ATOM      8  N   UNL A   1      35.068  22.766  26.348  1.00  0.00    -0.174 NA
ATOM      9  N   UNL A   1      35.335  23.541  25.291  1.00  0.00    -0.236 N 
ATOM     10  C   UNL A   1      34.333  24.435  24.987  1.00  0.00     0.227 A 
ATOM     11  C   UNL A   1      36.587  23.369  24.590  1.00  0.00     0.178 C 
BRANCH  10  12
ATOM     12  O   UNL A   1      34.393  25.006  23.779  1.00  0.00    -0.471 OA
BRANCH  12  13
ATOM     13  C   UNL A   1      33.555  24.625  22.695  1.00  0.00     0.299 C 
BRANCH  13  14
ATOM     14  C   UNL A   1      32.421  25.622  22.230  1.00  0.00     0.126 C 
ATOM     15  C   UNL A   1      32.623  27.082  22.701  1.00  0.00     0.082 C 
ATOM     16  C   UNL A   1      32.486  25.600  20.675  1.00  0.00     0.082 C 
BRANCH  14  17
ATOM     17  N   UNL A   1      31.068  25.102  22.639  1.00  0.00    -0.333 N 
ATOM     18  C   UNL A   1      31.129  23.775  23.264  1.00  0.00     0.333 C 
ATOM     19  C   UNL A   1      30.299  26.004  23.499  1.00  0.00     0.333 C 
ATOM     20  H   UNL A   1      30.573  25.033  21.749  1.00  0.00     0.348 HD
ENDBRANCH  14  17
ENDBRANCH  13  14
ENDBRANCH  12  13
ENDBRANCH  10  12
ENDBRANCH   3   5
ENDBRANCH   2   3
ENDBRANCH   1   2
BRANCH   1  21
ATOM     21  C   UNL A   1      31.601  28.923  25.880  1.00  0.00     0.275 C 
BRANCH  21  22
ATOM     22  O   UNL A   1      32.878  29.597  25.789  1.00  0.00    -0.458 OA
BRANCH  22  23
ATOM     23  C   UNL A   1      33.054  30.643  26.638  1.00  0.00     0.338 C 
ATOM     24  O   UNL A   1      32.228  31.512  26.876  1.00  0.00    -0.246 OA
BRANCH  23  25
ATOM     25  C   UNL A   1      34.322  30.520  27.410  1.00  0.00     0.060 A 
ATOM     26  C   UNL A   1      34.812  29.227  27.645  1.00  0.00     0.016 A 
ATOM     27  C   UNL A   1      35.046  31.619  27.886  1.00  0.00     0.016 A 
ATOM     28  C   UNL A   1      36.024  29.031  28.319  1.00  0.00     0.010 A 
ATOM     29  C   UNL A   1      36.242  31.419  28.602  1.00  0.00     0.010 A 
ATOM     30  C   UNL A   1      36.742  30.124  28.827  1.00  0.00    -0.014 A 
BRANCH  30  31
ATOM     31  C   UNL A   1      37.905  29.887  29.731  1.00  0.00     0.031 A 
ATOM     32  C   UNL A   1      39.012  28.984  29.251  1.00  0.00     0.074 A 
ATOM     33  C   UNL A   1      38.011  30.461  30.947  1.00  0.00     0.049 A 
ATOM     34  N   UNL A   1      40.129  28.646  29.844  1.00  0.00    -0.248 NA
ATOM     35  C   UNL A   1      38.831  28.384  27.920  1.00  0.00     0.031 C 
ATOM     36  C   UNL A   1      37.047  31.381  31.537  1.00  0.00     0.029 A 
ATOM     37  N   UNL A   1      38.993  30.349  31.906  1.00  0.00    -0.354 N 
ATOM     38  C   UNL A   1      40.792  27.814  28.952  1.00  0.00     0.074 A 
ATOM     39  C   UNL A   1      39.946  27.684  27.785  1.00  0.00     0.031 C 
ATOM     40  C   UNL A   1      37.483  31.758  32.753  1.00  0.00     0.029 A 
ATOM     41  C   UNL A   1      38.738  31.068  33.052  1.00  0.00     0.049 A 
ATOM     42  H   UNL A   1      39.804  29.804  31.785  1.00  0.00     0.167 HD
ATOM     43  C   UNL A   1      41.990  27.201  29.089  1.00  0.00     0.037 A 
ATOM     44  C   UNL A   1      39.421  31.139  34.213  1.00  0.00     0.037 A 
ATOM     45  C   UNL A   1      42.814  27.261  30.266  1.00  0.00     0.049 A 
ATOM     46  C   UNL A   1      40.696  30.345  34.384  1.00  0.00     0.074 A 
ATOM     47  C   UNL A   1      44.033  26.647  30.497  1.00  0.00     0.029 A 
ATOM     48  N   UNL A   1      42.489  27.952  31.423  1.00  0.00    -0.354 N 
ATOM     49  N   UNL A   1      41.337  29.603  33.515  1.00  0.00    -0.248 NA
ATOM     50  C   UNL A   1      41.339  30.395  35.709  1.00  0.00     0.031 C 
ATOM     51  C   UNL A   1      44.416  26.915  31.814  1.00  0.00     0.029 A 
ATOM     52  C   UNL A   1      43.469  27.750  32.381  1.00  0.00     0.049 A 
ATOM     53  H   UNL A   1      41.683  28.505  31.543  1.00  0.00     0.167 HD
ATOM     54  C   UNL A   1      42.470  29.133  34.171  1.00  0.00     0.074 A 
ATOM     55  C   UNL A   1      42.438  29.682  35.509  1.00  0.00     0.031 C 
ATOM     56  C   UNL A   1      43.448  28.318  33.705  1.00  0.00     0.037 A 
BRANCH  43  57
ATOM     57  C   UNL A   1      42.460  26.359  27.941  1.00  0.00     0.064 A 
ATOM     58  C   UNL A   1      42.025  25.037  27.776  1.00  0.00     0.173 A 
ATOM     59  C   UNL A   1      43.339  26.890  26.985  1.00  0.00     0.173 A 
ATOM     60  F   UNL A   1      41.199  24.480  28.674  1.00  0.00    -0.203 F 
ATOM     61  C   UNL A   1      42.473  24.268  26.706  1.00  0.00     0.198 A 
ATOM     62  C   UNL A   1      43.762  26.128  25.902  1.00  0.00     0.198 A 
ATOM     63  F   UNL A   1      43.782  28.151  27.101  1.00  0.00    -0.203 F 
ATOM     64  F   UNL A   1      42.081  22.991  26.590  1.00  0.00    -0.200 F 
ATOM     65  C   UNL A   1      43.336  24.815  25.767  1.00  0.00     0.200 A 
ATOM     66  F   UNL A   1      44.589  26.660  24.992  1.00  0.00    -0.200 F 
ATOM     67  F   UNL A   1      43.762  24.074  24.735  1.00  0.00    -0.200 F 
ENDBRANCH  43  57
BRANCH  44  68
ATOM     68  C   UNL A   1      38.911  31.960  35.349  1.00  0.00     0.064 A 
ATOM     69  C   UNL A   1      39.233  33.322  35.461  1.00  0.00     0.173 A 
ATOM     70  C   UNL A   1      38.173  31.382  36.392  1.00  0.00     0.173 A 
ATOM     71  F   UNL A   1      39.972  33.916  34.512  1.00  0.00    -0.203 F 
ATOM     72  C   UNL A   1      38.868  34.060  36.586  1.00  0.00     0.198 A 
ATOM     73  C   UNL A   1      37.779  32.130  37.501  1.00  0.00     0.198 A 
ATOM     74  F   UNL A   1      37.852  30.081  36.347  1.00  0.00    -0.203 F 
ATOM     75  F   UNL A   1      39.257  35.337  36.703  1.00  0.00    -0.200 F 
ATOM     76  C   UNL A   1      38.139  33.464  37.604  1.00  0.00     0.200 A 
ATOM     77  F   UNL A   1      37.074  31.549  38.482  1.00  0.00    -0.200 F 
ATOM     78  F   UNL A   1      37.803  34.169  38.693  1.00  0.00    -0.200 F 
ENDBRANCH  44  68
BRANCH  56  79
ATOM     79  C   UNL A   1      44.602  28.007  34.617  1.00  0.00     0.064 A 
ATOM     80  C   UNL A   1      44.613  26.872  35.442  1.00  0.00     0.173 A 
ATOM     81  C   UNL A   1      45.743  28.826  34.616  1.00  0.00     0.173 A 
ATOM     82  F   UNL A   1      43.544  26.063  35.491  1.00  0.00    -0.203 F 
ATOM     83  C   UNL A   1      45.712  26.581  36.246  1.00  0.00     0.198 A 
ATOM     84  C   UNL A   1      46.853  28.514  35.397  1.00  0.00     0.198 A 
ATOM     85  F   UNL A   1      45.791  29.919  33.840  1.00  0.00    -0.203 F 
ATOM     86  F   UNL A   1      45.683  25.515  37.059  1.00  0.00    -0.200 F 
ATOM     87  C   UNL A   1      46.835  27.396  36.216  1.00  0.00     0.200 A 
ATOM     88  F   UNL A   1      47.943  29.293  35.351  1.00  0.00    -0.200 F 
ATOM     89  F   UNL A   1      47.896  27.105  36.980  1.00  0.00    -0.200 F 
ENDBRANCH  56  79
ENDBRANCH  30  31
ENDBRANCH  23  25
ENDBRANCH  22  23
ENDBRANCH  21  22
ENDBRANCH   1  21
TORSDOF 15
ENDMDL
MODEL 3
REMARK VINA RESULT:     -10.6      4.607      7.441
REMARK SMILES Cc1nn(C)c(OCC(C)(C)[NH+](C)C)c1C(=O)OCCOC(=O)c1ccc(-c2c3nc(c(-c4c(F)c(F)c(F)c(F)c4F)c4ccc([nH]4)c(-c4c(F)c(F)c(F)c(F)c4F)c4nc(c(-c5c(F)c(F)c(F)c(F)c5F)c5ccc2[nH]5)C=C4)C=C3)cc1
REMARK SMILES IDX 19 1 18 2 16 3 17 4 15 5 1 6 2 7 3 8 4 9 6 10 5 11 7 12 8 13
REMARK SMILES IDX 9 14 10 15 11 16 12 17 13 18 14 19 20 21 21 22 22 23 23 24
REMARK SMILES IDX 24 25 25 26 86 27 26 28 85 29 27 30 28 31 29 32 79 33 30 34
REMARK SMILES IDX 84 35 78 36 80 37 31 38 83 39 77 40 76 41 32 43 64 44 44 45
REMARK SMILES IDX 63 46 45 47 48 48 62 49 81 50 46 51 47 52 61 54 82 55 49 56
REMARK SMILES IDX 33 57 34 58 42 59 35 60 36 61 40 62 43 63 37 64 38 65 41 66
REMARK SMILES IDX 39 67 65 68 66 69 74 70 67 71 68 72 72 73 75 74 69 75 70 76
REMARK SMILES IDX 73 77 71 78 50 79 51 80 59 81 52 82 53 83 57 84 60 85 54 86
REMARK SMILES IDX 55 87 58 88 56 89
REMARK H PARENT 12 20 80 42 48 53
REMARK Flexibility Score: inf
ROOT
ATOM      1  C   UNL A   1      37.910  20.364  24.717  1.00  0.00     0.275 C 
ENDROOT
BRANCH   1   2
ATOM      2  O   UNL A   1      37.185  21.504  25.231  1.00  0.00    -0.458 OA
BRANCH   2   3
ATOM      3  C   UNL A   1      36.471  22.147  24.259  1.00  0.00     0.345 C 
ATOM      4  O   UNL A   1      37.029  22.593  23.274  1.00  0.00    -0.246 OA
BRANCH   3   5
ATOM      5  C   UNL A   1      35.032  22.221  24.457  1.00  0.00     0.144 A 
ATOM      6  C   UNL A   1      34.288  24.381  23.114  1.00  0.00     0.070 C 
ATOM      7  C   UNL A   1      34.109  23.229  24.035  1.00  0.00     0.078 A 
ATOM      8  N   UNL A   1      32.886  23.032  24.540  1.00  0.00    -0.174 NA
ATOM      9  N   UNL A   1      33.006  21.890  25.226  1.00  0.00    -0.236 N 
ATOM     10  C   UNL A   1      34.208  21.247  25.036  1.00  0.00     0.227 A 
ATOM     11  C   UNL A   1      31.907  21.449  26.056  1.00  0.00     0.178 C 
BRANCH  10  12
ATOM     12  O   UNL A   1      34.268  19.970  25.430  1.00  0.00    -0.471 OA
BRANCH  12  13
ATOM     13  C   UNL A   1      34.630  18.903  24.562  1.00  0.00     0.299 C 
BRANCH  13  14
ATOM     14  C   UNL A   1      33.653  17.668  24.434  1.00  0.00     0.126 C 
ATOM     15  C   UNL A   1      32.153  18.045  24.377  1.00  0.00     0.082 C 
ATOM     16  C   UNL A   1      34.037  16.997  23.084  1.00  0.00     0.082 C 
BRANCH  14  17
ATOM     17  N   UNL A   1      33.921  16.674  25.532  1.00  0.00    -0.333 N 
ATOM     18  C   UNL A   1      32.804  15.748  25.753  1.00  0.00     0.333 C 
ATOM     19  C   UNL A   1      35.158  15.905  25.376  1.00  0.00     0.333 C 
ATOM     20  H   UNL A   1      34.033  17.268  26.354  1.00  0.00     0.348 HD
ENDBRANCH  14  17
ENDBRANCH  13  14
ENDBRANCH  12  13
ENDBRANCH  10  12
ENDBRANCH   3   5
ENDBRANCH   2   3
ENDBRANCH   1   2
BRANCH   1  21
ATOM     21  C   UNL A   1      38.858  19.703  25.739  1.00  0.00     0.275 C 
BRANCH  21  22
ATOM     22  O   UNL A   1      40.195  20.255  25.751  1.00  0.00    -0.458 OA
BRANCH  22  23
ATOM     23  C   UNL A   1      40.779  20.362  26.973  1.00  0.00     0.338 C 
ATOM     24  O   UNL A   1      41.164  19.426  27.660  1.00  0.00    -0.246 OA
BRANCH  23  25
ATOM     25  C   UNL A   1      41.077  21.779  27.322  1.00  0.00     0.060 A 
ATOM     26  C   UNL A   1      40.527  22.775  26.501  1.00  0.00     0.016 A 
ATOM     27  C   UNL A   1      41.850  22.156  28.424  1.00  0.00     0.016 A 
ATOM     28  C   UNL A   1      40.720  24.131  26.792  1.00  0.00     0.010 A 
ATOM     29  C   UNL A   1      42.081  23.519  28.691  1.00  0.00     0.010 A 
ATOM     30  C   UNL A   1      41.520  24.520  27.877  1.00  0.00    -0.014 A 
BRANCH  30  31
ATOM     31  C   UNL A   1      41.898  25.954  28.039  1.00  0.00     0.031 A 
ATOM     32  C   UNL A   1      43.231  26.407  27.500  1.00  0.00     0.074 A 
ATOM     33  C   UNL A   1      41.091  26.858  28.628  1.00  0.00     0.049 A 
ATOM     34  N   UNL A   1      43.769  27.601  27.499  1.00  0.00    -0.248 NA
ATOM     35  C   UNL A   1      44.067  25.370  26.876  1.00  0.00     0.031 C 
ATOM     36  C   UNL A   1      39.763  26.587  29.166  1.00  0.00     0.029 A 
ATOM     37  N   UNL A   1      41.278  28.202  28.870  1.00  0.00    -0.354 N 
ATOM     38  C   UNL A   1      44.993  27.462  26.859  1.00  0.00     0.074 A 
ATOM     39  C   UNL A   1      45.127  26.067  26.498  1.00  0.00     0.031 C 
ATOM     40  C   UNL A   1      39.250  27.724  29.669  1.00  0.00     0.029 A 
ATOM     41  C   UNL A   1      40.231  28.800  29.534  1.00  0.00     0.049 A 
ATOM     42  H   UNL A   1      42.087  28.690  28.594  1.00  0.00     0.167 HD
ATOM     43  C   UNL A   1      45.930  28.403  26.601  1.00  0.00     0.037 A 
ATOM     44  C   UNL A   1      40.093  30.058  30.000  1.00  0.00     0.037 A 
ATOM     45  C   UNL A   1      45.848  29.779  27.010  1.00  0.00     0.049 A 
ATOM     46  C   UNL A   1      41.210  31.058  29.806  1.00  0.00     0.074 A 
ATOM     47  C   UNL A   1      46.767  30.794  26.811  1.00  0.00     0.029 A 
ATOM     48  N   UNL A   1      44.797  30.327  27.730  1.00  0.00    -0.354 N 
ATOM     49  N   UNL A   1      42.340  30.928  29.154  1.00  0.00    -0.248 NA
ATOM     50  C   UNL A   1      41.032  32.385  30.422  1.00  0.00     0.031 C 
ATOM     51  C   UNL A   1      46.304  31.939  27.464  1.00  0.00     0.029 A 
ATOM     52  C   UNL A   1      45.064  31.657  28.012  1.00  0.00     0.049 A 
ATOM     53  H   UNL A   1      43.983  29.843  28.000  1.00  0.00     0.167 HD
ATOM     54  C   UNL A   1      42.983  32.158  29.249  1.00  0.00     0.074 A 
ATOM     55  C   UNL A   1      42.115  33.027  30.012  1.00  0.00     0.031 C 
ATOM     56  C   UNL A   1      44.187  32.529  28.750  1.00  0.00     0.037 A 
BRANCH  43  57
ATOM     57  C   UNL A   1      47.164  27.955  25.876  1.00  0.00     0.064 A 
ATOM     58  C   UNL A   1      48.331  27.603  26.568  1.00  0.00     0.173 A 
ATOM     59  C   UNL A   1      47.168  27.858  24.478  1.00  0.00     0.173 A 
ATOM     60  F   UNL A   1      48.380  27.698  27.905  1.00  0.00    -0.203 F 
ATOM     61  C   UNL A   1      49.470  27.192  25.880  1.00  0.00     0.198 A 
ATOM     62  C   UNL A   1      48.299  27.420  23.796  1.00  0.00     0.198 A 
ATOM     63  F   UNL A   1      46.074  28.184  23.774  1.00  0.00    -0.203 F 
ATOM     64  F   UNL A   1      50.591  26.903  26.555  1.00  0.00    -0.200 F 
ATOM     65  C   UNL A   1      49.451  27.095  24.496  1.00  0.00     0.200 A 
ATOM     66  F   UNL A   1      48.276  27.319  22.460  1.00  0.00    -0.200 F 
ATOM     67  F   UNL A   1      50.546  26.694  23.837  1.00  0.00    -0.200 F 
ENDBRANCH  43  57
BRANCH  44  68
ATOM     68  C   UNL A   1      38.866  30.465  30.745  1.00  0.00     0.064 A 
ATOM     69  C   UNL A   1      37.769  31.034  30.080  1.00  0.00     0.173 A 
ATOM     70  C   UNL A   1      38.803  30.383  32.144  1.00  0.00     0.173 A 
ATOM     71  F   UNL A   1      37.794  31.174  28.746  1.00  0.00    -0.203 F 
ATOM     72  C   UNL A   1      36.676  31.534  30.786  1.00  0.00     0.198 A 
ATOM     73  C   UNL A   1      37.694  30.853  32.847  1.00  0.00     0.198 A 
ATOM     74  F   UNL A   1      39.830  29.865  32.834  1.00  0.00    -0.203 F 
ATOM     75  F   UNL A   1      35.678  32.143  30.130  1.00  0.00    -0.200 F 
ATOM     76  C   UNL A   1      36.638  31.441  32.169  1.00  0.00     0.200 A 
ATOM     77  F   UNL A   1      37.663  30.759  34.183  1.00  0.00    -0.200 F 
ATOM     78  F   UNL A   1      35.596  31.937  32.849  1.00  0.00    -0.200 F 
ENDBRANCH  44  68
BRANCH  56  79
ATOM     79  C   UNL A   1      44.627  33.952  28.954  1.00  0.00     0.064 A 
ATOM     80  C   UNL A   1      44.270  34.976  28.063  1.00  0.00     0.173 A 
ATOM     81  C   UNL A   1      45.366  34.307  30.094  1.00  0.00     0.173 A 
ATOM     82  F   UNL A   1      43.575  34.691  26.951  1.00  0.00    -0.203 F 
ATOM     83  C   UNL A   1      44.653  36.295  28.296  1.00  0.00     0.198 A 
ATOM     84  C   UNL A   1      45.718  35.631  30.341  1.00  0.00     0.198 A 
ATOM     85  F   UNL A   1      45.727  33.370  30.984  1.00  0.00    -0.203 F 
ATOM     86  F   UNL A   1      44.336  37.249  27.409  1.00  0.00    -0.200 F 
ATOM     87  C   UNL A   1      45.368  36.623  29.438  1.00  0.00     0.200 A 
ATOM     88  F   UNL A   1      46.394  35.948  31.454  1.00  0.00    -0.200 F 
ATOM     89  F   UNL A   1      45.721  37.895  29.667  1.00  0.00    -0.200 F 
ENDBRANCH  56  79
ENDBRANCH  30  31
ENDBRANCH  23  25
ENDBRANCH  22  23
ENDBRANCH  21  22
ENDBRANCH   1  21
TORSDOF 15
ENDMDL
