MODEL 1
REMARK VINA RESULT:     -12.3      0.000      0.000
REMARK SMILES O=C(Nc1ccc(C(=O)OCCOC(=O)c2ccc(-c3c4nc(c(-c5c(F)c(F)c(F)c(F)c5F)c5ccc([nH]5)c(-c5c(F)c(F)c(F)c(F)c5F)c5nc(c(-c6c(F)c(F)c(F)c(F)c6F)c6ccc3[nH]6)C=C5)C=C4)cc2)cn1)N[C@@H]1CCOC1
REMARK SMILES IDX 11 1 10 2 8 3 9 4 7 5 4 6 5 7 80 8 6 9 79 10 3 11 1 12 2 13
REMARK SMILES IDX 81 14 82 17 83 18 86 19 84 20 85 21 12 22 13 23 14 24 15 25
REMARK SMILES IDX 16 26 17 27 78 28 18 29 77 30 19 31 20 32 21 33 71 34 22 35
REMARK SMILES IDX 76 36 70 37 72 38 23 39 75 40 69 41 68 42 24 44 56 45 36 46
REMARK SMILES IDX 55 47 37 48 40 49 54 50 73 51 38 52 39 53 53 55 74 56 41 57
REMARK SMILES IDX 25 58 26 59 34 60 27 61 28 62 32 63 35 64 29 65 30 66 33 67
REMARK SMILES IDX 31 68 57 69 58 70 66 71 59 72 60 73 64 74 67 75 61 76 62 77
REMARK SMILES IDX 65 78 63 79 42 80 43 81 51 82 44 83 45 84 49 85 52 86 46 87
REMARK SMILES IDX 47 88 50 89 48 90
REMARK H PARENT 3 15 81 16 72 43 40 54
REMARK Flexibility Score: inf
ROOT
ATOM      1  C   UNL A   1      31.505  29.693  24.831  1.00  0.00     0.275 C 
ENDROOT
BRANCH   1   2
ATOM      2  O   UNL A   1      30.256  29.613  24.110  1.00  0.00    -0.458 OA
BRANCH   2   3
ATOM      3  C   UNL A   1      30.308  28.969  22.923  1.00  0.00     0.339 C 
ATOM      4  O   UNL A   1      30.283  29.480  21.813  1.00  0.00    -0.246 OA
BRANCH   3   5
ATOM      5  C   UNL A   1      30.494  27.521  23.109  1.00  0.00     0.078 A 
ATOM      6  C   UNL A   1      30.870  24.804  23.127  1.00  0.00     0.133 A 
ATOM      7  C   UNL A   1      29.906  25.362  23.967  1.00  0.00     0.048 A 
ATOM      8  N   UNL A   1      31.675  25.539  22.353  1.00  0.00    -0.238 NA
ATOM      9  C   UNL A   1      29.732  26.750  23.979  1.00  0.00     0.021 A 
ATOM     10  C   UNL A   1      31.422  26.864  22.314  1.00  0.00     0.129 A 
BRANCH   6  11
ATOM     11  N   UNL A   1      31.029  23.436  22.974  1.00  0.00    -0.292 N 
ATOM     12  O   UNL A   1      32.153  21.527  22.669  1.00  0.00    -0.248 OA
ATOM     13  C   UNL A   1      32.173  22.698  23.027  1.00  0.00     0.320 C 
ATOM     14  N   UNL A   1      33.239  23.310  23.623  1.00  0.00    -0.333 N 
ATOM     15  H   UNL A   1      30.204  22.929  22.804  1.00  0.00     0.173 HD
ATOM     16  H   UNL A   1      33.089  24.237  23.918  1.00  0.00     0.165 HD
BRANCH  14  17
ATOM     17  C   UNL A   1      34.574  22.769  23.881  1.00  0.00     0.112 C 
ATOM     18  C   UNL A   1      34.661  21.558  24.786  1.00  0.00     0.056 C 
ATOM     19  C   UNL A   1      35.385  23.769  24.716  1.00  0.00     0.185 C 
ATOM     20  C   UNL A   1      34.491  22.176  26.156  1.00  0.00     0.162 C 
ATOM     21  O   UNL A   1      35.144  23.457  26.101  1.00  0.00    -0.379 OA
ENDBRANCH  14  17
ENDBRANCH   6  11
ENDBRANCH   3   5
ENDBRANCH   2   3
ENDBRANCH   1   2
BRANCH   1  22
ATOM     22  C   UNL A   1      31.448  30.752  25.937  1.00  0.00     0.275 C 
BRANCH  22  23
ATOM     23  O   UNL A   1      32.497  30.555  26.907  1.00  0.00    -0.458 OA
BRANCH  23  24
ATOM     24  C   UNL A   1      33.170  31.675  27.251  1.00  0.00     0.338 C 
ATOM     25  O   UNL A   1      32.720  32.804  27.362  1.00  0.00    -0.246 OA
BRANCH  24  26
ATOM     26  C   UNL A   1      34.557  31.365  27.630  1.00  0.00     0.060 A 
ATOM     27  C   UNL A   1      34.854  30.035  27.880  1.00  0.00     0.016 A 
ATOM     28  C   UNL A   1      35.462  32.352  28.003  1.00  0.00     0.016 A 
ATOM     29  C   UNL A   1      35.943  29.693  28.672  1.00  0.00     0.010 A 
ATOM     30  C   UNL A   1      36.657  31.986  28.648  1.00  0.00     0.010 A 
ATOM     31  C   UNL A   1      36.888  30.656  29.050  1.00  0.00    -0.014 A 
BRANCH  31  32
ATOM     32  C   UNL A   1      38.074  30.255  29.875  1.00  0.00     0.031 A 
ATOM     33  C   UNL A   1      39.149  29.354  29.308  1.00  0.00     0.074 A 
ATOM     34  C   UNL A   1      38.226  30.729  31.132  1.00  0.00     0.049 A 
ATOM     35  N   UNL A   1      40.161  28.781  29.915  1.00  0.00    -0.248 NA
ATOM     36  C   UNL A   1      39.065  29.038  27.873  1.00  0.00     0.031 C 
ATOM     37  C   UNL A   1      37.298  31.634  31.816  1.00  0.00     0.029 A 
ATOM     38  N   UNL A   1      39.225  30.533  32.058  1.00  0.00    -0.354 N 
ATOM     39  C   UNL A   1      40.797  28.003  28.954  1.00  0.00     0.074 A 
ATOM     40  C   UNL A   1      40.044  28.155  27.728  1.00  0.00     0.031 C 
ATOM     41  C   UNL A   1      37.796  31.962  33.015  1.00  0.00     0.029 A 
ATOM     42  C   UNL A   1      39.016  31.200  33.242  1.00  0.00     0.049 A 
ATOM     43  H   UNL A   1      40.013  29.969  31.889  1.00  0.00     0.167 HD
ATOM     44  C   UNL A   1      41.913  27.241  29.077  1.00  0.00     0.037 A 
ATOM     45  C   UNL A   1      39.690  31.169  34.409  1.00  0.00     0.037 A 
ATOM     46  C   UNL A   1      42.695  27.129  30.284  1.00  0.00     0.049 A 
ATOM     47  C   UNL A   1      40.898  30.284  34.531  1.00  0.00     0.074 A 
ATOM     48  C   UNL A   1      43.839  26.379  30.506  1.00  0.00     0.029 A 
ATOM     49  N   UNL A   1      42.427  27.802  31.467  1.00  0.00    -0.354 N 
ATOM     50  N   UNL A   1      41.451  29.510  33.631  1.00  0.00    -0.248 NA
ATOM     51  C   UNL A   1      41.567  30.260  35.838  1.00  0.00     0.031 C 
ATOM     52  C   UNL A   1      44.236  26.564  31.836  1.00  0.00     0.029 A 
ATOM     53  C   UNL A   1      43.376  27.475  32.425  1.00  0.00     0.049 A 
ATOM     54  H   UNL A   1      41.674  28.420  31.606  1.00  0.00     0.167 HD
ATOM     55  C   UNL A   1      42.540  28.919  34.256  1.00  0.00     0.074 A 
ATOM     56  C   UNL A   1      42.588  29.450  35.602  1.00  0.00     0.031 C 
ATOM     57  C   UNL A   1      43.417  28.012  33.760  1.00  0.00     0.037 A 
BRANCH  44  58
ATOM     58  C   UNL A   1      42.351  26.440  27.880  1.00  0.00     0.064 A 
ATOM     59  C   UNL A   1      41.801  25.185  27.581  1.00  0.00     0.173 A 
ATOM     60  C   UNL A   1      43.306  26.960  26.991  1.00  0.00     0.173 A 
ATOM     61  F   UNL A   1      40.891  24.634  28.401  1.00  0.00    -0.203 F 
ATOM     62  C   UNL A   1      42.210  24.468  26.458  1.00  0.00     0.198 A 
ATOM     63  C   UNL A   1      43.688  26.258  25.851  1.00  0.00     0.198 A 
ATOM     64  F   UNL A   1      43.859  28.162  27.218  1.00  0.00    -0.203 F 
ATOM     65  F   UNL A   1      41.707  23.248  26.223  1.00  0.00    -0.200 F 
ATOM     66  C   UNL A   1      43.147  25.008  25.590  1.00  0.00     0.200 A 
ATOM     67  F   UNL A   1      44.580  26.790  25.003  1.00  0.00    -0.200 F 
ATOM     68  F   UNL A   1      43.532  24.323  24.505  1.00  0.00    -0.200 F 
ENDBRANCH  44  58
BRANCH  45  69
ATOM     69  C   UNL A   1      39.198  31.955  35.574  1.00  0.00     0.064 A 
ATOM     70  C   UNL A   1      38.359  31.380  36.539  1.00  0.00     0.173 A 
ATOM     71  C   UNL A   1      39.545  33.306  35.739  1.00  0.00     0.173 A 
ATOM     72  F   UNL A   1      37.975  30.101  36.416  1.00  0.00    -0.203 F 
ATOM     73  C   UNL A   1      37.871  32.130  37.608  1.00  0.00     0.198 A 
ATOM     74  C   UNL A   1      39.091  34.042  36.829  1.00  0.00     0.198 A 
ATOM     75  F   UNL A   1      40.345  33.908  34.846  1.00  0.00    -0.203 F 
ATOM     76  F   UNL A   1      37.023  31.571  38.482  1.00  0.00    -0.200 F 
ATOM     77  C   UNL A   1      38.244  33.457  37.758  1.00  0.00     0.200 A 
ATOM     78  F   UNL A   1      39.472  35.318  36.978  1.00  0.00    -0.200 F 
ATOM     79  F   UNL A   1      37.780  34.175  38.789  1.00  0.00    -0.200 F 
ENDBRANCH  45  69
BRANCH  57  80
ATOM     80  C   UNL A   1      44.527  27.570  34.672  1.00  0.00     0.064 A 
ATOM     81  C   UNL A   1      45.753  28.250  34.726  1.00  0.00     0.173 A 
ATOM     82  C   UNL A   1      44.361  26.451  35.501  1.00  0.00     0.173 A 
ATOM     83  F   UNL A   1      45.970  29.316  33.941  1.00  0.00    -0.203 F 
ATOM     84  C   UNL A   1      46.785  27.801  35.546  1.00  0.00     0.198 A 
ATOM     85  C   UNL A   1      45.381  26.026  36.346  1.00  0.00     0.198 A 
ATOM     86  F   UNL A   1      43.206  25.768  35.493  1.00  0.00    -0.203 F 
ATOM     87  F   UNL A   1      47.971  28.427  35.531  1.00  0.00    -0.200 F 
ATOM     88  C   UNL A   1      46.597  26.694  36.359  1.00  0.00     0.200 A 
ATOM     89  F   UNL A   1      45.193  24.963  37.141  1.00  0.00    -0.200 F 
ATOM     90  F   UNL A   1      47.591  26.262  37.146  1.00  0.00    -0.200 F 
ENDBRANCH  57  80
ENDBRANCH  31  32
ENDBRANCH  24  26
ENDBRANCH  23  24
ENDBRANCH  22  23
ENDBRANCH   1  22
TORSDOF 13
ENDMDL
MODEL 2
REMARK VINA RESULT:     -12.2      4.327     10.013
REMARK SMILES O=C(Nc1ccc(C(=O)OCCOC(=O)c2ccc(-c3c4nc(c(-c5c(F)c(F)c(F)c(F)c5F)c5ccc([nH]5)c(-c5c(F)c(F)c(F)c(F)c5F)c5nc(c(-c6c(F)c(F)c(F)c(F)c6F)c6ccc3[nH]6)C=C5)C=C4)cc2)cn1)N[C@@H]1CCOC1
REMARK SMILES IDX 11 1 10 2 8 3 9 4 7 5 4 6 5 7 80 8 6 9 79 10 3 11 1 12 2 13
REMARK SMILES IDX 81 14 82 17 83 18 86 19 84 20 85 21 12 22 13 23 14 24 15 25
REMARK SMILES IDX 16 26 17 27 78 28 18 29 77 30 19 31 20 32 21 33 71 34 22 35
REMARK SMILES IDX 76 36 70 37 72 38 23 39 75 40 69 41 68 42 24 44 56 45 36 46
REMARK SMILES IDX 55 47 37 48 40 49 54 50 73 51 38 52 39 53 53 55 74 56 41 57
REMARK SMILES IDX 25 58 26 59 34 60 27 61 28 62 32 63 35 64 29 65 30 66 33 67
REMARK SMILES IDX 31 68 57 69 58 70 66 71 59 72 60 73 64 74 67 75 61 76 62 77
REMARK SMILES IDX 65 78 63 79 42 80 43 81 51 82 44 83 45 84 49 85 52 86 46 87
REMARK SMILES IDX 47 88 50 89 48 90
REMARK H PARENT 3 15 81 16 72 43 40 54
REMARK Flexibility Score: inf
ROOT
ATOM      1  C   UNL A   1      36.311  19.946  25.032  1.00  0.00     0.275 C 
ENDROOT
BRANCH   1   2
ATOM      2  O   UNL A   1      35.812  21.093  25.755  1.00  0.00    -0.458 OA
BRANCH   2   3
ATOM      3  C   UNL A   1      34.470  21.253  25.743  1.00  0.00     0.339 C 
ATOM      4  O   UNL A   1      33.702  21.045  26.670  1.00  0.00    -0.246 OA
BRANCH   3   5
ATOM      5  C   UNL A   1      34.011  21.816  24.462  1.00  0.00     0.078 A 
ATOM      6  C   UNL A   1      33.264  23.158  22.189  1.00  0.00     0.133 A 
ATOM      7  C   UNL A   1      32.411  22.189  22.718  1.00  0.00     0.048 A 
ATOM      8  N   UNL A   1      34.471  23.423  22.702  1.00  0.00    -0.238 NA
ATOM      9  C   UNL A   1      32.803  21.484  23.862  1.00  0.00     0.021 A 
ATOM     10  C   UNL A   1      34.782  22.798  23.856  1.00  0.00     0.129 A 
BRANCH   6  11
ATOM     11  N   UNL A   1      32.905  23.974  21.129  1.00  0.00    -0.292 N 
ATOM     12  O   UNL A   1      32.139  25.828  20.141  1.00  0.00    -0.248 OA
ATOM     13  C   UNL A   1      32.636  25.310  21.134  1.00  0.00     0.320 C 
ATOM     14  N   UNL A   1      33.086  25.996  22.225  1.00  0.00    -0.333 N 
ATOM     15  H   UNL A   1      32.836  23.530  20.254  1.00  0.00     0.173 HD
ATOM     16  H   UNL A   1      33.524  25.453  22.920  1.00  0.00     0.165 HD
BRANCH  14  17
ATOM     17  C   UNL A   1      33.005  27.432  22.498  1.00  0.00     0.112 C 
ATOM     18  C   UNL A   1      33.946  27.985  23.546  1.00  0.00     0.056 C 
ATOM     19  C   UNL A   1      31.661  27.756  23.165  1.00  0.00     0.185 C 
ATOM     20  C   UNL A   1      33.272  27.559  24.831  1.00  0.00     0.162 C 
ATOM     21  O   UNL A   1      31.856  27.640  24.587  1.00  0.00    -0.379 OA
ENDBRANCH  14  17
ENDBRANCH   6  11
ENDBRANCH   3   5
ENDBRANCH   2   3
ENDBRANCH   1   2
BRANCH   1  22
ATOM     22  C   UNL A   1      37.822  20.040  24.803  1.00  0.00     0.275 C 
BRANCH  22  23
ATOM     23  O   UNL A   1      38.376  21.217  25.429  1.00  0.00    -0.458 OA
BRANCH  23  24
ATOM     24  C   UNL A   1      39.471  20.994  26.189  1.00  0.00     0.338 C 
ATOM     25  O   UNL A   1      40.131  19.970  26.253  1.00  0.00    -0.246 OA
BRANCH  24  26
ATOM     26  C   UNL A   1      39.897  22.223  26.877  1.00  0.00     0.060 A 
ATOM     27  C   UNL A   1      39.362  23.414  26.416  1.00  0.00     0.016 A 
ATOM     28  C   UNL A   1      40.982  22.247  27.745  1.00  0.00     0.016 A 
ATOM     29  C   UNL A   1      40.017  24.617  26.649  1.00  0.00     0.010 A 
ATOM     30  C   UNL A   1      41.534  23.483  28.126  1.00  0.00     0.010 A 
ATOM     31  C   UNL A   1      41.101  24.686  27.534  1.00  0.00    -0.014 A 
BRANCH  31  32
ATOM     32  C   UNL A   1      41.769  26.003  27.797  1.00  0.00     0.031 A 
ATOM     33  C   UNL A   1      41.083  27.074  28.617  1.00  0.00     0.074 A 
ATOM     34  C   UNL A   1      43.018  26.240  27.339  1.00  0.00     0.049 A 
ATOM     35  N   UNL A   1      41.437  28.321  28.820  1.00  0.00    -0.248 NA
ATOM     36  C   UNL A   1      39.825  26.701  29.282  1.00  0.00     0.031 C 
ATOM     37  C   UNL A   1      43.830  25.301  26.561  1.00  0.00     0.029 A 
ATOM     38  N   UNL A   1      43.837  27.338  27.474  1.00  0.00    -0.354 N 
ATOM     39  C   UNL A   1      40.425  28.888  29.586  1.00  0.00     0.074 A 
ATOM     40  C   UNL A   1      39.429  27.859  29.792  1.00  0.00     0.031 C 
ATOM     41  C   UNL A   1      45.041  25.830  26.344  1.00  0.00     0.029 A 
ATOM     42  C   UNL A   1      45.057  27.194  26.856  1.00  0.00     0.049 A 
ATOM     43  H   UNL A   1      43.574  28.150  27.965  1.00  0.00     0.167 HD
ATOM     44  C   UNL A   1      40.337  30.149  30.082  1.00  0.00     0.037 A 
ATOM     45  C   UNL A   1      46.065  28.068  26.667  1.00  0.00     0.037 A 
ATOM     46  C   UNL A   1      41.352  31.161  29.922  1.00  0.00     0.049 A 
ATOM     47  C   UNL A   1      45.924  29.469  27.191  1.00  0.00     0.074 A 
ATOM     48  C   UNL A   1      41.352  32.467  30.385  1.00  0.00     0.029 A 
ATOM     49  N   UNL A   1      42.559  30.975  29.263  1.00  0.00    -0.354 N 
ATOM     50  N   UNL A   1      44.935  30.007  27.861  1.00  0.00    -0.248 NA
ATOM     51  C   UNL A   1      47.036  30.389  26.918  1.00  0.00     0.031 C 
ATOM     52  C   UNL A   1      42.537  33.083  29.969  1.00  0.00     0.029 A 
ATOM     53  C   UNL A   1      43.304  32.145  29.298  1.00  0.00     0.049 A 
ATOM     54  H   UNL A   1      42.844  30.137  28.835  1.00  0.00     0.167 HD
ATOM     55  C   UNL A   1      45.311  31.320  28.104  1.00  0.00     0.074 A 
ATOM     56  C   UNL A   1      46.633  31.488  27.537  1.00  0.00     0.031 C 
ATOM     57  C   UNL A   1      44.619  32.301  28.734  1.00  0.00     0.037 A 
BRANCH  44  58
ATOM     58  C   UNL A   1      39.086  30.522  30.831  1.00  0.00     0.064 A 
ATOM     59  C   UNL A   1      38.994  30.416  32.228  1.00  0.00     0.173 A 
ATOM     60  C   UNL A   1      37.975  31.037  30.144  1.00  0.00     0.173 A 
ATOM     61  F   UNL A   1      40.022  29.921  32.935  1.00  0.00    -0.203 F 
ATOM     62  C   UNL A   1      37.831  30.782  32.902  1.00  0.00     0.198 A 
ATOM     63  C   UNL A   1      36.826  31.435  30.824  1.00  0.00     0.198 A 
ATOM     64  F   UNL A   1      38.007  31.172  28.809  1.00  0.00    -0.203 F 
ATOM     65  F   UNL A   1      37.751  30.623  34.231  1.00  0.00    -0.200 F 
ATOM     66  C   UNL A   1      36.752  31.298  32.202  1.00  0.00     0.200 A 
ATOM     67  F   UNL A   1      35.791  31.951  30.147  1.00  0.00    -0.200 F 
ATOM     68  F   UNL A   1      35.638  31.660  32.853  1.00  0.00    -0.200 F 
ENDBRANCH  44  58
BRANCH  45  69
ATOM     69  C   UNL A   1      47.269  27.660  25.891  1.00  0.00     0.064 A 
ATOM     70  C   UNL A   1      47.288  27.719  24.491  1.00  0.00     0.173 A 
ATOM     71  C   UNL A   1      48.423  27.186  26.537  1.00  0.00     0.173 A 
ATOM     72  F   UNL A   1      46.203  28.139  23.823  1.00  0.00    -0.203 F 
ATOM     73  C   UNL A   1      48.404  27.301  23.768  1.00  0.00     0.198 A 
ATOM     74  C   UNL A   1      49.552  26.808  25.815  1.00  0.00     0.198 A 
ATOM     75  F   UNL A   1      48.460  27.108  27.875  1.00  0.00    -0.203 F 
ATOM     76  F   UNL A   1      48.373  27.312  22.428  1.00  0.00    -0.200 F 
ATOM     77  C   UNL A   1      49.538  26.855  24.430  1.00  0.00     0.200 A 
ATOM     78  F   UNL A   1      50.651  26.397  26.463  1.00  0.00    -0.200 F 
ATOM     79  F   UNL A   1      50.613  26.459  23.734  1.00  0.00    -0.200 F 
ENDBRANCH  45  69
BRANCH  57  80
ATOM     80  C   UNL A   1      45.302  33.632  28.876  1.00  0.00     0.064 A 
ATOM     81  C   UNL A   1      46.155  33.912  29.954  1.00  0.00     0.173 A 
ATOM     82  C   UNL A   1      45.099  34.639  27.921  1.00  0.00     0.173 A 
ATOM     83  F   UNL A   1      46.370  32.990  30.904  1.00  0.00    -0.203 F 
ATOM     84  C   UNL A   1      46.746  35.166  30.092  1.00  0.00     0.198 A 
ATOM     85  C   UNL A   1      45.719  35.878  28.042  1.00  0.00     0.198 A 
ATOM     86  F   UNL A   1      44.298  34.421  26.868  1.00  0.00    -0.203 F 
ATOM     87  F   UNL A   1      47.503  35.434  31.165  1.00  0.00    -0.200 F 
ATOM     88  C   UNL A   1      46.533  36.146  29.133  1.00  0.00     0.200 A 
ATOM     89  F   UNL A   1      45.523  36.819  27.108  1.00  0.00    -0.200 F 
ATOM     90  F   UNL A   1      47.101  37.352  29.268  1.00  0.00    -0.200 F 
ENDBRANCH  57  80
ENDBRANCH  31  32
ENDBRANCH  24  26
ENDBRANCH  23  24
ENDBRANCH  22  23
ENDBRANCH   1  22
TORSDOF 13
ENDMDL
MODEL 3
REMARK VINA RESULT:     -12.1      0.322      2.010
REMARK SMILES O=C(Nc1ccc(C(=O)OCCOC(=O)c2ccc(-c3c4nc(c(-c5c(F)c(F)c(F)c(F)c5F)c5ccc([nH]5)c(-c5c(F)c(F)c(F)c(F)c5F)c5nc(c(-c6c(F)c(F)c(F)c(F)c6F)c6ccc3[nH]6)C=C5)C=C4)cc2)cn1)N[C@@H]1CCOC1
REMARK SMILES IDX 11 1 10 2 8 3 9 4 7 5 4 6 5 7 80 8 6 9 79 10 3 11 1 12 2 13
REMARK SMILES IDX 81 14 82 17 83 18 86 19 84 20 85 21 12 22 13 23 14 24 15 25
REMARK SMILES IDX 16 26 17 27 78 28 18 29 77 30 19 31 20 32 21 33 71 34 22 35
REMARK SMILES IDX 76 36 70 37 72 38 23 39 75 40 69 41 68 42 24 44 56 45 36 46
REMARK SMILES IDX 55 47 37 48 40 49 54 50 73 51 38 52 39 53 53 55 74 56 41 57
REMARK SMILES IDX 25 58 26 59 34 60 27 61 28 62 32 63 35 64 29 65 30 66 33 67
REMARK SMILES IDX 31 68 57 69 58 70 66 71 59 72 60 73 64 74 67 75 61 76 62 77
REMARK SMILES IDX 65 78 63 79 42 80 43 81 51 82 44 83 45 84 49 85 52 86 46 87
REMARK SMILES IDX 47 88 50 89 48 90
REMARK H PARENT 3 15 81 16 72 43 40 54
REMARK Flexibility Score: inf
ROOT
ATOM      1  C   UNL A   1      31.541  29.194  25.049  1.00  0.00     0.275 C 
ENDROOT
BRANCH   1   2
ATOM      2  O   UNL A   1      31.710  29.284  23.617  1.00  0.00    -0.458 OA
BRANCH   2   3
ATOM      3  C   UNL A   1      30.780  28.640  22.878  1.00  0.00     0.339 C 
ATOM      4  O   UNL A   1      30.004  29.145  22.080  1.00  0.00    -0.246 OA
BRANCH   3   5
ATOM      5  C   UNL A   1      30.857  27.183  23.074  1.00  0.00     0.078 A 
ATOM      6  C   UNL A   1      31.054  24.448  23.114  1.00  0.00     0.133 A 
ATOM      7  C   UNL A   1      30.065  25.069  23.878  1.00  0.00     0.048 A 
ATOM      8  N   UNL A   1      31.962  25.127  22.407  1.00  0.00    -0.238 NA
ATOM      9  C   UNL A   1      29.982  26.466  23.880  1.00  0.00     0.021 A 
ATOM     10  C   UNL A   1      31.799  26.465  22.352  1.00  0.00     0.129 A 
BRANCH   6  11
ATOM     11  N   UNL A   1      31.135  23.072  22.970  1.00  0.00    -0.292 N 
ATOM     12  O   UNL A   1      32.153  21.091  22.774  1.00  0.00    -0.248 OA
ATOM     13  C   UNL A   1      32.214  22.258  23.139  1.00  0.00     0.320 C 
ATOM     14  N   UNL A   1      33.250  22.796  23.849  1.00  0.00    -0.333 N 
ATOM     15  H   UNL A   1      30.300  22.621  22.711  1.00  0.00     0.173 HD
ATOM     16  H   UNL A   1      33.132  23.732  24.133  1.00  0.00     0.165 HD
BRANCH  14  17
ATOM     17  C   UNL A   1      34.510  22.166  24.244  1.00  0.00     0.112 C 
ATOM     18  C   UNL A   1      34.420  20.971  25.168  1.00  0.00     0.056 C 
ATOM     19  C   UNL A   1      35.308  23.122  25.142  1.00  0.00     0.185 C 
ATOM     20  C   UNL A   1      34.164  21.626  26.507  1.00  0.00     0.162 C 
ATOM     21  O   UNL A   1      34.911  22.855  26.500  1.00  0.00    -0.379 OA
ENDBRANCH  14  17
ENDBRANCH   6  11
ENDBRANCH   3   5
ENDBRANCH   2   3
ENDBRANCH   1   2
BRANCH   1  22
ATOM     22  C   UNL A   1      31.646  30.570  25.714  1.00  0.00     0.275 C 
BRANCH  22  23
ATOM     23  O   UNL A   1      32.404  30.505  26.940  1.00  0.00    -0.458 OA
BRANCH  23  24
ATOM     24  C   UNL A   1      33.077  31.634  27.253  1.00  0.00     0.338 C 
ATOM     25  O   UNL A   1      32.624  32.764  27.343  1.00  0.00    -0.246 OA
BRANCH  24  26
ATOM     26  C   UNL A   1      34.468  31.336  27.625  1.00  0.00     0.060 A 
ATOM     27  C   UNL A   1      34.781  30.008  27.864  1.00  0.00     0.016 A 
ATOM     28  C   UNL A   1      35.364  32.331  28.001  1.00  0.00     0.016 A 
ATOM     29  C   UNL A   1      35.876  29.673  28.651  1.00  0.00     0.010 A 
ATOM     30  C   UNL A   1      36.565  31.974  28.638  1.00  0.00     0.010 A 
ATOM     31  C   UNL A   1      36.813  30.644  29.031  1.00  0.00    -0.014 A 
BRANCH  31  32
ATOM     32  C   UNL A   1      38.006  30.250  29.849  1.00  0.00     0.031 A 
ATOM     33  C   UNL A   1      39.084  29.358  29.274  1.00  0.00     0.074 A 
ATOM     34  C   UNL A   1      38.161  30.723  31.106  1.00  0.00     0.049 A 
ATOM     35  N   UNL A   1      40.105  28.792  29.875  1.00  0.00    -0.248 NA
ATOM     36  C   UNL A   1      38.995  29.044  27.839  1.00  0.00     0.031 C 
ATOM     37  C   UNL A   1      37.230  31.619  31.796  1.00  0.00     0.029 A 
ATOM     38  N   UNL A   1      39.166  30.532  32.026  1.00  0.00    -0.354 N 
ATOM     39  C   UNL A   1      40.742  28.021  28.908  1.00  0.00     0.074 A 
ATOM     40  C   UNL A   1      39.980  28.170  27.687  1.00  0.00     0.031 C 
ATOM     41  C   UNL A   1      37.731  31.949  32.993  1.00  0.00     0.029 A 
ATOM     42  C   UNL A   1      38.958  31.195  33.213  1.00  0.00     0.049 A 
ATOM     43  H   UNL A   1      39.958  29.975  31.852  1.00  0.00     0.167 HD
ATOM     44  C   UNL A   1      41.864  27.267  29.024  1.00  0.00     0.037 A 
ATOM     45  C   UNL A   1      39.639  31.167  34.376  1.00  0.00     0.037 A 
ATOM     46  C   UNL A   1      42.653  27.159  30.227  1.00  0.00     0.049 A 
ATOM     47  C   UNL A   1      40.854  30.292  34.490  1.00  0.00     0.074 A 
ATOM     48  C   UNL A   1      43.804  26.418  30.442  1.00  0.00     0.029 A 
ATOM     49  N   UNL A   1      42.386  27.827  31.413  1.00  0.00    -0.354 N 
ATOM     50  N   UNL A   1      41.408  29.523  33.586  1.00  0.00    -0.248 NA
ATOM     51  C   UNL A   1      41.530  30.270  35.793  1.00  0.00     0.031 C 
ATOM     52  C   UNL A   1      44.206  26.602  31.769  1.00  0.00     0.029 A 
ATOM     53  C   UNL A   1      43.343  27.506  32.365  1.00  0.00     0.049 A 
ATOM     54  H   UNL A   1      41.629  28.440  31.557  1.00  0.00     0.167 HD
ATOM     55  C   UNL A   1      42.505  28.940  34.203  1.00  0.00     0.074 A 
ATOM     56  C   UNL A   1      42.556  29.469  35.550  1.00  0.00     0.031 C 
ATOM     57  C   UNL A   1      43.386  28.040  33.701  1.00  0.00     0.037 A 
BRANCH  44  58
ATOM     58  C   UNL A   1      42.302  26.473  27.823  1.00  0.00     0.064 A 
ATOM     59  C   UNL A   1      43.298  26.933  26.949  1.00  0.00     0.173 A 
ATOM     60  C   UNL A   1      41.747  25.208  27.569  1.00  0.00     0.173 A 
ATOM     61  F   UNL A   1      43.857  28.139  27.137  1.00  0.00    -0.203 F 
ATOM     62  C   UNL A   1      43.699  26.173  25.851  1.00  0.00     0.198 A 
ATOM     63  C   UNL A   1      42.174  24.436  26.491  1.00  0.00     0.198 A 
ATOM     64  F   UNL A   1      40.798  24.710  28.377  1.00  0.00    -0.203 F 
ATOM     65  F   UNL A   1      44.616  26.658  25.002  1.00  0.00    -0.200 F 
ATOM     66  C   UNL A   1      43.143  24.923  25.628  1.00  0.00     0.200 A 
ATOM     67  F   UNL A   1      41.649  23.220  26.289  1.00  0.00    -0.200 F 
ATOM     68  F   UNL A   1      43.538  24.189  24.578  1.00  0.00    -0.200 F 
ENDBRANCH  44  58
BRANCH  45  69
ATOM     69  C   UNL A   1      39.147  31.947  35.546  1.00  0.00     0.064 A 
ATOM     70  C   UNL A   1      39.507  33.288  35.731  1.00  0.00     0.173 A 
ATOM     71  C   UNL A   1      38.315  31.359  36.513  1.00  0.00     0.173 A 
ATOM     72  F   UNL A   1      40.321  33.891  34.851  1.00  0.00    -0.203 F 
ATOM     73  C   UNL A   1      39.074  34.004  36.846  1.00  0.00     0.198 A 
ATOM     74  C   UNL A   1      37.850  32.086  37.604  1.00  0.00     0.198 A 
ATOM     75  F   UNL A   1      37.939  30.078  36.387  1.00  0.00    -0.203 F 
ATOM     76  F   UNL A   1      39.483  35.267  37.029  1.00  0.00    -0.200 F 
ATOM     77  C   UNL A   1      38.238  33.405  37.777  1.00  0.00     0.200 A 
ATOM     78  F   UNL A   1      37.025  31.507  38.489  1.00  0.00    -0.200 F 
ATOM     79  F   UNL A   1      37.817  34.095  38.846  1.00  0.00    -0.200 F 
ENDBRANCH  45  69
BRANCH  57  80
ATOM     80  C   UNL A   1      44.504  27.605  34.606  1.00  0.00     0.064 A 
ATOM     81  C   UNL A   1      44.389  26.478  35.433  1.00  0.00     0.173 A 
ATOM     82  C   UNL A   1      45.706  28.328  34.645  1.00  0.00     0.173 A 
ATOM     83  F   UNL A   1      43.255  25.762  35.446  1.00  0.00    -0.203 F 
ATOM     84  C   UNL A   1      45.421  26.115  36.296  1.00  0.00     0.198 A 
ATOM     85  C   UNL A   1      46.748  27.941  35.482  1.00  0.00     0.198 A 
ATOM     86  F   UNL A   1      45.871  29.410  33.871  1.00  0.00    -0.203 F 
ATOM     87  F   UNL A   1      45.263  25.074  37.126  1.00  0.00    -0.200 F 
ATOM     88  C   UNL A   1      46.601  26.843  36.316  1.00  0.00     0.200 A 
ATOM     89  F   UNL A   1      47.894  28.638  35.490  1.00  0.00    -0.200 F 
ATOM     90  F   UNL A   1      47.592  26.493  37.148  1.00  0.00    -0.200 F 
ENDBRANCH  57  80
ENDBRANCH  31  32
ENDBRANCH  24  26
ENDBRANCH  23  24
ENDBRANCH  22  23
ENDBRANCH   1  22
TORSDOF 13
ENDMDL
