MODEL 1
REMARK VINA RESULT:     -11.3      0.000      0.000
REMARK SMILES CCCC[C@@H](C(=O)OCCOC(=O)c1ccc(-c2c3nc(c(-c4c(F)c(F)c(F)c(F)c4F)c4ccc([nH]4)c(-c4c(F)c(F)c(F)c(F)c4F)c4nc(c(-c5c(F)c(F)c(F)c(F)c5F)c5ccc2[nH]5)C=C4)C=C3)cc1)[C@@H](O)c1cccc(C(F)(F)F)c1
REMARK SMILES IDX 9 1 8 2 6 3 7 4 5 5 4 6 3 7 2 8 1 9 77 10 78 11 79 13 80 14
REMARK SMILES IDX 88 15 81 16 83 17 82 18 84 19 85 20 86 21 87 22 10 23 11 24
REMARK SMILES IDX 12 25 13 26 14 27 15 28 76 29 16 30 75 31 17 32 18 33 19 34
REMARK SMILES IDX 69 35 20 36 74 37 68 38 70 39 21 40 73 41 67 42 66 43 22 45
REMARK SMILES IDX 54 46 34 47 53 48 35 49 38 50 52 51 71 52 36 53 37 54 51 56
REMARK SMILES IDX 72 57 39 58 23 59 24 60 32 61 25 62 26 63 30 64 33 65 27 66
REMARK SMILES IDX 28 67 31 68 29 69 55 70 56 71 64 72 57 73 58 74 62 75 65 76
REMARK SMILES IDX 59 77 60 78 63 79 61 80 40 81 41 82 49 83 42 84 43 85 47 86
REMARK SMILES IDX 50 87 44 88 45 89 48 90 46 91
REMARK H PARENT 78 12 70 44 38 55
REMARK Flexibility Score: inf
ROOT
ATOM      1  C   UNL A   1      31.807  28.201  27.574  1.00  0.00     0.274 C 
ENDROOT
BRANCH   1   2
ATOM      2  O   UNL A   1      31.038  27.142  26.967  1.00  0.00    -0.462 OA
BRANCH   2   3
ATOM      3  C   UNL A   1      31.610  26.510  25.907  1.00  0.00     0.312 C 
ATOM      4  O   UNL A   1      31.347  26.798  24.749  1.00  0.00    -0.252 OA
BRANCH   3   5
ATOM      5  C   UNL A   1      32.534  25.367  26.342  1.00  0.00     0.132 C 
BRANCH   5   6
ATOM      6  C   UNL A   1      33.761  25.250  25.390  1.00  0.00     0.018 C 
BRANCH   6   7
ATOM      7  C   UNL A   1      34.937  24.384  25.865  1.00  0.00     0.001 C 
BRANCH   7   8
ATOM      8  C   UNL A   1      35.944  23.975  24.788  1.00  0.00    -0.003 C 
ATOM      9  C   UNL A   1      35.304  23.316  23.576  1.00  0.00     0.004 C 
ENDBRANCH   7   8
ENDBRANCH   6   7
ENDBRANCH   5   6
BRANCH   5  10
ATOM     10  C   UNL A   1      31.803  23.988  26.371  1.00  0.00     0.158 C 
BRANCH  10  11
ATOM     11  O   UNL A   1      30.393  24.216  26.529  1.00  0.00    -0.388 OA
ATOM     12  H   UNL A   1      29.917  23.376  26.440  1.00  0.00     0.211 HD
ENDBRANCH  10  11
BRANCH  10  13
ATOM     13  C   UNL A   1      31.891  23.016  25.207  1.00  0.00    -0.018 A 
ATOM     14  C   UNL A   1      31.418  23.302  23.921  1.00  0.00     0.006 A 
ATOM     15  C   UNL A   1      32.469  21.748  25.430  1.00  0.00     0.019 A 
ATOM     16  C   UNL A   1      31.598  22.395  22.872  1.00  0.00     0.001 A 
ATOM     17  C   UNL A   1      32.629  20.814  24.390  1.00  0.00     0.056 A 
ATOM     18  C   UNL A   1      32.203  21.162  23.103  1.00  0.00     0.013 A 
BRANCH  17  19
ATOM     19  C   UNL A   1      33.218  19.449  24.645  1.00  0.00     0.416 C 
ATOM     20  F   UNL A   1      32.605  18.802  25.675  1.00  0.00    -0.166 F 
ATOM     21  F   UNL A   1      33.104  18.619  23.569  1.00  0.00    -0.166 F 
ATOM     22  F   UNL A   1      34.544  19.476  24.955  1.00  0.00    -0.166 F 
ENDBRANCH  17  19
ENDBRANCH  10  13
ENDBRANCH   5  10
ENDBRANCH   3   5
ENDBRANCH   2   3
ENDBRANCH   1   2
BRANCH   1  23
ATOM     23  C   UNL A   1      31.726  29.518  26.795  1.00  0.00     0.275 C 
BRANCH  23  24
ATOM     24  O   UNL A   1      33.029  30.004  26.415  1.00  0.00    -0.458 OA
BRANCH  24  25
ATOM     25  C   UNL A   1      33.453  31.100  27.080  1.00  0.00     0.338 C 
ATOM     26  O   UNL A   1      32.808  32.101  27.355  1.00  0.00    -0.246 OA
BRANCH  25  27
ATOM     27  C   UNL A   1      34.818  30.892  27.584  1.00  0.00     0.060 A 
ATOM     28  C   UNL A   1      35.196  29.586  27.896  1.00  0.00     0.016 A 
ATOM     29  C   UNL A   1      35.658  31.957  27.895  1.00  0.00     0.016 A 
ATOM     30  C   UNL A   1      36.392  29.324  28.548  1.00  0.00     0.010 A 
ATOM     31  C   UNL A   1      36.878  31.697  28.535  1.00  0.00     0.010 A 
ATOM     32  C   UNL A   1      37.240  30.381  28.887  1.00  0.00    -0.014 A 
BRANCH  32  33
ATOM     33  C   UNL A   1      38.442  30.116  29.710  1.00  0.00     0.031 A 
ATOM     34  C   UNL A   1      39.538  29.262  29.145  1.00  0.00     0.074 A 
ATOM     35  C   UNL A   1      38.588  30.678  30.924  1.00  0.00     0.049 A 
ATOM     36  N   UNL A   1      40.565  28.720  29.747  1.00  0.00    -0.248 NA
ATOM     37  C   UNL A   1      39.466  28.980  27.702  1.00  0.00     0.031 C 
ATOM     38  C   UNL A   1      37.664  31.632  31.533  1.00  0.00     0.029 A 
ATOM     39  N   UNL A   1      39.581  30.526  31.859  1.00  0.00    -0.354 N 
ATOM     40  C   UNL A   1      41.227  27.987  28.773  1.00  0.00     0.074 A 
ATOM     41  C   UNL A   1      40.501  28.170  27.534  1.00  0.00     0.031 C 
ATOM     42  C   UNL A   1      38.136  31.986  32.740  1.00  0.00     0.029 A 
ATOM     43  C   UNL A   1      39.348  31.222  33.019  1.00  0.00     0.049 A 
ATOM     44  H   UNL A   1      40.380  29.971  31.714  1.00  0.00     0.167 HD
ATOM     45  C   UNL A   1      42.331  27.218  28.913  1.00  0.00     0.037 A 
ATOM     46  C   UNL A   1      40.010  31.203  34.192  1.00  0.00     0.037 A 
ATOM     47  C   UNL A   1      43.065  27.078  30.141  1.00  0.00     0.049 A 
ATOM     48  C   UNL A   1      41.199  30.292  34.347  1.00  0.00     0.074 A 
ATOM     49  C   UNL A   1      44.166  26.284  30.407  1.00  0.00     0.029 A 
ATOM     50  N   UNL A   1      42.778  27.772  31.307  1.00  0.00    -0.354 N 
ATOM     51  N   UNL A   1      41.755  29.502  33.460  1.00  0.00    -0.248 NA
ATOM     52  C   UNL A   1      41.835  30.247  35.671  1.00  0.00     0.031 C 
ATOM     53  C   UNL A   1      44.532  26.481  31.743  1.00  0.00     0.029 A 
ATOM     54  C   UNL A   1      43.680  27.424  32.298  1.00  0.00     0.049 A 
ATOM     55  H   UNL A   1      42.042  28.416  31.415  1.00  0.00     0.167 HD
ATOM     56  C   UNL A   1      42.812  28.880  34.110  1.00  0.00     0.074 A 
ATOM     57  C   UNL A   1      42.828  29.392  35.465  1.00  0.00     0.031 C 
ATOM     58  C   UNL A   1      43.688  27.965  33.632  1.00  0.00     0.037 A 
BRANCH  45  59
ATOM     59  C   UNL A   1      42.770  26.421  27.723  1.00  0.00     0.064 A 
ATOM     60  C   UNL A   1      42.244  25.153  27.441  1.00  0.00     0.173 A 
ATOM     61  C   UNL A   1      43.726  26.950  26.841  1.00  0.00     0.173 A 
ATOM     62  F   UNL A   1      41.344  24.597  28.265  1.00  0.00    -0.203 F 
ATOM     63  C   UNL A   1      42.673  24.435  26.327  1.00  0.00     0.198 A 
ATOM     64  C   UNL A   1      44.136  26.238  25.718  1.00  0.00     0.198 A 
ATOM     65  F   UNL A   1      44.261  28.159  27.070  1.00  0.00    -0.203 F 
ATOM     66  F   UNL A   1      42.189  23.207  26.097  1.00  0.00    -0.200 F 
ATOM     67  C   UNL A   1      43.613  24.979  25.465  1.00  0.00     0.200 A 
ATOM     68  F   UNL A   1      45.040  26.770  24.883  1.00  0.00    -0.200 F 
ATOM     69  F   UNL A   1      44.023  24.287  24.393  1.00  0.00    -0.200 F 
ENDBRANCH  45  59
BRANCH  46  70
ATOM     70  C   UNL A   1      39.526  32.026  35.330  1.00  0.00     0.064 A 
ATOM     71  C   UNL A   1      39.966  33.344  35.506  1.00  0.00     0.173 A 
ATOM     72  C   UNL A   1      38.617  31.510  36.266  1.00  0.00     0.173 A 
ATOM     73  F   UNL A   1      40.861  33.871  34.659  1.00  0.00    -0.203 F 
ATOM     74  C   UNL A   1      39.519  34.113  36.580  1.00  0.00     0.198 A 
ATOM     75  C   UNL A   1      38.150  32.288  37.322  1.00  0.00     0.198 A 
ATOM     76  F   UNL A   1      38.174  30.249  36.147  1.00  0.00    -0.203 F 
ATOM     77  F   UNL A   1      39.986  35.357  36.751  1.00  0.00    -0.200 F 
ATOM     78  C   UNL A   1      38.605  33.587  37.482  1.00  0.00     0.200 A 
ATOM     79  F   UNL A   1      37.262  31.778  38.185  1.00  0.00    -0.200 F 
ATOM     80  F   UNL A   1      38.174  34.328  38.512  1.00  0.00    -0.200 F 
ENDBRANCH  46  70
BRANCH  58  81
ATOM     81  C   UNL A   1      44.762  27.489  34.559  1.00  0.00     0.064 A 
ATOM     82  C   UNL A   1      44.596  26.338  35.341  1.00  0.00     0.173 A 
ATOM     83  C   UNL A   1      45.996  28.154  34.612  1.00  0.00     0.173 A 
ATOM     84  F   UNL A   1      43.429  25.677  35.331  1.00  0.00    -0.203 F 
ATOM     85  C   UNL A   1      45.627  25.874  36.154  1.00  0.00     0.198 A 
ATOM     86  C   UNL A   1      47.030  27.677  35.410  1.00  0.00     0.198 A 
ATOM     87  F   UNL A   1      46.200  29.257  33.876  1.00  0.00    -0.203 F 
ATOM     88  F   UNL A   1      45.441  24.786  36.914  1.00  0.00    -0.200 F 
ATOM     89  C   UNL A   1      46.845  26.540  36.182  1.00  0.00     0.200 A 
ATOM     90  F   UNL A   1      48.208  28.315  35.430  1.00  0.00    -0.200 F 
ATOM     91  F   UNL A   1      47.840  26.085  36.956  1.00  0.00    -0.200 F 
ENDBRANCH  58  81
ENDBRANCH  32  33
ENDBRANCH  25  27
ENDBRANCH  24  25
ENDBRANCH  23  24
ENDBRANCH   1  23
TORSDOF 18
ENDMDL
MODEL 2
REMARK VINA RESULT:     -11.1      2.695      3.351
REMARK SMILES CCCC[C@@H](C(=O)OCCOC(=O)c1ccc(-c2c3nc(c(-c4c(F)c(F)c(F)c(F)c4F)c4ccc([nH]4)c(-c4c(F)c(F)c(F)c(F)c4F)c4nc(c(-c5c(F)c(F)c(F)c(F)c5F)c5ccc2[nH]5)C=C4)C=C3)cc1)[C@@H](O)c1cccc(C(F)(F)F)c1
REMARK SMILES IDX 9 1 8 2 6 3 7 4 5 5 4 6 3 7 2 8 1 9 77 10 78 11 79 13 80 14
REMARK SMILES IDX 88 15 81 16 83 17 82 18 84 19 85 20 86 21 87 22 10 23 11 24
REMARK SMILES IDX 12 25 13 26 14 27 15 28 76 29 16 30 75 31 17 32 18 33 19 34
REMARK SMILES IDX 69 35 20 36 74 37 68 38 70 39 21 40 73 41 67 42 66 43 22 45
REMARK SMILES IDX 54 46 34 47 53 48 35 49 38 50 52 51 71 52 36 53 37 54 51 56
REMARK SMILES IDX 72 57 39 58 23 59 24 60 32 61 25 62 26 63 30 64 33 65 27 66
REMARK SMILES IDX 28 67 31 68 29 69 55 70 56 71 64 72 57 73 58 74 62 75 65 76
REMARK SMILES IDX 59 77 60 78 63 79 61 80 40 81 41 82 49 83 42 84 43 85 47 86
REMARK SMILES IDX 50 87 44 88 45 89 48 90 46 91
REMARK H PARENT 78 12 70 44 38 55
REMARK Flexibility Score: inf
ROOT
ATOM      1  C   UNL A   1      31.756  28.285  27.169  1.00  0.00     0.274 C 
ENDROOT
BRANCH   1   2
ATOM      2  O   UNL A   1      32.259  27.098  26.519  1.00  0.00    -0.462 OA
BRANCH   2   3
ATOM      3  C   UNL A   1      31.331  26.191  26.115  1.00  0.00     0.312 C 
ATOM      4  O   UNL A   1      30.303  25.977  26.740  1.00  0.00    -0.252 OA
BRANCH   3   5
ATOM      5  C   UNL A   1      31.771  25.432  24.858  1.00  0.00     0.132 C 
BRANCH   5   6
ATOM      6  C   UNL A   1      33.257  25.742  24.513  1.00  0.00     0.018 C 
BRANCH   6   7
ATOM      7  C   UNL A   1      34.062  24.636  23.814  1.00  0.00     0.001 C 
BRANCH   7   8
ATOM      8  C   UNL A   1      33.525  23.213  23.978  1.00  0.00    -0.003 C 
ATOM      9  C   UNL A   1      32.999  22.609  22.685  1.00  0.00     0.004 C 
ENDBRANCH   7   8
ENDBRANCH   6   7
ENDBRANCH   5   6
BRANCH   5  10
ATOM     10  C   UNL A   1      30.895  25.781  23.613  1.00  0.00     0.158 C 
BRANCH  10  11
ATOM     11  O   UNL A   1      29.571  25.264  23.821  1.00  0.00    -0.388 OA
ATOM     12  H   UNL A   1      29.162  25.066  22.964  1.00  0.00     0.211 HD
ENDBRANCH  10  11
BRANCH  10  13
ATOM     13  C   UNL A   1      30.666  27.219  23.180  1.00  0.00    -0.018 A 
ATOM     14  C   UNL A   1      31.688  28.069  22.743  1.00  0.00     0.006 A 
ATOM     15  C   UNL A   1      29.354  27.737  23.230  1.00  0.00     0.019 A 
ATOM     16  C   UNL A   1      31.402  29.358  22.284  1.00  0.00     0.001 A 
ATOM     17  C   UNL A   1      29.057  29.042  22.799  1.00  0.00     0.056 A 
ATOM     18  C   UNL A   1      30.095  29.840  22.307  1.00  0.00     0.013 A 
BRANCH  17  19
ATOM     19  C   UNL A   1      27.656  29.598  22.887  1.00  0.00     0.416 C 
ATOM     20  F   UNL A   1      27.268  30.214  21.738  1.00  0.00    -0.166 F 
ATOM     21  F   UNL A   1      26.722  28.631  23.121  1.00  0.00    -0.166 F 
ATOM     22  F   UNL A   1      27.497  30.516  23.880  1.00  0.00    -0.166 F 
ENDBRANCH  17  19
ENDBRANCH  10  13
ENDBRANCH   5  10
ENDBRANCH   3   5
ENDBRANCH   2   3
ENDBRANCH   1   2
BRANCH   1  23
ATOM     23  C   UNL A   1      31.761  29.513  26.252  1.00  0.00     0.275 C 
BRANCH  23  24
ATOM     24  O   UNL A   1      33.081  30.071  26.101  1.00  0.00    -0.458 OA
BRANCH  24  25
ATOM     25  C   UNL A   1      33.393  31.060  26.965  1.00  0.00     0.338 C 
ATOM     26  O   UNL A   1      32.659  31.943  27.383  1.00  0.00    -0.246 OA
BRANCH  25  27
ATOM     27  C   UNL A   1      34.756  30.872  27.483  1.00  0.00     0.060 A 
ATOM     28  C   UNL A   1      35.169  29.566  27.745  1.00  0.00     0.016 A 
ATOM     29  C   UNL A   1      35.557  31.948  27.854  1.00  0.00     0.016 A 
ATOM     30  C   UNL A   1      36.362  29.313  28.405  1.00  0.00     0.010 A 
ATOM     31  C   UNL A   1      36.774  31.698  28.503  1.00  0.00     0.010 A 
ATOM     32  C   UNL A   1      37.171  30.379  28.804  1.00  0.00    -0.014 A 
BRANCH  32  33
ATOM     33  C   UNL A   1      38.369  30.116  29.636  1.00  0.00     0.031 A 
ATOM     34  C   UNL A   1      39.464  29.254  29.081  1.00  0.00     0.074 A 
ATOM     35  C   UNL A   1      38.510  30.684  30.846  1.00  0.00     0.049 A 
ATOM     36  N   UNL A   1      40.486  28.714  29.692  1.00  0.00    -0.248 NA
ATOM     37  C   UNL A   1      39.400  28.964  27.640  1.00  0.00     0.031 C 
ATOM     38  C   UNL A   1      37.585  31.645  31.445  1.00  0.00     0.029 A 
ATOM     39  N   UNL A   1      39.496  30.535  31.788  1.00  0.00    -0.354 N 
ATOM     40  C   UNL A   1      41.151  27.973  28.726  1.00  0.00     0.074 A 
ATOM     41  C   UNL A   1      40.433  28.150  27.482  1.00  0.00     0.031 C 
ATOM     42  C   UNL A   1      38.051  32.005  32.652  1.00  0.00     0.029 A 
ATOM     43  C   UNL A   1      39.260  31.239  32.943  1.00  0.00     0.049 A 
ATOM     44  H   UNL A   1      40.295  29.976  31.651  1.00  0.00     0.167 HD
ATOM     45  C   UNL A   1      42.253  27.201  28.877  1.00  0.00     0.037 A 
ATOM     46  C   UNL A   1      39.915  31.224  34.119  1.00  0.00     0.037 A 
ATOM     47  C   UNL A   1      42.979  27.065  30.110  1.00  0.00     0.049 A 
ATOM     48  C   UNL A   1      41.100  30.310  34.286  1.00  0.00     0.074 A 
ATOM     49  C   UNL A   1      44.076  26.270  30.387  1.00  0.00     0.029 A 
ATOM     50  N   UNL A   1      42.687  27.767  31.270  1.00  0.00    -0.354 N 
ATOM     51  N   UNL A   1      41.659  29.514  33.407  1.00  0.00    -0.248 NA
ATOM     52  C   UNL A   1      41.728  30.272  35.614  1.00  0.00     0.031 C 
ATOM     53  C   UNL A   1      44.435  26.474  31.724  1.00  0.00     0.029 A 
ATOM     54  C   UNL A   1      43.583  27.423  32.268  1.00  0.00     0.049 A 
ATOM     55  H   UNL A   1      41.953  28.415  31.370  1.00  0.00     0.167 HD
ATOM     56  C   UNL A   1      42.710  28.893  34.067  1.00  0.00     0.074 A 
ATOM     57  C   UNL A   1      42.720  29.412  35.419  1.00  0.00     0.031 C 
ATOM     58  C   UNL A   1      43.585  27.972  33.598  1.00  0.00     0.037 A 
BRANCH  45  59
ATOM     59  C   UNL A   1      42.695  26.395  27.694  1.00  0.00     0.064 A 
ATOM     60  C   UNL A   1      42.162  25.130  27.413  1.00  0.00     0.173 A 
ATOM     61  C   UNL A   1      43.663  26.913  26.818  1.00  0.00     0.173 A 
ATOM     62  F   UNL A   1      41.251  24.585  28.232  1.00  0.00    -0.203 F 
ATOM     63  C   UNL A   1      42.595  24.404  26.306  1.00  0.00     0.198 A 
ATOM     64  C   UNL A   1      44.077  26.193  25.702  1.00  0.00     0.198 A 
ATOM     65  F   UNL A   1      44.205  28.119  27.047  1.00  0.00    -0.203 F 
ATOM     66  F   UNL A   1      42.103  23.179  26.077  1.00  0.00    -0.200 F 
ATOM     67  C   UNL A   1      43.547  24.937  25.449  1.00  0.00     0.200 A 
ATOM     68  F   UNL A   1      44.993  26.714  24.873  1.00  0.00    -0.200 F 
ATOM     69  F   UNL A   1      43.961  24.237  24.385  1.00  0.00    -0.200 F 
ENDBRANCH  45  59
BRANCH  46  70
ATOM     70  C   UNL A   1      39.427  32.056  35.249  1.00  0.00     0.064 A 
ATOM     71  C   UNL A   1      39.795  33.403  35.367  1.00  0.00     0.173 A 
ATOM     72  C   UNL A   1      38.586  31.520  36.236  1.00  0.00     0.173 A 
ATOM     73  F   UNL A   1      40.625  33.951  34.468  1.00  0.00    -0.203 F 
ATOM     74  C   UNL A   1      39.345  34.180  36.433  1.00  0.00     0.198 A 
ATOM     75  C   UNL A   1      38.115  32.304  37.286  1.00  0.00     0.198 A 
ATOM     76  F   UNL A   1      38.214  30.233  36.175  1.00  0.00    -0.203 F 
ATOM     77  F   UNL A   1      39.745  35.453  36.547  1.00  0.00    -0.200 F 
ATOM     78  C   UNL A   1      38.499  33.632  37.387  1.00  0.00     0.200 A 
ATOM     79  F   UNL A   1      37.292  31.773  38.200  1.00  0.00    -0.200 F 
ATOM     80  F   UNL A   1      38.064  34.381  38.409  1.00  0.00    -0.200 F 
ENDBRANCH  46  70
BRANCH  58  81
ATOM     81  C   UNL A   1      44.653  27.498  34.535  1.00  0.00     0.064 A 
ATOM     82  C   UNL A   1      44.480  26.351  35.321  1.00  0.00     0.173 A 
ATOM     83  C   UNL A   1      45.888  28.161  34.592  1.00  0.00     0.173 A 
ATOM     84  F   UNL A   1      43.311  25.693  35.308  1.00  0.00    -0.203 F 
ATOM     85  C   UNL A   1      45.505  25.889  36.143  1.00  0.00     0.198 A 
ATOM     86  C   UNL A   1      46.916  27.686  35.399  1.00  0.00     0.198 A 
ATOM     87  F   UNL A   1      46.099  29.259  33.851  1.00  0.00    -0.203 F 
ATOM     88  F   UNL A   1      45.312  24.805  36.907  1.00  0.00    -0.200 F 
ATOM     89  C   UNL A   1      46.724  26.552  36.175  1.00  0.00     0.200 A 
ATOM     90  F   UNL A   1      48.096  28.321  35.423  1.00  0.00    -0.200 F 
ATOM     91  F   UNL A   1      47.713  26.099  36.957  1.00  0.00    -0.200 F 
ENDBRANCH  58  81
ENDBRANCH  32  33
ENDBRANCH  25  27
ENDBRANCH  24  25
ENDBRANCH  23  24
ENDBRANCH   1  23
TORSDOF 18
ENDMDL
MODEL 3
REMARK VINA RESULT:     -11.1      1.255      2.224
REMARK SMILES CCCC[C@@H](C(=O)OCCOC(=O)c1ccc(-c2c3nc(c(-c4c(F)c(F)c(F)c(F)c4F)c4ccc([nH]4)c(-c4c(F)c(F)c(F)c(F)c4F)c4nc(c(-c5c(F)c(F)c(F)c(F)c5F)c5ccc2[nH]5)C=C4)C=C3)cc1)[C@@H](O)c1cccc(C(F)(F)F)c1
REMARK SMILES IDX 9 1 8 2 6 3 7 4 5 5 4 6 3 7 2 8 1 9 77 10 78 11 79 13 80 14
REMARK SMILES IDX 88 15 81 16 83 17 82 18 84 19 85 20 86 21 87 22 10 23 11 24
REMARK SMILES IDX 12 25 13 26 14 27 15 28 76 29 16 30 75 31 17 32 18 33 19 34
REMARK SMILES IDX 69 35 20 36 74 37 68 38 70 39 21 40 73 41 67 42 66 43 22 45
REMARK SMILES IDX 54 46 34 47 53 48 35 49 38 50 52 51 71 52 36 53 37 54 51 56
REMARK SMILES IDX 72 57 39 58 23 59 24 60 32 61 25 62 26 63 30 64 33 65 27 66
REMARK SMILES IDX 28 67 31 68 29 69 55 70 56 71 64 72 57 73 58 74 62 75 65 76
REMARK SMILES IDX 59 77 60 78 63 79 61 80 40 81 41 82 49 83 42 84 43 85 47 86
REMARK SMILES IDX 50 87 44 88 45 89 48 90 46 91
REMARK H PARENT 78 12 70 44 38 55
REMARK Flexibility Score: inf
ROOT
ATOM      1  C   UNL A   1      31.778  29.841  25.064  1.00  0.00     0.274 C 
ENDROOT
BRANCH   1   2
ATOM      2  O   UNL A   1      31.191  28.551  25.335  1.00  0.00    -0.462 OA
BRANCH   2   3
ATOM      3  C   UNL A   1      30.962  27.753  24.257  1.00  0.00     0.312 C 
ATOM      4  O   UNL A   1      30.242  28.090  23.329  1.00  0.00    -0.252 OA
BRANCH   3   5
ATOM      5  C   UNL A   1      31.635  26.383  24.397  1.00  0.00     0.132 C 
BRANCH   5   6
ATOM      6  C   UNL A   1      30.739  25.259  23.797  1.00  0.00     0.018 C 
BRANCH   6   7
ATOM      7  C   UNL A   1      31.422  24.228  22.886  1.00  0.00     0.001 C 
BRANCH   7   8
ATOM      8  C   UNL A   1      31.569  22.819  23.463  1.00  0.00    -0.003 C 
ATOM      9  C   UNL A   1      32.918  22.180  23.169  1.00  0.00     0.004 C 
ENDBRANCH   7   8
ENDBRANCH   6   7
ENDBRANCH   5   6
BRANCH   5  10
ATOM     10  C   UNL A   1      31.946  26.020  25.884  1.00  0.00     0.158 C 
BRANCH  10  11
ATOM     11  O   UNL A   1      30.705  25.881  26.594  1.00  0.00    -0.388 OA
ATOM     12  H   UNL A   1      30.875  25.893  27.549  1.00  0.00     0.211 HD
ENDBRANCH  10  11
BRANCH  10  13
ATOM     13  C   UNL A   1      32.723  24.767  26.251  1.00  0.00    -0.018 A 
ATOM     14  C   UNL A   1      32.195  23.725  27.023  1.00  0.00     0.006 A 
ATOM     15  C   UNL A   1      34.056  24.645  25.804  1.00  0.00     0.019 A 
ATOM     16  C   UNL A   1      32.935  22.564  27.262  1.00  0.00     0.001 A 
ATOM     17  C   UNL A   1      34.822  23.494  26.062  1.00  0.00     0.056 A 
ATOM     18  C   UNL A   1      34.237  22.446  26.782  1.00  0.00     0.013 A 
BRANCH  17  19
ATOM     19  C   UNL A   1      36.257  23.388  25.608  1.00  0.00     0.416 C 
ATOM     20  F   UNL A   1      37.028  24.406  26.078  1.00  0.00    -0.166 F 
ATOM     21  F   UNL A   1      36.858  22.241  26.036  1.00  0.00    -0.166 F 
ATOM     22  F   UNL A   1      36.401  23.400  24.254  1.00  0.00    -0.166 F 
ENDBRANCH  17  19
ENDBRANCH  10  13
ENDBRANCH   5  10
ENDBRANCH   3   5
ENDBRANCH   2   3
ENDBRANCH   1   2
BRANCH   1  23
ATOM     23  C   UNL A   1      31.704  30.792  26.263  1.00  0.00     0.275 C 
BRANCH  23  24
ATOM     24  O   UNL A   1      32.824  30.627  27.156  1.00  0.00    -0.458 OA
BRANCH  24  25
ATOM     25  C   UNL A   1      33.511  31.755  27.436  1.00  0.00     0.338 C 
ATOM     26  O   UNL A   1      33.095  32.903  27.423  1.00  0.00    -0.246 OA
BRANCH  25  27
ATOM     27  C   UNL A   1      34.859  31.422  27.919  1.00  0.00     0.060 A 
ATOM     28  C   UNL A   1      35.091  30.107  28.322  1.00  0.00     0.016 A 
ATOM     29  C   UNL A   1      35.830  32.399  28.122  1.00  0.00     0.016 A 
ATOM     30  C   UNL A   1      36.271  29.753  28.960  1.00  0.00     0.010 A 
ATOM     31  C   UNL A   1      37.032  32.042  28.747  1.00  0.00     0.010 A 
ATOM     32  C   UNL A   1      37.249  30.723  29.192  1.00  0.00    -0.014 A 
BRANCH  32  33
ATOM     33  C   UNL A   1      38.441  30.377  30.001  1.00  0.00     0.031 A 
ATOM     34  C   UNL A   1      39.502  29.504  29.398  1.00  0.00     0.074 A 
ATOM     35  C   UNL A   1      38.610  30.883  31.236  1.00  0.00     0.049 A 
ATOM     36  N   UNL A   1      40.507  28.899  29.975  1.00  0.00    -0.248 NA
ATOM     37  C   UNL A   1      39.418  29.285  27.945  1.00  0.00     0.031 C 
ATOM     38  C   UNL A   1      37.724  31.846  31.886  1.00  0.00     0.029 A 
ATOM     39  N   UNL A   1      39.596  30.654  32.162  1.00  0.00    -0.354 N 
ATOM     40  C   UNL A   1      41.139  28.182  28.970  1.00  0.00     0.074 A 
ATOM     41  C   UNL A   1      40.420  28.443  27.741  1.00  0.00     0.031 C 
ATOM     42  C   UNL A   1      38.210  32.132  33.105  1.00  0.00     0.029 A 
ATOM     43  C   UNL A   1      39.392  31.310  33.350  1.00  0.00     0.049 A 
ATOM     44  H   UNL A   1      40.373  30.074  31.992  1.00  0.00     0.167 HD
ATOM     45  C   UNL A   1      42.213  27.365  29.076  1.00  0.00     0.037 A 
ATOM     46  C   UNL A   1      40.054  31.216  34.520  1.00  0.00     0.037 A 
ATOM     47  C   UNL A   1      42.941  27.145  30.295  1.00  0.00     0.049 A 
ATOM     48  C   UNL A   1      41.206  30.254  34.634  1.00  0.00     0.074 A 
ATOM     49  C   UNL A   1      44.011  26.299  30.526  1.00  0.00     0.029 A 
ATOM     50  N   UNL A   1      42.682  27.802  31.490  1.00  0.00    -0.354 N 
ATOM     51  N   UNL A   1      41.731  29.480  33.714  1.00  0.00    -0.248 NA
ATOM     52  C   UNL A   1      41.840  30.130  35.953  1.00  0.00     0.031 C 
ATOM     53  C   UNL A   1      44.385  26.427  31.868  1.00  0.00     0.029 A 
ATOM     54  C   UNL A   1      43.571  27.378  32.463  1.00  0.00     0.049 A 
ATOM     55  H   UNL A   1      41.972  28.469  31.626  1.00  0.00     0.167 HD
ATOM     56  C   UNL A   1      42.762  28.792  34.336  1.00  0.00     0.074 A 
ATOM     57  C   UNL A   1      42.799  29.246  35.711  1.00  0.00     0.031 C 
ATOM     58  C   UNL A   1      43.601  27.863  33.818  1.00  0.00     0.037 A 
BRANCH  45  59
ATOM     59  C   UNL A   1      42.619  26.601  27.853  1.00  0.00     0.064 A 
ATOM     60  C   UNL A   1      43.568  27.095  26.948  1.00  0.00     0.173 A 
ATOM     61  C   UNL A   1      42.056  25.341  27.595  1.00  0.00     0.173 A 
ATOM     62  F   UNL A   1      44.119  28.303  27.140  1.00  0.00    -0.203 F 
ATOM     63  C   UNL A   1      43.926  26.363  25.818  1.00  0.00     0.198 A 
ATOM     64  C   UNL A   1      42.431  24.603  26.477  1.00  0.00     0.198 A 
ATOM     65  F   UNL A   1      41.141  24.827  28.432  1.00  0.00    -0.203 F 
ATOM     66  F   UNL A   1      44.804  26.870  24.943  1.00  0.00    -0.200 F 
ATOM     67  C   UNL A   1      43.361  25.116  25.587  1.00  0.00     0.200 A 
ATOM     68  F   UNL A   1      41.888  23.397  26.260  1.00  0.00    -0.200 F 
ATOM     69  F   UNL A   1      43.707  24.413  24.500  1.00  0.00    -0.200 F 
ENDBRANCH  45  59
BRANCH  46  70
ATOM     70  C   UNL A   1      39.603  32.011  35.691  1.00  0.00     0.064 A 
ATOM     71  C   UNL A   1      40.179  33.253  35.987  1.00  0.00     0.173 A 
ATOM     72  C   UNL A   1      38.590  31.542  36.541  1.00  0.00     0.173 A 
ATOM     73  F   UNL A   1      41.175  33.728  35.225  1.00  0.00    -0.203 F 
ATOM     74  C   UNL A   1      39.763  33.993  37.093  1.00  0.00     0.198 A 
ATOM     75  C   UNL A   1      38.156  32.294  37.629  1.00  0.00     0.198 A 
ATOM     76  F   UNL A   1      38.014  30.353  36.307  1.00  0.00    -0.203 F 
ATOM     77  F   UNL A   1      40.358  35.158  37.379  1.00  0.00    -0.200 F 
ATOM     78  C   UNL A   1      38.746  33.517  37.907  1.00  0.00     0.200 A 
ATOM     79  F   UNL A   1      37.168  31.834  38.408  1.00  0.00    -0.200 F 
ATOM     80  F   UNL A   1      38.344  34.231  38.968  1.00  0.00    -0.200 F 
ENDBRANCH  46  70
BRANCH  58  81
ATOM     81  C   UNL A   1      44.657  27.307  34.723  1.00  0.00     0.064 A 
ATOM     82  C   UNL A   1      44.453  26.124  35.444  1.00  0.00     0.173 A 
ATOM     83  C   UNL A   1      45.910  27.932  34.813  1.00  0.00     0.173 A 
ATOM     84  F   UNL A   1      43.266  25.500  35.397  1.00  0.00    -0.203 F 
ATOM     85  C   UNL A   1      45.466  25.588  36.235  1.00  0.00     0.198 A 
ATOM     86  C   UNL A   1      46.926  27.383  35.588  1.00  0.00     0.198 A 
ATOM     87  F   UNL A   1      46.151  29.064  34.135  1.00  0.00    -0.203 F 
ATOM     88  F   UNL A   1      45.244  24.468  36.937  1.00  0.00    -0.200 F 
ATOM     89  C   UNL A   1      46.703  26.214  36.300  1.00  0.00     0.200 A 
ATOM     90  F   UNL A   1      48.123  27.983  35.644  1.00  0.00    -0.200 F 
ATOM     91  F   UNL A   1      47.681  25.689  37.052  1.00  0.00    -0.200 F 
ENDBRANCH  58  81
ENDBRANCH  32  33
ENDBRANCH  25  27
ENDBRANCH  24  25
ENDBRANCH  23  24
ENDBRANCH   1  23
TORSDOF 18
ENDMDL
