MODEL 1
REMARK VINA RESULT:     -12.2      0.000      0.000
REMARK SMILES C/C(=N\[NH+]=C1\NC(=O)[C@H](CC(=O)OCCOC(=O)c2ccc(-c3c4nc(c(-c5c(F)c(F)c(F)c(F)c5F)c5ccc([nH]5)c(-c5c(F)c(F)c(F)c(F)c5F)c5nc(c(-c6c(F)c(F)c(F)c(F)c6F)c6ccc3[nH]6)C=C5)C=C4)cc2)S1)c1ccc([N+](=O)[O-])cc1
REMARK SMILES IDX 14 1 13 2 11 3 12 4 10 5 9 6 4 7 5 8 6 10 82 11 7 12 8 14
REMARK SMILES IDX 3 15 1 16 2 17 83 18 84 19 91 20 85 21 90 22 86 23 87 24
REMARK SMILES IDX 88 25 89 26 15 27 16 28 17 29 18 30 19 31 20 32 81 33 21 34
REMARK SMILES IDX 80 35 22 36 23 37 24 38 74 39 25 40 79 41 73 42 75 43 26 44
REMARK SMILES IDX 78 45 72 46 71 47 27 49 59 50 39 51 58 52 40 53 43 54 57 55
REMARK SMILES IDX 76 56 41 57 42 58 56 60 77 61 44 62 28 63 29 64 37 65 30 66
REMARK SMILES IDX 31 67 35 68 38 69 32 70 33 71 36 72 34 73 60 74 61 75 69 76
REMARK SMILES IDX 62 77 63 78 67 79 70 80 64 81 65 82 68 83 66 84 45 85 46 86
REMARK SMILES IDX 54 87 47 88 48 89 52 90 55 91 49 92 50 93 53 94 51 95
REMARK H PARENT 4 9 6 13 75 48 43 59
REMARK Flexibility Score: inf
ROOT
ATOM      1  C   UNL A   1      38.323  19.925  25.200  1.00  0.00     0.274 C 
ENDROOT
BRANCH   1   2
ATOM      2  O   UNL A   1      37.512  21.088  25.448  1.00  0.00    -0.462 OA
BRANCH   2   3
ATOM      3  C   UNL A   1      36.468  21.329  24.626  1.00  0.00     0.307 C 
ATOM      4  O   UNL A   1      36.481  22.106  23.680  1.00  0.00    -0.252 OA
BRANCH   3   5
ATOM      5  C   UNL A   1      35.242  20.552  25.039  1.00  0.00     0.150 C 
BRANCH   5   6
ATOM      6  C   UNL A   1      33.953  21.242  24.626  1.00  0.00     0.184 C 
ATOM      7  N   UNL A   1      31.309  23.418  26.420  1.00  0.00    -0.142 N 
ATOM      8  C   UNL A   1      32.191  22.608  25.946  1.00  0.00     0.337 C 
ATOM      9  H   UNL A   1      30.405  23.106  26.655  1.00  0.00     0.343 HD
ATOM     10  N   UNL A   1      31.846  21.319  25.751  1.00  0.00    -0.202 N 
ATOM     11  S   UNL A   1      33.815  22.900  25.419  1.00  0.00    -0.020 SA
ATOM     12  C   UNL A   1      32.707  20.501  25.092  1.00  0.00     0.322 C 
ATOM     13  H   UNL A   1      30.983  20.976  26.082  1.00  0.00     0.316 HD
ATOM     14  O   UNL A   1      32.444  19.323  24.892  1.00  0.00    -0.246 OA
BRANCH   7  15
ATOM     15  N   UNL A   1      31.676  24.745  26.588  1.00  0.00    -0.090 NA
ATOM     16  C   UNL A   1      30.494  25.157  24.427  1.00  0.00     0.071 C 
ATOM     17  C   UNL A   1      31.188  25.577  25.712  1.00  0.00     0.088 C 
BRANCH  17  18
ATOM     18  C   UNL A   1      31.306  27.047  25.990  1.00  0.00    -0.000 A 
ATOM     19  C   UNL A   1      31.293  27.957  24.921  1.00  0.00     0.017 A 
ATOM     20  C   UNL A   1      31.535  27.520  27.291  1.00  0.00     0.017 A 
ATOM     21  C   UNL A   1      31.527  29.318  25.143  1.00  0.00     0.086 A 
ATOM     22  C   UNL A   1      31.779  28.878  27.520  1.00  0.00     0.086 A 
ATOM     23  C   UNL A   1      31.783  29.772  26.442  1.00  0.00     0.269 A 
BRANCH  23  24
ATOM     24  N   UNL A   1      32.087  31.190  26.678  1.00  0.00     0.062 N 
ATOM     25  O   UNL A   1      31.266  32.029  26.283  1.00  0.00    -0.258 OA
ATOM     26  O   UNL A   1      33.151  31.461  27.253  1.00  0.00    -0.258 OA
ENDBRANCH  23  24
ENDBRANCH  17  18
ENDBRANCH   7  15
ENDBRANCH   5   6
ENDBRANCH   3   5
ENDBRANCH   2   3
ENDBRANCH   1   2
BRANCH   1  27
ATOM     27  C   UNL A   1      39.571  19.914  26.083  1.00  0.00     0.275 C 
BRANCH  27  28
ATOM     28  O   UNL A   1      40.643  19.186  25.455  1.00  0.00    -0.458 OA
BRANCH  28  29
ATOM     29  C   UNL A   1      41.819  19.191  26.123  1.00  0.00     0.338 C 
ATOM     30  O   UNL A   1      42.549  18.244  26.352  1.00  0.00    -0.246 OA
BRANCH  29  31
ATOM     31  C   UNL A   1      42.193  20.580  26.438  1.00  0.00     0.060 A 
ATOM     32  C   UNL A   1      42.472  21.446  25.376  1.00  0.00     0.016 A 
ATOM     33  C   UNL A   1      42.318  21.008  27.760  1.00  0.00     0.016 A 
ATOM     34  C   UNL A   1      42.875  22.753  25.634  1.00  0.00     0.010 A 
ATOM     35  C   UNL A   1      42.721  22.321  28.017  1.00  0.00     0.010 A 
ATOM     36  C   UNL A   1      43.007  23.198  26.956  1.00  0.00    -0.014 A 
BRANCH  36  37
ATOM     37  C   UNL A   1      43.468  24.581  27.229  1.00  0.00     0.031 A 
ATOM     38  C   UNL A   1      42.510  25.596  27.780  1.00  0.00     0.074 A 
ATOM     39  C   UNL A   1      44.746  24.918  26.979  1.00  0.00     0.049 A 
ATOM     40  N   UNL A   1      42.700  26.867  28.022  1.00  0.00    -0.248 NA
ATOM     41  C   UNL A   1      41.157  25.115  28.099  1.00  0.00     0.031 C 
ATOM     42  C   UNL A   1      45.772  24.010  26.469  1.00  0.00     0.029 A 
ATOM     43  N   UNL A   1      45.395  26.120  27.114  1.00  0.00    -0.354 N 
ATOM     44  C   UNL A   1      41.491  27.344  28.510  1.00  0.00     0.074 A 
ATOM     45  C   UNL A   1      40.566  26.229  28.509  1.00  0.00     0.031 C 
ATOM     46  C   UNL A   1      46.923  24.687  26.329  1.00  0.00     0.029 A 
ATOM     47  C   UNL A   1      46.704  26.082  26.702  1.00  0.00     0.049 A 
ATOM     48  H   UNL A   1      44.964  26.929  27.471  1.00  0.00     0.167 HD
ATOM     49  C   UNL A   1      41.186  28.595  28.927  1.00  0.00     0.037 A 
ATOM     50  C   UNL A   1      47.614  27.070  26.611  1.00  0.00     0.037 A 
ATOM     51  C   UNL A   1      42.112  29.698  28.933  1.00  0.00     0.049 A 
ATOM     52  C   UNL A   1      47.230  28.466  27.021  1.00  0.00     0.074 A 
ATOM     53  C   UNL A   1      41.905  30.997  29.364  1.00  0.00     0.029 A 
ATOM     54  N   UNL A   1      43.421  29.632  28.479  1.00  0.00    -0.354 N 
ATOM     55  N   UNL A   1      46.092  28.903  27.503  1.00  0.00    -0.248 NA
ATOM     56  C   UNL A   1      48.256  29.508  26.871  1.00  0.00     0.031 C 
ATOM     57  C   UNL A   1      43.075  31.728  29.128  1.00  0.00     0.029 A 
ATOM     58  C   UNL A   1      44.025  30.874  28.592  1.00  0.00     0.049 A 
ATOM     59  H   UNL A   1      43.856  28.822  28.128  1.00  0.00     0.167 HD
ATOM     60  C   UNL A   1      46.268  30.262  27.729  1.00  0.00     0.074 A 
ATOM     61  C   UNL A   1      47.631  30.574  27.349  1.00  0.00     0.031 C 
ATOM     62  C   UNL A   1      45.381  31.169  28.207  1.00  0.00     0.037 A 
BRANCH  49  63
ATOM     63  C   UNL A   1      39.781  28.848  29.391  1.00  0.00     0.064 A 
ATOM     64  C   UNL A   1      38.783  29.290  28.512  1.00  0.00     0.173 A 
ATOM     65  C   UNL A   1      39.422  28.608  30.727  1.00  0.00     0.173 A 
ATOM     66  F   UNL A   1      39.079  29.547  27.228  1.00  0.00    -0.203 F 
ATOM     67  C   UNL A   1      37.481  29.505  28.957  1.00  0.00     0.198 A 
ATOM     68  C   UNL A   1      38.114  28.798  31.162  1.00  0.00     0.198 A 
ATOM     69  F   UNL A   1      40.339  28.179  31.608  1.00  0.00    -0.203 F 
ATOM     70  F   UNL A   1      36.553  29.969  28.109  1.00  0.00    -0.200 F 
ATOM     71  C   UNL A   1      37.146  29.253  30.279  1.00  0.00     0.200 A 
ATOM     72  F   UNL A   1      37.789  28.546  32.437  1.00  0.00    -0.200 F 
ATOM     73  F   UNL A   1      35.892  29.456  30.704  1.00  0.00    -0.200 F 
ENDBRANCH  49  63
BRANCH  50  74
ATOM     74  C   UNL A   1      48.975  26.777  26.092  1.00  0.00     0.064 A 
ATOM     75  C   UNL A   1      49.985  26.303  26.941  1.00  0.00     0.173 A 
ATOM     76  C   UNL A   1      49.294  26.971  24.740  1.00  0.00     0.173 A 
ATOM     77  F   UNL A   1      49.735  26.129  28.247  1.00  0.00    -0.203 F 
ATOM     78  C   UNL A   1      51.267  26.048  26.458  1.00  0.00     0.198 A 
ATOM     79  C   UNL A   1      50.568  26.688  24.253  1.00  0.00     0.198 A 
ATOM     80  F   UNL A   1      48.363  27.425  23.888  1.00  0.00    -0.203 F 
ATOM     81  F   UNL A   1      52.226  25.637  27.299  1.00  0.00    -0.200 F 
ATOM     82  C   UNL A   1      51.556  26.233  25.115  1.00  0.00     0.200 A 
ATOM     83  F   UNL A   1      50.840  26.859  22.953  1.00  0.00    -0.200 F 
ATOM     84  F   UNL A   1      52.788  25.984  24.652  1.00  0.00    -0.200 F 
ENDBRANCH  50  74
BRANCH  62  85
ATOM     85  C   UNL A   1      45.862  32.582  28.361  1.00  0.00     0.064 A 
ATOM     86  C   UNL A   1      46.523  33.008  29.522  1.00  0.00     0.173 A 
ATOM     87  C   UNL A   1      45.695  33.508  27.321  1.00  0.00     0.173 A 
ATOM     88  F   UNL A   1      46.693  32.164  30.551  1.00  0.00    -0.203 F 
ATOM     89  C   UNL A   1      46.978  34.318  29.645  1.00  0.00     0.198 A 
ATOM     90  C   UNL A   1      46.176  34.809  27.436  1.00  0.00     0.198 A 
ATOM     91  F   UNL A   1      45.074  33.148  26.188  1.00  0.00    -0.203 F 
ATOM     92  F   UNL A   1      47.569  34.716  30.780  1.00  0.00    -0.200 F 
ATOM     93  C   UNL A   1      46.811  35.215  28.600  1.00  0.00     0.200 A 
ATOM     94  F   UNL A   1      46.024  35.671  26.422  1.00  0.00    -0.200 F 
ATOM     95  F   UNL A   1      47.258  36.473  28.718  1.00  0.00    -0.200 F 
ENDBRANCH  62  85
ENDBRANCH  36  37
ENDBRANCH  29  31
ENDBRANCH  28  29
ENDBRANCH  27  28
ENDBRANCH   1  27
TORSDOF 15
ENDMDL
MODEL 2
REMARK VINA RESULT:     -12.1      5.470     10.023
REMARK SMILES C/C(=N\[NH+]=C1\NC(=O)[C@H](CC(=O)OCCOC(=O)c2ccc(-c3c4nc(c(-c5c(F)c(F)c(F)c(F)c5F)c5ccc([nH]5)c(-c5c(F)c(F)c(F)c(F)c5F)c5nc(c(-c6c(F)c(F)c(F)c(F)c6F)c6ccc3[nH]6)C=C5)C=C4)cc2)S1)c1ccc([N+](=O)[O-])cc1
REMARK SMILES IDX 14 1 13 2 11 3 12 4 10 5 9 6 4 7 5 8 6 10 82 11 7 12 8 14
REMARK SMILES IDX 3 15 1 16 2 17 83 18 84 19 91 20 85 21 90 22 86 23 87 24
REMARK SMILES IDX 88 25 89 26 15 27 16 28 17 29 18 30 19 31 20 32 81 33 21 34
REMARK SMILES IDX 80 35 22 36 23 37 24 38 74 39 25 40 79 41 73 42 75 43 26 44
REMARK SMILES IDX 78 45 72 46 71 47 27 49 59 50 39 51 58 52 40 53 43 54 57 55
REMARK SMILES IDX 76 56 41 57 42 58 56 60 77 61 44 62 28 63 29 64 37 65 30 66
REMARK SMILES IDX 31 67 35 68 38 69 32 70 33 71 36 72 34 73 60 74 61 75 69 76
REMARK SMILES IDX 62 77 63 78 67 79 70 80 64 81 65 82 68 83 66 84 45 85 46 86
REMARK SMILES IDX 54 87 47 88 48 89 52 90 55 91 49 92 50 93 53 94 51 95
REMARK H PARENT 4 9 6 13 75 48 43 59
REMARK Flexibility Score: inf
ROOT
ATOM      1  C   UNL A   1      34.373  33.935  27.667  1.00  0.00     0.274 C 
ENDROOT
BRANCH   1   2
ATOM      2  O   UNL A   1      34.264  35.146  28.437  1.00  0.00    -0.462 OA
BRANCH   2   3
ATOM      3  C   UNL A   1      33.193  35.297  29.247  1.00  0.00     0.307 C 
ATOM      4  O   UNL A   1      32.245  34.526  29.311  1.00  0.00    -0.252 OA
BRANCH   3   5
ATOM      5  C   UNL A   1      33.276  36.574  30.047  1.00  0.00     0.150 C 
BRANCH   5   6
ATOM      6  C   UNL A   1      33.794  36.342  31.456  1.00  0.00     0.184 C 
ATOM      7  N   UNL A   1      34.421  33.238  33.674  1.00  0.00    -0.142 N 
ATOM      8  C   UNL A   1      34.085  34.205  32.892  1.00  0.00     0.337 C 
ATOM      9  H   UNL A   1      33.861  32.988  34.443  1.00  0.00     0.343 HD
ATOM     10  N   UNL A   1      32.957  34.892  33.161  1.00  0.00    -0.202 N 
ATOM     11  S   UNL A   1      34.899  34.868  31.512  1.00  0.00    -0.020 SA
ATOM     12  C   UNL A   1      32.688  36.018  32.450  1.00  0.00     0.322 C 
ATOM     13  H   UNL A   1      32.338  34.582  33.862  1.00  0.00     0.316 HD
ATOM     14  O   UNL A   1      31.677  36.676  32.653  1.00  0.00    -0.246 OA
BRANCH   7  15
ATOM     15  N   UNL A   1      35.599  32.561  33.392  1.00  0.00    -0.090 NA
ATOM     16  C   UNL A   1      36.554  33.783  35.350  1.00  0.00     0.071 C 
ATOM     17  C   UNL A   1      36.561  32.729  34.256  1.00  0.00     0.088 C 
BRANCH  17  18
ATOM     18  C   UNL A   1      37.751  31.818  34.175  1.00  0.00    -0.000 A 
ATOM     19  C   UNL A   1      37.682  30.658  33.388  1.00  0.00     0.017 A 
ATOM     20  C   UNL A   1      38.892  32.049  34.958  1.00  0.00     0.017 A 
ATOM     21  C   UNL A   1      38.728  29.729  33.396  1.00  0.00     0.086 A 
ATOM     22  C   UNL A   1      39.939  31.122  34.978  1.00  0.00     0.086 A 
ATOM     23  C   UNL A   1      39.849  29.959  34.204  1.00  0.00     0.269 A 
BRANCH  23  24
ATOM     24  N   UNL A   1      40.927  28.963  34.264  1.00  0.00     0.062 N 
ATOM     25  O   UNL A   1      41.599  28.903  35.302  1.00  0.00    -0.258 OA
ATOM     26  O   UNL A   1      41.103  28.246  33.268  1.00  0.00    -0.258 OA
ENDBRANCH  23  24
ENDBRANCH  17  18
ENDBRANCH   7  15
ENDBRANCH   5   6
ENDBRANCH   3   5
ENDBRANCH   2   3
ENDBRANCH   1   2
BRANCH   1  27
ATOM     27  C   UNL A   1      35.231  32.891  28.384  1.00  0.00     0.275 C 
BRANCH  27  28
ATOM     28  O   UNL A   1      34.458  31.720  28.709  1.00  0.00    -0.458 OA
BRANCH  28  29
ATOM     29  C   UNL A   1      34.716  30.626  27.958  1.00  0.00     0.338 C 
ATOM     30  O   UNL A   1      34.019  30.141  27.086  1.00  0.00    -0.246 OA
BRANCH  29  31
ATOM     31  C   UNL A   1      36.078  30.149  28.247  1.00  0.00     0.060 A 
ATOM     32  C   UNL A   1      36.362  29.707  29.542  1.00  0.00     0.016 A 
ATOM     33  C   UNL A   1      37.074  30.183  27.270  1.00  0.00     0.016 A 
ATOM     34  C   UNL A   1      37.651  29.292  29.867  1.00  0.00     0.010 A 
ATOM     35  C   UNL A   1      38.366  29.765  27.597  1.00  0.00     0.010 A 
ATOM     36  C   UNL A   1      38.663  29.323  28.899  1.00  0.00    -0.014 A 
BRANCH  36  37
ATOM     37  C   UNL A   1      40.041  28.911  29.256  1.00  0.00     0.031 A 
ATOM     38  C   UNL A   1      40.904  29.816  30.085  1.00  0.00     0.074 A 
ATOM     39  C   UNL A   1      40.513  27.725  28.832  1.00  0.00     0.049 A 
ATOM     40  N   UNL A   1      42.153  29.669  30.446  1.00  0.00    -0.248 NA
ATOM     41  C   UNL A   1      40.277  31.055  30.572  1.00  0.00     0.031 C 
ATOM     42  C   UNL A   1      39.758  26.752  28.044  1.00  0.00     0.029 A 
ATOM     43  N   UNL A   1      41.744  27.141  28.999  1.00  0.00    -0.354 N 
ATOM     44  C   UNL A   1      42.467  30.797  31.191  1.00  0.00     0.074 A 
ATOM     45  C   UNL A   1      41.284  31.632  31.212  1.00  0.00     0.031 C 
ATOM     46  C   UNL A   1      40.543  25.692  27.791  1.00  0.00     0.029 A 
ATOM     47  C   UNL A   1      41.865  25.930  28.366  1.00  0.00     0.049 A 
ATOM     48  H   UNL A   1      42.470  27.551  29.523  1.00  0.00     0.167 HD
ATOM     49  C   UNL A   1      43.634  31.102  31.806  1.00  0.00     0.037 A 
ATOM     50  C   UNL A   1      42.931  25.118  28.241  1.00  0.00     0.037 A 
ATOM     51  C   UNL A   1      44.806  30.264  31.787  1.00  0.00     0.049 A 
ATOM     52  C   UNL A   1      44.235  25.511  28.880  1.00  0.00     0.074 A 
ATOM     53  C   UNL A   1      46.027  30.473  32.404  1.00  0.00     0.029 A 
ATOM     54  N   UNL A   1      44.902  29.058  31.108  1.00  0.00    -0.354 N 
ATOM     55  N   UNL A   1      44.517  26.568  29.602  1.00  0.00    -0.248 NA
ATOM     56  C   UNL A   1      45.372  24.599  28.684  1.00  0.00     0.031 C 
ATOM     57  C   UNL A   1      46.877  29.416  32.060  1.00  0.00     0.029 A 
ATOM     58  C   UNL A   1      46.172  28.526  31.268  1.00  0.00     0.049 A 
ATOM     59  H   UNL A   1      44.176  28.642  30.590  1.00  0.00     0.167 HD
ATOM     60  C   UNL A   1      45.853  26.442  29.960  1.00  0.00     0.074 A 
ATOM     61  C   UNL A   1      46.322  25.195  29.391  1.00  0.00     0.031 C 
ATOM     62  C   UNL A   1      46.623  27.284  30.692  1.00  0.00     0.037 A 
BRANCH  49  63
ATOM     63  C   UNL A   1      43.712  32.412  32.533  1.00  0.00     0.064 A 
ATOM     64  C   UNL A   1      43.998  33.611  31.865  1.00  0.00     0.173 A 
ATOM     65  C   UNL A   1      43.462  32.473  33.913  1.00  0.00     0.173 A 
ATOM     66  F   UNL A   1      44.258  33.605  30.548  1.00  0.00    -0.203 F 
ATOM     67  C   UNL A   1      44.051  34.820  32.554  1.00  0.00     0.198 A 
ATOM     68  C   UNL A   1      43.491  33.686  34.594  1.00  0.00     0.198 A 
ATOM     69  F   UNL A   1      43.180  31.354  34.599  1.00  0.00    -0.203 F 
ATOM     70  F   UNL A   1      44.368  35.947  31.902  1.00  0.00    -0.200 F 
ATOM     71  C   UNL A   1      43.791  34.858  33.915  1.00  0.00     0.200 A 
ATOM     72  F   UNL A   1      43.231  33.722  35.908  1.00  0.00    -0.200 F 
ATOM     73  F   UNL A   1      43.840  36.022  34.576  1.00  0.00    -0.200 F 
ENDBRANCH  49  63
BRANCH  50  74
ATOM     74  C   UNL A   1      42.815  23.857  27.462  1.00  0.00     0.064 A 
ATOM     75  C   UNL A   1      42.374  22.673  28.067  1.00  0.00     0.173 A 
ATOM     76  C   UNL A   1      43.149  23.813  26.100  1.00  0.00     0.173 A 
ATOM     77  F   UNL A   1      42.070  22.661  29.373  1.00  0.00    -0.203 F 
ATOM     78  C   UNL A   1      42.285  21.487  27.341  1.00  0.00     0.198 A 
ATOM     79  C   UNL A   1      43.032  22.632  25.369  1.00  0.00     0.198 A 
ATOM     80  F   UNL A   1      43.579  24.919  25.476  1.00  0.00    -0.203 F 
ATOM     81  F   UNL A   1      41.901  20.358  27.953  1.00  0.00    -0.200 F 
ATOM     82  C   UNL A   1      42.606  21.469  25.992  1.00  0.00     0.200 A 
ATOM     83  F   UNL A   1      43.334  22.622  24.064  1.00  0.00    -0.200 F 
ATOM     84  F   UNL A   1      42.516  20.328  25.295  1.00  0.00    -0.200 F 
ENDBRANCH  50  74
BRANCH  62  85
ATOM     85  C   UNL A   1      48.046  26.876  30.934  1.00  0.00     0.064 A 
ATOM     86  C   UNL A   1      48.393  26.012  31.982  1.00  0.00     0.173 A 
ATOM     87  C   UNL A   1      49.069  27.324  30.084  1.00  0.00     0.173 A 
ATOM     88  F   UNL A   1      47.453  25.570  32.832  1.00  0.00    -0.203 F 
ATOM     89  C   UNL A   1      49.716  25.629  32.184  1.00  0.00     0.198 A 
ATOM     90  C   UNL A   1      50.387  26.917  30.273  1.00  0.00     0.198 A 
ATOM     91  F   UNL A   1      48.789  28.148  29.063  1.00  0.00    -0.203 F 
ATOM     92  F   UNL A   1      50.031  24.837  33.219  1.00  0.00    -0.200 F 
ATOM     93  C   UNL A   1      50.710  26.075  31.326  1.00  0.00     0.200 A 
ATOM     94  F   UNL A   1      51.344  27.339  29.436  1.00  0.00    -0.200 F 
ATOM     95  F   UNL A   1      51.982  25.698  31.519  1.00  0.00    -0.200 F 
ENDBRANCH  62  85
ENDBRANCH  36  37
ENDBRANCH  29  31
ENDBRANCH  28  29
ENDBRANCH  27  28
ENDBRANCH   1  27
TORSDOF 15
ENDMDL
MODEL 3
REMARK VINA RESULT:     -12.1      5.222     11.412
REMARK SMILES C/C(=N\[NH+]=C1\NC(=O)[C@H](CC(=O)OCCOC(=O)c2ccc(-c3c4nc(c(-c5c(F)c(F)c(F)c(F)c5F)c5ccc([nH]5)c(-c5c(F)c(F)c(F)c(F)c5F)c5nc(c(-c6c(F)c(F)c(F)c(F)c6F)c6ccc3[nH]6)C=C5)C=C4)cc2)S1)c1ccc([N+](=O)[O-])cc1
REMARK SMILES IDX 14 1 13 2 11 3 12 4 10 5 9 6 4 7 5 8 6 10 82 11 7 12 8 14
REMARK SMILES IDX 3 15 1 16 2 17 83 18 84 19 91 20 85 21 90 22 86 23 87 24
REMARK SMILES IDX 88 25 89 26 15 27 16 28 17 29 18 30 19 31 20 32 81 33 21 34
REMARK SMILES IDX 80 35 22 36 23 37 24 38 74 39 25 40 79 41 73 42 75 43 26 44
REMARK SMILES IDX 78 45 72 46 71 47 27 49 59 50 39 51 58 52 40 53 43 54 57 55
REMARK SMILES IDX 76 56 41 57 42 58 56 60 77 61 44 62 28 63 29 64 37 65 30 66
REMARK SMILES IDX 31 67 35 68 38 69 32 70 33 71 36 72 34 73 60 74 61 75 69 76
REMARK SMILES IDX 62 77 63 78 67 79 70 80 64 81 65 82 68 83 66 84 45 85 46 86
REMARK SMILES IDX 54 87 47 88 48 89 52 90 55 91 49 92 50 93 53 94 51 95
REMARK H PARENT 4 9 6 13 75 48 43 59
REMARK Flexibility Score: inf
ROOT
ATOM      1  C   UNL A   1      31.781  31.991  26.851  1.00  0.00     0.274 C 
ENDROOT
BRANCH   1   2
ATOM      2  O   UNL A   1      32.458  30.877  26.241  1.00  0.00    -0.462 OA
BRANCH   2   3
ATOM      3  C   UNL A   1      31.882  29.657  26.316  1.00  0.00     0.307 C 
ATOM      4  O   UNL A   1      31.688  29.033  27.351  1.00  0.00    -0.252 OA
BRANCH   3   5
ATOM      5  C   UNL A   1      31.540  29.117  24.949  1.00  0.00     0.150 C 
BRANCH   5   6
ATOM      6  C   UNL A   1      30.825  27.779  25.018  1.00  0.00     0.184 C 
ATOM      7  N   UNL A   1      31.319  24.314  23.374  1.00  0.00    -0.142 N 
ATOM      8  C   UNL A   1      31.187  25.527  23.788  1.00  0.00     0.337 C 
ATOM      9  H   UNL A   1      30.739  23.951  22.668  1.00  0.00     0.343 HD
ATOM     10  N   UNL A   1      30.215  26.291  23.249  1.00  0.00    -0.202 N 
ATOM     11  S   UNL A   1      32.036  26.389  25.029  1.00  0.00    -0.020 SA
ATOM     12  C   UNL A   1      29.956  27.506  23.798  1.00  0.00     0.322 C 
ATOM     13  H   UNL A   1      29.703  25.973  22.470  1.00  0.00     0.316 HD
ATOM     14  O   UNL A   1      29.087  28.239  23.347  1.00  0.00    -0.246 OA
BRANCH   7  15
ATOM     15  N   UNL A   1      32.309  23.538  23.960  1.00  0.00    -0.090 NA
ATOM     16  C   UNL A   1      33.270  23.355  21.662  1.00  0.00     0.071 C 
ATOM     17  C   UNL A   1      33.288  23.191  23.172  1.00  0.00     0.088 C 
BRANCH  17  18
ATOM     18  C   UNL A   1      34.520  22.601  23.793  1.00  0.00    -0.000 A 
ATOM     19  C   UNL A   1      35.782  23.101  23.435  1.00  0.00     0.017 A 
ATOM     20  C   UNL A   1      34.439  21.489  24.644  1.00  0.00     0.017 A 
ATOM     21  C   UNL A   1      36.950  22.486  23.902  1.00  0.00     0.086 A 
ATOM     22  C   UNL A   1      35.601  20.864  25.109  1.00  0.00     0.086 A 
ATOM     23  C   UNL A   1      36.853  21.359  24.727  1.00  0.00     0.269 A 
BRANCH  23  24
ATOM     24  N   UNL A   1      38.072  20.672  25.176  1.00  0.00     0.062 N 
ATOM     25  O   UNL A   1      38.925  21.343  25.774  1.00  0.00    -0.258 OA
ATOM     26  O   UNL A   1      38.175  19.464  24.924  1.00  0.00    -0.258 OA
ENDBRANCH  23  24
ENDBRANCH  17  18
ENDBRANCH   7  15
ENDBRANCH   5   6
ENDBRANCH   3   5
ENDBRANCH   2   3
ENDBRANCH   1   2
BRANCH   1  27
ATOM     27  C   UNL A   1      32.768  33.074  27.288  1.00  0.00     0.275 C 
BRANCH  27  28
ATOM     28  O   UNL A   1      32.122  34.061  28.115  1.00  0.00    -0.458 OA
BRANCH  28  29
ATOM     29  C   UNL A   1      32.938  35.000  28.644  1.00  0.00     0.338 C 
ATOM     30  O   UNL A   1      32.727  36.194  28.750  1.00  0.00    -0.246 OA
BRANCH  29  31
ATOM     31  C   UNL A   1      34.118  34.344  29.231  1.00  0.00     0.060 A 
ATOM     32  C   UNL A   1      33.926  33.492  30.322  1.00  0.00     0.016 A 
ATOM     33  C   UNL A   1      35.400  34.605  28.746  1.00  0.00     0.016 A 
ATOM     34  C   UNL A   1      35.022  32.890  30.934  1.00  0.00     0.010 A 
ATOM     35  C   UNL A   1      36.499  33.999  29.360  1.00  0.00     0.010 A 
ATOM     36  C   UNL A   1      36.316  33.143  30.461  1.00  0.00    -0.014 A 
BRANCH  36  37
ATOM     37  C   UNL A   1      37.484  32.527  31.134  1.00  0.00     0.031 A 
ATOM     38  C   UNL A   1      38.234  31.413  30.466  1.00  0.00     0.074 A 
ATOM     39  C   UNL A   1      37.866  32.971  32.345  1.00  0.00     0.049 A 
ATOM     40  N   UNL A   1      39.236  30.701  30.916  1.00  0.00    -0.248 NA
ATOM     41  C   UNL A   1      37.797  31.049  29.109  1.00  0.00     0.031 C 
ATOM     42  C   UNL A   1      37.230  34.064  33.079  1.00  0.00     0.029 A 
ATOM     43  N   UNL A   1      38.875  32.550  33.174  1.00  0.00    -0.354 N 
ATOM     44  C   UNL A   1      39.542  29.799  29.906  1.00  0.00     0.074 A 
ATOM     45  C   UNL A   1      38.606  30.036  28.828  1.00  0.00     0.031 C 
ATOM     46  C   UNL A   1      37.862  34.228  34.252  1.00  0.00     0.029 A 
ATOM     47  C   UNL A   1      38.919  33.226  34.368  1.00  0.00     0.049 A 
ATOM     48  H   UNL A   1      39.507  31.834  32.935  1.00  0.00     0.167 HD
ATOM     49  C   UNL A   1      40.521  28.863  29.882  1.00  0.00     0.037 A 
ATOM     50  C   UNL A   1      39.706  33.037  35.444  1.00  0.00     0.037 A 
ATOM     51  C   UNL A   1      41.454  28.635  30.956  1.00  0.00     0.049 A 
ATOM     52  C   UNL A   1      40.744  31.948  35.415  1.00  0.00     0.074 A 
ATOM     53  C   UNL A   1      42.500  27.730  31.013  1.00  0.00     0.029 A 
ATOM     54  N   UNL A   1      41.448  29.317  32.164  1.00  0.00    -0.354 N 
ATOM     55  N   UNL A   1      41.042  31.114  34.449  1.00  0.00    -0.248 NA
ATOM     56  C   UNL A   1      41.552  31.771  36.631  1.00  0.00     0.031 C 
ATOM     57  C   UNL A   1      43.097  27.832  32.275  1.00  0.00     0.029 A 
ATOM     58  C   UNL A   1      42.454  28.832  32.985  1.00  0.00     0.049 A 
ATOM     59  H   UNL A   1      40.823  30.038  32.403  1.00  0.00     0.167 HD
ATOM     60  C   UNL A   1      42.081  30.327  34.929  1.00  0.00     0.074 A 
ATOM     61  C   UNL A   1      42.374  30.795  36.268  1.00  0.00     0.031 C 
ATOM     62  C   UNL A   1      42.731  29.307  34.317  1.00  0.00     0.037 A 
BRANCH  49  63
ATOM     63  C   UNL A   1      40.619  27.994  28.663  1.00  0.00     0.064 A 
ATOM     64  C   UNL A   1      39.939  26.771  28.573  1.00  0.00     0.173 A 
ATOM     65  C   UNL A   1      41.374  28.410  27.555  1.00  0.00     0.173 A 
ATOM     66  F   UNL A   1      39.215  26.322  29.610  1.00  0.00    -0.203 F 
ATOM     67  C   UNL A   1      40.029  25.985  27.427  1.00  0.00     0.198 A 
ATOM     68  C   UNL A   1      41.440  27.634  26.402  1.00  0.00     0.198 A 
ATOM     69  F   UNL A   1      42.039  29.574  27.589  1.00  0.00    -0.203 F 
ATOM     70  F   UNL A   1      39.407  24.799  27.379  1.00  0.00    -0.200 F 
ATOM     71  C   UNL A   1      40.774  26.419  26.341  1.00  0.00     0.200 A 
ATOM     72  F   UNL A   1      42.153  28.059  25.350  1.00  0.00    -0.200 F 
ATOM     73  F   UNL A   1      40.857  25.663  25.238  1.00  0.00    -0.200 F 
ENDBRANCH  49  63
BRANCH  50  74
ATOM     74  C   UNL A   1      39.531  33.890  36.648  1.00  0.00     0.064 A 
ATOM     75  C   UNL A   1      40.164  35.136  36.750  1.00  0.00     0.173 A 
ATOM     76  C   UNL A   1      38.731  33.473  37.722  1.00  0.00     0.173 A 
ATOM     77  F   UNL A   1      40.960  35.564  35.759  1.00  0.00    -0.203 F 
ATOM     78  C   UNL A   1      40.016  35.926  37.887  1.00  0.00     0.198 A 
ATOM     79  C   UNL A   1      38.561  34.276  38.848  1.00  0.00     0.198 A 
ATOM     80  F   UNL A   1      38.106  32.287  37.675  1.00  0.00    -0.203 F 
ATOM     81  F   UNL A   1      40.667  37.094  37.977  1.00  0.00    -0.200 F 
ATOM     82  C   UNL A   1      39.209  35.499  38.932  1.00  0.00     0.200 A 
ATOM     83  F   UNL A   1      37.773  33.865  39.850  1.00  0.00    -0.200 F 
ATOM     84  F   UNL A   1      39.065  36.263  40.024  1.00  0.00    -0.200 F 
ENDBRANCH  50  74
BRANCH  62  85
ATOM     85  C   UNL A   1      43.835  28.640  35.084  1.00  0.00     0.064 A 
ATOM     86  C   UNL A   1      45.170  29.045  34.946  1.00  0.00     0.173 A 
ATOM     87  C   UNL A   1      43.548  27.612  35.993  1.00  0.00     0.173 A 
ATOM     88  F   UNL A   1      45.497  30.013  34.077  1.00  0.00    -0.203 F 
ATOM     89  C   UNL A   1      46.182  28.428  35.676  1.00  0.00     0.198 A 
ATOM     90  C   UNL A   1      44.560  27.016  36.742  1.00  0.00     0.198 A 
ATOM     91  F   UNL A   1      42.286  27.192  36.165  1.00  0.00    -0.203 F 
ATOM     92  F   UNL A   1      47.457  28.801  35.498  1.00  0.00    -0.200 F 
ATOM     93  C   UNL A   1      45.876  27.420  36.578  1.00  0.00     0.200 A 
ATOM     94  F   UNL A   1      44.261  26.050  37.622  1.00  0.00    -0.200 F 
ATOM     95  F   UNL A   1      46.852  26.832  37.286  1.00  0.00    -0.200 F 
ENDBRANCH  62  85
ENDBRANCH  36  37
ENDBRANCH  29  31
ENDBRANCH  28  29
ENDBRANCH  27  28
ENDBRANCH   1  27
TORSDOF 15
ENDMDL
