MODEL 1
REMARK VINA RESULT:     -13.2      0.000      0.000
REMARK SMILES Cc1ccc(Cn2c(C)c(C[NH2+]Cc3ccco3)c(C(=O)OCCOC(=O)c3ccc(-c4c5nc(c(-c6c(F)c(F)c(F)c(F)c6F)c6ccc([nH]6)c(-c6c(F)c(F)c(F)c(F)c6F)c6nc(c(-c7c(F)c(F)c(F)c(F)c7F)c7ccc4[nH]7)C=C6)C=C5)cc3)c2C)cc1
REMARK SMILES IDX 23 1 22 2 20 3 21 4 19 5 7 6 8 7 91 8 9 9 10 10 92 11 6 12
REMARK SMILES IDX 5 13 1 14 2 15 3 16 94 17 4 18 93 19 11 20 12 21 13 24 14 25
REMARK SMILES IDX 15 26 18 27 16 28 17 29 24 30 25 31 26 32 27 33 28 34 29 35
REMARK SMILES IDX 90 36 30 37 89 38 31 39 32 40 33 41 83 42 34 43 88 44 82 45
REMARK SMILES IDX 84 46 35 47 87 48 81 49 80 50 36 52 68 53 48 54 67 55 49 56
REMARK SMILES IDX 52 57 66 58 85 59 50 60 51 61 65 63 86 64 53 65 37 66 38 67
REMARK SMILES IDX 46 68 39 69 40 70 44 71 47 72 41 73 42 74 45 75 43 76 69 77
REMARK SMILES IDX 70 78 78 79 71 80 72 81 76 82 79 83 73 84 74 85 77 86 75 87
REMARK SMILES IDX 54 88 55 89 63 90 56 91 57 92 61 93 64 94 58 95 59 96 62 97
REMARK SMILES IDX 60 98
REMARK H PARENT 12 22 12 23 84 51 52 62
REMARK Flexibility Score: inf
ROOT
ATOM      1  C   UNL A   1      32.075  28.947  25.929  1.00  0.00     0.275 C 
ENDROOT
BRANCH   1   2
ATOM      2  O   UNL A   1      31.918  27.743  26.715  1.00  0.00    -0.458 OA
BRANCH   2   3
ATOM      3  C   UNL A   1      31.466  26.671  25.986  1.00  0.00     0.340 C 
ATOM      4  O   UNL A   1      30.862  25.733  26.500  1.00  0.00    -0.246 OA
BRANCH   3   5
ATOM      5  C   UNL A   1      32.034  26.501  24.655  1.00  0.00     0.089 A 
ATOM      6  N   UNL A   1      33.239  25.125  23.377  1.00  0.00    -0.343 N 
ATOM      7  C   UNL A   1      32.395  25.835  22.527  1.00  0.00     0.025 A 
ATOM      8  C   UNL A   1      33.205  25.752  24.602  1.00  0.00     0.030 A 
ATOM      9  C   UNL A   1      32.316  25.626  21.048  1.00  0.00     0.065 C 
ATOM     10  C   UNL A   1      31.587  26.700  23.294  1.00  0.00     0.042 A 
ATOM     11  C   UNL A   1      34.113  25.497  25.757  1.00  0.00     0.065 C 
BRANCH   6  12
ATOM     12  C   UNL A   1      34.112  23.985  23.038  1.00  0.00     0.157 C 
BRANCH  12  13
ATOM     13  C   UNL A   1      33.652  22.605  23.503  1.00  0.00    -0.028 A 
ATOM     14  C   UNL A   1      32.527  18.533  24.582  1.00  0.00     0.044 C 
ATOM     15  C   UNL A   1      32.906  19.930  24.186  1.00  0.00    -0.051 A 
ATOM     16  C   UNL A   1      34.021  20.527  24.763  1.00  0.00     0.004 A 
ATOM     17  C   UNL A   1      32.156  20.674  23.270  1.00  0.00     0.004 A 
ATOM     18  C   UNL A   1      34.397  21.824  24.399  1.00  0.00     0.006 A 
ATOM     19  C   UNL A   1      32.521  21.993  22.938  1.00  0.00     0.006 A 
ENDBRANCH  12  13
ENDBRANCH   6  12
BRANCH  10  20
ATOM     20  C   UNL A   1      30.410  27.480  22.697  1.00  0.00     0.300 C 
BRANCH  20  21
ATOM     21  N   UNL A   1      30.656  28.923  22.589  1.00  0.00    -0.336 N 
ATOM     22  H   UNL A   1      30.672  29.175  21.601  1.00  0.00     0.346 HD
ATOM     23  H   UNL A   1      31.548  29.115  23.046  1.00  0.00     0.346 HD
BRANCH  21  24
ATOM     24  C   UNL A   1      29.622  29.740  23.272  1.00  0.00     0.337 C 
BRANCH  24  25
ATOM     25  C   UNL A   1      28.897  30.732  22.405  1.00  0.00     0.157 A 
ATOM     26  C   UNL A   1      28.539  32.064  22.569  1.00  0.00     0.052 A 
ATOM     27  O   UNL A   1      28.515  30.318  21.163  1.00  0.00    -0.463 OA
ATOM     28  C   UNL A   1      28.028  32.505  21.317  1.00  0.00     0.042 A 
ATOM     29  C   UNL A   1      28.028  31.400  20.501  1.00  0.00     0.195 A 
ENDBRANCH  24  25
ENDBRANCH  21  24
ENDBRANCH  20  21
ENDBRANCH  10  20
ENDBRANCH   3   5
ENDBRANCH   2   3
ENDBRANCH   1   2
BRANCH   1  30
ATOM     30  C   UNL A   1      33.306  29.788  26.317  1.00  0.00     0.275 C 
BRANCH  30  31
ATOM     31  O   UNL A   1      33.777  29.773  27.683  1.00  0.00    -0.458 OA
BRANCH  31  32
ATOM     32  C   UNL A   1      34.776  30.621  27.994  1.00  0.00     0.338 C 
ATOM     33  O   UNL A   1      34.624  31.811  28.218  1.00  0.00    -0.246 OA
BRANCH  32  34
ATOM     34  C   UNL A   1      36.035  29.874  28.180  1.00  0.00     0.060 A 
ATOM     35  C   UNL A   1      37.054  30.068  27.240  1.00  0.00     0.016 A 
ATOM     36  C   UNL A   1      36.289  29.241  29.393  1.00  0.00     0.016 A 
ATOM     37  C   UNL A   1      38.363  29.708  27.519  1.00  0.00     0.010 A 
ATOM     38  C   UNL A   1      37.592  28.975  29.721  1.00  0.00     0.010 A 
ATOM     39  C   UNL A   1      38.610  29.178  28.770  1.00  0.00    -0.014 A 
BRANCH  39  40
ATOM     40  C   UNL A   1      39.846  28.513  29.103  1.00  0.00     0.031 A 
ATOM     41  C   UNL A   1      40.102  27.114  28.739  1.00  0.00     0.074 A 
ATOM     42  C   UNL A   1      40.749  29.450  29.468  1.00  0.00     0.049 A 
ATOM     43  N   UNL A   1      41.125  26.462  29.166  1.00  0.00    -0.248 NA
ATOM     44  C   UNL A   1      39.225  26.282  27.914  1.00  0.00     0.031 C 
ATOM     45  C   UNL A   1      42.184  29.509  29.312  1.00  0.00     0.029 A 
ATOM     46  N   UNL A   1      40.433  30.661  30.110  1.00  0.00    -0.354 N 
ATOM     47  C   UNL A   1      41.246  25.338  28.376  1.00  0.00     0.074 A 
ATOM     48  C   UNL A   1      39.957  25.169  27.758  1.00  0.00     0.031 C 
ATOM     49  C   UNL A   1      42.657  30.517  30.074  1.00  0.00     0.029 A 
ATOM     50  C   UNL A   1      41.550  31.024  30.875  1.00  0.00     0.049 A 
ATOM     51  H   UNL A   1      39.588  31.160  30.036  1.00  0.00     0.167 HD
ATOM     52  C   UNL A   1      42.497  24.830  28.185  1.00  0.00     0.037 A 
ATOM     53  C   UNL A   1      41.430  30.935  32.239  1.00  0.00     0.037 A 
ATOM     54  C   UNL A   1      43.462  25.628  28.937  1.00  0.00     0.049 A 
ATOM     55  C   UNL A   1      42.181  29.748  32.789  1.00  0.00     0.074 A 
ATOM     56  C   UNL A   1      44.257  26.713  28.611  1.00  0.00     0.029 A 
ATOM     57  N   UNL A   1      43.378  25.616  30.311  1.00  0.00    -0.354 N 
ATOM     58  N   UNL A   1      42.673  28.798  32.047  1.00  0.00    -0.248 NA
ATOM     59  C   UNL A   1      42.364  29.500  34.214  1.00  0.00     0.031 C 
ATOM     60  C   UNL A   1      44.633  27.361  29.827  1.00  0.00     0.029 A 
ATOM     61  C   UNL A   1      44.055  26.672  30.879  1.00  0.00     0.049 A 
ATOM     62  H   UNL A   1      42.892  24.932  30.828  1.00  0.00     0.167 HD
ATOM     63  C   UNL A   1      43.281  27.874  32.833  1.00  0.00     0.074 A 
ATOM     64  C   UNL A   1      43.004  28.320  34.189  1.00  0.00     0.031 C 
ATOM     65  C   UNL A   1      43.984  26.826  32.319  1.00  0.00     0.037 A 
BRANCH  52  66
ATOM     66  C   UNL A   1      42.922  23.817  27.150  1.00  0.00     0.064 A 
ATOM     67  C   UNL A   1      42.630  22.447  27.353  1.00  0.00     0.173 A 
ATOM     68  C   UNL A   1      43.593  24.106  25.948  1.00  0.00     0.173 A 
ATOM     69  F   UNL A   1      41.948  22.023  28.424  1.00  0.00    -0.203 F 
ATOM     70  C   UNL A   1      43.024  21.449  26.462  1.00  0.00     0.198 A 
ATOM     71  C   UNL A   1      44.007  23.099  25.064  1.00  0.00     0.198 A 
ATOM     72  F   UNL A   1      43.827  25.366  25.564  1.00  0.00    -0.203 F 
ATOM     73  F   UNL A   1      42.714  20.170  26.723  1.00  0.00    -0.200 F 
ATOM     74  C   UNL A   1      43.727  21.771  25.323  1.00  0.00     0.200 A 
ATOM     75  F   UNL A   1      44.676  23.426  23.948  1.00  0.00    -0.200 F 
ATOM     76  F   UNL A   1      44.112  20.810  24.473  1.00  0.00    -0.200 F 
ENDBRANCH  52  66
BRANCH  53  77
ATOM     77  C   UNL A   1      40.063  31.344  32.708  1.00  0.00     0.064 A 
ATOM     78  C   UNL A   1      39.677  32.675  32.426  1.00  0.00     0.173 A 
ATOM     79  C   UNL A   1      39.052  30.386  32.884  1.00  0.00     0.173 A 
ATOM     80  F   UNL A   1      40.605  33.638  32.300  1.00  0.00    -0.203 F 
ATOM     81  C   UNL A   1      38.384  32.954  32.023  1.00  0.00     0.198 A 
ATOM     82  C   UNL A   1      37.745  30.690  32.541  1.00  0.00     0.198 A 
ATOM     83  F   UNL A   1      39.341  29.127  33.235  1.00  0.00    -0.203 F 
ATOM     84  F   UNL A   1      38.081  34.148  31.492  1.00  0.00    -0.200 F 
ATOM     85  C   UNL A   1      37.453  31.938  32.023  1.00  0.00     0.200 A 
ATOM     86  F   UNL A   1      36.797  29.740  32.561  1.00  0.00    -0.200 F 
ATOM     87  F   UNL A   1      36.300  32.119  31.391  1.00  0.00    -0.200 F 
ENDBRANCH  53  77
BRANCH  65  88
ATOM     88  C   UNL A   1      44.695  25.848  33.189  1.00  0.00     0.064 A 
ATOM     89  C   UNL A   1      46.085  25.691  33.123  1.00  0.00     0.173 A 
ATOM     90  C   UNL A   1      43.998  24.962  34.036  1.00  0.00     0.173 A 
ATOM     91  F   UNL A   1      46.820  26.421  32.271  1.00  0.00    -0.203 F 
ATOM     92  C   UNL A   1      46.745  24.770  33.928  1.00  0.00     0.198 A 
ATOM     93  C   UNL A   1      44.653  23.987  34.774  1.00  0.00     0.198 A 
ATOM     94  F   UNL A   1      42.670  25.032  34.202  1.00  0.00    -0.203 F 
ATOM     95  F   UNL A   1      48.084  24.718  33.909  1.00  0.00    -0.200 F 
ATOM     96  C   UNL A   1      46.030  23.912  34.743  1.00  0.00     0.200 A 
ATOM     97  F   UNL A   1      43.941  23.135  35.525  1.00  0.00    -0.200 F 
ATOM     98  F   UNL A   1      46.667  23.015  35.505  1.00  0.00    -0.200 F 
ENDBRANCH  65  88
ENDBRANCH  39  40
ENDBRANCH  32  34
ENDBRANCH  31  32
ENDBRANCH  30  31
ENDBRANCH   1  30
TORSDOF 17
ENDMDL
MODEL 2
REMARK VINA RESULT:     -13.1      1.833      3.139
REMARK SMILES Cc1ccc(Cn2c(C)c(C[NH2+]Cc3ccco3)c(C(=O)OCCOC(=O)c3ccc(-c4c5nc(c(-c6c(F)c(F)c(F)c(F)c6F)c6ccc([nH]6)c(-c6c(F)c(F)c(F)c(F)c6F)c6nc(c(-c7c(F)c(F)c(F)c(F)c7F)c7ccc4[nH]7)C=C6)C=C5)cc3)c2C)cc1
REMARK SMILES IDX 23 1 22 2 20 3 21 4 19 5 7 6 8 7 91 8 9 9 10 10 92 11 6 12
REMARK SMILES IDX 5 13 1 14 2 15 3 16 94 17 4 18 93 19 11 20 12 21 13 24 14 25
REMARK SMILES IDX 15 26 18 27 16 28 17 29 24 30 25 31 26 32 27 33 28 34 29 35
REMARK SMILES IDX 90 36 30 37 89 38 31 39 32 40 33 41 83 42 34 43 88 44 82 45
REMARK SMILES IDX 84 46 35 47 87 48 81 49 80 50 36 52 68 53 48 54 67 55 49 56
REMARK SMILES IDX 52 57 66 58 85 59 50 60 51 61 65 63 86 64 53 65 37 66 38 67
REMARK SMILES IDX 46 68 39 69 40 70 44 71 47 72 41 73 42 74 45 75 43 76 69 77
REMARK SMILES IDX 70 78 78 79 71 80 72 81 76 82 79 83 73 84 74 85 77 86 75 87
REMARK SMILES IDX 54 88 55 89 63 90 56 91 57 92 61 93 64 94 58 95 59 96 62 97
REMARK SMILES IDX 60 98
REMARK H PARENT 12 22 12 23 84 51 52 62
REMARK Flexibility Score: inf
ROOT
ATOM      1  C   UNL A   1      32.324  29.795  27.300  1.00  0.00     0.275 C 
ENDROOT
BRANCH   1   2
ATOM      2  O   UNL A   1      32.026  28.727  26.372  1.00  0.00    -0.458 OA
BRANCH   2   3
ATOM      3  C   UNL A   1      31.640  29.174  25.132  1.00  0.00     0.340 C 
ATOM      4  O   UNL A   1      31.083  30.255  24.967  1.00  0.00    -0.246 OA
BRANCH   3   5
ATOM      5  C   UNL A   1      31.580  28.179  24.069  1.00  0.00     0.089 A 
ATOM      6  N   UNL A   1      32.770  26.633  22.986  1.00  0.00    -0.343 N 
ATOM      7  C   UNL A   1      31.439  26.227  22.941  1.00  0.00     0.025 A 
ATOM      8  C   UNL A   1      32.783  27.942  23.412  1.00  0.00     0.030 A 
ATOM      9  C   UNL A   1      30.966  24.951  22.319  1.00  0.00     0.065 C 
ATOM     10  C   UNL A   1      30.647  27.160  23.642  1.00  0.00     0.042 A 
ATOM     11  C   UNL A   1      33.950  28.871  23.397  1.00  0.00     0.065 C 
BRANCH   6  12
ATOM     12  C   UNL A   1      33.961  25.874  22.556  1.00  0.00     0.157 C 
BRANCH  12  13
ATOM     13  C   UNL A   1      34.424  24.744  23.474  1.00  0.00    -0.028 A 
ATOM     14  C   UNL A   1      35.423  21.482  26.187  1.00  0.00     0.044 C 
ATOM     15  C   UNL A   1      35.067  22.617  25.274  1.00  0.00    -0.051 A 
ATOM     16  C   UNL A   1      34.756  22.355  23.944  1.00  0.00     0.004 A 
ATOM     17  C   UNL A   1      35.065  23.948  25.704  1.00  0.00     0.004 A 
ATOM     18  C   UNL A   1      34.412  23.399  23.079  1.00  0.00     0.006 A 
ATOM     19  C   UNL A   1      34.754  24.995  24.816  1.00  0.00     0.006 A 
ENDBRANCH  12  13
ENDBRANCH   6  12
BRANCH  10  20
ATOM     20  C   UNL A   1      29.167  26.917  23.959  1.00  0.00     0.300 C 
BRANCH  20  21
ATOM     21  N   UNL A   1      28.935  25.758  24.828  1.00  0.00    -0.336 N 
ATOM     22  H   UNL A   1      29.043  24.910  24.273  1.00  0.00     0.346 HD
ATOM     23  H   UNL A   1      27.992  25.846  25.208  1.00  0.00     0.346 HD
BRANCH  21  24
ATOM     24  C   UNL A   1      29.873  25.697  25.977  1.00  0.00     0.337 C 
BRANCH  24  25
ATOM     25  C   UNL A   1      30.575  24.382  26.177  1.00  0.00     0.157 A 
ATOM     26  C   UNL A   1      30.697  23.236  25.403  1.00  0.00     0.052 A 
ATOM     27  O   UNL A   1      31.299  24.226  27.322  1.00  0.00    -0.463 OA
ATOM     28  C   UNL A   1      31.642  22.400  26.060  1.00  0.00     0.042 A 
ATOM     29  C   UNL A   1      31.969  23.048  27.227  1.00  0.00     0.195 A 
ENDBRANCH  24  25
ENDBRANCH  21  24
ENDBRANCH  20  21
ENDBRANCH  10  20
ENDBRANCH   3   5
ENDBRANCH   2   3
ENDBRANCH   1   2
BRANCH   1  30
ATOM     30  C   UNL A   1      33.736  30.387  27.138  1.00  0.00     0.275 C 
BRANCH  30  31
ATOM     31  O   UNL A   1      34.870  29.685  27.694  1.00  0.00    -0.458 OA
BRANCH  31  32
ATOM     32  C   UNL A   1      35.908  30.434  28.113  1.00  0.00     0.338 C 
ATOM     33  O   UNL A   1      35.822  31.606  28.443  1.00  0.00    -0.246 OA
BRANCH  32  34
ATOM     34  C   UNL A   1      37.111  29.593  28.265  1.00  0.00     0.060 A 
ATOM     35  C   UNL A   1      38.192  29.840  27.411  1.00  0.00     0.016 A 
ATOM     36  C   UNL A   1      37.259  28.799  29.398  1.00  0.00     0.016 A 
ATOM     37  C   UNL A   1      39.461  29.369  27.708  1.00  0.00     0.010 A 
ATOM     38  C   UNL A   1      38.524  28.414  29.755  1.00  0.00     0.010 A 
ATOM     39  C   UNL A   1      39.606  28.671  28.891  1.00  0.00    -0.014 A 
BRANCH  39  40
ATOM     40  C   UNL A   1      40.781  27.895  29.198  1.00  0.00     0.031 A 
ATOM     41  C   UNL A   1      40.979  26.538  28.674  1.00  0.00     0.074 A 
ATOM     42  C   UNL A   1      41.713  28.721  29.722  1.00  0.00     0.049 A 
ATOM     43  N   UNL A   1      41.939  25.776  29.065  1.00  0.00    -0.248 NA
ATOM     44  C   UNL A   1      40.106  25.870  27.708  1.00  0.00     0.031 C 
ATOM     45  C   UNL A   1      43.156  28.710  29.646  1.00  0.00     0.029 A 
ATOM     46  N   UNL A   1      41.429  29.862  30.496  1.00  0.00    -0.354 N 
ATOM     47  C   UNL A   1      42.042  24.752  28.147  1.00  0.00     0.074 A 
ATOM     48  C   UNL A   1      40.783  24.741  27.449  1.00  0.00     0.031 C 
ATOM     49  C   UNL A   1      43.640  29.585  30.552  1.00  0.00     0.029 A 
ATOM     50  C   UNL A   1      42.519  30.058  31.354  1.00  0.00     0.049 A 
ATOM     51  H   UNL A   1      40.619  30.418  30.444  1.00  0.00     0.167 HD
ATOM     52  C   UNL A   1      43.271  24.194  27.955  1.00  0.00     0.037 A 
ATOM     53  C   UNL A   1      42.317  29.810  32.689  1.00  0.00     0.037 A 
ATOM     54  C   UNL A   1      44.235  24.832  28.849  1.00  0.00     0.049 A 
ATOM     55  C   UNL A   1      42.968  28.519  33.121  1.00  0.00     0.074 A 
ATOM     56  C   UNL A   1      45.106  25.898  28.702  1.00  0.00     0.029 A 
ATOM     57  N   UNL A   1      44.072  24.657  30.204  1.00  0.00    -0.354 N 
ATOM     58  N   UNL A   1      43.449  27.639  32.290  1.00  0.00    -0.248 NA
ATOM     59  C   UNL A   1      43.056  28.088  34.511  1.00  0.00     0.031 C 
ATOM     60  C   UNL A   1      45.448  26.366  30.006  1.00  0.00     0.029 A 
ATOM     61  C   UNL A   1      44.774  25.591  30.933  1.00  0.00     0.049 A 
ATOM     62  H   UNL A   1      43.521  23.946  30.606  1.00  0.00     0.167 HD
ATOM     63  C   UNL A   1      43.959  26.590  32.983  1.00  0.00     0.074 A 
ATOM     64  C   UNL A   1      43.630  26.881  34.368  1.00  0.00     0.031 C 
ATOM     65  C   UNL A   1      44.630  25.570  32.376  1.00  0.00     0.037 A 
BRANCH  52  66
ATOM     66  C   UNL A   1      43.698  23.292  26.823  1.00  0.00     0.064 A 
ATOM     67  C   UNL A   1      43.230  21.956  26.781  1.00  0.00     0.173 A 
ATOM     68  C   UNL A   1      44.533  23.659  25.753  1.00  0.00     0.173 A 
ATOM     69  F   UNL A   1      42.383  21.477  27.700  1.00  0.00    -0.203 F 
ATOM     70  C   UNL A   1      43.610  21.052  25.790  1.00  0.00     0.198 A 
ATOM     71  C   UNL A   1      44.932  22.743  24.769  1.00  0.00     0.198 A 
ATOM     72  F   UNL A   1      44.952  24.920  25.594  1.00  0.00    -0.203 F 
ATOM     73  F   UNL A   1      43.129  19.800  25.817  1.00  0.00    -0.200 F 
ATOM     74  C   UNL A   1      44.474  21.439  24.790  1.00  0.00     0.200 A 
ATOM     75  F   UNL A   1      45.759  23.135  23.789  1.00  0.00    -0.200 F 
ATOM     76  F   UNL A   1      44.845  20.567  23.844  1.00  0.00    -0.200 F 
ENDBRANCH  52  66
BRANCH  53  77
ATOM     77  C   UNL A   1      40.950  30.242  33.137  1.00  0.00     0.064 A 
ATOM     78  C   UNL A   1      40.647  31.614  32.984  1.00  0.00     0.173 A 
ATOM     79  C   UNL A   1      39.885  29.329  33.164  1.00  0.00     0.173 A 
ATOM     80  F   UNL A   1      41.627  32.532  33.003  1.00  0.00    -0.203 F 
ATOM     81  C   UNL A   1      39.392  32.005  32.556  1.00  0.00     0.198 A 
ATOM     82  C   UNL A   1      38.614  29.738  32.798  1.00  0.00     0.198 A 
ATOM     83  F   UNL A   1      40.093  28.025  33.391  1.00  0.00    -0.203 F 
ATOM     84  F   UNL A   1      39.175  33.263  32.143  1.00  0.00    -0.200 F 
ATOM     85  C   UNL A   1      38.412  31.048  32.405  1.00  0.00     0.200 A 
ATOM     86  F   UNL A   1      37.620  28.845  32.674  1.00  0.00    -0.200 F 
ATOM     87  F   UNL A   1      37.303  31.358  31.745  1.00  0.00    -0.200 F 
ENDBRANCH  53  77
BRANCH  65  88
ATOM     88  C   UNL A   1      45.235  24.451  33.150  1.00  0.00     0.064 A 
ATOM     89  C   UNL A   1      44.480  23.334  33.528  1.00  0.00     0.173 A 
ATOM     90  C   UNL A   1      46.560  24.510  33.629  1.00  0.00     0.173 A 
ATOM     91  F   UNL A   1      43.182  23.240  33.203  1.00  0.00    -0.203 F 
ATOM     92  C   UNL A   1      45.045  22.296  34.259  1.00  0.00     0.198 A 
ATOM     93  C   UNL A   1      47.094  23.511  34.431  1.00  0.00     0.198 A 
ATOM     94  F   UNL A   1      47.388  25.516  33.313  1.00  0.00    -0.203 F 
ATOM     95  F   UNL A   1      44.318  21.199  34.516  1.00  0.00    -0.200 F 
ATOM     96  C   UNL A   1      46.346  22.389  34.719  1.00  0.00     0.200 A 
ATOM     97  F   UNL A   1      48.341  23.639  34.904  1.00  0.00    -0.200 F 
ATOM     98  F   UNL A   1      46.882  21.395  35.437  1.00  0.00    -0.200 F 
ENDBRANCH  65  88
ENDBRANCH  39  40
ENDBRANCH  32  34
ENDBRANCH  31  32
ENDBRANCH  30  31
ENDBRANCH   1  30
TORSDOF 17
ENDMDL
MODEL 3
REMARK VINA RESULT:     -13.1      1.519      2.238
REMARK SMILES Cc1ccc(Cn2c(C)c(C[NH2+]Cc3ccco3)c(C(=O)OCCOC(=O)c3ccc(-c4c5nc(c(-c6c(F)c(F)c(F)c(F)c6F)c6ccc([nH]6)c(-c6c(F)c(F)c(F)c(F)c6F)c6nc(c(-c7c(F)c(F)c(F)c(F)c7F)c7ccc4[nH]7)C=C6)C=C5)cc3)c2C)cc1
REMARK SMILES IDX 23 1 22 2 20 3 21 4 19 5 7 6 8 7 91 8 9 9 10 10 92 11 6 12
REMARK SMILES IDX 5 13 1 14 2 15 3 16 94 17 4 18 93 19 11 20 12 21 13 24 14 25
REMARK SMILES IDX 15 26 18 27 16 28 17 29 24 30 25 31 26 32 27 33 28 34 29 35
REMARK SMILES IDX 90 36 30 37 89 38 31 39 32 40 33 41 83 42 34 43 88 44 82 45
REMARK SMILES IDX 84 46 35 47 87 48 81 49 80 50 36 52 68 53 48 54 67 55 49 56
REMARK SMILES IDX 52 57 66 58 85 59 50 60 51 61 65 63 86 64 53 65 37 66 38 67
REMARK SMILES IDX 46 68 39 69 40 70 44 71 47 72 41 73 42 74 45 75 43 76 69 77
REMARK SMILES IDX 70 78 78 79 71 80 72 81 76 82 79 83 73 84 74 85 77 86 75 87
REMARK SMILES IDX 54 88 55 89 63 90 56 91 57 92 61 93 64 94 58 95 59 96 62 97
REMARK SMILES IDX 60 98
REMARK H PARENT 12 22 12 23 84 51 52 62
REMARK Flexibility Score: inf
ROOT
ATOM      1  C   UNL A   1      32.996  28.493  26.959  1.00  0.00     0.275 C 
ENDROOT
BRANCH   1   2
ATOM      2  O   UNL A   1      33.939  27.496  26.502  1.00  0.00    -0.458 OA
BRANCH   2   3
ATOM      3  C   UNL A   1      33.569  26.894  25.324  1.00  0.00     0.340 C 
ATOM      4  O   UNL A   1      33.564  27.493  24.253  1.00  0.00    -0.246 OA
BRANCH   3   5
ATOM      5  C   UNL A   1      32.839  25.638  25.436  1.00  0.00     0.089 A 
ATOM      6  N   UNL A   1      33.004  23.517  26.109  1.00  0.00    -0.343 N 
ATOM      7  C   UNL A   1      31.667  23.883  26.242  1.00  0.00     0.025 A 
ATOM      8  C   UNL A   1      33.620  24.490  25.355  1.00  0.00     0.030 A 
ATOM      9  C   UNL A   1      30.599  22.993  26.795  1.00  0.00     0.065 C 
ATOM     10  C   UNL A   1      31.516  25.231  25.856  1.00  0.00     0.042 A 
ATOM     11  C   UNL A   1      34.986  24.422  24.760  1.00  0.00     0.065 C 
BRANCH   6  12
ATOM     12  C   UNL A   1      33.650  22.274  26.573  1.00  0.00     0.157 C 
BRANCH  12  13
ATOM     13  C   UNL A   1      33.610  21.081  25.620  1.00  0.00    -0.028 A 
ATOM     14  C   UNL A   1      33.411  17.483  23.167  1.00  0.00     0.044 C 
ATOM     15  C   UNL A   1      33.497  18.709  24.028  1.00  0.00    -0.051 A 
ATOM     16  C   UNL A   1      32.371  19.508  24.195  1.00  0.00     0.004 A 
ATOM     17  C   UNL A   1      34.686  19.100  24.652  1.00  0.00     0.004 A 
ATOM     18  C   UNL A   1      32.428  20.649  25.002  1.00  0.00     0.006 A 
ATOM     19  C   UNL A   1      34.742  20.272  25.431  1.00  0.00     0.006 A 
ENDBRANCH  12  13
ENDBRANCH   6  12
BRANCH  10  20
ATOM     20  C   UNL A   1      30.214  26.012  26.067  1.00  0.00     0.300 C 
BRANCH  20  21
ATOM     21  N   UNL A   1      29.249  25.853  24.973  1.00  0.00    -0.336 N 
ATOM     22  H   UNL A   1      28.399  26.360  25.215  1.00  0.00     0.346 HD
ATOM     23  H   UNL A   1      29.078  24.853  24.861  1.00  0.00     0.346 HD
BRANCH  21  24
ATOM     24  C   UNL A   1      29.755  26.364  23.674  1.00  0.00     0.337 C 
BRANCH  24  25
ATOM     25  C   UNL A   1      29.533  27.829  23.419  1.00  0.00     0.157 A 
ATOM     26  C   UNL A   1      30.362  28.942  23.448  1.00  0.00     0.052 A 
ATOM     27  O   UNL A   1      28.283  28.216  23.033  1.00  0.00    -0.463 OA
ATOM     28  C   UNL A   1      29.604  30.030  22.935  1.00  0.00     0.042 A 
ATOM     29  C   UNL A   1      28.343  29.533  22.706  1.00  0.00     0.195 A 
ENDBRANCH  24  25
ENDBRANCH  21  24
ENDBRANCH  20  21
ENDBRANCH  10  20
ENDBRANCH   3   5
ENDBRANCH   2   3
ENDBRANCH   1   2
BRANCH   1  30
ATOM     30  C   UNL A   1      33.625  29.876  27.210  1.00  0.00     0.275 C 
BRANCH  30  31
ATOM     31  O   UNL A   1      35.054  30.044  27.077  1.00  0.00    -0.458 OA
BRANCH  31  32
ATOM     32  C   UNL A   1      35.732  30.406  28.183  1.00  0.00     0.338 C 
ATOM     33  O   UNL A   1      35.326  31.207  29.008  1.00  0.00    -0.246 OA
BRANCH  32  34
ATOM     34  C   UNL A   1      36.946  29.580  28.324  1.00  0.00     0.060 A 
ATOM     35  C   UNL A   1      38.006  29.819  27.440  1.00  0.00     0.016 A 
ATOM     36  C   UNL A   1      37.129  28.812  29.470  1.00  0.00     0.016 A 
ATOM     37  C   UNL A   1      39.285  29.366  27.717  1.00  0.00     0.010 A 
ATOM     38  C   UNL A   1      38.405  28.446  29.806  1.00  0.00     0.010 A 
ATOM     39  C   UNL A   1      39.464  28.696  28.912  1.00  0.00    -0.014 A 
BRANCH  39  40
ATOM     40  C   UNL A   1      40.654  27.937  29.208  1.00  0.00     0.031 A 
ATOM     41  C   UNL A   1      40.865  26.580  28.687  1.00  0.00     0.074 A 
ATOM     42  C   UNL A   1      41.581  28.779  29.716  1.00  0.00     0.049 A 
ATOM     43  N   UNL A   1      41.839  25.834  29.071  1.00  0.00    -0.248 NA
ATOM     44  C   UNL A   1      39.989  25.896  27.736  1.00  0.00     0.031 C 
ATOM     45  C   UNL A   1      43.023  28.787  29.622  1.00  0.00     0.029 A 
ATOM     46  N   UNL A   1      41.290  29.920  30.488  1.00  0.00    -0.354 N 
ATOM     47  C   UNL A   1      41.945  24.807  28.156  1.00  0.00     0.074 A 
ATOM     48  C   UNL A   1      40.678  24.775  27.474  1.00  0.00     0.031 C 
ATOM     49  C   UNL A   1      43.505  29.674  30.518  1.00  0.00     0.029 A 
ATOM     50  C   UNL A   1      42.388  30.135  31.332  1.00  0.00     0.049 A 
ATOM     51  H   UNL A   1      40.472  30.464  30.443  1.00  0.00     0.167 HD
ATOM     52  C   UNL A   1      43.180  24.265  27.951  1.00  0.00     0.037 A 
ATOM     53  C   UNL A   1      42.206  29.890  32.670  1.00  0.00     0.037 A 
ATOM     54  C   UNL A   1      44.146  24.921  28.830  1.00  0.00     0.049 A 
ATOM     55  C   UNL A   1      42.881  28.611  33.100  1.00  0.00     0.074 A 
ATOM     56  C   UNL A   1      45.000  25.998  28.667  1.00  0.00     0.029 A 
ATOM     57  N   UNL A   1      44.003  24.750  30.188  1.00  0.00    -0.354 N 
ATOM     58  N   UNL A   1      43.363  27.734  32.267  1.00  0.00    -0.248 NA
ATOM     59  C   UNL A   1      42.992  28.188  34.491  1.00  0.00     0.031 C 
ATOM     60  C   UNL A   1      45.352  26.478  29.965  1.00  0.00     0.029 A 
ATOM     61  C   UNL A   1      44.700  25.698  30.904  1.00  0.00     0.049 A 
ATOM     62  H   UNL A   1      43.466  24.034  30.600  1.00  0.00     0.167 HD
ATOM     63  C   UNL A   1      43.896  26.695  32.958  1.00  0.00     0.074 A 
ATOM     64  C   UNL A   1      43.581  26.989  34.347  1.00  0.00     0.031 C 
ATOM     65  C   UNL A   1      44.574  25.682  32.349  1.00  0.00     0.037 A 
BRANCH  52  66
ATOM     66  C   UNL A   1      43.605  23.363  26.818  1.00  0.00     0.064 A 
ATOM     67  C   UNL A   1      43.203  22.006  26.819  1.00  0.00     0.173 A 
ATOM     68  C   UNL A   1      44.377  23.751  25.709  1.00  0.00     0.173 A 
ATOM     69  F   UNL A   1      42.419  21.503  27.780  1.00  0.00    -0.203 F 
ATOM     70  C   UNL A   1      43.588  21.103  25.829  1.00  0.00     0.198 A 
ATOM     71  C   UNL A   1      44.781  22.836  24.725  1.00  0.00     0.198 A 
ATOM     72  F   UNL A   1      44.726  25.027  25.511  1.00  0.00    -0.203 F 
ATOM     73  F   UNL A   1      43.171  19.829  25.897  1.00  0.00    -0.200 F 
ATOM     74  C   UNL A   1      44.390  21.512  24.787  1.00  0.00     0.200 A 
ATOM     75  F   UNL A   1      45.548  23.249  23.705  1.00  0.00    -0.200 F 
ATOM     76  F   UNL A   1      44.766  20.641  23.842  1.00  0.00    -0.200 F 
ENDBRANCH  52  66
BRANCH  53  77
ATOM     77  C   UNL A   1      40.840  30.306  33.133  1.00  0.00     0.064 A 
ATOM     78  C   UNL A   1      40.523  31.677  32.997  1.00  0.00     0.173 A 
ATOM     79  C   UNL A   1      39.783  29.383  33.158  1.00  0.00     0.173 A 
ATOM     80  F   UNL A   1      41.495  32.603  33.020  1.00  0.00    -0.203 F 
ATOM     81  C   UNL A   1      39.262  32.062  32.583  1.00  0.00     0.198 A 
ATOM     82  C   UNL A   1      38.505  29.786  32.806  1.00  0.00     0.198 A 
ATOM     83  F   UNL A   1      40.003  28.079  33.368  1.00  0.00    -0.203 F 
ATOM     84  F   UNL A   1      39.032  33.323  32.186  1.00  0.00    -0.200 F 
ATOM     85  C   UNL A   1      38.289  31.098  32.429  1.00  0.00     0.200 A 
ATOM     86  F   UNL A   1      37.518  28.886  32.679  1.00  0.00    -0.200 F 
ATOM     87  F   UNL A   1      37.172  31.406  31.780  1.00  0.00    -0.200 F 
ENDBRANCH  53  77
BRANCH  65  88
ATOM     88  C   UNL A   1      45.205  24.575  33.120  1.00  0.00     0.064 A 
ATOM     89  C   UNL A   1      44.466  23.457  33.524  1.00  0.00     0.173 A 
ATOM     90  C   UNL A   1      46.539  24.649  33.571  1.00  0.00     0.173 A 
ATOM     91  F   UNL A   1      43.163  23.348  33.228  1.00  0.00    -0.203 F 
ATOM     92  C   UNL A   1      45.055  22.429  34.254  1.00  0.00     0.198 A 
ATOM     93  C   UNL A   1      47.097  23.663  34.370  1.00  0.00     0.198 A 
ATOM     94  F   UNL A   1      47.351  25.658  33.227  1.00  0.00    -0.203 F 
ATOM     95  F   UNL A   1      44.343  21.330  34.537  1.00  0.00    -0.200 F 
ATOM     96  C   UNL A   1      46.365  22.538  34.685  1.00  0.00     0.200 A 
ATOM     97  F   UNL A   1      48.354  23.805  34.816  1.00  0.00    -0.200 F 
ATOM     98  F   UNL A   1      46.924  21.555  35.401  1.00  0.00    -0.200 F 
ENDBRANCH  65  88
ENDBRANCH  39  40
ENDBRANCH  32  34
ENDBRANCH  31  32
ENDBRANCH  30  31
ENDBRANCH   1  30
TORSDOF 17
ENDMDL
