MODEL 1
REMARK VINA RESULT:     -11.8      0.000      0.000
REMARK SMILES O=C(Nc1ccc(Br)cc1)Nc1ccc(CC(=O)OCCOC(=O)c2ccc(-c3c4nc(c(-c5c(F)c(F)c(F)c(F)c5F)c5ccc([nH]5)c(-c5c(F)c(F)c(F)c(F)c5F)c5nc(c(-c6c(F)c(F)c(F)c(F)c6F)c6ccc3[nH]6)C=C5)C=C4)cc2)cc1
REMARK SMILES IDX 20 1 19 2 17 3 18 4 16 5 15 6 12 7 13 8 89 9 14 10 88 11
REMARK SMILES IDX 11 12 1 13 2 14 3 15 4 18 5 19 10 20 6 21 9 22 7 23 8 24
REMARK SMILES IDX 21 25 22 26 23 27 24 28 25 29 26 30 87 31 27 32 86 33 28 34
REMARK SMILES IDX 29 35 30 36 80 37 31 38 85 39 79 40 81 41 32 42 84 43 78 44
REMARK SMILES IDX 77 45 33 47 65 48 45 49 64 50 46 51 49 52 63 53 82 54 47 55
REMARK SMILES IDX 48 56 62 58 83 59 50 60 34 61 35 62 43 63 36 64 37 65 41 66
REMARK SMILES IDX 44 67 38 68 39 69 42 70 40 71 66 72 67 73 75 74 68 75 69 76
REMARK SMILES IDX 73 77 76 78 70 79 71 80 74 81 72 82 51 83 52 84 60 85 53 86
REMARK SMILES IDX 54 87 58 88 61 89 55 90 56 91 59 92 57 93
REMARK H PARENT 3 16 11 17 81 46 49 57
REMARK Flexibility Score: inf
ROOT
ATOM      1  C   UNL A   1      33.092  36.028  28.829  1.00  0.00     0.274 C 
ENDROOT
BRANCH   1   2
ATOM      2  O   UNL A   1      33.471  34.659  29.058  1.00  0.00    -0.462 OA
BRANCH   2   3
ATOM      3  C   UNL A   1      34.463  34.180  28.263  1.00  0.00     0.310 C 
ATOM      4  O   UNL A   1      34.795  34.672  27.188  1.00  0.00    -0.252 OA
BRANCH   3   5
ATOM      5  C   UNL A   1      35.093  32.912  28.781  1.00  0.00     0.158 C 
BRANCH   5   6
ATOM      6  C   UNL A   1      34.578  31.597  28.246  1.00  0.00    -0.037 A 
ATOM      7  C   UNL A   1      33.657  29.239  26.999  1.00  0.00     0.042 A 
ATOM      8  C   UNL A   1      34.920  29.278  27.596  1.00  0.00     0.026 A 
ATOM      9  C   UNL A   1      32.843  30.367  27.065  1.00  0.00     0.026 A 
ATOM     10  C   UNL A   1      35.385  30.454  28.196  1.00  0.00     0.006 A 
ATOM     11  C   UNL A   1      33.297  31.534  27.686  1.00  0.00     0.006 A 
BRANCH   7  12
ATOM     12  N   UNL A   1      33.267  28.050  26.358  1.00  0.00    -0.308 N 
ATOM     13  O   UNL A   1      31.369  27.481  27.552  1.00  0.00    -0.248 OA
ATOM     14  C   UNL A   1      32.239  27.220  26.725  1.00  0.00     0.323 C 
ATOM     15  N   UNL A   1      32.119  26.066  25.995  1.00  0.00    -0.308 N 
ATOM     16  H   UNL A   1      31.202  25.713  25.931  1.00  0.00     0.171 HD
ATOM     17  H   UNL A   1      33.785  27.785  25.564  1.00  0.00     0.171 HD
BRANCH  15  18
ATOM     18  C   UNL A   1      33.090  25.306  25.322  1.00  0.00     0.042 A 
ATOM     19  C   UNL A   1      33.260  25.345  23.935  1.00  0.00     0.027 A 
ATOM     20  C   UNL A   1      33.974  24.551  26.100  1.00  0.00     0.027 A 
ATOM     21  C   UNL A   1      34.287  24.615  23.329  1.00  0.00     0.018 A 
ATOM     22  C   UNL A   1      34.991  23.807  25.495  1.00  0.00     0.018 A 
ATOM     23  C   UNL A   1      35.144  23.844  24.111  1.00  0.00     0.018 A 
ATOM     24  Br  UNL A   1      36.534  22.860  23.293  1.00  0.00    -0.051 Br
ENDBRANCH  15  18
ENDBRANCH   7  12
ENDBRANCH   5   6
ENDBRANCH   3   5
ENDBRANCH   2   3
ENDBRANCH   1   2
BRANCH   1  25
ATOM     25  C   UNL A   1      33.054  36.818  30.135  1.00  0.00     0.275 C 
BRANCH  25  26
ATOM     26  O   UNL A   1      32.254  36.130  31.112  1.00  0.00    -0.458 OA
BRANCH  26  27
ATOM     27  C   UNL A   1      32.696  36.197  32.386  1.00  0.00     0.338 C 
ATOM     28  O   UNL A   1      32.289  36.904  33.289  1.00  0.00    -0.246 OA
BRANCH  27  29
ATOM     29  C   UNL A   1      33.811  35.258  32.564  1.00  0.00     0.060 A 
ATOM     30  C   UNL A   1      33.565  33.935  32.941  1.00  0.00     0.016 A 
ATOM     31  C   UNL A   1      35.115  35.746  32.478  1.00  0.00     0.016 A 
ATOM     32  C   UNL A   1      34.633  33.099  33.271  1.00  0.00     0.010 A 
ATOM     33  C   UNL A   1      36.182  34.899  32.773  1.00  0.00     0.010 A 
ATOM     34  C   UNL A   1      35.948  33.579  33.198  1.00  0.00    -0.014 A 
BRANCH  34  35
ATOM     35  C   UNL A   1      37.100  32.749  33.621  1.00  0.00     0.031 A 
ATOM     36  C   UNL A   1      37.743  33.005  34.952  1.00  0.00     0.074 A 
ATOM     37  C   UNL A   1      37.602  31.810  32.798  1.00  0.00     0.049 A 
ATOM     38  N   UNL A   1      38.886  32.574  35.420  1.00  0.00    -0.248 NA
ATOM     39  C   UNL A   1      37.002  33.876  35.876  1.00  0.00     0.031 C 
ATOM     40  C   UNL A   1      37.036  31.426  31.507  1.00  0.00     0.029 A 
ATOM     41  N   UNL A   1      38.722  31.028  32.923  1.00  0.00    -0.354 N 
ATOM     42  C   UNL A   1      39.019  33.148  36.677  1.00  0.00     0.074 A 
ATOM     43  C   UNL A   1      37.840  33.959  36.900  1.00  0.00     0.031 C 
ATOM     44  C   UNL A   1      37.817  30.487  30.951  1.00  0.00     0.029 A 
ATOM     45  C   UNL A   1      38.968  30.250  31.819  1.00  0.00     0.049 A 
ATOM     46  H   UNL A   1      39.292  31.023  33.725  1.00  0.00     0.167 HD
ATOM     47  C   UNL A   1      40.036  33.013  37.560  1.00  0.00     0.037 A 
ATOM     48  C   UNL A   1      40.026  29.471  31.524  1.00  0.00     0.037 A 
ATOM     49  C   UNL A   1      41.196  32.189  37.342  1.00  0.00     0.049 A 
ATOM     50  C   UNL A   1      41.172  29.382  32.492  1.00  0.00     0.074 A 
ATOM     51  C   UNL A   1      42.284  31.988  38.172  1.00  0.00     0.029 A 
ATOM     52  N   UNL A   1      41.411  31.422  36.206  1.00  0.00    -0.354 N 
ATOM     53  N   UNL A   1      41.316  29.962  33.659  1.00  0.00    -0.248 NA
ATOM     54  C   UNL A   1      42.312  28.543  32.095  1.00  0.00     0.031 C 
ATOM     55  C   UNL A   1      43.171  31.117  37.528  1.00  0.00     0.029 A 
ATOM     56  C   UNL A   1      42.618  30.752  36.311  1.00  0.00     0.049 A 
ATOM     57  H   UNL A   1      40.796  31.363  35.439  1.00  0.00     0.167 HD
ATOM     58  C   UNL A   1      42.546  29.542  34.145  1.00  0.00     0.074 A 
ATOM     59  C   UNL A   1      43.110  28.657  33.148  1.00  0.00     0.031 C 
ATOM     60  C   UNL A   1      43.153  29.862  35.314  1.00  0.00     0.037 A 
BRANCH  47  61
ATOM     61  C   UNL A   1      39.955  33.804  38.830  1.00  0.00     0.064 A 
ATOM     62  C   UNL A   1      39.257  33.330  39.949  1.00  0.00     0.173 A 
ATOM     63  C   UNL A   1      40.602  35.044  38.934  1.00  0.00     0.173 A 
ATOM     64  F   UNL A   1      38.607  32.157  39.893  1.00  0.00    -0.203 F 
ATOM     65  C   UNL A   1      39.191  34.080  41.121  1.00  0.00     0.198 A 
ATOM     66  C   UNL A   1      40.553  35.781  40.113  1.00  0.00     0.198 A 
ATOM     67  F   UNL A   1      41.285  35.539  37.890  1.00  0.00    -0.203 F 
ATOM     68  F   UNL A   1      38.484  33.627  42.165  1.00  0.00    -0.200 F 
ATOM     69  C   UNL A   1      39.843  35.302  41.204  1.00  0.00     0.200 A 
ATOM     70  F   UNL A   1      41.189  36.958  40.194  1.00  0.00    -0.200 F 
ATOM     71  F   UNL A   1      39.779  36.022  42.332  1.00  0.00    -0.200 F 
ENDBRANCH  47  61
BRANCH  48  72
ATOM     72  C   UNL A   1      40.056  28.735  30.236  1.00  0.00     0.064 A 
ATOM     73  C   UNL A   1      39.463  27.470  30.122  1.00  0.00     0.173 A 
ATOM     74  C   UNL A   1      40.661  29.282  29.096  1.00  0.00     0.173 A 
ATOM     75  F   UNL A   1      38.896  26.897  31.193  1.00  0.00    -0.203 F 
ATOM     76  C   UNL A   1      39.477  26.780  28.912  1.00  0.00     0.198 A 
ATOM     77  C   UNL A   1      40.656  28.599  27.883  1.00  0.00     0.198 A 
ATOM     78  F   UNL A   1      41.245  30.488  29.159  1.00  0.00    -0.203 F 
ATOM     79  F   UNL A   1      38.929  25.559  28.835  1.00  0.00    -0.200 F 
ATOM     80  C   UNL A   1      40.066  27.347  27.792  1.00  0.00     0.200 A 
ATOM     81  F   UNL A   1      41.218  29.154  26.800  1.00  0.00    -0.200 F 
ATOM     82  F   UNL A   1      40.072  26.684  26.628  1.00  0.00    -0.200 F 
ENDBRANCH  48  72
BRANCH  60  83
ATOM     83  C   UNL A   1      44.474  29.215  35.601  1.00  0.00     0.064 A 
ATOM     84  C   UNL A   1      45.682  29.817  35.225  1.00  0.00     0.173 A 
ATOM     85  C   UNL A   1      44.527  28.004  36.306  1.00  0.00     0.173 A 
ATOM     86  F   UNL A   1      45.676  30.968  34.536  1.00  0.00    -0.203 F 
ATOM     87  C   UNL A   1      46.901  29.222  35.537  1.00  0.00     0.198 A 
ATOM     88  C   UNL A   1      45.749  27.422  36.632  1.00  0.00     0.198 A 
ATOM     89  F   UNL A   1      43.396  27.393  36.688  1.00  0.00    -0.203 F 
ATOM     90  F   UNL A   1      48.045  29.799  35.145  1.00  0.00    -0.200 F 
ATOM     91  C   UNL A   1      46.933  28.029  36.245  1.00  0.00     0.200 A 
ATOM     92  F   UNL A   1      45.779  26.272  37.322  1.00  0.00    -0.200 F 
ATOM     93  F   UNL A   1      48.109  27.462  36.550  1.00  0.00    -0.200 F 
ENDBRANCH  60  83
ENDBRANCH  34  35
ENDBRANCH  27  29
ENDBRANCH  26  27
ENDBRANCH  25  26
ENDBRANCH   1  25
TORSDOF 14
ENDMDL
MODEL 2
REMARK VINA RESULT:     -11.7      0.893      1.749
REMARK SMILES O=C(Nc1ccc(Br)cc1)Nc1ccc(CC(=O)OCCOC(=O)c2ccc(-c3c4nc(c(-c5c(F)c(F)c(F)c(F)c5F)c5ccc([nH]5)c(-c5c(F)c(F)c(F)c(F)c5F)c5nc(c(-c6c(F)c(F)c(F)c(F)c6F)c6ccc3[nH]6)C=C5)C=C4)cc2)cc1
REMARK SMILES IDX 20 1 19 2 17 3 18 4 16 5 15 6 12 7 13 8 89 9 14 10 88 11
REMARK SMILES IDX 11 12 1 13 2 14 3 15 4 18 5 19 10 20 6 21 9 22 7 23 8 24
REMARK SMILES IDX 21 25 22 26 23 27 24 28 25 29 26 30 87 31 27 32 86 33 28 34
REMARK SMILES IDX 29 35 30 36 80 37 31 38 85 39 79 40 81 41 32 42 84 43 78 44
REMARK SMILES IDX 77 45 33 47 65 48 45 49 64 50 46 51 49 52 63 53 82 54 47 55
REMARK SMILES IDX 48 56 62 58 83 59 50 60 34 61 35 62 43 63 36 64 37 65 41 66
REMARK SMILES IDX 44 67 38 68 39 69 42 70 40 71 66 72 67 73 75 74 68 75 69 76
REMARK SMILES IDX 73 77 76 78 70 79 71 80 74 81 72 82 51 83 52 84 60 85 53 86
REMARK SMILES IDX 54 87 58 88 61 89 55 90 56 91 59 92 57 93
REMARK H PARENT 3 16 11 17 81 46 49 57
REMARK Flexibility Score: inf
ROOT
ATOM      1  C   UNL A   1      33.597  35.109  28.723  1.00  0.00     0.274 C 
ENDROOT
BRANCH   1   2
ATOM      2  O   UNL A   1      34.796  34.527  29.267  1.00  0.00    -0.462 OA
BRANCH   2   3
ATOM      3  C   UNL A   1      34.788  33.176  29.402  1.00  0.00     0.310 C 
ATOM      4  O   UNL A   1      34.397  32.576  30.398  1.00  0.00    -0.252 OA
BRANCH   3   5
ATOM      5  C   UNL A   1      35.390  32.448  28.226  1.00  0.00     0.158 C 
BRANCH   5   6
ATOM      6  C   UNL A   1      34.602  31.312  27.619  1.00  0.00    -0.037 A 
ATOM      7  C   UNL A   1      33.092  29.099  26.734  1.00  0.00     0.042 A 
ATOM      8  C   UNL A   1      32.533  30.379  26.745  1.00  0.00     0.026 A 
ATOM      9  C   UNL A   1      34.419  28.937  27.126  1.00  0.00     0.026 A 
ATOM     10  C   UNL A   1      33.275  31.474  27.204  1.00  0.00     0.006 A 
ATOM     11  C   UNL A   1      35.168  30.033  27.561  1.00  0.00     0.006 A 
BRANCH   7  12
ATOM     12  N   UNL A   1      32.279  28.028  26.322  1.00  0.00    -0.308 N 
ATOM     13  O   UNL A   1      30.776  27.886  28.075  1.00  0.00    -0.248 OA
ATOM     14  C   UNL A   1      31.267  27.443  27.040  1.00  0.00     0.323 C 
ATOM     15  N   UNL A   1      30.685  26.348  26.458  1.00  0.00    -0.308 N 
ATOM     16  H   UNL A   1      29.741  26.206  26.701  1.00  0.00     0.171 HD
ATOM     17  H   UNL A   1      32.454  27.659  25.426  1.00  0.00     0.171 HD
BRANCH  15  18
ATOM     18  C   UNL A   1      31.212  25.396  25.570  1.00  0.00     0.042 A 
ATOM     19  C   UNL A   1      32.176  24.455  25.948  1.00  0.00     0.027 A 
ATOM     20  C   UNL A   1      30.674  25.345  24.281  1.00  0.00     0.027 A 
ATOM     21  C   UNL A   1      32.615  23.490  25.037  1.00  0.00     0.018 A 
ATOM     22  C   UNL A   1      31.124  24.392  23.362  1.00  0.00     0.018 A 
ATOM     23  C   UNL A   1      32.093  23.468  23.746  1.00  0.00     0.018 A 
ATOM     24  Br  UNL A   1      32.684  22.162  22.515  1.00  0.00    -0.051 Br
ENDBRANCH  15  18
ENDBRANCH   7  12
ENDBRANCH   5   6
ENDBRANCH   3   5
ENDBRANCH   2   3
ENDBRANCH   1   2
BRANCH   1  25
ATOM     25  C   UNL A   1      32.933  36.049  29.726  1.00  0.00     0.275 C 
BRANCH  25  26
ATOM     26  O   UNL A   1      32.483  35.315  30.878  1.00  0.00    -0.458 OA
BRANCH  26  27
ATOM     27  C   UNL A   1      32.769  35.868  32.076  1.00  0.00     0.338 C 
ATOM     28  O   UNL A   1      32.209  36.796  32.630  1.00  0.00    -0.246 OA
BRANCH  27  29
ATOM     29  C   UNL A   1      33.922  35.179  32.668  1.00  0.00     0.060 A 
ATOM     30  C   UNL A   1      35.210  35.701  32.516  1.00  0.00     0.016 A 
ATOM     31  C   UNL A   1      33.721  33.936  33.267  1.00  0.00     0.016 A 
ATOM     32  C   UNL A   1      36.313  34.955  32.934  1.00  0.00     0.010 A 
ATOM     33  C   UNL A   1      34.822  33.208  33.717  1.00  0.00     0.010 A 
ATOM     34  C   UNL A   1      36.126  33.700  33.530  1.00  0.00    -0.014 A 
BRANCH  34  35
ATOM     35  C   UNL A   1      37.275  32.843  33.909  1.00  0.00     0.031 A 
ATOM     36  C   UNL A   1      37.967  33.078  35.219  1.00  0.00     0.074 A 
ATOM     37  C   UNL A   1      37.729  31.900  33.064  1.00  0.00     0.049 A 
ATOM     38  N   UNL A   1      39.116  32.619  35.646  1.00  0.00    -0.248 NA
ATOM     39  C   UNL A   1      37.275  33.957  36.173  1.00  0.00     0.031 C 
ATOM     40  C   UNL A   1      37.112  31.537  31.790  1.00  0.00     0.029 A 
ATOM     41  N   UNL A   1      38.837  31.094  33.146  1.00  0.00    -0.354 N 
ATOM     42  C   UNL A   1      39.302  33.182  36.901  1.00  0.00     0.074 A 
ATOM     43  C   UNL A   1      38.148  34.016  37.168  1.00  0.00     0.031 C 
ATOM     44  C   UNL A   1      37.855  30.586  31.203  1.00  0.00     0.029 A 
ATOM     45  C   UNL A   1      39.029  30.319  32.030  1.00  0.00     0.049 A 
ATOM     46  H   UNL A   1      39.432  31.073  33.929  1.00  0.00     0.167 HD
ATOM     47  C   UNL A   1      40.345  33.021  37.749  1.00  0.00     0.037 A 
ATOM     48  C   UNL A   1      40.060  29.521  31.695  1.00  0.00     0.037 A 
ATOM     49  C   UNL A   1      41.480  32.174  37.486  1.00  0.00     0.049 A 
ATOM     50  C   UNL A   1      41.236  29.402  32.624  1.00  0.00     0.074 A 
ATOM     51  C   UNL A   1      42.591  31.945  38.278  1.00  0.00     0.029 A 
ATOM     52  N   UNL A   1      41.641  31.411  36.339  1.00  0.00    -0.354 N 
ATOM     53  N   UNL A   1      41.430  29.971  33.788  1.00  0.00    -0.248 NA
ATOM     54  C   UNL A   1      42.344  28.542  32.183  1.00  0.00     0.031 C 
ATOM     55  C   UNL A   1      43.437  31.061  37.600  1.00  0.00     0.029 A 
ATOM     56  C   UNL A   1      42.837  30.716  36.400  1.00  0.00     0.049 A 
ATOM     57  H   UNL A   1      40.999  31.370  35.594  1.00  0.00     0.167 HD
ATOM     58  C   UNL A   1      42.667  29.522  34.230  1.00  0.00     0.074 A 
ATOM     59  C   UNL A   1      43.180  28.632  33.209  1.00  0.00     0.031 C 
ATOM     60  C   UNL A   1      43.319  29.822  35.380  1.00  0.00     0.037 A 
BRANCH  47  61
ATOM     61  C   UNL A   1      40.323  33.804  39.025  1.00  0.00     0.064 A 
ATOM     62  C   UNL A   1      39.656  33.335  40.166  1.00  0.00     0.173 A 
ATOM     63  C   UNL A   1      40.995  35.032  39.114  1.00  0.00     0.173 A 
ATOM     64  F   UNL A   1      38.985  32.174  40.125  1.00  0.00    -0.203 F 
ATOM     65  C   UNL A   1      39.645  34.078  41.344  1.00  0.00     0.198 A 
ATOM     66  C   UNL A   1      41.001  35.762  40.299  1.00  0.00     0.198 A 
ATOM     67  F   UNL A   1      41.649  35.522  38.050  1.00  0.00    -0.203 F 
ATOM     68  F   UNL A   1      38.968  33.631  42.410  1.00  0.00    -0.200 F 
ATOM     69  C   UNL A   1      40.321  35.288  41.411  1.00  0.00     0.200 A 
ATOM     70  F   UNL A   1      41.660  36.927  40.364  1.00  0.00    -0.200 F 
ATOM     71  F   UNL A   1      40.310  36.001  42.545  1.00  0.00    -0.200 F 
ENDBRANCH  47  61
BRANCH  48  72
ATOM     72  C   UNL A   1      40.032  28.793  30.402  1.00  0.00     0.064 A 
ATOM     73  C   UNL A   1      40.611  29.351  29.255  1.00  0.00     0.173 A 
ATOM     74  C   UNL A   1      39.443  27.525  30.291  1.00  0.00     0.173 A 
ATOM     75  F   UNL A   1      41.162  30.572  29.309  1.00  0.00    -0.203 F 
ATOM     76  C   UNL A   1      40.599  28.667  28.042  1.00  0.00     0.198 A 
ATOM     77  C   UNL A   1      39.451  26.834  29.082  1.00  0.00     0.198 A 
ATOM     78  F   UNL A   1      38.873  26.953  31.362  1.00  0.00    -0.203 F 
ATOM     79  F   UNL A   1      41.134  29.233  26.951  1.00  0.00    -0.200 F 
ATOM     80  C   UNL A   1      40.026  27.406  27.958  1.00  0.00     0.200 A 
ATOM     81  F   UNL A   1      38.905  25.613  29.007  1.00  0.00    -0.200 F 
ATOM     82  F   UNL A   1      40.022  26.747  26.792  1.00  0.00    -0.200 F 
ENDBRANCH  48  72
BRANCH  60  83
ATOM     83  C   UNL A   1      44.635  29.146  35.618  1.00  0.00     0.064 A 
ATOM     84  C   UNL A   1      45.843  29.729  35.211  1.00  0.00     0.173 A 
ATOM     85  C   UNL A   1      44.687  27.927  36.309  1.00  0.00     0.173 A 
ATOM     86  F   UNL A   1      45.839  30.886  34.534  1.00  0.00    -0.203 F 
ATOM     87  C   UNL A   1      47.060  29.107  35.478  1.00  0.00     0.198 A 
ATOM     88  C   UNL A   1      45.906  27.317  36.591  1.00  0.00     0.198 A 
ATOM     89  F   UNL A   1      43.556  27.334  36.721  1.00  0.00    -0.203 F 
ATOM     90  F   UNL A   1      48.202  29.665  35.056  1.00  0.00    -0.200 F 
ATOM     91  C   UNL A   1      47.090  27.905  36.173  1.00  0.00     0.200 A 
ATOM     92  F   UNL A   1      45.935  26.160  37.267  1.00  0.00    -0.200 F 
ATOM     93  F   UNL A   1      48.263  27.312  36.435  1.00  0.00    -0.200 F 
ENDBRANCH  60  83
ENDBRANCH  34  35
ENDBRANCH  27  29
ENDBRANCH  26  27
ENDBRANCH  25  26
ENDBRANCH   1  25
TORSDOF 14
ENDMDL
MODEL 3
REMARK VINA RESULT:     -11.6      5.507      7.868
REMARK SMILES O=C(Nc1ccc(Br)cc1)Nc1ccc(CC(=O)OCCOC(=O)c2ccc(-c3c4nc(c(-c5c(F)c(F)c(F)c(F)c5F)c5ccc([nH]5)c(-c5c(F)c(F)c(F)c(F)c5F)c5nc(c(-c6c(F)c(F)c(F)c(F)c6F)c6ccc3[nH]6)C=C5)C=C4)cc2)cc1
REMARK SMILES IDX 20 1 19 2 17 3 18 4 16 5 15 6 12 7 13 8 89 9 14 10 88 11
REMARK SMILES IDX 11 12 1 13 2 14 3 15 4 18 5 19 10 20 6 21 9 22 7 23 8 24
REMARK SMILES IDX 21 25 22 26 23 27 24 28 25 29 26 30 87 31 27 32 86 33 28 34
REMARK SMILES IDX 29 35 30 36 80 37 31 38 85 39 79 40 81 41 32 42 84 43 78 44
REMARK SMILES IDX 77 45 33 47 65 48 45 49 64 50 46 51 49 52 63 53 82 54 47 55
REMARK SMILES IDX 48 56 62 58 83 59 50 60 34 61 35 62 43 63 36 64 37 65 41 66
REMARK SMILES IDX 44 67 38 68 39 69 42 70 40 71 66 72 67 73 75 74 68 75 69 76
REMARK SMILES IDX 73 77 76 78 70 79 71 80 74 81 72 82 51 83 52 84 60 85 53 86
REMARK SMILES IDX 54 87 58 88 61 89 55 90 56 91 59 92 57 93
REMARK H PARENT 3 16 11 17 81 46 49 57
REMARK Flexibility Score: inf
ROOT
ATOM      1  C   UNL A   1      34.068  33.652  28.541  1.00  0.00     0.274 C 
ENDROOT
BRANCH   1   2
ATOM      2  O   UNL A   1      32.959  32.777  28.265  1.00  0.00    -0.462 OA
BRANCH   2   3
ATOM      3  C   UNL A   1      33.212  31.759  27.402  1.00  0.00     0.310 C 
ATOM      4  O   UNL A   1      34.301  31.209  27.269  1.00  0.00    -0.252 OA
BRANCH   3   5
ATOM      5  C   UNL A   1      32.032  31.396  26.535  1.00  0.00     0.158 C 
BRANCH   5   6
ATOM      6  C   UNL A   1      31.744  29.931  26.310  1.00  0.00    -0.037 A 
ATOM      7  C   UNL A   1      31.444  27.178  25.764  1.00  0.00     0.042 A 
ATOM      8  C   UNL A   1      31.761  27.615  27.053  1.00  0.00     0.026 A 
ATOM      9  C   UNL A   1      31.237  28.124  24.762  1.00  0.00     0.026 A 
ATOM     10  C   UNL A   1      31.930  28.978  27.319  1.00  0.00     0.006 A 
ATOM     11  C   UNL A   1      31.382  29.487  25.033  1.00  0.00     0.006 A 
BRANCH   7  12
ATOM     12  N   UNL A   1      31.347  25.793  25.542  1.00  0.00    -0.308 N 
ATOM     13  O   UNL A   1      29.333  25.301  26.568  1.00  0.00    -0.248 OA
ATOM     14  C   UNL A   1      30.379  24.952  26.027  1.00  0.00     0.323 C 
ATOM     15  N   UNL A   1      30.558  23.621  25.750  1.00  0.00    -0.308 N 
ATOM     16  H   UNL A   1      29.725  23.099  25.683  1.00  0.00     0.171 HD
ATOM     17  H   UNL A   1      32.045  25.385  24.980  1.00  0.00     0.171 HD
BRANCH  15  18
ATOM     18  C   UNL A   1      31.733  22.881  25.545  1.00  0.00     0.042 A 
ATOM     19  C   UNL A   1      32.160  22.465  24.279  1.00  0.00     0.027 A 
ATOM     20  C   UNL A   1      32.545  22.635  26.656  1.00  0.00     0.027 A 
ATOM     21  C   UNL A   1      33.373  21.787  24.131  1.00  0.00     0.018 A 
ATOM     22  C   UNL A   1      33.751  21.942  26.513  1.00  0.00     0.018 A 
ATOM     23  C   UNL A   1      34.160  21.522  25.250  1.00  0.00     0.018 A 
ATOM     24  Br  UNL A   1      35.801  20.608  25.050  1.00  0.00    -0.051 Br
ENDBRANCH  15  18
ENDBRANCH   7  12
ENDBRANCH   5   6
ENDBRANCH   3   5
ENDBRANCH   2   3
ENDBRANCH   1   2
BRANCH   1  25
ATOM     25  C   UNL A   1      34.395  33.678  30.032  1.00  0.00     0.275 C 
BRANCH  25  26
ATOM     26  O   UNL A   1      34.453  32.338  30.554  1.00  0.00    -0.458 OA
BRANCH  26  27
ATOM     27  C   UNL A   1      35.297  32.148  31.590  1.00  0.00     0.338 C 
ATOM     28  O   UNL A   1      35.174  32.522  32.742  1.00  0.00    -0.246 OA
BRANCH  27  29
ATOM     29  C   UNL A   1      36.470  31.394  31.130  1.00  0.00     0.060 A 
ATOM     30  C   UNL A   1      37.293  30.739  32.051  1.00  0.00     0.016 A 
ATOM     31  C   UNL A   1      36.816  31.455  29.780  1.00  0.00     0.016 A 
ATOM     32  C   UNL A   1      38.493  30.169  31.623  1.00  0.00     0.010 A 
ATOM     33  C   UNL A   1      37.998  30.855  29.349  1.00  0.00     0.010 A 
ATOM     34  C   UNL A   1      38.857  30.231  30.272  1.00  0.00    -0.014 A 
BRANCH  34  35
ATOM     35  C   UNL A   1      40.162  29.713  29.796  1.00  0.00     0.031 A 
ATOM     36  C   UNL A   1      41.336  30.642  29.710  1.00  0.00     0.074 A 
ATOM     37  C   UNL A   1      40.280  28.435  29.392  1.00  0.00     0.049 A 
ATOM     38  N   UNL A   1      42.488  30.474  29.112  1.00  0.00    -0.248 NA
ATOM     39  C   UNL A   1      41.188  31.943  30.380  1.00  0.00     0.031 C 
ATOM     40  C   UNL A   1      39.234  27.420  29.478  1.00  0.00     0.029 A 
ATOM     41  N   UNL A   1      41.336  27.785  28.803  1.00  0.00    -0.354 N 
ATOM     42  C   UNL A   1      43.186  31.658  29.302  1.00  0.00     0.074 A 
ATOM     43  C   UNL A   1      42.331  32.538  30.071  1.00  0.00     0.031 C 
ATOM     44  C   UNL A   1      39.694  26.274  28.951  1.00  0.00     0.029 A 
ATOM     45  C   UNL A   1      41.044  26.495  28.437  1.00  0.00     0.049 A 
ATOM     46  H   UNL A   1      42.215  28.202  28.659  1.00  0.00     0.167 HD
ATOM     47  C   UNL A   1      44.428  31.981  28.867  1.00  0.00     0.037 A 
ATOM     48  C   UNL A   1      41.767  25.609  27.727  1.00  0.00     0.037 A 
ATOM     49  C   UNL A   1      45.282  31.095  28.120  1.00  0.00     0.049 A 
ATOM     50  C   UNL A   1      43.118  26.009  27.203  1.00  0.00     0.074 A 
ATOM     51  C   UNL A   1      46.554  31.328  27.630  1.00  0.00     0.029 A 
ATOM     52  N   UNL A   1      44.945  29.797  27.763  1.00  0.00    -0.354 N 
ATOM     53  N   UNL A   1      43.757  27.144  27.344  1.00  0.00    -0.248 NA
ATOM     54  C   UNL A   1      43.843  25.008  26.405  1.00  0.00     0.031 C 
ATOM     55  C   UNL A   1      46.980  30.179  26.953  1.00  0.00     0.029 A 
ATOM     56  C   UNL A   1      45.984  29.221  27.051  1.00  0.00     0.049 A 
ATOM     57  H   UNL A   1      44.094  29.354  27.983  1.00  0.00     0.167 HD
ATOM     58  C   UNL A   1      44.964  26.989  26.676  1.00  0.00     0.074 A 
ATOM     59  C   UNL A   1      44.970  25.648  26.129  1.00  0.00     0.031 C 
ATOM     60  C   UNL A   1      45.976  27.878  26.531  1.00  0.00     0.037 A 
BRANCH  47  61
ATOM     61  C   UNL A   1      44.921  33.365  29.159  1.00  0.00     0.064 A 
ATOM     62  C   UNL A   1      45.674  33.652  30.306  1.00  0.00     0.173 A 
ATOM     63  C   UNL A   1      44.653  34.415  28.268  1.00  0.00     0.173 A 
ATOM     64  F   UNL A   1      45.942  32.685  31.196  1.00  0.00    -0.203 F 
ATOM     65  C   UNL A   1      46.123  34.945  30.561  1.00  0.00     0.198 A 
ATOM     66  C   UNL A   1      45.121  35.702  28.515  1.00  0.00     0.198 A 
ATOM     67  F   UNL A   1      43.937  34.190  27.155  1.00  0.00    -0.203 F 
ATOM     68  F   UNL A   1      46.807  35.206  31.684  1.00  0.00    -0.200 F 
ATOM     69  C   UNL A   1      45.851  35.967  29.664  1.00  0.00     0.200 A 
ATOM     70  F   UNL A   1      44.863  36.687  27.643  1.00  0.00    -0.200 F 
ATOM     71  F   UNL A   1      46.284  37.211  29.911  1.00  0.00    -0.200 F 
ENDBRANCH  47  61
BRANCH  48  72
ATOM     72  C   UNL A   1      41.209  24.263  27.450  1.00  0.00     0.064 A 
ATOM     73  C   UNL A   1      41.729  23.128  28.086  1.00  0.00     0.173 A 
ATOM     74  C   UNL A   1      40.140  24.085  26.559  1.00  0.00     0.173 A 
ATOM     75  F   UNL A   1      42.768  23.248  28.925  1.00  0.00    -0.203 F 
ATOM     76  C   UNL A   1      41.201  21.863  27.840  1.00  0.00     0.198 A 
ATOM     77  C   UNL A   1      39.600  22.822  26.331  1.00  0.00     0.198 A 
ATOM     78  F   UNL A   1      39.612  25.141  25.924  1.00  0.00    -0.203 F 
ATOM     79  F   UNL A   1      41.734  20.789  28.439  1.00  0.00    -0.200 F 
ATOM     80  C   UNL A   1      40.133  21.712  26.968  1.00  0.00     0.200 A 
ATOM     81  F   UNL A   1      38.562  22.680  25.495  1.00  0.00    -0.200 F 
ATOM     82  F   UNL A   1      39.621  20.495  26.738  1.00  0.00    -0.200 F 
ENDBRANCH  48  72
BRANCH  60  83
ATOM     83  C   UNL A   1      47.194  27.416  25.791  1.00  0.00     0.064 A 
ATOM     84  C   UNL A   1      47.331  27.612  24.410  1.00  0.00     0.173 A 
ATOM     85  C   UNL A   1      48.256  26.818  26.485  1.00  0.00     0.173 A 
ATOM     86  F   UNL A   1      46.334  28.166  23.705  1.00  0.00    -0.203 F 
ATOM     87  C   UNL A   1      48.489  27.214  23.745  1.00  0.00     0.198 A 
ATOM     88  C   UNL A   1      49.419  26.439  25.820  1.00  0.00     0.198 A 
ATOM     89  F   UNL A   1      48.170  26.613  27.808  1.00  0.00    -0.203 F 
ATOM     90  F   UNL A   1      48.590  27.385  22.420  1.00  0.00    -0.200 F 
ATOM     91  C   UNL A   1      49.533  26.634  24.452  1.00  0.00     0.200 A 
ATOM     92  F   UNL A   1      50.430  25.884  26.504  1.00  0.00    -0.200 F 
ATOM     93  F   UNL A   1      50.649  26.258  23.811  1.00  0.00    -0.200 F 
ENDBRANCH  60  83
ENDBRANCH  34  35
ENDBRANCH  27  29
ENDBRANCH  26  27
ENDBRANCH  25  26
ENDBRANCH   1  25
TORSDOF 14
ENDMDL
