MODEL 1
REMARK VINA RESULT:     -11.6      0.000      0.000
REMARK SMILES CC(C)[C@H](NS(=O)(=O)c1cccc(F)c1)C(=O)OCCOC(=O)c1ccc(-c2c3nc(c(-c4c(F)c(F)c(F)c(F)c4F)c4ccc([nH]4)c(-c4c(F)c(F)c(F)c(F)c4F)c4nc(c(-c5c(F)c(F)c(F)c(F)c5F)c5ccc2[nH]5)C=C4)C=C3)cc1
REMARK SMILES IDX 19 1 18 2 16 3 17 4 4 5 2 6 1 7 3 8 5 9 6 11 7 12 8 13 9 14
REMARK SMILES IDX 10 15 15 16 11 17 13 18 12 19 14 20 20 21 21 22 22 23 23 24
REMARK SMILES IDX 24 25 25 26 86 27 26 28 85 29 27 30 28 31 29 32 79 33 30 34
REMARK SMILES IDX 84 35 78 36 80 37 31 38 83 39 77 40 76 41 32 43 64 44 44 45
REMARK SMILES IDX 63 46 45 47 48 48 62 49 81 50 46 51 47 52 61 54 82 55 49 56
REMARK SMILES IDX 33 57 34 58 42 59 35 60 36 61 40 62 43 63 37 64 38 65 41 66
REMARK SMILES IDX 39 67 65 68 66 69 74 70 67 71 68 72 72 73 75 74 69 75 70 76
REMARK SMILES IDX 73 77 71 78 50 79 51 80 59 81 52 82 53 83 57 84 60 85 54 86
REMARK SMILES IDX 55 87 58 88 56 89
REMARK H PARENT 5 10 80 42 48 53
REMARK Flexibility Score: inf
ROOT
ATOM      1  C   UNL A   1      35.714  20.845  25.210  1.00  0.00     0.274 C 
ENDROOT
BRANCH   1   2
ATOM      2  O   UNL A   1      35.648  21.864  26.229  1.00  0.00    -0.461 OA
BRANCH   2   3
ATOM      3  C   UNL A   1      34.399  22.115  26.709  1.00  0.00     0.324 C 
ATOM      4  O   UNL A   1      33.910  21.537  27.676  1.00  0.00    -0.250 OA
BRANCH   3   5
ATOM      5  C   UNL A   1      33.639  23.182  25.917  1.00  0.00     0.182 C 
BRANCH   5   6
ATOM      6  C   UNL A   1      34.564  24.326  25.414  1.00  0.00     0.012 C 
ATOM      7  C   UNL A   1      34.876  24.259  23.916  1.00  0.00     0.009 C 
ATOM      8  C   UNL A   1      34.056  25.733  25.754  1.00  0.00     0.009 C 
ENDBRANCH   5   6
BRANCH   5   9
ATOM      9  N   UNL A   1      32.480  23.710  26.661  1.00  0.00    -0.197 NA
ATOM     10  H   UNL A   1      32.611  24.721  26.716  1.00  0.00     0.142 HD
BRANCH   9  11
ATOM     11  S   UNL A   1      30.921  23.466  26.136  1.00  0.00     0.241 S 
ATOM     12  O   UNL A   1      30.934  22.234  25.379  1.00  0.00    -0.207 OA
ATOM     13  O   UNL A   1      30.021  23.669  27.247  1.00  0.00    -0.207 OA
BRANCH  11  14
ATOM     14  C   UNL A   1      30.702  24.797  24.993  1.00  0.00     0.085 A 
ATOM     15  C   UNL A   1      30.087  25.986  25.405  1.00  0.00     0.022 A 
ATOM     16  C   UNL A   1      31.182  24.657  23.698  1.00  0.00     0.061 A 
ATOM     17  C   UNL A   1      29.879  27.015  24.485  1.00  0.00     0.004 A 
ATOM     18  C   UNL A   1      30.992  25.701  22.809  1.00  0.00     0.124 A 
ATOM     19  C   UNL A   1      30.319  26.863  23.173  1.00  0.00     0.039 A 
ATOM     20  F   UNL A   1      31.486  25.580  21.576  1.00  0.00    -0.207 F 
ENDBRANCH  11  14
ENDBRANCH   9  11
ENDBRANCH   5   9
ENDBRANCH   3   5
ENDBRANCH   2   3
ENDBRANCH   1   2
BRANCH   1  21
ATOM     21  C   UNL A   1      37.142  20.344  24.955  1.00  0.00     0.275 C 
BRANCH  21  22
ATOM     22  O   UNL A   1      38.129  21.396  25.011  1.00  0.00    -0.458 OA
BRANCH  22  23
ATOM     23  C   UNL A   1      39.103  21.187  25.925  1.00  0.00     0.338 C 
ATOM     24  O   UNL A   1      39.703  20.142  26.122  1.00  0.00    -0.246 OA
BRANCH  23  25
ATOM     25  C   UNL A   1      39.462  22.409  26.658  1.00  0.00     0.060 A 
ATOM     26  C   UNL A   1      38.936  23.614  26.197  1.00  0.00     0.016 A 
ATOM     27  C   UNL A   1      40.524  22.404  27.564  1.00  0.00     0.016 A 
ATOM     28  C   UNL A   1      39.550  24.813  26.546  1.00  0.00     0.010 A 
ATOM     29  C   UNL A   1      41.100  23.619  27.963  1.00  0.00     0.010 A 
ATOM     30  C   UNL A   1      40.658  24.833  27.411  1.00  0.00    -0.014 A 
BRANCH  30  31
ATOM     31  C   UNL A   1      41.345  26.128  27.691  1.00  0.00     0.031 A 
ATOM     32  C   UNL A   1      40.663  27.247  28.445  1.00  0.00     0.074 A 
ATOM     33  C   UNL A   1      42.637  26.260  27.334  1.00  0.00     0.049 A 
ATOM     34  N   UNL A   1      41.143  28.411  28.816  1.00  0.00    -0.248 NA
ATOM     35  C   UNL A   1      39.276  27.027  28.877  1.00  0.00     0.031 C 
ATOM     36  C   UNL A   1      43.435  25.229  26.667  1.00  0.00     0.029 A 
ATOM     37  N   UNL A   1      43.509  27.310  27.481  1.00  0.00    -0.354 N 
ATOM     38  C   UNL A   1      40.140  29.025  29.562  1.00  0.00     0.074 A 
ATOM     39  C   UNL A   1      39.020  28.114  29.594  1.00  0.00     0.031 C 
ATOM     40  C   UNL A   1      44.678  25.689  26.477  1.00  0.00     0.029 A 
ATOM     41  C   UNL A   1      44.734  27.081  26.908  1.00  0.00     0.049 A 
ATOM     42  H   UNL A   1      43.278  28.144  27.951  1.00  0.00     0.167 HD
ATOM     43  C   UNL A   1      40.146  30.248  30.145  1.00  0.00     0.037 A 
ATOM     44  C   UNL A   1      45.768  27.913  26.683  1.00  0.00     0.037 A 
ATOM     45  C   UNL A   1      41.220  31.197  30.008  1.00  0.00     0.049 A 
ATOM     46  C   UNL A   1      45.670  29.334  27.149  1.00  0.00     0.074 A 
ATOM     47  C   UNL A   1      41.290  32.496  30.482  1.00  0.00     0.029 A 
ATOM     48  N   UNL A   1      42.395  30.961  29.309  1.00  0.00    -0.354 N 
ATOM     49  N   UNL A   1      44.709  29.909  27.830  1.00  0.00    -0.248 NA
ATOM     50  C   UNL A   1      46.784  30.224  26.807  1.00  0.00     0.031 C 
ATOM     51  C   UNL A   1      42.467  33.072  29.996  1.00  0.00     0.029 A 
ATOM     52  C   UNL A   1      43.170  32.107  29.291  1.00  0.00     0.049 A 
ATOM     53  H   UNL A   1      42.639  30.106  28.888  1.00  0.00     0.167 HD
ATOM     54  C   UNL A   1      45.105  31.225  28.009  1.00  0.00     0.074 A 
ATOM     55  C   UNL A   1      46.401  31.360  27.375  1.00  0.00     0.031 C 
ATOM     56  C   UNL A   1      44.452  32.229  28.644  1.00  0.00     0.037 A 
BRANCH  43  57
ATOM     57  C   UNL A   1      38.932  30.683  30.919  1.00  0.00     0.064 A 
ATOM     58  C   UNL A   1      37.901  31.390  30.277  1.00  0.00     0.173 A 
ATOM     59  C   UNL A   1      38.837  30.510  32.307  1.00  0.00     0.173 A 
ATOM     60  F   UNL A   1      37.944  31.587  28.951  1.00  0.00    -0.203 F 
ATOM     61  C   UNL A   1      36.840  31.930  30.999  1.00  0.00     0.198 A 
ATOM     62  C   UNL A   1      37.761  31.034  33.024  1.00  0.00     0.198 A 
ATOM     63  F   UNL A   1      39.788  29.836  32.971  1.00  0.00    -0.203 F 
ATOM     64  F   UNL A   1      35.894  32.638  30.366  1.00  0.00    -0.200 F 
ATOM     65  C   UNL A   1      36.771  31.755  32.371  1.00  0.00     0.200 A 
ATOM     66  F   UNL A   1      37.686  30.853  34.350  1.00  0.00    -0.200 F 
ATOM     67  F   UNL A   1      35.753  32.281  33.065  1.00  0.00    -0.200 F 
ENDBRANCH  43  57
BRANCH  44  68
ATOM     68  C   UNL A   1      46.934  27.406  25.916  1.00  0.00     0.064 A 
ATOM     69  C   UNL A   1      48.005  26.777  26.574  1.00  0.00     0.173 A 
ATOM     70  C   UNL A   1      47.055  27.627  24.541  1.00  0.00     0.173 A 
ATOM     71  F   UNL A   1      47.938  26.540  27.894  1.00  0.00    -0.203 F 
ATOM     72  C   UNL A   1      49.175  26.447  25.897  1.00  0.00     0.198 A 
ATOM     73  C   UNL A   1      48.214  27.263  23.856  1.00  0.00     0.198 A 
ATOM     74  F   UNL A   1      46.049  28.200  23.864  1.00  0.00    -0.203 F 
ATOM     75  F   UNL A   1      50.210  25.920  26.566  1.00  0.00    -0.200 F 
ATOM     76  C   UNL A   1      49.279  26.692  24.537  1.00  0.00     0.200 A 
ATOM     77  F   UNL A   1      48.304  27.479  22.536  1.00  0.00    -0.200 F 
ATOM     78  F   UNL A   1      50.408  26.385  23.885  1.00  0.00    -0.200 F 
ENDBRANCH  44  68
BRANCH  56  79
ATOM     79  C   UNL A   1      45.131  33.563  28.705  1.00  0.00     0.064 A 
ATOM     80  C   UNL A   1      44.908  34.517  27.699  1.00  0.00     0.173 A 
ATOM     81  C   UNL A   1      46.050  33.874  29.716  1.00  0.00     0.173 A 
ATOM     82  F   UNL A   1      44.046  34.262  26.703  1.00  0.00    -0.203 F 
ATOM     83  C   UNL A   1      45.592  35.728  27.697  1.00  0.00     0.198 A 
ATOM     84  C   UNL A   1      46.709  35.100  29.729  1.00  0.00     0.198 A 
ATOM     85  F   UNL A   1      46.288  33.000  30.705  1.00  0.00    -0.203 F 
ATOM     86  F   UNL A   1      45.390  36.609  26.708  1.00  0.00    -0.200 F 
ATOM     87  C   UNL A   1      46.487  36.021  28.715  1.00  0.00     0.200 A 
ATOM     88  F   UNL A   1      47.554  35.393  30.726  1.00  0.00    -0.200 F 
ATOM     89  F   UNL A   1      47.134  37.194  28.721  1.00  0.00    -0.200 F 
ENDBRANCH  56  79
ENDBRANCH  30  31
ENDBRANCH  23  25
ENDBRANCH  22  23
ENDBRANCH  21  22
ENDBRANCH   1  21
TORSDOF 15
ENDMDL
MODEL 2
REMARK VINA RESULT:     -11.6      4.618      9.880
REMARK SMILES CC(C)[C@H](NS(=O)(=O)c1cccc(F)c1)C(=O)OCCOC(=O)c1ccc(-c2c3nc(c(-c4c(F)c(F)c(F)c(F)c4F)c4ccc([nH]4)c(-c4c(F)c(F)c(F)c(F)c4F)c4nc(c(-c5c(F)c(F)c(F)c(F)c5F)c5ccc2[nH]5)C=C4)C=C3)cc1
REMARK SMILES IDX 19 1 18 2 16 3 17 4 4 5 2 6 1 7 3 8 5 9 6 11 7 12 8 13 9 14
REMARK SMILES IDX 10 15 15 16 11 17 13 18 12 19 14 20 20 21 21 22 22 23 23 24
REMARK SMILES IDX 24 25 25 26 86 27 26 28 85 29 27 30 28 31 29 32 79 33 30 34
REMARK SMILES IDX 84 35 78 36 80 37 31 38 83 39 77 40 76 41 32 43 64 44 44 45
REMARK SMILES IDX 63 46 45 47 48 48 62 49 81 50 46 51 47 52 61 54 82 55 49 56
REMARK SMILES IDX 33 57 34 58 42 59 35 60 36 61 40 62 43 63 37 64 38 65 41 66
REMARK SMILES IDX 39 67 65 68 66 69 74 70 67 71 68 72 72 73 75 74 69 75 70 76
REMARK SMILES IDX 73 77 71 78 50 79 51 80 59 81 52 82 53 83 57 84 60 85 54 86
REMARK SMILES IDX 55 87 58 88 56 89
REMARK H PARENT 5 10 80 42 48 53
REMARK Flexibility Score: inf
ROOT
ATOM      1  C   UNL A   1      31.427  29.947  25.486  1.00  0.00     0.274 C 
ENDROOT
BRANCH   1   2
ATOM      2  O   UNL A   1      32.359  28.957  25.971  1.00  0.00    -0.461 OA
BRANCH   2   3
ATOM      3  C   UNL A   1      31.786  27.870  26.558  1.00  0.00     0.324 C 
ATOM      4  O   UNL A   1      31.306  27.876  27.688  1.00  0.00    -0.250 OA
BRANCH   3   5
ATOM      5  C   UNL A   1      31.810  26.615  25.681  1.00  0.00     0.182 C 
BRANCH   5   6
ATOM      6  C   UNL A   1      32.824  25.551  26.188  1.00  0.00     0.012 C 
ATOM      7  C   UNL A   1      32.214  24.162  26.400  1.00  0.00     0.009 C 
ATOM      8  C   UNL A   1      34.076  25.415  25.311  1.00  0.00     0.009 C 
ENDBRANCH   5   6
BRANCH   5   9
ATOM      9  N   UNL A   1      32.024  26.932  24.257  1.00  0.00    -0.197 NA
ATOM     10  H   UNL A   1      32.959  26.596  24.026  1.00  0.00     0.142 HD
BRANCH   9  11
ATOM     11  S   UNL A   1      31.010  26.353  23.072  1.00  0.00     0.241 S 
ATOM     12  O   UNL A   1      31.796  26.288  21.859  1.00  0.00    -0.207 OA
ATOM     13  O   UNL A   1      30.308  25.201  23.587  1.00  0.00    -0.207 OA
BRANCH  11  14
ATOM     14  C   UNL A   1      29.853  27.676  22.894  1.00  0.00     0.085 A 
ATOM     15  C   UNL A   1      30.237  28.869  22.267  1.00  0.00     0.022 A 
ATOM     16  C   UNL A   1      28.553  27.500  23.350  1.00  0.00     0.061 A 
ATOM     17  C   UNL A   1      29.329  29.925  22.169  1.00  0.00     0.004 A 
ATOM     18  C   UNL A   1      27.661  28.549  23.217  1.00  0.00     0.124 A 
ATOM     19  C   UNL A   1      28.037  29.769  22.665  1.00  0.00     0.039 A 
ATOM     20  F   UNL A   1      26.403  28.366  23.622  1.00  0.00    -0.207 F 
ENDBRANCH  11  14
ENDBRANCH   9  11
ENDBRANCH   5   9
ENDBRANCH   3   5
ENDBRANCH   2   3
ENDBRANCH   1   2
BRANCH   1  21
ATOM     21  C   UNL A   1      31.601  31.315  26.161  1.00  0.00     0.275 C 
BRANCH  21  22
ATOM     22  O   UNL A   1      32.374  31.251  27.378  1.00  0.00    -0.458 OA
BRANCH  22  23
ATOM     23  C   UNL A   1      33.266  32.258  27.514  1.00  0.00     0.338 C 
ATOM     24  O   UNL A   1      33.021  33.453  27.502  1.00  0.00    -0.246 OA
BRANCH  23  25
ATOM     25  C   UNL A   1      34.629  31.773  27.772  1.00  0.00     0.060 A 
ATOM     26  C   UNL A   1      34.787  30.421  28.069  1.00  0.00     0.016 A 
ATOM     27  C   UNL A   1      35.665  32.675  28.026  1.00  0.00     0.016 A 
ATOM     28  C   UNL A   1      35.931  29.988  28.731  1.00  0.00     0.010 A 
ATOM     29  C   UNL A   1      36.844  32.223  28.636  1.00  0.00     0.010 A 
ATOM     30  C   UNL A   1      36.965  30.886  29.050  1.00  0.00    -0.014 A 
BRANCH  30  31
ATOM     31  C   UNL A   1      38.137  30.404  29.839  1.00  0.00     0.031 A 
ATOM     32  C   UNL A   1      39.143  29.434  29.262  1.00  0.00     0.074 A 
ATOM     33  C   UNL A   1      38.341  30.920  31.066  1.00  0.00     0.049 A 
ATOM     34  N   UNL A   1      40.244  28.963  29.800  1.00  0.00    -0.248 NA
ATOM     35  C   UNL A   1      38.915  28.954  27.892  1.00  0.00     0.031 C 
ATOM     36  C   UNL A   1      37.488  31.920  31.711  1.00  0.00     0.029 A 
ATOM     37  N   UNL A   1      39.327  30.681  31.990  1.00  0.00    -0.354 N 
ATOM     38  C   UNL A   1      40.853  28.185  28.818  1.00  0.00     0.074 A 
ATOM     39  C   UNL A   1      40.006  28.239  27.650  1.00  0.00     0.031 C 
ATOM     40  C   UNL A   1      37.993  32.219  32.914  1.00  0.00     0.029 A 
ATOM     41  C   UNL A   1      39.140  31.356  33.170  1.00  0.00     0.049 A 
ATOM     42  H   UNL A   1      40.094  30.085  31.823  1.00  0.00     0.167 HD
ATOM     43  C   UNL A   1      42.002  27.471  28.895  1.00  0.00     0.037 A 
ATOM     44  C   UNL A   1      39.769  31.247  34.354  1.00  0.00     0.037 A 
ATOM     45  C   UNL A   1      42.778  27.326  30.099  1.00  0.00     0.049 A 
ATOM     46  C   UNL A   1      40.912  30.285  34.482  1.00  0.00     0.074 A 
ATOM     47  C   UNL A   1      43.908  26.555  30.312  1.00  0.00     0.029 A 
ATOM     48  N   UNL A   1      42.475  27.935  31.308  1.00  0.00    -0.354 N 
ATOM     49  N   UNL A   1      41.463  29.539  33.557  1.00  0.00    -0.248 NA
ATOM     50  C   UNL A   1      41.511  30.138  35.813  1.00  0.00     0.031 C 
ATOM     51  C   UNL A   1      44.237  26.630  31.668  1.00  0.00     0.029 A 
ATOM     52  C   UNL A   1      43.363  27.513  32.283  1.00  0.00     0.049 A 
ATOM     53  H   UNL A   1      41.738  28.571  31.452  1.00  0.00     0.167 HD
ATOM     54  C   UNL A   1      42.481  28.840  34.187  1.00  0.00     0.074 A 
ATOM     55  C   UNL A   1      42.478  29.263  35.573  1.00  0.00     0.031 C 
ATOM     56  C   UNL A   1      43.340  27.933  33.662  1.00  0.00     0.037 A 
BRANCH  43  57
ATOM     57  C   UNL A   1      42.464  26.716  27.679  1.00  0.00     0.064 A 
ATOM     58  C   UNL A   1      42.051  25.389  27.472  1.00  0.00     0.173 A 
ATOM     59  C   UNL A   1      43.402  27.254  26.785  1.00  0.00     0.173 A 
ATOM     60  F   UNL A   1      41.159  24.825  28.299  1.00  0.00    -0.203 F 
ATOM     61  C   UNL A   1      42.580  24.623  26.437  1.00  0.00     0.198 A 
ATOM     62  C   UNL A   1      43.913  26.490  25.736  1.00  0.00     0.198 A 
ATOM     63  F   UNL A   1      43.825  28.518  26.929  1.00  0.00    -0.203 F 
ATOM     64  F   UNL A   1      42.201  23.346  26.289  1.00  0.00    -0.200 F 
ATOM     65  C   UNL A   1      43.512  25.172  25.570  1.00  0.00     0.200 A 
ATOM     66  F   UNL A   1      44.804  27.025  24.889  1.00  0.00    -0.200 F 
ATOM     67  F   UNL A   1      44.025  24.431  24.579  1.00  0.00    -0.200 F 
ENDBRANCH  43  57
BRANCH  44  68
ATOM     68  C   UNL A   1      39.256  32.030  35.506  1.00  0.00     0.064 A 
ATOM     69  C   UNL A   1      39.711  33.339  35.742  1.00  0.00     0.173 A 
ATOM     70  C   UNL A   1      38.390  31.463  36.447  1.00  0.00     0.173 A 
ATOM     71  F   UNL A   1      40.543  33.929  34.870  1.00  0.00    -0.203 F 
ATOM     72  C   UNL A   1      39.370  34.023  36.904  1.00  0.00     0.198 A 
ATOM     73  C   UNL A   1      38.020  32.164  37.594  1.00  0.00     0.198 A 
ATOM     74  F   UNL A   1      37.907  30.227  36.253  1.00  0.00    -0.203 F 
ATOM     75  F   UNL A   1      39.883  35.239  37.140  1.00  0.00    -0.200 F 
ATOM     76  C   UNL A   1      38.525  33.434  37.831  1.00  0.00     0.200 A 
ATOM     77  F   UNL A   1      37.183  31.602  38.478  1.00  0.00    -0.200 F 
ATOM     78  F   UNL A   1      38.203  34.088  38.956  1.00  0.00    -0.200 F 
ENDBRANCH  44  68
BRANCH  56  79
ATOM     79  C   UNL A   1      44.365  27.342  34.580  1.00  0.00     0.064 A 
ATOM     80  C   UNL A   1      44.097  26.145  35.264  1.00  0.00     0.173 A 
ATOM     81  C   UNL A   1      45.582  27.990  34.836  1.00  0.00     0.173 A 
ATOM     82  F   UNL A   1      42.942  25.494  35.061  1.00  0.00    -0.203 F 
ATOM     83  C   UNL A   1      45.006  25.626  36.180  1.00  0.00     0.198 A 
ATOM     84  C   UNL A   1      46.501  27.451  35.730  1.00  0.00     0.198 A 
ATOM     85  F   UNL A   1      45.887  29.130  34.199  1.00  0.00    -0.203 F 
ATOM     86  F   UNL A   1      44.713  24.502  36.848  1.00  0.00    -0.200 F 
ATOM     87  C   UNL A   1      46.209  26.276  36.409  1.00  0.00     0.200 A 
ATOM     88  F   UNL A   1      47.675  28.065  35.932  1.00  0.00    -0.200 F 
ATOM     89  F   UNL A   1      47.090  25.768  37.281  1.00  0.00    -0.200 F 
ENDBRANCH  56  79
ENDBRANCH  30  31
ENDBRANCH  23  25
ENDBRANCH  22  23
ENDBRANCH  21  22
ENDBRANCH   1  21
TORSDOF 15
ENDMDL
MODEL 3
REMARK VINA RESULT:     -11.6      1.851      3.315
REMARK SMILES CC(C)[C@H](NS(=O)(=O)c1cccc(F)c1)C(=O)OCCOC(=O)c1ccc(-c2c3nc(c(-c4c(F)c(F)c(F)c(F)c4F)c4ccc([nH]4)c(-c4c(F)c(F)c(F)c(F)c4F)c4nc(c(-c5c(F)c(F)c(F)c(F)c5F)c5ccc2[nH]5)C=C4)C=C3)cc1
REMARK SMILES IDX 19 1 18 2 16 3 17 4 4 5 2 6 1 7 3 8 5 9 6 11 7 12 8 13 9 14
REMARK SMILES IDX 10 15 15 16 11 17 13 18 12 19 14 20 20 21 21 22 22 23 23 24
REMARK SMILES IDX 24 25 25 26 86 27 26 28 85 29 27 30 28 31 29 32 79 33 30 34
REMARK SMILES IDX 84 35 78 36 80 37 31 38 83 39 77 40 76 41 32 43 64 44 44 45
REMARK SMILES IDX 63 46 45 47 48 48 62 49 81 50 46 51 47 52 61 54 82 55 49 56
REMARK SMILES IDX 33 57 34 58 42 59 35 60 36 61 40 62 43 63 37 64 38 65 41 66
REMARK SMILES IDX 39 67 65 68 66 69 74 70 67 71 68 72 72 73 75 74 69 75 70 76
REMARK SMILES IDX 73 77 71 78 50 79 51 80 59 81 52 82 53 83 57 84 60 85 54 86
REMARK SMILES IDX 55 87 58 88 56 89
REMARK H PARENT 5 10 80 42 48 53
REMARK Flexibility Score: inf
ROOT
ATOM      1  C   UNL A   1      37.059  19.736  24.954  1.00  0.00     0.274 C 
ENDROOT
BRANCH   1   2
ATOM      2  O   UNL A   1      36.506  20.999  25.380  1.00  0.00    -0.461 OA
BRANCH   2   3
ATOM      3  C   UNL A   1      36.202  21.861  24.371  1.00  0.00     0.324 C 
ATOM      4  O   UNL A   1      37.040  22.373  23.633  1.00  0.00    -0.250 OA
BRANCH   3   5
ATOM      5  C   UNL A   1      34.705  22.156  24.245  1.00  0.00     0.182 C 
BRANCH   5   6
ATOM      6  C   UNL A   1      34.362  23.644  24.538  1.00  0.00     0.012 C 
ATOM      7  C   UNL A   1      33.551  24.324  23.432  1.00  0.00     0.009 C 
ATOM      8  C   UNL A   1      33.655  23.867  25.882  1.00  0.00     0.009 C 
ENDBRANCH   5   6
BRANCH   5   9
ATOM      9  N   UNL A   1      33.885  21.240  25.058  1.00  0.00    -0.197 NA
ATOM     10  H   UNL A   1      33.604  21.766  25.887  1.00  0.00     0.142 HD
BRANCH   9  11
ATOM     11  S   UNL A   1      32.501  20.539  24.457  1.00  0.00     0.241 S 
ATOM     12  O   UNL A   1      31.455  20.811  25.418  1.00  0.00    -0.207 OA
ATOM     13  O   UNL A   1      32.369  20.897  23.064  1.00  0.00    -0.207 OA
BRANCH  11  14
ATOM     14  C   UNL A   1      32.886  18.817  24.553  1.00  0.00     0.085 A 
ATOM     15  C   UNL A   1      32.524  18.076  25.686  1.00  0.00     0.022 A 
ATOM     16  C   UNL A   1      33.516  18.206  23.476  1.00  0.00     0.061 A 
ATOM     17  C   UNL A   1      32.870  16.726  25.772  1.00  0.00     0.004 A 
ATOM     18  C   UNL A   1      33.824  16.860  23.571  1.00  0.00     0.124 A 
ATOM     19  C   UNL A   1      33.541  16.119  24.714  1.00  0.00     0.039 A 
ATOM     20  F   UNL A   1      34.396  16.267  22.522  1.00  0.00    -0.207 F 
ENDBRANCH  11  14
ENDBRANCH   9  11
ENDBRANCH   5   9
ENDBRANCH   3   5
ENDBRANCH   2   3
ENDBRANCH   1   2
BRANCH   1  21
ATOM     21  C   UNL A   1      38.551  19.593  25.286  1.00  0.00     0.275 C 
BRANCH  21  22
ATOM     22  O   UNL A   1      39.197  20.858  25.546  1.00  0.00    -0.458 OA
BRANCH  22  23
ATOM     23  C   UNL A   1      40.133  20.806  26.520  1.00  0.00     0.338 C 
ATOM     24  O   UNL A   1      40.812  19.839  26.825  1.00  0.00    -0.246 OA
BRANCH  23  25
ATOM     25  C   UNL A   1      40.339  22.106  27.175  1.00  0.00     0.060 A 
ATOM     26  C   UNL A   1      39.728  23.219  26.603  1.00  0.00     0.016 A 
ATOM     27  C   UNL A   1      41.350  22.266  28.125  1.00  0.00     0.016 A 
ATOM     28  C   UNL A   1      40.210  24.493  26.887  1.00  0.00     0.010 A 
ATOM     29  C   UNL A   1      41.789  23.556  28.457  1.00  0.00     0.010 A 
ATOM     30  C   UNL A   1      41.265  24.680  27.797  1.00  0.00    -0.014 A 
BRANCH  30  31
ATOM     31  C   UNL A   1      41.815  26.051  28.010  1.00  0.00     0.031 A 
ATOM     32  C   UNL A   1      41.024  27.127  28.721  1.00  0.00     0.074 A 
ATOM     33  C   UNL A   1      43.083  26.302  27.631  1.00  0.00     0.049 A 
ATOM     34  N   UNL A   1      41.382  28.350  29.033  1.00  0.00    -0.248 NA
ATOM     35  C   UNL A   1      39.671  26.783  29.179  1.00  0.00     0.031 C 
ATOM     36  C   UNL A   1      43.980  25.331  27.001  1.00  0.00     0.029 A 
ATOM     37  N   UNL A   1      43.840  27.443  27.719  1.00  0.00    -0.354 N 
ATOM     38  C   UNL A   1      40.326  28.889  29.763  1.00  0.00     0.074 A 
ATOM     39  C   UNL A   1      39.308  27.869  29.850  1.00  0.00     0.031 C 
ATOM     40  C   UNL A   1      45.166  25.909  26.775  1.00  0.00     0.029 A 
ATOM     41  C   UNL A   1      45.078  27.318  27.142  1.00  0.00     0.049 A 
ATOM     42  H   UNL A   1      43.526  28.269  28.154  1.00  0.00     0.167 HD
ATOM     43  C   UNL A   1      40.207  30.132  30.291  1.00  0.00     0.037 A 
ATOM     44  C   UNL A   1      46.017  28.242  26.867  1.00  0.00     0.037 A 
ATOM     45  C   UNL A   1      41.174  31.181  30.097  1.00  0.00     0.049 A 
ATOM     46  C   UNL A   1      45.773  29.665  27.270  1.00  0.00     0.074 A 
ATOM     47  C   UNL A   1      41.111  32.501  30.511  1.00  0.00     0.029 A 
ATOM     48  N   UNL A   1      42.361  31.038  29.395  1.00  0.00    -0.354 N 
ATOM     49  N   UNL A   1      44.762  30.167  27.936  1.00  0.00    -0.248 NA
ATOM     50  C   UNL A   1      46.784  30.651  26.873  1.00  0.00     0.031 C 
ATOM     51  C   UNL A   1      42.217  33.174  29.985  1.00  0.00     0.029 A 
ATOM     52  C   UNL A   1      43.012  32.257  29.316  1.00  0.00     0.049 A 
ATOM     53  H   UNL A   1      42.692  30.194  29.009  1.00  0.00     0.167 HD
ATOM     54  C   UNL A   1      45.019  31.525  28.050  1.00  0.00     0.074 A 
ATOM     55  C   UNL A   1      46.289  31.765  27.394  1.00  0.00     0.031 C 
ATOM     56  C   UNL A   1      44.269  32.483  28.648  1.00  0.00     0.037 A 
BRANCH  43  57
ATOM     57  C   UNL A   1      38.960  30.472  31.059  1.00  0.00     0.064 A 
ATOM     58  C   UNL A   1      37.839  30.995  30.391  1.00  0.00     0.173 A 
ATOM     59  C   UNL A   1      38.908  30.397  32.458  1.00  0.00     0.173 A 
ATOM     60  F   UNL A   1      37.837  31.092  29.054  1.00  0.00    -0.203 F 
ATOM     61  C   UNL A   1      36.730  31.455  31.096  1.00  0.00     0.198 A 
ATOM     62  C   UNL A   1      37.786  30.838  33.160  1.00  0.00     0.198 A 
ATOM     63  F   UNL A   1      39.945  29.899  33.147  1.00  0.00    -0.203 F 
ATOM     64  F   UNL A   1      35.693  31.989  30.436  1.00  0.00    -0.200 F 
ATOM     65  C   UNL A   1      36.704  31.379  32.479  1.00  0.00     0.200 A 
ATOM     66  F   UNL A   1      37.754  30.752  34.497  1.00  0.00    -0.200 F 
ATOM     67  F   UNL A   1      35.639  31.828  33.157  1.00  0.00    -0.200 F 
ENDBRANCH  43  57
BRANCH  44  68
ATOM     68  C   UNL A   1      47.224  27.826  26.109  1.00  0.00     0.064 A 
ATOM     69  C   UNL A   1      47.197  27.751  24.705  1.00  0.00     0.173 A 
ATOM     70  C   UNL A   1      48.384  27.397  26.761  1.00  0.00     0.173 A 
ATOM     71  F   UNL A   1      46.107  28.151  24.031  1.00  0.00    -0.203 F 
ATOM     72  C   UNL A   1      48.259  27.206  23.991  1.00  0.00     0.198 A 
ATOM     73  C   UNL A   1      49.463  26.885  26.042  1.00  0.00     0.198 A 
ATOM     74  F   UNL A   1      48.468  27.474  28.097  1.00  0.00    -0.203 F 
ATOM     75  F   UNL A   1      48.173  27.075  22.660  1.00  0.00    -0.200 F 
ATOM     76  C   UNL A   1      49.392  26.772  24.660  1.00  0.00     0.200 A 
ATOM     77  F   UNL A   1      50.567  26.487  26.688  1.00  0.00    -0.200 F 
ATOM     78  F   UNL A   1      50.412  26.237  23.975  1.00  0.00    -0.200 F 
ENDBRANCH  44  68
BRANCH  56  79
ATOM     79  C   UNL A   1      44.804  33.882  28.639  1.00  0.00     0.064 A 
ATOM     80  C   UNL A   1      45.687  34.308  29.644  1.00  0.00     0.173 A 
ATOM     81  C   UNL A   1      44.394  34.819  27.681  1.00  0.00     0.173 A 
ATOM     82  F   UNL A   1      46.100  33.451  30.590  1.00  0.00    -0.203 F 
ATOM     83  C   UNL A   1      46.130  35.626  29.696  1.00  0.00     0.198 A 
ATOM     84  C   UNL A   1      44.863  36.128  27.718  1.00  0.00     0.198 A 
ATOM     85  F   UNL A   1      43.560  34.456  26.695  1.00  0.00    -0.203 F 
ATOM     86  F   UNL A   1      46.944  36.019  30.685  1.00  0.00    -0.200 F 
ATOM     87  C   UNL A   1      45.722  36.533  28.730  1.00  0.00     0.200 A 
ATOM     88  F   UNL A   1      44.490  36.998  26.770  1.00  0.00    -0.200 F 
ATOM     89  F   UNL A   1      46.160  37.798  28.772  1.00  0.00    -0.200 F 
ENDBRANCH  56  79
ENDBRANCH  30  31
ENDBRANCH  23  25
ENDBRANCH  22  23
ENDBRANCH  21  22
ENDBRANCH   1  21
TORSDOF 15
ENDMDL
