MODEL 1
REMARK VINA RESULT:     -11.4      0.000      0.000
REMARK SMILES CC[NH2+][C@H](CC[N@H+](C)C1CCC(C)(C)CC1)C(=O)OCCOC(=O)c1ccc(-c2c3nc(c(-c4c(F)c(F)c(F)c(F)c4F)c4ccc([nH]4)c(-c4c(F)c(F)c(F)c(F)c4F)c4nc(c(-c5c(F)c(F)c(F)c(F)c5F)c5ccc2[nH]5)C=C4)C=C3)cc1
REMARK SMILES IDX 20 1 19 2 17 3 18 4 4 5 3 6 2 9 1 10 5 11 6 12 7 13 8 14
REMARK SMILES IDX 9 16 10 17 16 18 11 19 15 20 12 21 13 22 14 23 21 24 22 25
REMARK SMILES IDX 23 26 24 27 25 28 26 29 87 30 27 31 86 32 28 33 29 34 30 35
REMARK SMILES IDX 80 36 31 37 85 38 79 39 81 40 32 41 84 42 78 43 77 44 33 46
REMARK SMILES IDX 65 47 45 48 64 49 46 50 49 51 63 52 82 53 47 54 48 55 62 57
REMARK SMILES IDX 83 58 50 59 34 60 35 61 43 62 36 63 37 64 41 65 44 66 38 67
REMARK SMILES IDX 39 68 42 69 40 70 66 71 67 72 75 73 68 74 69 75 73 76 76 77
REMARK SMILES IDX 70 78 71 79 74 80 72 81 51 82 52 83 60 84 53 85 54 86 58 87
REMARK SMILES IDX 61 88 55 89 56 90 59 91 57 92
REMARK H PARENT 3 7 3 8 7 15 81 45 49 56
REMARK Flexibility Score: inf
ROOT
ATOM      1  C   UNL A   1      33.181  28.932  24.792  1.00  0.00     0.274 C 
ENDROOT
BRANCH   1   2
ATOM      2  O   UNL A   1      32.963  29.090  23.375  1.00  0.00    -0.458 OA
BRANCH   2   3
ATOM      3  C   UNL A   1      32.474  27.988  22.746  1.00  0.00     0.365 C 
ATOM      4  O   UNL A   1      33.086  26.925  22.650  1.00  0.00    -0.245 OA
BRANCH   3   5
ATOM      5  C   UNL A   1      30.987  28.118  22.376  1.00  0.00     0.299 C 
BRANCH   5   6
ATOM      6  N   UNL A   1      30.648  29.537  22.003  1.00  0.00    -0.335 N 
ATOM      7  H   UNL A   1      31.394  30.150  22.329  1.00  0.00     0.347 HD
ATOM      8  H   UNL A   1      30.549  29.578  20.988  1.00  0.00     0.347 HD
BRANCH   6   9
ATOM      9  C   UNL A   1      29.372  29.980  22.603  1.00  0.00     0.257 C 
ATOM     10  C   UNL A   1      28.351  30.453  21.569  1.00  0.00     0.071 C 
ENDBRANCH   6   9
ENDBRANCH   5   6
BRANCH   5  11
ATOM     11  C   UNL A   1      29.929  27.472  23.317  1.00  0.00     0.139 C 
BRANCH  11  12
ATOM     12  C   UNL A   1      30.280  26.543  24.538  1.00  0.00     0.269 C 
BRANCH  12  13
ATOM     13  N   UNL A   1      31.063  25.267  24.512  1.00  0.00    -0.335 N 
ATOM     14  C   UNL A   1      30.642  24.493  23.333  1.00  0.00     0.332 C 
ATOM     15  H   UNL A   1      32.054  25.492  24.424  1.00  0.00     0.348 HD
BRANCH  13  16
ATOM     16  C   UNL A   1      31.034  24.508  25.772  1.00  0.00     0.183 C 
ATOM     17  C   UNL A   1      30.784  22.985  25.788  1.00  0.00     0.065 C 
ATOM     18  C   UNL A   1      32.377  24.743  26.451  1.00  0.00     0.065 C 
ATOM     19  C   UNL A   1      31.958  22.019  25.568  1.00  0.00     0.012 C 
ATOM     20  C   UNL A   1      33.508  23.914  25.921  1.00  0.00     0.012 C 
ATOM     21  C   UNL A   1      33.283  22.445  26.224  1.00  0.00    -0.035 C 
ATOM     22  C   UNL A   1      34.461  21.694  25.599  1.00  0.00     0.011 C 
ATOM     23  C   UNL A   1      33.278  22.204  27.749  1.00  0.00     0.011 C 
ENDBRANCH  13  16
ENDBRANCH  12  13
ENDBRANCH  11  12
ENDBRANCH   5  11
ENDBRANCH   3   5
ENDBRANCH   2   3
ENDBRANCH   1   2
BRANCH   1  24
ATOM     24  C   UNL A   1      32.112  29.708  25.576  1.00  0.00     0.275 C 
BRANCH  24  25
ATOM     25  O   UNL A   1      32.525  29.891  26.948  1.00  0.00    -0.458 OA
BRANCH  25  26
ATOM     26  C   UNL A   1      33.109  31.090  27.239  1.00  0.00     0.338 C 
ATOM     27  O   UNL A   1      32.535  32.168  27.310  1.00  0.00    -0.246 OA
BRANCH  26  28
ATOM     28  C   UNL A   1      34.547  30.889  27.582  1.00  0.00     0.060 A 
ATOM     29  C   UNL A   1      35.026  29.613  27.815  1.00  0.00     0.016 A 
ATOM     30  C   UNL A   1      35.407  31.968  27.820  1.00  0.00     0.016 A 
ATOM     31  C   UNL A   1      36.233  29.447  28.502  1.00  0.00     0.010 A 
ATOM     32  C   UNL A   1      36.696  31.761  28.377  1.00  0.00     0.010 A 
ATOM     33  C   UNL A   1      37.120  30.490  28.809  1.00  0.00    -0.014 A 
BRANCH  33  34
ATOM     34  C   UNL A   1      38.403  30.254  29.604  1.00  0.00     0.031 A 
ATOM     35  C   UNL A   1      39.544  29.414  29.037  1.00  0.00     0.074 A 
ATOM     36  C   UNL A   1      38.658  30.824  30.811  1.00  0.00     0.049 A 
ATOM     37  N   UNL A   1      40.484  28.742  29.664  1.00  0.00    -0.248 NA
ATOM     38  C   UNL A   1      39.649  29.328  27.571  1.00  0.00     0.031 C 
ATOM     39  C   UNL A   1      37.826  31.800  31.516  1.00  0.00     0.029 A 
ATOM     40  N   UNL A   1      39.732  30.668  31.675  1.00  0.00    -0.354 N 
ATOM     41  C   UNL A   1      41.212  28.070  28.684  1.00  0.00     0.074 A 
ATOM     42  C   UNL A   1      40.634  28.451  27.411  1.00  0.00     0.031 C 
ATOM     43  C   UNL A   1      38.456  32.240  32.609  1.00  0.00     0.029 A 
ATOM     44  C   UNL A   1      39.594  31.376  32.848  1.00  0.00     0.049 A 
ATOM     45  H   UNL A   1      40.515  30.107  31.469  1.00  0.00     0.167 HD
ATOM     46  C   UNL A   1      42.245  27.200  28.837  1.00  0.00     0.037 A 
ATOM     47  C   UNL A   1      40.177  31.262  34.058  1.00  0.00     0.037 A 
ATOM     48  C   UNL A   1      42.885  26.915  30.102  1.00  0.00     0.049 A 
ATOM     49  C   UNL A   1      41.202  30.191  34.272  1.00  0.00     0.074 A 
ATOM     50  C   UNL A   1      43.891  26.005  30.389  1.00  0.00     0.029 A 
ATOM     51  N   UNL A   1      42.604  27.574  31.289  1.00  0.00    -0.354 N 
ATOM     52  N   UNL A   1      41.720  29.362  33.403  1.00  0.00    -0.248 NA
ATOM     53  C   UNL A   1      41.688  30.009  35.646  1.00  0.00     0.031 C 
ATOM     54  C   UNL A   1      44.180  26.079  31.756  1.00  0.00     0.029 A 
ATOM     55  C   UNL A   1      43.400  27.078  32.311  1.00  0.00     0.049 A 
ATOM     56  H   UNL A   1      41.936  28.289  31.393  1.00  0.00     0.167 HD
ATOM     57  C   UNL A   1      42.606  28.572  34.118  1.00  0.00     0.074 A 
ATOM     58  C   UNL A   1      42.569  29.033  35.490  1.00  0.00     0.031 C 
ATOM     59  C   UNL A   1      43.374  27.549  33.672  1.00  0.00     0.037 A 
BRANCH  46  60
ATOM     60  C   UNL A   1      42.695  26.405  27.636  1.00  0.00     0.064 A 
ATOM     61  C   UNL A   1      43.749  26.803  26.801  1.00  0.00     0.173 A 
ATOM     62  C   UNL A   1      42.065  25.182  27.343  1.00  0.00     0.173 A 
ATOM     63  F   UNL A   1      44.392  27.957  27.028  1.00  0.00    -0.203 F 
ATOM     64  C   UNL A   1      44.126  26.029  25.700  1.00  0.00     0.198 A 
ATOM     65  C   UNL A   1      42.466  24.396  26.264  1.00  0.00     0.198 A 
ATOM     66  F   UNL A   1      41.064  24.735  28.116  1.00  0.00    -0.203 F 
ATOM     67  F   UNL A   1      45.102  26.456  24.886  1.00  0.00    -0.200 F 
ATOM     68  C   UNL A   1      43.488  24.826  25.436  1.00  0.00     0.200 A 
ATOM     69  F   UNL A   1      41.858  23.225  26.026  1.00  0.00    -0.200 F 
ATOM     70  F   UNL A   1      43.852  24.087  24.378  1.00  0.00    -0.200 F 
ENDBRANCH  46  60
BRANCH  47  71
ATOM     71  C   UNL A   1      39.667  32.069  35.208  1.00  0.00     0.064 A 
ATOM     72  C   UNL A   1      38.686  31.570  36.074  1.00  0.00     0.173 A 
ATOM     73  C   UNL A   1      40.156  33.363  35.463  1.00  0.00     0.173 A 
ATOM     74  F   UNL A   1      38.154  30.358  35.854  1.00  0.00    -0.203 F 
ATOM     75  C   UNL A   1      38.219  32.330  37.147  1.00  0.00     0.198 A 
ATOM     76  C   UNL A   1      39.726  34.100  36.564  1.00  0.00     0.198 A 
ATOM     77  F   UNL A   1      41.087  33.903  34.661  1.00  0.00    -0.203 F 
ATOM     78  F   UNL A   1      37.244  31.848  37.930  1.00  0.00    -0.200 F 
ATOM     79  C   UNL A   1      38.750  33.586  37.400  1.00  0.00     0.200 A 
ATOM     80  F   UNL A   1      40.266  35.300  36.816  1.00  0.00    -0.200 F 
ATOM     81  F   UNL A   1      38.316  34.304  38.444  1.00  0.00    -0.200 F 
ENDBRANCH  47  71
BRANCH  59  82
ATOM     82  C   UNL A   1      44.290  26.904  34.668  1.00  0.00     0.064 A 
ATOM     83  C   UNL A   1      43.926  25.744  35.366  1.00  0.00     0.173 A 
ATOM     84  C   UNL A   1      45.555  27.456  34.923  1.00  0.00     0.173 A 
ATOM     85  F   UNL A   1      42.717  25.193  35.178  1.00  0.00    -0.203 F 
ATOM     86  C   UNL A   1      44.785  25.175  36.303  1.00  0.00     0.198 A 
ATOM     87  C   UNL A   1      46.423  26.866  35.836  1.00  0.00     0.198 A 
ATOM     88  F   UNL A   1      45.948  28.568  34.284  1.00  0.00    -0.203 F 
ATOM     89  F   UNL A   1      44.394  24.100  37.001  1.00  0.00    -0.200 F 
ATOM     90  C   UNL A   1      46.035  25.731  36.531  1.00  0.00     0.200 A 
ATOM     91  F   UNL A   1      47.634  27.402  36.049  1.00  0.00    -0.200 F 
ATOM     92  F   UNL A   1      46.861  25.179  37.431  1.00  0.00    -0.200 F 
ENDBRANCH  59  82
ENDBRANCH  33  34
ENDBRANCH  26  28
ENDBRANCH  25  26
ENDBRANCH  24  25
ENDBRANCH   1  24
TORSDOF 17
ENDMDL
MODEL 2
REMARK VINA RESULT:     -11.3      1.254      2.193
REMARK SMILES CC[NH2+][C@H](CC[N@H+](C)C1CCC(C)(C)CC1)C(=O)OCCOC(=O)c1ccc(-c2c3nc(c(-c4c(F)c(F)c(F)c(F)c4F)c4ccc([nH]4)c(-c4c(F)c(F)c(F)c(F)c4F)c4nc(c(-c5c(F)c(F)c(F)c(F)c5F)c5ccc2[nH]5)C=C4)C=C3)cc1
REMARK SMILES IDX 20 1 19 2 17 3 18 4 4 5 3 6 2 9 1 10 5 11 6 12 7 13 8 14
REMARK SMILES IDX 9 16 10 17 16 18 11 19 15 20 12 21 13 22 14 23 21 24 22 25
REMARK SMILES IDX 23 26 24 27 25 28 26 29 87 30 27 31 86 32 28 33 29 34 30 35
REMARK SMILES IDX 80 36 31 37 85 38 79 39 81 40 32 41 84 42 78 43 77 44 33 46
REMARK SMILES IDX 65 47 45 48 64 49 46 50 49 51 63 52 82 53 47 54 48 55 62 57
REMARK SMILES IDX 83 58 50 59 34 60 35 61 43 62 36 63 37 64 41 65 44 66 38 67
REMARK SMILES IDX 39 68 42 69 40 70 66 71 67 72 75 73 68 74 69 75 73 76 76 77
REMARK SMILES IDX 70 78 71 79 74 80 72 81 51 82 52 83 60 84 53 85 54 86 58 87
REMARK SMILES IDX 61 88 55 89 56 90 59 91 57 92
REMARK H PARENT 3 7 3 8 7 15 81 45 49 56
REMARK Flexibility Score: inf
ROOT
ATOM      1  C   UNL A   1      31.865  27.080  26.607  1.00  0.00     0.274 C 
ENDROOT
BRANCH   1   2
ATOM      2  O   UNL A   1      30.659  26.303  26.764  1.00  0.00    -0.458 OA
BRANCH   2   3
ATOM      3  C   UNL A   1      30.646  25.125  26.083  1.00  0.00     0.365 C 
ATOM      4  O   UNL A   1      30.617  24.021  26.624  1.00  0.00    -0.245 OA
BRANCH   3   5
ATOM      5  C   UNL A   1      30.428  25.308  24.571  1.00  0.00     0.299 C 
BRANCH   5   6
ATOM      6  N   UNL A   1      29.176  26.100  24.300  1.00  0.00    -0.335 N 
ATOM      7  H   UNL A   1      28.559  25.545  23.708  1.00  0.00     0.347 HD
ATOM      8  H   UNL A   1      28.739  26.311  25.198  1.00  0.00     0.347 HD
BRANCH   6   9
ATOM      9  C   UNL A   1      29.464  27.380  23.622  1.00  0.00     0.257 C 
ATOM     10  C   UNL A   1      28.210  28.091  23.115  1.00  0.00     0.071 C 
ENDBRANCH   6   9
ENDBRANCH   5   6
BRANCH   5  11
ATOM     11  C   UNL A   1      30.569  24.065  23.646  1.00  0.00     0.139 C 
BRANCH  11  12
ATOM     12  C   UNL A   1      31.943  23.490  23.139  1.00  0.00     0.269 C 
BRANCH  12  13
ATOM     13  N   UNL A   1      32.927  22.671  23.917  1.00  0.00    -0.335 N 
ATOM     14  C   UNL A   1      32.192  21.593  24.597  1.00  0.00     0.332 C 
ATOM     15  H   UNL A   1      33.596  22.258  23.267  1.00  0.00     0.348 HD
BRANCH  13  16
ATOM     16  C   UNL A   1      33.806  23.453  24.801  1.00  0.00     0.183 C 
ATOM     17  C   UNL A   1      34.330  22.872  26.132  1.00  0.00     0.065 C 
ATOM     18  C   UNL A   1      35.026  23.834  23.973  1.00  0.00     0.065 C 
ATOM     19  C   UNL A   1      35.590  21.993  26.134  1.00  0.00     0.012 C 
ATOM     20  C   UNL A   1      36.054  22.754  23.826  1.00  0.00     0.012 C 
ATOM     21  C   UNL A   1      36.696  22.441  25.163  1.00  0.00    -0.035 C 
ATOM     22  C   UNL A   1      37.684  21.299  24.907  1.00  0.00     0.011 C 
ATOM     23  C   UNL A   1      37.467  23.670  25.692  1.00  0.00     0.011 C 
ENDBRANCH  13  16
ENDBRANCH  12  13
ENDBRANCH  11  12
ENDBRANCH   5  11
ENDBRANCH   3   5
ENDBRANCH   2   3
ENDBRANCH   1   2
BRANCH   1  24
ATOM     24  C   UNL A   1      31.520  28.576  26.548  1.00  0.00     0.275 C 
BRANCH  24  25
ATOM     25  O   UNL A   1      32.320  29.316  27.496  1.00  0.00    -0.458 OA
BRANCH  25  26
ATOM     26  C   UNL A   1      32.910  30.450  27.020  1.00  0.00     0.338 C 
ATOM     27  O   UNL A   1      32.337  31.376  26.462  1.00  0.00    -0.246 OA
BRANCH  26  28
ATOM     28  C   UNL A   1      34.358  30.465  27.382  1.00  0.00     0.060 A 
ATOM     29  C   UNL A   1      35.090  29.293  27.331  1.00  0.00     0.016 A 
ATOM     30  C   UNL A   1      34.975  31.604  27.914  1.00  0.00     0.016 A 
ATOM     31  C   UNL A   1      36.303  29.211  28.023  1.00  0.00     0.010 A 
ATOM     32  C   UNL A   1      36.276  31.531  28.473  1.00  0.00     0.010 A 
ATOM     33  C   UNL A   1      36.954  30.305  28.615  1.00  0.00    -0.014 A 
BRANCH  33  34
ATOM     34  C   UNL A   1      38.255  30.145  29.399  1.00  0.00     0.031 A 
ATOM     35  C   UNL A   1      39.419  29.327  28.845  1.00  0.00     0.074 A 
ATOM     36  C   UNL A   1      38.505  30.768  30.581  1.00  0.00     0.049 A 
ATOM     37  N   UNL A   1      40.392  28.714  29.482  1.00  0.00    -0.248 NA
ATOM     38  C   UNL A   1      39.508  29.193  27.382  1.00  0.00     0.031 C 
ATOM     39  C   UNL A   1      37.647  31.737  31.263  1.00  0.00     0.029 A 
ATOM     40  N   UNL A   1      39.595  30.682  31.433  1.00  0.00    -0.354 N 
ATOM     41  C   UNL A   1      41.132  28.034  28.515  1.00  0.00     0.074 A 
ATOM     42  C   UNL A   1      40.522  28.348  27.238  1.00  0.00     0.031 C 
ATOM     43  C   UNL A   1      38.274  32.239  32.330  1.00  0.00     0.029 A 
ATOM     44  C   UNL A   1      39.447  31.427  32.583  1.00  0.00     0.049 A 
ATOM     45  H   UNL A   1      40.396  30.144  31.236  1.00  0.00     0.167 HD
ATOM     46  C   UNL A   1      42.198  27.209  28.685  1.00  0.00     0.037 A 
ATOM     47  C   UNL A   1      40.051  31.378  33.788  1.00  0.00     0.037 A 
ATOM     48  C   UNL A   1      42.865  26.994  29.949  1.00  0.00     0.049 A 
ATOM     49  C   UNL A   1      41.117  30.355  34.024  1.00  0.00     0.074 A 
ATOM     50  C   UNL A   1      43.908  26.133  30.253  1.00  0.00     0.029 A 
ATOM     51  N   UNL A   1      42.576  27.685  31.116  1.00  0.00    -0.354 N 
ATOM     52  N   UNL A   1      41.655  29.514  33.178  1.00  0.00    -0.248 NA
ATOM     53  C   UNL A   1      41.628  30.241  35.396  1.00  0.00     0.031 C 
ATOM     54  C   UNL A   1      44.212  26.267  31.613  1.00  0.00     0.029 A 
ATOM     55  C   UNL A   1      43.404  27.256  32.143  1.00  0.00     0.049 A 
ATOM     56  H   UNL A   1      41.883  28.378  31.204  1.00  0.00     0.167 HD
ATOM     57  C   UNL A   1      42.579  28.783  33.907  1.00  0.00     0.074 A 
ATOM     58  C   UNL A   1      42.543  29.292  35.262  1.00  0.00     0.031 C 
ATOM     59  C   UNL A   1      43.379  27.775  33.486  1.00  0.00     0.037 A 
BRANCH  46  60
ATOM     60  C   UNL A   1      42.662  26.388  27.505  1.00  0.00     0.064 A 
ATOM     61  C   UNL A   1      43.722  26.770  26.672  1.00  0.00     0.173 A 
ATOM     62  C   UNL A   1      42.037  25.157  27.234  1.00  0.00     0.173 A 
ATOM     63  F   UNL A   1      44.360  27.931  26.879  1.00  0.00    -0.203 F 
ATOM     64  C   UNL A   1      44.112  25.973  25.593  1.00  0.00     0.198 A 
ATOM     65  C   UNL A   1      42.450  24.349  26.177  1.00  0.00     0.198 A 
ATOM     66  F   UNL A   1      41.029  24.726  28.008  1.00  0.00    -0.203 F 
ATOM     67  F   UNL A   1      45.094  26.384  24.778  1.00  0.00    -0.200 F 
ATOM     68  C   UNL A   1      43.479  24.763  25.349  1.00  0.00     0.200 A 
ATOM     69  F   UNL A   1      41.847  23.171  25.960  1.00  0.00    -0.200 F 
ATOM     70  F   UNL A   1      43.854  24.000  24.312  1.00  0.00    -0.200 F 
ENDBRANCH  46  60
BRANCH  47  71
ATOM     71  C   UNL A   1      39.526  32.207  34.915  1.00  0.00     0.064 A 
ATOM     72  C   UNL A   1      38.642  31.676  35.864  1.00  0.00     0.173 A 
ATOM     73  C   UNL A   1      39.903  33.554  35.065  1.00  0.00     0.173 A 
ATOM     74  F   UNL A   1      38.218  30.410  35.747  1.00  0.00    -0.203 F 
ATOM     75  C   UNL A   1      38.161  32.457  36.915  1.00  0.00     0.198 A 
ATOM     76  C   UNL A   1      39.462  34.317  36.144  1.00  0.00     0.198 A 
ATOM     77  F   UNL A   1      40.735  34.125  34.181  1.00  0.00    -0.203 F 
ATOM     78  F   UNL A   1      37.278  31.939  37.780  1.00  0.00    -0.200 F 
ATOM     79  C   UNL A   1      38.583  33.770  37.063  1.00  0.00     0.200 A 
ATOM     80  F   UNL A   1      39.898  35.575  36.294  1.00  0.00    -0.200 F 
ATOM     81  F   UNL A   1      38.138  34.511  38.086  1.00  0.00    -0.200 F 
ENDBRANCH  47  71
BRANCH  59  82
ATOM     82  C   UNL A   1      44.332  27.200  34.491  1.00  0.00     0.064 A 
ATOM     83  C   UNL A   1      45.576  27.790  34.755  1.00  0.00     0.173 A 
ATOM     84  C   UNL A   1      43.989  26.042  35.204  1.00  0.00     0.173 A 
ATOM     85  F   UNL A   1      45.961  28.884  34.079  1.00  0.00    -0.203 F 
ATOM     86  C   UNL A   1      46.453  27.227  35.676  1.00  0.00     0.198 A 
ATOM     87  C   UNL A   1      44.855  25.499  36.149  1.00  0.00     0.198 A 
ATOM     88  F   UNL A   1      42.811  25.436  34.986  1.00  0.00    -0.203 F 
ATOM     89  F   UNL A   1      47.661  27.774  35.870  1.00  0.00    -0.200 F 
ATOM     90  C   UNL A   1      46.089  26.087  36.378  1.00  0.00     0.200 A 
ATOM     91  F   UNL A   1      44.497  24.402  36.832  1.00  0.00    -0.200 F 
ATOM     92  F   UNL A   1      46.935  25.548  37.268  1.00  0.00    -0.200 F 
ENDBRANCH  59  82
ENDBRANCH  33  34
ENDBRANCH  26  28
ENDBRANCH  25  26
ENDBRANCH  24  25
ENDBRANCH   1  24
TORSDOF 17
ENDMDL
MODEL 3
REMARK VINA RESULT:     -11.3      1.210      2.863
REMARK SMILES CC[NH2+][C@H](CC[N@H+](C)C1CCC(C)(C)CC1)C(=O)OCCOC(=O)c1ccc(-c2c3nc(c(-c4c(F)c(F)c(F)c(F)c4F)c4ccc([nH]4)c(-c4c(F)c(F)c(F)c(F)c4F)c4nc(c(-c5c(F)c(F)c(F)c(F)c5F)c5ccc2[nH]5)C=C4)C=C3)cc1
REMARK SMILES IDX 20 1 19 2 17 3 18 4 4 5 3 6 2 9 1 10 5 11 6 12 7 13 8 14
REMARK SMILES IDX 9 16 10 17 16 18 11 19 15 20 12 21 13 22 14 23 21 24 22 25
REMARK SMILES IDX 23 26 24 27 25 28 26 29 87 30 27 31 86 32 28 33 29 34 30 35
REMARK SMILES IDX 80 36 31 37 85 38 79 39 81 40 32 41 84 42 78 43 77 44 33 46
REMARK SMILES IDX 65 47 45 48 64 49 46 50 49 51 63 52 82 53 47 54 48 55 62 57
REMARK SMILES IDX 83 58 50 59 34 60 35 61 43 62 36 63 37 64 41 65 44 66 38 67
REMARK SMILES IDX 39 68 42 69 40 70 66 71 67 72 75 73 68 74 69 75 73 76 76 77
REMARK SMILES IDX 70 78 71 79 74 80 72 81 51 82 52 83 60 84 53 85 54 86 58 87
REMARK SMILES IDX 61 88 55 89 56 90 59 91 57 92
REMARK H PARENT 3 7 3 8 7 15 81 45 49 56
REMARK Flexibility Score: inf
ROOT
ATOM      1  C   UNL A   1      31.997  28.481  24.960  1.00  0.00     0.274 C 
ENDROOT
BRANCH   1   2
ATOM      2  O   UNL A   1      30.881  27.583  25.135  1.00  0.00    -0.458 OA
BRANCH   2   3
ATOM      3  C   UNL A   1      31.073  26.608  26.063  1.00  0.00     0.365 C 
ATOM      4  O   UNL A   1      31.159  26.818  27.272  1.00  0.00    -0.245 OA
BRANCH   3   5
ATOM      5  C   UNL A   1      30.931  25.191  25.481  1.00  0.00     0.299 C 
BRANCH   5   6
ATOM      6  N   UNL A   1      30.057  25.197  24.256  1.00  0.00    -0.335 N 
ATOM      7  H   UNL A   1      29.180  24.725  24.475  1.00  0.00     0.347 HD
ATOM      8  H   UNL A   1      29.900  26.169  23.988  1.00  0.00     0.347 HD
BRANCH   6   9
ATOM      9  C   UNL A   1      30.695  24.509  23.114  1.00  0.00     0.257 C 
ATOM     10  C   UNL A   1      31.626  25.412  22.307  1.00  0.00     0.071 C 
ENDBRANCH   6   9
ENDBRANCH   5   6
BRANCH   5  11
ATOM     11  C   UNL A   1      30.602  24.020  26.453  1.00  0.00     0.139 C 
BRANCH  11  12
ATOM     12  C   UNL A   1      31.338  22.629  26.446  1.00  0.00     0.269 C 
BRANCH  12  13
ATOM     13  N   UNL A   1      32.816  22.385  26.442  1.00  0.00    -0.335 N 
ATOM     14  C   UNL A   1      33.300  22.468  27.829  1.00  0.00     0.332 C 
ATOM     15  H   UNL A   1      32.992  21.446  26.085  1.00  0.00     0.348 HD
BRANCH  13  16
ATOM     16  C   UNL A   1      33.569  23.217  25.490  1.00  0.00     0.183 C 
ATOM     17  C   UNL A   1      34.895  23.898  25.891  1.00  0.00     0.065 C 
ATOM     18  C   UNL A   1      33.872  22.334  24.287  1.00  0.00     0.065 C 
ATOM     19  C   UNL A   1      36.211  23.112  25.802  1.00  0.00     0.012 C 
ATOM     20  C   UNL A   1      35.030  21.400  24.462  1.00  0.00     0.012 C 
ATOM     21  C   UNL A   1      36.328  22.175  24.587  1.00  0.00    -0.035 C 
ATOM     22  C   UNL A   1      37.428  21.134  24.811  1.00  0.00     0.011 C 
ATOM     23  C   UNL A   1      36.620  22.951  23.284  1.00  0.00     0.011 C 
ENDBRANCH  13  16
ENDBRANCH  12  13
ENDBRANCH  11  12
ENDBRANCH   5  11
ENDBRANCH   3   5
ENDBRANCH   2   3
ENDBRANCH   1   2
BRANCH   1  24
ATOM     24  C   UNL A   1      31.741  29.790  25.721  1.00  0.00     0.275 C 
BRANCH  24  25
ATOM     25  O   UNL A   1      32.537  29.839  26.925  1.00  0.00    -0.458 OA
BRANCH  25  26
ATOM     26  C   UNL A   1      33.112  31.043  27.211  1.00  0.00     0.338 C 
ATOM     27  O   UNL A   1      32.529  32.115  27.286  1.00  0.00    -0.246 OA
BRANCH  26  28
ATOM     28  C   UNL A   1      34.555  30.855  27.543  1.00  0.00     0.060 A 
ATOM     29  C   UNL A   1      35.045  29.584  27.779  1.00  0.00     0.016 A 
ATOM     30  C   UNL A   1      35.409  31.942  27.767  1.00  0.00     0.016 A 
ATOM     31  C   UNL A   1      36.259  29.431  28.457  1.00  0.00     0.010 A 
ATOM     32  C   UNL A   1      36.703  31.748  28.313  1.00  0.00     0.010 A 
ATOM     33  C   UNL A   1      37.141  30.483  28.750  1.00  0.00    -0.014 A 
BRANCH  33  34
ATOM     34  C   UNL A   1      38.432  30.262  29.535  1.00  0.00     0.031 A 
ATOM     35  C   UNL A   1      39.564  29.402  28.976  1.00  0.00     0.074 A 
ATOM     36  C   UNL A   1      38.705  30.862  30.724  1.00  0.00     0.049 A 
ATOM     37  N   UNL A   1      40.508  28.743  29.609  1.00  0.00    -0.248 NA
ATOM     38  C   UNL A   1      39.650  29.279  27.512  1.00  0.00     0.031 C 
ATOM     39  C   UNL A   1      37.886  31.858  31.414  1.00  0.00     0.029 A 
ATOM     40  N   UNL A   1      39.788  30.722  31.578  1.00  0.00    -0.354 N 
ATOM     41  C   UNL A   1      41.222  28.043  28.637  1.00  0.00     0.074 A 
ATOM     42  C   UNL A   1      40.630  28.394  27.362  1.00  0.00     0.031 C 
ATOM     43  C   UNL A   1      38.530  32.324  32.487  1.00  0.00     0.029 A 
ATOM     44  C   UNL A   1      39.668  31.461  32.735  1.00  0.00     0.049 A 
ATOM     45  H   UNL A   1      40.566  30.153  31.377  1.00  0.00     0.167 HD
ATOM     46  C   UNL A   1      42.253  27.172  28.801  1.00  0.00     0.037 A 
ATOM     47  C   UNL A   1      40.265  31.375  33.941  1.00  0.00     0.037 A 
ATOM     48  C   UNL A   1      42.906  26.917  30.064  1.00  0.00     0.049 A 
ATOM     49  C   UNL A   1      41.288  30.306  34.169  1.00  0.00     0.074 A 
ATOM     50  C   UNL A   1      43.912  26.011  30.362  1.00  0.00     0.029 A 
ATOM     51  N   UNL A   1      42.643  27.608  31.238  1.00  0.00    -0.354 N 
ATOM     52  N   UNL A   1      41.792  29.453  33.316  1.00  0.00    -0.248 NA
ATOM     53  C   UNL A   1      41.790  30.157  35.542  1.00  0.00     0.031 C 
ATOM     54  C   UNL A   1      44.218  26.118  31.724  1.00  0.00     0.029 A 
ATOM     55  C   UNL A   1      43.449  27.135  32.262  1.00  0.00     0.049 A 
ATOM     56  H   UNL A   1      41.979  28.328  31.331  1.00  0.00     0.167 HD
ATOM     57  C   UNL A   1      42.684  28.677  34.039  1.00  0.00     0.074 A 
ATOM     58  C   UNL A   1      42.665  29.173  35.400  1.00  0.00     0.031 C 
ATOM     59  C   UNL A   1      43.442  27.640  33.611  1.00  0.00     0.037 A 
BRANCH  46  60
ATOM     60  C   UNL A   1      42.685  26.345  27.614  1.00  0.00     0.064 A 
ATOM     61  C   UNL A   1      42.088  25.125  27.269  1.00  0.00     0.173 A 
ATOM     62  C   UNL A   1      43.711  26.823  26.778  1.00  0.00     0.173 A 
ATOM     63  F   UNL A   1      41.104  24.616  28.024  1.00  0.00    -0.203 F 
ATOM     64  C   UNL A   1      42.527  24.398  26.159  1.00  0.00     0.198 A 
ATOM     65  C   UNL A   1      44.123  26.112  25.652  1.00  0.00     0.198 A 
ATOM     66  F   UNL A   1      44.307  27.995  27.042  1.00  0.00    -0.203 F 
ATOM     67  F   UNL A   1      41.977  23.208  25.880  1.00  0.00    -0.200 F 
ATOM     68  C   UNL A   1      43.539  24.893  25.351  1.00  0.00     0.200 A 
ATOM     69  F   UNL A   1      45.088  26.607  24.864  1.00  0.00    -0.200 F 
ATOM     70  F   UNL A   1      43.958  24.193  24.287  1.00  0.00    -0.200 F 
ENDBRANCH  46  60
BRANCH  47  71
ATOM     71  C   UNL A   1      39.772  32.214  35.075  1.00  0.00     0.064 A 
ATOM     72  C   UNL A   1      40.256  33.511  35.290  1.00  0.00     0.173 A 
ATOM     73  C   UNL A   1      38.800  31.730  35.970  1.00  0.00     0.173 A 
ATOM     74  F   UNL A   1      41.212  34.008  34.492  1.00  0.00    -0.203 F 
ATOM     75  C   UNL A   1      39.785  34.288  36.349  1.00  0.00     0.198 A 
ATOM     76  C   UNL A   1      38.295  32.525  36.995  1.00  0.00     0.198 A 
ATOM     77  F   UNL A   1      38.308  30.490  35.826  1.00  0.00    -0.203 F 
ATOM     78  F   UNL A   1      40.301  35.506  36.562  1.00  0.00    -0.200 F 
ATOM     79  C   UNL A   1      38.796  33.801  37.191  1.00  0.00     0.200 A 
ATOM     80  F   UNL A   1      37.319  32.056  37.784  1.00  0.00    -0.200 F 
ATOM     81  F   UNL A   1      38.330  34.557  38.193  1.00  0.00    -0.200 F 
ENDBRANCH  47  71
BRANCH  59  82
ATOM     82  C   UNL A   1      44.368  27.017  34.612  1.00  0.00     0.064 A 
ATOM     83  C   UNL A   1      45.673  27.489  34.810  1.00  0.00     0.173 A 
ATOM     84  C   UNL A   1      43.936  25.931  35.388  1.00  0.00     0.173 A 
ATOM     85  F   UNL A   1      46.141  28.508  34.072  1.00  0.00    -0.203 F 
ATOM     86  C   UNL A   1      46.521  26.881  35.730  1.00  0.00     0.198 A 
ATOM     87  C   UNL A   1      44.776  25.345  36.330  1.00  0.00     0.198 A 
ATOM     88  F   UNL A   1      42.698  25.438  35.234  1.00  0.00    -0.203 F 
ATOM     89  F   UNL A   1      47.784  27.311  35.861  1.00  0.00    -0.200 F 
ATOM     90  C   UNL A   1      46.071  25.815  36.495  1.00  0.00     0.200 A 
ATOM     91  F   UNL A   1      44.336  24.320  37.074  1.00  0.00    -0.200 F 
ATOM     92  F   UNL A   1      46.889  25.232  37.383  1.00  0.00    -0.200 F 
ENDBRANCH  59  82
ENDBRANCH  33  34
ENDBRANCH  26  28
ENDBRANCH  25  26
ENDBRANCH  24  25
ENDBRANCH   1  24
TORSDOF 17
ENDMDL
