MODEL 1
REMARK VINA RESULT:     -12.7      0.000      0.000
REMARK SMILES CC1=C2C(CSc3c(Cl)cccc3Cl)=CC(=O)N=C2S[C@H]1C(=O)OCCOC(=O)c1ccc(-c2c3nc(c(-c4c(F)c(F)c(F)c(F)c4F)c4ccc([nH]4)c(-c4c(F)c(F)c(F)c(F)c4F)c4nc(c(-c5c(F)c(F)c(F)c(F)c5F)c5ccc2[nH]5)C=C4)C=C3)cc1
REMARK SMILES IDX 25 1 24 2 22 3 23 4 21 5 1 6 2 7 3 8 4 9 19 10 20 11 15 12
REMARK SMILES IDX 18 13 16 14 17 15 5 16 6 17 7 18 8 19 13 20 9 21 10 22 12 23
REMARK SMILES IDX 14 24 11 25 26 26 27 27 28 28 29 29 30 30 31 31 92 32 32 33
REMARK SMILES IDX 91 34 33 35 34 36 35 37 85 38 36 39 90 40 84 41 86 42 37 43
REMARK SMILES IDX 89 44 83 45 82 46 38 48 70 49 50 50 69 51 51 52 54 53 68 54
REMARK SMILES IDX 87 55 52 56 53 57 67 59 88 60 55 61 39 62 40 63 48 64 41 65
REMARK SMILES IDX 42 66 46 67 49 68 43 69 44 70 47 71 45 72 71 73 72 74 80 75
REMARK SMILES IDX 73 76 74 77 78 78 81 79 75 80 76 81 79 82 77 83 56 84 57 85
REMARK SMILES IDX 65 86 58 87 59 88 63 89 66 90 60 91 61 92 64 93 62 94
REMARK H PARENT 86 47 54 58
REMARK Flexibility Score: inf
ROOT
ATOM      1  C   UNL A   1      35.925  20.314  25.008  1.00  0.00     0.274 C 
ENDROOT
BRANCH   1   2
ATOM      2  O   UNL A   1      34.939  21.075  24.282  1.00  0.00    -0.461 OA
BRANCH   2   3
ATOM      3  C   UNL A   1      33.865  21.570  24.964  1.00  0.00     0.323 C 
ATOM      4  O   UNL A   1      32.694  21.353  24.668  1.00  0.00    -0.251 OA
BRANCH   3   5
ATOM      5  C   UNL A   1      34.283  22.415  26.185  1.00  0.00     0.189 C 
ATOM      6  C   UNL A   1      35.569  24.452  25.303  1.00  0.00     0.042 C 
ATOM      7  C   UNL A   1      34.313  23.904  25.902  1.00  0.00    -0.039 C 
ATOM      8  C   UNL A   1      33.192  24.579  26.214  1.00  0.00     0.012 C 
ATOM      9  C   UNL A   1      32.740  25.947  26.070  1.00  0.00    -0.022 C 
ATOM     10  C   UNL A   1      32.240  23.685  26.929  1.00  0.00     0.109 C 
ATOM     11  S   UNL A   1      33.027  22.237  27.493  1.00  0.00    -0.086 SA
ATOM     12  C   UNL A   1      31.431  26.162  26.322  1.00  0.00     0.079 C 
ATOM     13  N   UNL A   1      30.998  23.906  27.156  1.00  0.00    -0.202 NA
ATOM     14  C   UNL A   1      30.474  25.066  26.648  1.00  0.00     0.271 C 
ATOM     15  O   UNL A   1      29.272  25.265  26.512  1.00  0.00    -0.267 OA
BRANCH   9  16
ATOM     16  C   UNL A   1      33.674  27.091  25.764  1.00  0.00     0.111 C 
BRANCH  16  17
ATOM     17  S   UNL A   1      33.736  27.548  23.996  1.00  0.00    -0.118 SA
BRANCH  17  18
ATOM     18  C   UNL A   1      32.058  28.147  23.719  1.00  0.00     0.045 A 
ATOM     19  C   UNL A   1      31.215  27.562  22.751  1.00  0.00     0.056 A 
ATOM     20  C   UNL A   1      31.585  29.299  24.382  1.00  0.00     0.056 A 
ATOM     21  Cl  UNL A   1      31.668  26.160  21.835  1.00  0.00    -0.083 Cl
ATOM     22  C   UNL A   1      29.956  28.108  22.461  1.00  0.00     0.022 A 
ATOM     23  C   UNL A   1      30.329  29.842  24.081  1.00  0.00     0.022 A 
ATOM     24  Cl  UNL A   1      32.508  30.135  25.588  1.00  0.00    -0.083 Cl
ATOM     25  C   UNL A   1      29.517  29.251  23.118  1.00  0.00     0.003 A 
ENDBRANCH  17  18
ENDBRANCH  16  17
ENDBRANCH   9  16
ENDBRANCH   3   5
ENDBRANCH   2   3
ENDBRANCH   1   2
BRANCH   1  26
ATOM     26  C   UNL A   1      37.347  20.804  24.717  1.00  0.00     0.275 C 
BRANCH  26  27
ATOM     27  O   UNL A   1      37.820  21.688  25.750  1.00  0.00    -0.458 OA
BRANCH  27  28
ATOM     28  C   UNL A   1      39.071  21.424  26.180  1.00  0.00     0.338 C 
ATOM     29  O   UNL A   1      39.676  20.368  26.088  1.00  0.00    -0.246 OA
BRANCH  28  30
ATOM     30  C   UNL A   1      39.703  22.642  26.705  1.00  0.00     0.060 A 
ATOM     31  C   UNL A   1      39.274  23.864  26.184  1.00  0.00     0.016 A 
ATOM     32  C   UNL A   1      40.755  22.587  27.619  1.00  0.00     0.016 A 
ATOM     33  C   UNL A   1      39.923  25.041  26.530  1.00  0.00     0.010 A 
ATOM     34  C   UNL A   1      41.395  23.773  27.986  1.00  0.00     0.010 A 
ATOM     35  C   UNL A   1      40.994  25.000  27.429  1.00  0.00    -0.014 A 
BRANCH  35  36
ATOM     36  C   UNL A   1      41.709  26.247  27.773  1.00  0.00     0.031 A 
ATOM     37  C   UNL A   1      41.015  27.304  28.576  1.00  0.00     0.074 A 
ATOM     38  C   UNL A   1      42.977  26.416  27.363  1.00  0.00     0.049 A 
ATOM     39  N   UNL A   1      41.416  28.513  28.875  1.00  0.00    -0.248 NA
ATOM     40  C   UNL A   1      39.691  26.956  29.113  1.00  0.00     0.031 C 
ATOM     41  C   UNL A   1      43.763  25.425  26.624  1.00  0.00     0.029 A 
ATOM     42  N   UNL A   1      43.823  27.484  27.497  1.00  0.00    -0.354 N 
ATOM     43  C   UNL A   1      40.387  29.078  29.615  1.00  0.00     0.074 A 
ATOM     44  C   UNL A   1      39.337  28.085  29.712  1.00  0.00     0.031 C 
ATOM     45  C   UNL A   1      44.974  25.939  26.359  1.00  0.00     0.029 A 
ATOM     46  C   UNL A   1      45.028  27.307  26.863  1.00  0.00     0.049 A 
ATOM     47  H   UNL A   1      43.591  28.299  27.999  1.00  0.00     0.167 HD
ATOM     48  C   UNL A   1      40.331  30.315  30.161  1.00  0.00     0.037 A 
ATOM     49  C   UNL A   1      46.043  28.171  26.678  1.00  0.00     0.037 A 
ATOM     50  C   UNL A   1      41.389  31.288  30.066  1.00  0.00     0.049 A 
ATOM     51  C   UNL A   1      45.929  29.561  27.238  1.00  0.00     0.074 A 
ATOM     52  C   UNL A   1      41.437  32.568  30.588  1.00  0.00     0.029 A 
ATOM     53  N   UNL A   1      42.589  31.082  29.398  1.00  0.00    -0.354 N 
ATOM     54  N   UNL A   1      44.948  30.097  27.925  1.00  0.00    -0.248 NA
ATOM     55  C   UNL A   1      47.058  30.468  26.993  1.00  0.00     0.031 C 
ATOM     56  C   UNL A   1      42.650  33.151  30.202  1.00  0.00     0.029 A 
ATOM     57  C   UNL A   1      43.377  32.219  29.479  1.00  0.00     0.049 A 
ATOM     58  H   UNL A   1      42.842  30.251  28.935  1.00  0.00     0.167 HD
ATOM     59  C   UNL A   1      45.351  31.392  28.216  1.00  0.00     0.074 A 
ATOM     60  C   UNL A   1      46.668  31.559  27.638  1.00  0.00     0.031 C 
ATOM     61  C   UNL A   1      44.690  32.357  28.903  1.00  0.00     0.037 A 
BRANCH  48  62
ATOM     62  C   UNL A   1      39.073  30.698  30.883  1.00  0.00     0.064 A 
ATOM     63  C   UNL A   1      38.935  30.531  32.268  1.00  0.00     0.173 A 
ATOM     64  C   UNL A   1      38.001  31.267  30.179  1.00  0.00     0.173 A 
ATOM     65  F   UNL A   1      39.924  29.974  32.983  1.00  0.00    -0.203 F 
ATOM     66  C   UNL A   1      37.760  30.899  32.919  1.00  0.00     0.198 A 
ATOM     67  C   UNL A   1      36.838  31.657  30.837  1.00  0.00     0.198 A 
ATOM     68  F   UNL A   1      38.083  31.449  28.853  1.00  0.00    -0.203 F 
ATOM     69  F   UNL A   1      37.632  30.689  34.238  1.00  0.00    -0.200 F 
ATOM     70  C   UNL A   1      36.715  31.467  32.205  1.00  0.00     0.200 A 
ATOM     71  F   UNL A   1      35.833  32.213  30.147  1.00  0.00    -0.200 F 
ATOM     72  F   UNL A   1      35.587  31.823  32.835  1.00  0.00    -0.200 F 
ENDBRANCH  48  62
BRANCH  49  73
ATOM     73  C   UNL A   1      47.239  27.746  25.909  1.00  0.00     0.064 A 
ATOM     74  C   UNL A   1      48.400  27.313  26.563  1.00  0.00     0.173 A 
ATOM     75  C   UNL A   1      47.241  27.751  24.507  1.00  0.00     0.173 A 
ATOM     76  F   UNL A   1      48.451  27.312  27.903  1.00  0.00    -0.203 F 
ATOM     77  C   UNL A   1      49.523  26.911  25.842  1.00  0.00     0.198 A 
ATOM     78  C   UNL A   1      48.354  27.323  23.787  1.00  0.00     0.198 A 
ATOM     79  F   UNL A   1      46.153  28.155  23.835  1.00  0.00    -0.203 F 
ATOM     80  F   UNL A   1      50.632  26.534  26.492  1.00  0.00    -0.200 F 
ATOM     81  C   UNL A   1      49.496  26.909  24.456  1.00  0.00     0.200 A 
ATOM     82  F   UNL A   1      48.320  27.311  22.447  1.00  0.00    -0.200 F 
ATOM     83  F   UNL A   1      50.574  26.514  23.764  1.00  0.00    -0.200 F 
ENDBRANCH  49  73
BRANCH  61  84
ATOM     84  C   UNL A   1      45.400  33.662  29.100  1.00  0.00     0.064 A 
ATOM     85  C   UNL A   1      45.240  34.729  28.205  1.00  0.00     0.173 A 
ATOM     86  C   UNL A   1      46.222  33.857  30.220  1.00  0.00     0.173 A 
ATOM     87  F   UNL A   1      44.478  34.584  27.110  1.00  0.00    -0.203 F 
ATOM     88  C   UNL A   1      45.893  35.940  28.414  1.00  0.00     0.198 A 
ATOM     89  C   UNL A   1      46.853  35.078  30.440  1.00  0.00     0.198 A 
ATOM     90  F   UNL A   1      46.403  32.867  31.107  1.00  0.00    -0.203 F 
ATOM     91  F   UNL A   1      45.759  36.934  27.525  1.00  0.00    -0.200 F 
ATOM     92  C   UNL A   1      46.693  36.116  29.534  1.00  0.00     0.200 A 
ATOM     93  F   UNL A   1      47.617  35.250  31.528  1.00  0.00    -0.200 F 
ATOM     94  F   UNL A   1      47.315  37.285  29.738  1.00  0.00    -0.200 F 
ENDBRANCH  61  84
ENDBRANCH  35  36
ENDBRANCH  28  30
ENDBRANCH  27  28
ENDBRANCH  26  27
ENDBRANCH   1  26
TORSDOF 14
ENDMDL
MODEL 2
REMARK VINA RESULT:     -12.7      0.158      1.924
REMARK SMILES CC1=C2C(CSc3c(Cl)cccc3Cl)=CC(=O)N=C2S[C@H]1C(=O)OCCOC(=O)c1ccc(-c2c3nc(c(-c4c(F)c(F)c(F)c(F)c4F)c4ccc([nH]4)c(-c4c(F)c(F)c(F)c(F)c4F)c4nc(c(-c5c(F)c(F)c(F)c(F)c5F)c5ccc2[nH]5)C=C4)C=C3)cc1
REMARK SMILES IDX 25 1 24 2 22 3 23 4 21 5 1 6 2 7 3 8 4 9 19 10 20 11 15 12
REMARK SMILES IDX 18 13 16 14 17 15 5 16 6 17 7 18 8 19 13 20 9 21 10 22 12 23
REMARK SMILES IDX 14 24 11 25 26 26 27 27 28 28 29 29 30 30 31 31 92 32 32 33
REMARK SMILES IDX 91 34 33 35 34 36 35 37 85 38 36 39 90 40 84 41 86 42 37 43
REMARK SMILES IDX 89 44 83 45 82 46 38 48 70 49 50 50 69 51 51 52 54 53 68 54
REMARK SMILES IDX 87 55 52 56 53 57 67 59 88 60 55 61 39 62 40 63 48 64 41 65
REMARK SMILES IDX 42 66 46 67 49 68 43 69 44 70 47 71 45 72 71 73 72 74 80 75
REMARK SMILES IDX 73 76 74 77 78 78 81 79 75 80 76 81 79 82 77 83 56 84 57 85
REMARK SMILES IDX 65 86 58 87 59 88 63 89 66 90 60 91 61 92 64 93 62 94
REMARK H PARENT 86 47 54 58
REMARK Flexibility Score: inf
ROOT
ATOM      1  C   UNL A   1      35.967  20.315  25.029  1.00  0.00     0.274 C 
ENDROOT
BRANCH   1   2
ATOM      2  O   UNL A   1      34.973  21.067  24.306  1.00  0.00    -0.461 OA
BRANCH   2   3
ATOM      3  C   UNL A   1      33.889  21.540  24.989  1.00  0.00     0.323 C 
ATOM      4  O   UNL A   1      32.723  21.303  24.692  1.00  0.00    -0.251 OA
BRANCH   3   5
ATOM      5  C   UNL A   1      34.291  22.390  26.211  1.00  0.00     0.189 C 
ATOM      6  C   UNL A   1      35.568  24.437  25.336  1.00  0.00     0.042 C 
ATOM      7  C   UNL A   1      34.312  23.880  25.927  1.00  0.00    -0.039 C 
ATOM      8  C   UNL A   1      33.183  24.546  26.230  1.00  0.00     0.012 C 
ATOM      9  C   UNL A   1      32.722  25.910  26.081  1.00  0.00    -0.022 C 
ATOM     10  C   UNL A   1      32.233  23.645  26.938  1.00  0.00     0.109 C 
ATOM     11  S   UNL A   1      33.027  22.204  27.511  1.00  0.00    -0.086 SA
ATOM     12  C   UNL A   1      31.409  26.115  26.322  1.00  0.00     0.079 C 
ATOM     13  N   UNL A   1      30.988  23.856  27.156  1.00  0.00    -0.202 NA
ATOM     14  C   UNL A   1      30.458  25.012  26.643  1.00  0.00     0.271 C 
ATOM     15  O   UNL A   1      29.256  25.200  26.497  1.00  0.00    -0.267 OA
BRANCH   9  16
ATOM     16  C   UNL A   1      33.648  27.061  25.780  1.00  0.00     0.111 C 
BRANCH  16  17
ATOM     17  S   UNL A   1      33.743  27.497  24.008  1.00  0.00    -0.118 SA
BRANCH  17  18
ATOM     18  C   UNL A   1      32.059  28.053  23.682  1.00  0.00     0.045 A 
ATOM     19  C   UNL A   1      31.253  27.435  22.704  1.00  0.00     0.056 A 
ATOM     20  C   UNL A   1      31.545  29.204  24.317  1.00  0.00     0.056 A 
ATOM     21  Cl  UNL A   1      31.758  26.031  21.820  1.00  0.00    -0.083 Cl
ATOM     22  C   UNL A   1      29.989  27.948  22.376  1.00  0.00     0.022 A 
ATOM     23  C   UNL A   1      30.284  29.714  23.978  1.00  0.00     0.022 A 
ATOM     24  Cl  UNL A   1      32.420  30.078  25.531  1.00  0.00    -0.083 Cl
ATOM     25  C   UNL A   1      29.509  29.091  23.005  1.00  0.00     0.003 A 
ENDBRANCH  17  18
ENDBRANCH  16  17
ENDBRANCH   9  16
ENDBRANCH   3   5
ENDBRANCH   2   3
ENDBRANCH   1   2
BRANCH   1  26
ATOM     26  C   UNL A   1      37.384  20.815  24.733  1.00  0.00     0.275 C 
BRANCH  26  27
ATOM     27  O   UNL A   1      37.850  21.712  25.758  1.00  0.00    -0.458 OA
BRANCH  27  28
ATOM     28  C   UNL A   1      39.099  21.457  26.197  1.00  0.00     0.338 C 
ATOM     29  O   UNL A   1      39.705  20.399  26.126  1.00  0.00    -0.246 OA
BRANCH  28  30
ATOM     30  C   UNL A   1      39.729  22.684  26.701  1.00  0.00     0.060 A 
ATOM     31  C   UNL A   1      39.311  23.896  26.146  1.00  0.00     0.016 A 
ATOM     32  C   UNL A   1      40.770  22.646  27.629  1.00  0.00     0.016 A 
ATOM     33  C   UNL A   1      39.961  25.077  26.473  1.00  0.00     0.010 A 
ATOM     34  C   UNL A   1      41.410  23.838  27.976  1.00  0.00     0.010 A 
ATOM     35  C   UNL A   1      41.021  25.053  27.386  1.00  0.00    -0.014 A 
BRANCH  35  36
ATOM     36  C   UNL A   1      41.736  26.305  27.710  1.00  0.00     0.031 A 
ATOM     37  C   UNL A   1      41.042  27.378  28.493  1.00  0.00     0.074 A 
ATOM     38  C   UNL A   1      43.006  26.466  27.299  1.00  0.00     0.049 A 
ATOM     39  N   UNL A   1      41.443  28.591  28.771  1.00  0.00    -0.248 NA
ATOM     40  C   UNL A   1      39.716  27.040  29.033  1.00  0.00     0.031 C 
ATOM     41  C   UNL A   1      43.791  25.461  26.580  1.00  0.00     0.029 A 
ATOM     42  N   UNL A   1      43.852  27.536  27.416  1.00  0.00    -0.354 N 
ATOM     43  C   UNL A   1      40.414  29.170  29.499  1.00  0.00     0.074 A 
ATOM     44  C   UNL A   1      39.363  28.180  29.611  1.00  0.00     0.031 C 
ATOM     45  C   UNL A   1      45.003  25.970  26.308  1.00  0.00     0.029 A 
ATOM     46  C   UNL A   1      45.058  27.347  26.788  1.00  0.00     0.049 A 
ATOM     47  H   UNL A   1      43.620  28.360  27.903  1.00  0.00     0.167 HD
ATOM     48  C   UNL A   1      40.358  30.416  30.024  1.00  0.00     0.037 A 
ATOM     49  C   UNL A   1      46.074  28.206  26.590  1.00  0.00     0.037 A 
ATOM     50  C   UNL A   1      41.417  31.386  29.913  1.00  0.00     0.049 A 
ATOM     51  C   UNL A   1      45.960  29.606  27.125  1.00  0.00     0.074 A 
ATOM     52  C   UNL A   1      41.465  32.676  30.413  1.00  0.00     0.029 A 
ATOM     53  N   UNL A   1      42.618  31.168  29.252  1.00  0.00    -0.354 N 
ATOM     54  N   UNL A   1      44.979  30.155  27.801  1.00  0.00    -0.248 NA
ATOM     55  C   UNL A   1      47.091  30.508  26.867  1.00  0.00     0.031 C 
ATOM     56  C   UNL A   1      42.680  33.250  30.020  1.00  0.00     0.029 A 
ATOM     57  C   UNL A   1      43.406  32.305  29.314  1.00  0.00     0.049 A 
ATOM     58  H   UNL A   1      42.871  30.328  28.804  1.00  0.00     0.167 HD
ATOM     59  C   UNL A   1      45.382  31.454  28.071  1.00  0.00     0.074 A 
ATOM     60  C   UNL A   1      46.701  31.610  27.492  1.00  0.00     0.031 C 
ATOM     61  C   UNL A   1      44.721  32.432  28.739  1.00  0.00     0.037 A 
BRANCH  48  62
ATOM     62  C   UNL A   1      39.098  30.813  30.736  1.00  0.00     0.064 A 
ATOM     63  C   UNL A   1      38.025  31.412  30.061  1.00  0.00     0.173 A 
ATOM     64  C   UNL A   1      38.955  30.564  32.109  1.00  0.00     0.173 A 
ATOM     65  F   UNL A   1      38.120  31.688  28.751  1.00  0.00    -0.203 F 
ATOM     66  C   UNL A   1      36.862  31.767  30.740  1.00  0.00     0.198 A 
ATOM     67  C   UNL A   1      37.781  30.898  32.779  1.00  0.00     0.198 A 
ATOM     68  F   UNL A   1      39.952  29.993  32.801  1.00  0.00    -0.203 F 
ATOM     69  F   UNL A   1      35.865  32.379  30.084  1.00  0.00    -0.200 F 
ATOM     70  C   UNL A   1      36.738  31.505  32.096  1.00  0.00     0.200 A 
ATOM     71  F   UNL A   1      37.661  30.637  34.088  1.00  0.00    -0.200 F 
ATOM     72  F   UNL A   1      35.617  31.845  32.746  1.00  0.00    -0.200 F 
ENDBRANCH  48  62
BRANCH  49  73
ATOM     73  C   UNL A   1      47.272  27.767  25.831  1.00  0.00     0.064 A 
ATOM     74  C   UNL A   1      47.291  27.805  24.431  1.00  0.00     0.173 A 
ATOM     75  C   UNL A   1      48.424  27.315  26.490  1.00  0.00     0.173 A 
ATOM     76  F   UNL A   1      46.204  28.209  23.757  1.00  0.00    -0.203 F 
ATOM     77  C   UNL A   1      48.416  27.395  23.717  1.00  0.00     0.198 A 
ATOM     78  C   UNL A   1      49.557  26.932  25.776  1.00  0.00     0.198 A 
ATOM     79  F   UNL A   1      48.456  27.263  27.830  1.00  0.00    -0.203 F 
ATOM     80  F   UNL A   1      48.396  27.407  22.377  1.00  0.00    -0.200 F 
ATOM     81  C   UNL A   1      49.550  26.967  24.390  1.00  0.00     0.200 A 
ATOM     82  F   UNL A   1      50.656  26.531  26.431  1.00  0.00    -0.200 F 
ATOM     83  F   UNL A   1      50.633  26.581  23.702  1.00  0.00    -0.200 F 
ENDBRANCH  49  73
BRANCH  61  84
ATOM     84  C   UNL A   1      45.432  33.739  28.915  1.00  0.00     0.064 A 
ATOM     85  C   UNL A   1      46.274  33.976  30.011  1.00  0.00     0.173 A 
ATOM     86  C   UNL A   1      45.296  34.753  27.955  1.00  0.00     0.173 A 
ATOM     87  F   UNL A   1      46.422  33.043  30.963  1.00  0.00    -0.203 F 
ATOM     88  C   UNL A   1      46.941  35.190  30.148  1.00  0.00     0.198 A 
ATOM     89  C   UNL A   1      45.985  35.955  28.082  1.00  0.00     0.198 A 
ATOM     90  F   UNL A   1      44.505  34.571  26.887  1.00  0.00    -0.203 F 
ATOM     91  F   UNL A   1      47.710  35.412  31.224  1.00  0.00    -0.200 F 
ATOM     92  C   UNL A   1      46.802  36.175  29.182  1.00  0.00     0.200 A 
ATOM     93  F   UNL A   1      45.857  36.903  27.143  1.00  0.00    -0.200 F 
ATOM     94  F   UNL A   1      47.449  37.341  29.312  1.00  0.00    -0.200 F 
ENDBRANCH  61  84
ENDBRANCH  35  36
ENDBRANCH  28  30
ENDBRANCH  27  28
ENDBRANCH  26  27
ENDBRANCH   1  26
TORSDOF 14
ENDMDL
MODEL 3
REMARK VINA RESULT:     -12.7      4.439      9.821
REMARK SMILES CC1=C2C(CSc3c(Cl)cccc3Cl)=CC(=O)N=C2S[C@H]1C(=O)OCCOC(=O)c1ccc(-c2c3nc(c(-c4c(F)c(F)c(F)c(F)c4F)c4ccc([nH]4)c(-c4c(F)c(F)c(F)c(F)c4F)c4nc(c(-c5c(F)c(F)c(F)c(F)c5F)c5ccc2[nH]5)C=C4)C=C3)cc1
REMARK SMILES IDX 25 1 24 2 22 3 23 4 21 5 1 6 2 7 3 8 4 9 19 10 20 11 15 12
REMARK SMILES IDX 18 13 16 14 17 15 5 16 6 17 7 18 8 19 13 20 9 21 10 22 12 23
REMARK SMILES IDX 14 24 11 25 26 26 27 27 28 28 29 29 30 30 31 31 92 32 32 33
REMARK SMILES IDX 91 34 33 35 34 36 35 37 85 38 36 39 90 40 84 41 86 42 37 43
REMARK SMILES IDX 89 44 83 45 82 46 38 48 70 49 50 50 69 51 51 52 54 53 68 54
REMARK SMILES IDX 87 55 52 56 53 57 67 59 88 60 55 61 39 62 40 63 48 64 41 65
REMARK SMILES IDX 42 66 46 67 49 68 43 69 44 70 47 71 45 72 71 73 72 74 80 75
REMARK SMILES IDX 73 76 74 77 78 78 81 79 75 80 76 81 79 82 77 83 56 84 57 85
REMARK SMILES IDX 65 86 58 87 59 88 63 89 66 90 60 91 61 92 64 93 62 94
REMARK H PARENT 86 47 54 58
REMARK Flexibility Score: inf
ROOT
ATOM      1  C   UNL A   1      31.164  30.416  25.040  1.00  0.00     0.274 C 
ENDROOT
BRANCH   1   2
ATOM      2  O   UNL A   1      30.731  29.041  25.023  1.00  0.00    -0.461 OA
BRANCH   2   3
ATOM      3  C   UNL A   1      31.264  28.201  24.086  1.00  0.00     0.323 C 
ATOM      4  O   UNL A   1      30.603  27.498  23.329  1.00  0.00    -0.251 OA
BRANCH   3   5
ATOM      5  C   UNL A   1      32.804  28.256  24.057  1.00  0.00     0.189 C 
ATOM      6  C   UNL A   1      33.649  27.216  26.246  1.00  0.00     0.042 C 
ATOM      7  C   UNL A   1      33.460  27.087  24.768  1.00  0.00    -0.039 C 
ATOM      8  C   UNL A   1      33.795  26.045  23.986  1.00  0.00     0.012 C 
ATOM      9  C   UNL A   1      34.360  24.730  24.210  1.00  0.00    -0.022 C 
ATOM     10  C   UNL A   1      33.574  26.388  22.555  1.00  0.00     0.109 C 
ATOM     11  S   UNL A   1      33.376  28.105  22.334  1.00  0.00    -0.086 SA
ATOM     12  C   UNL A   1      34.332  23.892  23.152  1.00  0.00     0.079 C 
ATOM     13  N   UNL A   1      33.549  25.577  21.563  1.00  0.00    -0.202 NA
ATOM     14  C   UNL A   1      33.693  24.244  21.851  1.00  0.00     0.271 C 
ATOM     15  O   UNL A   1      33.385  23.346  21.076  1.00  0.00    -0.267 OA
BRANCH   9  16
ATOM     16  C   UNL A   1      35.036  24.337  25.499  1.00  0.00     0.111 C 
BRANCH  16  17
ATOM     17  S   UNL A   1      33.976  23.370  26.630  1.00  0.00    -0.118 SA
BRANCH  17  18
ATOM     18  C   UNL A   1      33.733  21.851  25.688  1.00  0.00     0.045 A 
ATOM     19  C   UNL A   1      32.445  21.407  25.322  1.00  0.00     0.056 A 
ATOM     20  C   UNL A   1      34.822  21.003  25.398  1.00  0.00     0.056 A 
ATOM     21  Cl  UNL A   1      31.009  22.327  25.638  1.00  0.00    -0.083 Cl
ATOM     22  C   UNL A   1      32.258  20.168  24.693  1.00  0.00     0.022 A 
ATOM     23  C   UNL A   1      34.624  19.762  24.775  1.00  0.00     0.022 A 
ATOM     24  Cl  UNL A   1      36.460  21.405  25.794  1.00  0.00    -0.083 Cl
ATOM     25  C   UNL A   1      33.344  19.342  24.428  1.00  0.00     0.003 A 
ENDBRANCH  17  18
ENDBRANCH  16  17
ENDBRANCH   9  16
ENDBRANCH   3   5
ENDBRANCH   2   3
ENDBRANCH   1   2
BRANCH   1  26
ATOM     26  C   UNL A   1      31.597  30.857  26.441  1.00  0.00     0.275 C 
BRANCH  26  27
ATOM     27  O   UNL A   1      33.029  30.824  26.583  1.00  0.00    -0.458 OA
BRANCH  27  28
ATOM     28  C   UNL A   1      33.543  31.852  27.289  1.00  0.00     0.338 C 
ATOM     29  O   UNL A   1      33.015  32.928  27.517  1.00  0.00    -0.246 OA
BRANCH  28  30
ATOM     30  C   UNL A   1      34.835  31.477  27.880  1.00  0.00     0.060 A 
ATOM     31  C   UNL A   1      34.964  30.174  28.367  1.00  0.00     0.016 A 
ATOM     32  C   UNL A   1      35.866  32.402  28.038  1.00  0.00     0.016 A 
ATOM     33  C   UNL A   1      36.104  29.796  29.062  1.00  0.00     0.010 A 
ATOM     34  C   UNL A   1      37.024  32.016  28.717  1.00  0.00     0.010 A 
ATOM     35  C   UNL A   1      37.138  30.719  29.247  1.00  0.00    -0.014 A 
BRANCH  35  36
ATOM     36  C   UNL A   1      38.339  30.329  30.017  1.00  0.00     0.031 A 
ATOM     37  C   UNL A   1      39.326  29.373  29.420  1.00  0.00     0.074 A 
ATOM     38  C   UNL A   1      38.532  30.841  31.244  1.00  0.00     0.049 A 
ATOM     39  N   UNL A   1      40.369  28.809  29.972  1.00  0.00    -0.248 NA
ATOM     40  C   UNL A   1      39.108  28.999  28.014  1.00  0.00     0.031 C 
ATOM     41  C   UNL A   1      37.661  31.822  31.894  1.00  0.00     0.029 A 
ATOM     42  N   UNL A   1      39.514  30.597  32.167  1.00  0.00    -0.354 N 
ATOM     43  C   UNL A   1      40.921  27.997  28.990  1.00  0.00     0.074 A 
ATOM     44  C   UNL A   1      40.091  28.132  27.811  1.00  0.00     0.031 C 
ATOM     45  C   UNL A   1      38.142  32.088  33.118  1.00  0.00     0.029 A 
ATOM     46  C   UNL A   1      39.320  31.259  33.354  1.00  0.00     0.049 A 
ATOM     47  H   UNL A   1      40.283  30.007  31.997  1.00  0.00     0.167 HD
ATOM     48  C   UNL A   1      42.021  27.213  29.074  1.00  0.00     0.037 A 
ATOM     49  C   UNL A   1      39.999  31.173  34.513  1.00  0.00     0.037 A 
ATOM     50  C   UNL A   1      42.842  27.099  30.251  1.00  0.00     0.049 A 
ATOM     51  C   UNL A   1      41.177  30.245  34.601  1.00  0.00     0.074 A 
ATOM     52  C   UNL A   1      43.982  26.338  30.441  1.00  0.00     0.029 A 
ATOM     53  N   UNL A   1      42.606  27.769  31.444  1.00  0.00    -0.354 N 
ATOM     54  N   UNL A   1      41.687  29.468  33.675  1.00  0.00    -0.248 NA
ATOM     55  C   UNL A   1      41.871  30.176  35.893  1.00  0.00     0.031 C 
ATOM     56  C   UNL A   1      44.412  26.517  31.761  1.00  0.00     0.029 A 
ATOM     57  C   UNL A   1      43.567  27.424  32.380  1.00  0.00     0.049 A 
ATOM     58  H   UNL A   1      41.863  28.396  31.601  1.00  0.00     0.167 HD
ATOM     59  C   UNL A   1      42.775  28.838  34.263  1.00  0.00     0.074 A 
ATOM     60  C   UNL A   1      42.856  29.330  35.623  1.00  0.00     0.031 C 
ATOM     61  C   UNL A   1      43.632  27.936  33.725  1.00  0.00     0.037 A 
BRANCH  48  62
ATOM     62  C   UNL A   1      42.381  26.393  27.870  1.00  0.00     0.064 A 
ATOM     63  C   UNL A   1      43.325  26.833  26.931  1.00  0.00     0.173 A 
ATOM     64  C   UNL A   1      41.791  25.136  27.670  1.00  0.00     0.173 A 
ATOM     65  F   UNL A   1      43.903  28.036  27.068  1.00  0.00    -0.203 F 
ATOM     66  C   UNL A   1      43.649  26.053  25.824  1.00  0.00     0.198 A 
ATOM     67  C   UNL A   1      42.136  24.348  26.576  1.00  0.00     0.198 A 
ATOM     68  F   UNL A   1      40.883  24.669  28.540  1.00  0.00    -0.203 F 
ATOM     69  F   UNL A   1      44.521  26.512  24.915  1.00  0.00    -0.200 F 
ATOM     70  C   UNL A   1      43.060  24.809  25.650  1.00  0.00     0.200 A 
ATOM     71  F   UNL A   1      41.572  23.144  26.414  1.00  0.00    -0.200 F 
ATOM     72  F   UNL A   1      43.375  24.060  24.585  1.00  0.00    -0.200 F 
ENDBRANCH  48  62
BRANCH  49  73
ATOM     73  C   UNL A   1      39.559  31.972  35.684  1.00  0.00     0.064 A 
ATOM     74  C   UNL A   1      40.105  33.237  35.939  1.00  0.00     0.173 A 
ATOM     75  C   UNL A   1      38.575  31.495  36.562  1.00  0.00     0.173 A 
ATOM     76  F   UNL A   1      41.064  33.725  35.138  1.00  0.00    -0.203 F 
ATOM     77  C   UNL A   1      39.691  33.990  37.036  1.00  0.00     0.198 A 
ATOM     78  C   UNL A   1      38.142  32.260  37.642  1.00  0.00     0.198 A 
ATOM     79  F   UNL A   1      38.020  30.291  36.359  1.00  0.00    -0.203 F 
ATOM     80  F   UNL A   1      40.254  35.181  37.278  1.00  0.00    -0.200 F 
ATOM     81  C   UNL A   1      38.705  33.504  37.882  1.00  0.00     0.200 A 
ATOM     82  F   UNL A   1      37.180  31.792  38.450  1.00  0.00    -0.200 F 
ATOM     83  F   UNL A   1      38.302  34.233  38.931  1.00  0.00    -0.200 F 
ENDBRANCH  49  73
BRANCH  61  84
ATOM     84  C   UNL A   1      44.753  27.455  34.597  1.00  0.00     0.064 A 
ATOM     85  C   UNL A   1      44.632  26.297  35.378  1.00  0.00     0.173 A 
ATOM     86  C   UNL A   1      45.975  28.143  34.620  1.00  0.00     0.173 A 
ATOM     87  F   UNL A   1      43.477  25.616  35.401  1.00  0.00    -0.203 F 
ATOM     88  C   UNL A   1      45.690  25.856  36.167  1.00  0.00     0.198 A 
ATOM     89  C   UNL A   1      47.039  27.685  35.390  1.00  0.00     0.198 A 
ATOM     90  F   UNL A   1      46.140  29.254  33.886  1.00  0.00    -0.203 F 
ATOM     91  F   UNL A   1      45.541  24.769  36.938  1.00  0.00    -0.200 F 
ATOM     92  C   UNL A   1      46.894  26.545  36.167  1.00  0.00     0.200 A 
ATOM     93  F   UNL A   1      48.205  28.346  35.381  1.00  0.00    -0.200 F 
ATOM     94  F   UNL A   1      47.914  26.115  36.922  1.00  0.00    -0.200 F 
ENDBRANCH  61  84
ENDBRANCH  35  36
ENDBRANCH  28  30
ENDBRANCH  27  28
ENDBRANCH  26  27
ENDBRANCH   1  26
TORSDOF 14
ENDMDL
