MODEL 1
REMARK VINA RESULT:     -12.6      0.000      0.000
REMARK SMILES C=CCn1nc(C(=O)OCCOC(=O)c2ccc(-c3c4nc(c(-c5c(F)c(F)c(F)c(F)c5F)c5ccc([nH]5)c(-c5c(F)c(F)c(F)c(F)c5F)c5nc(c(-c6c(F)c(F)c(F)c(F)c6F)c6ccc3[nH]6)C=C5)C=C4)cc2)c2c1CC[C@@H]([NH+]1CCC(C(C)(C)O)CC1)C2
REMARK SMILES IDX 10 1 9 2 7 3 8 4 6 5 4 6 5 7 79 8 78 9 80 10 93 11 81 12
REMARK SMILES IDX 82 13 3 14 2 15 1 16 83 17 84 18 92 19 85 21 91 22 86 23
REMARK SMILES IDX 87 24 88 25 89 26 90 27 11 29 12 30 13 31 14 32 15 33 16 34
REMARK SMILES IDX 77 35 17 36 76 37 18 38 19 39 20 40 70 41 21 42 75 43 69 44
REMARK SMILES IDX 71 45 22 46 74 47 68 48 67 49 23 51 55 52 35 53 54 54 36 55
REMARK SMILES IDX 39 56 53 57 72 58 37 59 38 60 52 62 73 63 40 64 24 65 25 66
REMARK SMILES IDX 33 67 26 68 27 69 31 70 34 71 28 72 29 73 32 74 30 75 56 76
REMARK SMILES IDX 57 77 65 78 58 79 59 80 63 81 66 82 60 83 61 84 64 85 62 86
REMARK SMILES IDX 41 87 42 88 50 89 43 90 44 91 48 92 51 93 45 94 46 95 49 96
REMARK SMILES IDX 47 97
REMARK H PARENT 83 20 90 28 71 50 39 61
REMARK Flexibility Score: inf
ROOT
ATOM      1  C   UNL A   1      33.296  29.629  26.507  1.00  0.00     0.275 C 
ENDROOT
BRANCH   1   2
ATOM      2  O   UNL A   1      31.882  29.402  26.503  1.00  0.00    -0.457 OA
BRANCH   2   3
ATOM      3  C   UNL A   1      31.403  28.167  26.848  1.00  0.00     0.359 C 
ATOM      4  O   UNL A   1      31.056  27.861  27.987  1.00  0.00    -0.244 OA
BRANCH   3   5
ATOM      5  C   UNL A   1      31.349  27.285  25.672  1.00  0.00     0.174 A 
ATOM      6  N   UNL A   1      30.994  26.557  23.690  1.00  0.00    -0.265 N 
ATOM      7  N   UNL A   1      31.057  27.702  24.419  1.00  0.00    -0.165 NA
ATOM      8  C   UNL A   1      31.051  25.452  24.491  1.00  0.00     0.043 A 
ATOM      9  C   UNL A   1      31.581  25.885  25.678  1.00  0.00     0.014 A 
ATOM     10  C   UNL A   1      30.713  24.052  24.172  1.00  0.00     0.062 C 
ATOM     11  C   UNL A   1      32.118  24.969  26.725  1.00  0.00     0.105 C 
ATOM     12  C   UNL A   1      31.059  23.134  25.357  1.00  0.00     0.072 C 
ATOM     13  C   UNL A   1      32.315  23.515  26.189  1.00  0.00     0.189 C 
BRANCH   6  14
ATOM     14  C   UNL A   1      31.160  26.619  22.233  1.00  0.00     0.171 C 
BRANCH  14  15
ATOM     15  C   UNL A   1      32.479  26.112  21.722  1.00  0.00    -0.011 C 
ATOM     16  C   UNL A   1      32.672  25.561  20.517  1.00  0.00     0.006 C 
ENDBRANCH  14  15
ENDBRANCH   6  14
BRANCH  13  17
ATOM     17  N   UNL A   1      33.681  23.250  25.688  1.00  0.00    -0.332 N 
ATOM     18  C   UNL A   1      33.942  23.078  24.270  1.00  0.00     0.262 C 
ATOM     19  C   UNL A   1      34.496  22.325  26.460  1.00  0.00     0.262 C 
ATOM     20  H   UNL A   1      33.986  24.208  25.864  1.00  0.00     0.348 HD
ATOM     21  C   UNL A   1      33.751  21.660  23.734  1.00  0.00     0.068 C 
ATOM     22  C   UNL A   1      34.196  20.862  26.178  1.00  0.00     0.068 C 
ATOM     23  C   UNL A   1      34.070  20.475  24.684  1.00  0.00     0.031 C 
BRANCH  23  24
ATOM     24  C   UNL A   1      33.116  19.232  24.501  1.00  0.00     0.062 C 
ATOM     25  C   UNL A   1      32.263  19.292  23.228  1.00  0.00     0.042 C 
ATOM     26  C   UNL A   1      33.915  17.922  24.517  1.00  0.00     0.042 C 
BRANCH  24  27
ATOM     27  O   UNL A   1      32.203  19.151  25.600  1.00  0.00    -0.390 OA
ATOM     28  H   UNL A   1      31.556  19.871  25.535  1.00  0.00     0.211 HD
ENDBRANCH  24  27
ENDBRANCH  23  24
ENDBRANCH  13  17
ENDBRANCH   3   5
ENDBRANCH   2   3
ENDBRANCH   1   2
BRANCH   1  29
ATOM     29  C   UNL A   1      33.620  30.911  27.254  1.00  0.00     0.275 C 
BRANCH  29  30
ATOM     30  O   UNL A   1      35.031  31.043  27.356  1.00  0.00    -0.458 OA
BRANCH  30  31
ATOM     31  C   UNL A   1      35.506  31.986  28.199  1.00  0.00     0.338 C 
ATOM     32  O   UNL A   1      35.250  33.176  28.200  1.00  0.00    -0.246 OA
BRANCH  31  33
ATOM     33  C   UNL A   1      36.532  31.353  29.035  1.00  0.00     0.060 A 
ATOM     34  C   UNL A   1      37.627  32.131  29.419  1.00  0.00     0.016 A 
ATOM     35  C   UNL A   1      36.525  29.957  29.167  1.00  0.00     0.016 A 
ATOM     36  C   UNL A   1      38.807  31.485  29.711  1.00  0.00     0.010 A 
ATOM     37  C   UNL A   1      37.702  29.315  29.426  1.00  0.00     0.010 A 
ATOM     38  C   UNL A   1      38.843  30.091  29.600  1.00  0.00    -0.014 A 
BRANCH  38  39
ATOM     39  C   UNL A   1      40.113  29.415  29.708  1.00  0.00     0.031 A 
ATOM     40  C   UNL A   1      40.581  29.312  31.104  1.00  0.00     0.074 A 
ATOM     41  C   UNL A   1      40.669  28.816  28.637  1.00  0.00     0.049 A 
ATOM     42  N   UNL A   1      41.607  29.882  31.637  1.00  0.00    -0.248 NA
ATOM     43  C   UNL A   1      39.699  28.633  32.069  1.00  0.00     0.031 C 
ATOM     44  C   UNL A   1      40.064  28.610  27.315  1.00  0.00     0.029 A 
ATOM     45  N   UNL A   1      41.855  28.159  28.537  1.00  0.00    -0.354 N 
ATOM     46  C   UNL A   1      41.618  29.448  32.959  1.00  0.00     0.074 A 
ATOM     47  C   UNL A   1      40.325  28.879  33.220  1.00  0.00     0.031 C 
ATOM     48  C   UNL A   1      40.782  27.691  26.632  1.00  0.00     0.029 A 
ATOM     49  C   UNL A   1      41.964  27.359  27.407  1.00  0.00     0.049 A 
ATOM     50  H   UNL A   1      42.573  28.243  29.205  1.00  0.00     0.167 HD
ATOM     51  C   UNL A   1      42.797  29.282  33.614  1.00  0.00     0.037 A 
ATOM     52  C   UNL A   1      42.929  26.434  27.188  1.00  0.00     0.037 A 
ATOM     53  C   UNL A   1      43.864  29.955  32.921  1.00  0.00     0.049 A 
ATOM     54  C   UNL A   1      44.071  26.769  28.074  1.00  0.00     0.074 A 
ATOM     55  C   UNL A   1      44.276  31.257  32.751  1.00  0.00     0.029 A 
ATOM     56  N   UNL A   1      44.434  29.207  31.924  1.00  0.00    -0.354 N 
ATOM     57  N   UNL A   1      44.780  27.860  27.957  1.00  0.00    -0.248 NA
ATOM     58  C   UNL A   1      44.210  26.072  29.348  1.00  0.00     0.031 C 
ATOM     59  C   UNL A   1      44.964  31.293  31.501  1.00  0.00     0.029 A 
ATOM     60  C   UNL A   1      44.983  30.007  30.960  1.00  0.00     0.049 A 
ATOM     61  H   UNL A   1      44.447  28.223  31.905  1.00  0.00     0.167 HD
ATOM     62  C   UNL A   1      45.116  28.197  29.256  1.00  0.00     0.074 A 
ATOM     63  C   UNL A   1      44.893  26.989  30.038  1.00  0.00     0.031 C 
ATOM     64  C   UNL A   1      45.232  29.506  29.626  1.00  0.00     0.037 A 
BRANCH  51  65
ATOM     65  C   UNL A   1      43.087  28.123  34.542  1.00  0.00     0.064 A 
ATOM     66  C   UNL A   1      43.434  28.396  35.878  1.00  0.00     0.173 A 
ATOM     67  C   UNL A   1      43.352  26.805  34.103  1.00  0.00     0.173 A 
ATOM     68  F   UNL A   1      43.259  29.623  36.391  1.00  0.00    -0.203 F 
ATOM     69  C   UNL A   1      44.056  27.441  36.690  1.00  0.00     0.198 A 
ATOM     70  C   UNL A   1      43.918  25.840  34.932  1.00  0.00     0.198 A 
ATOM     71  F   UNL A   1      43.193  26.426  32.830  1.00  0.00    -0.203 F 
ATOM     72  F   UNL A   1      44.479  27.782  37.914  1.00  0.00    -0.200 F 
ATOM     73  C   UNL A   1      44.298  26.165  36.215  1.00  0.00     0.200 A 
ATOM     74  F   UNL A   1      44.170  24.618  34.441  1.00  0.00    -0.200 F 
ATOM     75  F   UNL A   1      44.943  25.266  36.970  1.00  0.00    -0.200 F 
ENDBRANCH  51  65
BRANCH  52  76
ATOM     76  C   UNL A   1      42.779  25.109  26.542  1.00  0.00     0.064 A 
ATOM     77  C   UNL A   1      43.512  24.772  25.394  1.00  0.00     0.173 A 
ATOM     78  C   UNL A   1      42.127  24.049  27.204  1.00  0.00     0.173 A 
ATOM     79  F   UNL A   1      44.198  25.716  24.733  1.00  0.00    -0.203 F 
ATOM     80  C   UNL A   1      43.612  23.448  24.951  1.00  0.00     0.198 A 
ATOM     81  C   UNL A   1      42.224  22.731  26.759  1.00  0.00     0.198 A 
ATOM     82  F   UNL A   1      41.467  24.259  28.352  1.00  0.00    -0.203 F 
ATOM     83  F   UNL A   1      44.373  23.154  23.888  1.00  0.00    -0.200 F 
ATOM     84  C   UNL A   1      42.978  22.428  25.641  1.00  0.00     0.200 A 
ATOM     85  F   UNL A   1      41.637  21.749  27.458  1.00  0.00    -0.200 F 
ATOM     86  F   UNL A   1      43.126  21.152  25.256  1.00  0.00    -0.200 F 
ENDBRANCH  52  76
BRANCH  64  87
ATOM     87  C   UNL A   1      45.469  30.509  28.540  1.00  0.00     0.064 A 
ATOM     88  C   UNL A   1      44.455  31.231  27.891  1.00  0.00     0.173 A 
ATOM     89  C   UNL A   1      46.796  30.822  28.221  1.00  0.00     0.173 A 
ATOM     90  F   UNL A   1      43.167  31.040  28.201  1.00  0.00    -0.203 F 
ATOM     91  C   UNL A   1      44.763  32.202  26.938  1.00  0.00     0.198 A 
ATOM     92  C   UNL A   1      47.101  31.815  27.297  1.00  0.00     0.198 A 
ATOM     93  F   UNL A   1      47.803  30.191  28.845  1.00  0.00    -0.203 F 
ATOM     94  F   UNL A   1      43.780  32.872  26.319  1.00  0.00    -0.200 F 
ATOM     95  C   UNL A   1      46.086  32.498  26.649  1.00  0.00     0.200 A 
ATOM     96  F   UNL A   1      48.382  32.127  27.056  1.00  0.00    -0.200 F 
ATOM     97  F   UNL A   1      46.383  33.460  25.764  1.00  0.00    -0.200 F 
ENDBRANCH  64  87
ENDBRANCH  38  39
ENDBRANCH  31  33
ENDBRANCH  30  31
ENDBRANCH  29  30
ENDBRANCH   1  29
TORSDOF 16
ENDMDL
MODEL 2
REMARK VINA RESULT:     -12.5      2.915      8.497
REMARK SMILES C=CCn1nc(C(=O)OCCOC(=O)c2ccc(-c3c4nc(c(-c5c(F)c(F)c(F)c(F)c5F)c5ccc([nH]5)c(-c5c(F)c(F)c(F)c(F)c5F)c5nc(c(-c6c(F)c(F)c(F)c(F)c6F)c6ccc3[nH]6)C=C5)C=C4)cc2)c2c1CC[C@@H]([NH+]1CCC(C(C)(C)O)CC1)C2
REMARK SMILES IDX 10 1 9 2 7 3 8 4 6 5 4 6 5 7 79 8 78 9 80 10 93 11 81 12
REMARK SMILES IDX 82 13 3 14 2 15 1 16 83 17 84 18 92 19 85 21 91 22 86 23
REMARK SMILES IDX 87 24 88 25 89 26 90 27 11 29 12 30 13 31 14 32 15 33 16 34
REMARK SMILES IDX 77 35 17 36 76 37 18 38 19 39 20 40 70 41 21 42 75 43 69 44
REMARK SMILES IDX 71 45 22 46 74 47 68 48 67 49 23 51 55 52 35 53 54 54 36 55
REMARK SMILES IDX 39 56 53 57 72 58 37 59 38 60 52 62 73 63 40 64 24 65 25 66
REMARK SMILES IDX 33 67 26 68 27 69 31 70 34 71 28 72 29 73 32 74 30 75 56 76
REMARK SMILES IDX 57 77 65 78 58 79 59 80 63 81 66 82 60 83 61 84 64 85 62 86
REMARK SMILES IDX 41 87 42 88 50 89 43 90 44 91 48 92 51 93 45 94 46 95 49 96
REMARK SMILES IDX 47 97
REMARK H PARENT 83 20 90 28 71 50 39 61
REMARK Flexibility Score: inf
ROOT
ATOM      1  C   UNL A   1      39.658  21.699  26.287  1.00  0.00     0.275 C 
ENDROOT
BRANCH   1   2
ATOM      2  O   UNL A   1      38.378  21.521  25.671  1.00  0.00    -0.457 OA
BRANCH   2   3
ATOM      3  C   UNL A   1      37.495  22.568  25.653  1.00  0.00     0.359 C 
ATOM      4  O   UNL A   1      37.810  23.734  25.884  1.00  0.00    -0.244 OA
BRANCH   3   5
ATOM      5  C   UNL A   1      36.145  22.100  25.304  1.00  0.00     0.174 A 
ATOM      6  N   UNL A   1      34.483  20.820  24.875  1.00  0.00    -0.265 N 
ATOM      7  N   UNL A   1      35.727  20.819  25.421  1.00  0.00    -0.165 NA
ATOM      8  C   UNL A   1      34.208  22.011  24.263  1.00  0.00     0.043 A 
ATOM      9  C   UNL A   1      35.099  22.909  24.789  1.00  0.00     0.014 A 
ATOM     10  C   UNL A   1      33.138  22.339  23.302  1.00  0.00     0.062 C 
ATOM     11  C   UNL A   1      34.958  24.388  24.652  1.00  0.00     0.105 C 
ATOM     12  C   UNL A   1      33.145  23.844  22.985  1.00  0.00     0.072 C 
ATOM     13  C   UNL A   1      33.538  24.799  24.147  1.00  0.00     0.189 C 
BRANCH   6  14
ATOM     14  C   UNL A   1      33.539  19.754  25.228  1.00  0.00     0.171 C 
BRANCH  14  15
ATOM     15  C   UNL A   1      33.406  18.658  24.208  1.00  0.00    -0.011 C 
ATOM     16  C   UNL A   1      32.515  18.646  23.209  1.00  0.00     0.006 C 
ENDBRANCH  14  15
ENDBRANCH   6  14
BRANCH  13  17
ATOM     17  N   UNL A   1      32.592  25.115  25.238  1.00  0.00    -0.332 N 
ATOM     18  C   UNL A   1      31.157  25.021  25.040  1.00  0.00     0.262 C 
ATOM     19  C   UNL A   1      32.906  26.269  26.066  1.00  0.00     0.262 C 
ATOM     20  H   UNL A   1      32.811  24.256  25.745  1.00  0.00     0.348 HD
ATOM     21  C   UNL A   1      30.491  26.265  24.454  1.00  0.00     0.068 C 
ATOM     22  C   UNL A   1      32.505  27.597  25.443  1.00  0.00     0.068 C 
ATOM     23  C   UNL A   1      31.088  27.649  24.821  1.00  0.00     0.031 C 
BRANCH  23  24
ATOM     24  C   UNL A   1      31.024  28.706  23.652  1.00  0.00     0.062 C 
ATOM     25  C   UNL A   1      32.311  28.786  22.822  1.00  0.00     0.042 C 
ATOM     26  C   UNL A   1      29.837  28.423  22.722  1.00  0.00     0.042 C 
BRANCH  24  27
ATOM     27  O   UNL A   1      30.804  30.014  24.188  1.00  0.00    -0.390 OA
ATOM     28  H   UNL A   1      31.611  30.544  24.091  1.00  0.00     0.211 HD
ENDBRANCH  24  27
ENDBRANCH  23  24
ENDBRANCH  13  17
ENDBRANCH   3   5
ENDBRANCH   2   3
ENDBRANCH   1   2
BRANCH   1  29
ATOM     29  C   UNL A   1      40.499  20.444  26.121  1.00  0.00     0.275 C 
BRANCH  29  30
ATOM     30  O   UNL A   1      41.802  20.690  26.632  1.00  0.00    -0.458 OA
BRANCH  30  31
ATOM     31  C   UNL A   1      42.783  20.934  25.736  1.00  0.00     0.338 C 
ATOM     32  O   UNL A   1      43.295  20.145  24.964  1.00  0.00    -0.246 OA
BRANCH  31  33
ATOM     33  C   UNL A   1      43.254  22.305  25.961  1.00  0.00     0.060 A 
ATOM     34  C   UNL A   1      44.069  22.537  27.071  1.00  0.00     0.016 A 
ATOM     35  C   UNL A   1      42.650  23.350  25.247  1.00  0.00     0.016 A 
ATOM     36  C   UNL A   1      44.081  23.804  27.610  1.00  0.00     0.010 A 
ATOM     37  C   UNL A   1      42.636  24.600  25.796  1.00  0.00     0.010 A 
ATOM     38  C   UNL A   1      43.274  24.781  27.019  1.00  0.00    -0.014 A 
BRANCH  38  39
ATOM     39  C   UNL A   1      43.120  26.054  27.680  1.00  0.00     0.031 A 
ATOM     40  C   UNL A   1      44.147  27.031  27.270  1.00  0.00     0.074 A 
ATOM     41  C   UNL A   1      42.039  26.310  28.442  1.00  0.00     0.049 A 
ATOM     42  N   UNL A   1      45.090  27.537  27.990  1.00  0.00    -0.248 NA
ATOM     43  C   UNL A   1      44.246  27.353  25.836  1.00  0.00     0.031 C 
ATOM     44  C   UNL A   1      40.837  25.480  28.594  1.00  0.00     0.029 A 
ATOM     45  N   UNL A   1      41.733  27.426  29.156  1.00  0.00    -0.354 N 
ATOM     46  C   UNL A   1      45.764  28.411  27.144  1.00  0.00     0.074 A 
ATOM     47  C   UNL A   1      45.354  28.094  25.805  1.00  0.00     0.031 C 
ATOM     48  C   UNL A   1      39.853  26.216  29.157  1.00  0.00     0.029 A 
ATOM     49  C   UNL A   1      40.398  27.508  29.532  1.00  0.00     0.049 A 
ATOM     50  H   UNL A   1      42.398  28.114  29.388  1.00  0.00     0.167 HD
ATOM     51  C   UNL A   1      46.332  29.541  27.642  1.00  0.00     0.037 A 
ATOM     52  C   UNL A   1      39.790  28.606  30.038  1.00  0.00     0.037 A 
ATOM     53  C   UNL A   1      46.459  29.460  29.073  1.00  0.00     0.049 A 
ATOM     54  C   UNL A   1      40.853  29.492  30.574  1.00  0.00     0.074 A 
ATOM     55  C   UNL A   1      47.272  28.798  29.965  1.00  0.00     0.029 A 
ATOM     56  N   UNL A   1      45.335  29.854  29.751  1.00  0.00    -0.354 N 
ATOM     57  N   UNL A   1      41.614  29.175  31.586  1.00  0.00    -0.248 NA
ATOM     58  C   UNL A   1      41.340  30.596  29.752  1.00  0.00     0.031 C 
ATOM     59  C   UNL A   1      46.505  28.646  31.160  1.00  0.00     0.029 A 
ATOM     60  C   UNL A   1      45.260  29.249  30.975  1.00  0.00     0.049 A 
ATOM     61  H   UNL A   1      44.669  30.489  29.402  1.00  0.00     0.167 HD
ATOM     62  C   UNL A   1      42.840  29.743  31.290  1.00  0.00     0.074 A 
ATOM     63  C   UNL A   1      42.568  30.733  30.258  1.00  0.00     0.031 C 
ATOM     64  C   UNL A   1      44.000  29.134  31.676  1.00  0.00     0.037 A 
BRANCH  51  65
ATOM     65  C   UNL A   1      46.286  30.882  26.944  1.00  0.00     0.064 A 
ATOM     66  C   UNL A   1      47.466  31.646  26.865  1.00  0.00     0.173 A 
ATOM     67  C   UNL A   1      45.093  31.579  26.646  1.00  0.00     0.173 A 
ATOM     68  F   UNL A   1      48.654  31.096  27.160  1.00  0.00    -0.203 F 
ATOM     69  C   UNL A   1      47.443  33.013  26.572  1.00  0.00     0.198 A 
ATOM     70  C   UNL A   1      45.079  32.927  26.298  1.00  0.00     0.198 A 
ATOM     71  F   UNL A   1      43.883  31.028  26.796  1.00  0.00    -0.203 F 
ATOM     72  F   UNL A   1      48.577  33.725  26.627  1.00  0.00    -0.200 F 
ATOM     73  C   UNL A   1      46.250  33.652  26.290  1.00  0.00     0.200 A 
ATOM     74  F   UNL A   1      43.907  33.533  26.058  1.00  0.00    -0.200 F 
ATOM     75  F   UNL A   1      46.218  34.972  26.065  1.00  0.00    -0.200 F 
ENDBRANCH  51  65
BRANCH  52  76
ATOM     76  C   UNL A   1      38.414  29.083  29.764  1.00  0.00     0.064 A 
ATOM     77  C   UNL A   1      37.569  29.502  30.804  1.00  0.00     0.173 A 
ATOM     78  C   UNL A   1      38.004  29.404  28.454  1.00  0.00     0.173 A 
ATOM     79  F   UNL A   1      37.911  29.275  32.080  1.00  0.00    -0.203 F 
ATOM     80  C   UNL A   1      36.398  30.225  30.549  1.00  0.00     0.198 A 
ATOM     81  C   UNL A   1      36.834  30.121  28.203  1.00  0.00     0.198 A 
ATOM     82  F   UNL A   1      38.782  29.114  27.401  1.00  0.00    -0.203 F 
ATOM     83  F   UNL A   1      35.648  30.665  31.570  1.00  0.00    -0.200 F 
ATOM     84  C   UNL A   1      36.039  30.544  29.250  1.00  0.00     0.200 A 
ATOM     85  F   UNL A   1      36.519  30.456  26.943  1.00  0.00    -0.200 F 
ATOM     86  F   UNL A   1      34.953  31.293  29.009  1.00  0.00    -0.200 F 
ENDBRANCH  52  76
BRANCH  64  87
ATOM     87  C   UNL A   1      43.918  28.150  32.801  1.00  0.00     0.064 A 
ATOM     88  C   UNL A   1      43.804  26.761  32.635  1.00  0.00     0.173 A 
ATOM     89  C   UNL A   1      44.067  28.638  34.105  1.00  0.00     0.173 A 
ATOM     90  F   UNL A   1      43.736  26.217  31.414  1.00  0.00    -0.203 F 
ATOM     91  C   UNL A   1      43.806  25.903  33.735  1.00  0.00     0.198 A 
ATOM     92  C   UNL A   1      44.104  27.779  35.198  1.00  0.00     0.198 A 
ATOM     93  F   UNL A   1      44.223  29.955  34.315  1.00  0.00    -0.203 F 
ATOM     94  F   UNL A   1      43.682  24.580  33.557  1.00  0.00    -0.200 F 
ATOM     95  C   UNL A   1      43.964  26.413  35.014  1.00  0.00     0.200 A 
ATOM     96  F   UNL A   1      44.304  28.274  36.427  1.00  0.00    -0.200 F 
ATOM     97  F   UNL A   1      44.008  25.587  36.068  1.00  0.00    -0.200 F 
ENDBRANCH  64  87
ENDBRANCH  38  39
ENDBRANCH  31  33
ENDBRANCH  30  31
ENDBRANCH  29  30
ENDBRANCH   1  29
TORSDOF 16
ENDMDL
MODEL 3
REMARK VINA RESULT:     -12.5      1.162      1.690
REMARK SMILES C=CCn1nc(C(=O)OCCOC(=O)c2ccc(-c3c4nc(c(-c5c(F)c(F)c(F)c(F)c5F)c5ccc([nH]5)c(-c5c(F)c(F)c(F)c(F)c5F)c5nc(c(-c6c(F)c(F)c(F)c(F)c6F)c6ccc3[nH]6)C=C5)C=C4)cc2)c2c1CC[C@@H]([NH+]1CCC(C(C)(C)O)CC1)C2
REMARK SMILES IDX 10 1 9 2 7 3 8 4 6 5 4 6 5 7 79 8 78 9 80 10 93 11 81 12
REMARK SMILES IDX 82 13 3 14 2 15 1 16 83 17 84 18 92 19 85 21 91 22 86 23
REMARK SMILES IDX 87 24 88 25 89 26 90 27 11 29 12 30 13 31 14 32 15 33 16 34
REMARK SMILES IDX 77 35 17 36 76 37 18 38 19 39 20 40 70 41 21 42 75 43 69 44
REMARK SMILES IDX 71 45 22 46 74 47 68 48 67 49 23 51 55 52 35 53 54 54 36 55
REMARK SMILES IDX 39 56 53 57 72 58 37 59 38 60 52 62 73 63 40 64 24 65 25 66
REMARK SMILES IDX 33 67 26 68 27 69 31 70 34 71 28 72 29 73 32 74 30 75 56 76
REMARK SMILES IDX 57 77 65 78 58 79 59 80 63 81 66 82 60 83 61 84 64 85 62 86
REMARK SMILES IDX 41 87 42 88 50 89 43 90 44 91 48 92 51 93 45 94 46 95 49 96
REMARK SMILES IDX 47 97
REMARK H PARENT 83 20 90 28 71 50 39 61
REMARK Flexibility Score: inf
ROOT
ATOM      1  C   UNL A   1      32.460  30.574  26.943  1.00  0.00     0.275 C 
ENDROOT
BRANCH   1   2
ATOM      2  O   UNL A   1      32.904  30.458  25.587  1.00  0.00    -0.457 OA
BRANCH   2   3
ATOM      3  C   UNL A   1      33.236  29.223  25.097  1.00  0.00     0.359 C 
ATOM      4  O   UNL A   1      34.379  28.767  25.108  1.00  0.00    -0.244 OA
BRANCH   3   5
ATOM      5  C   UNL A   1      32.045  28.531  24.585  1.00  0.00     0.174 A 
ATOM      6  N   UNL A   1      30.104  28.163  23.758  1.00  0.00    -0.265 N 
ATOM      7  N   UNL A   1      31.032  29.140  23.926  1.00  0.00    -0.165 NA
ATOM      8  C   UNL A   1      30.435  27.035  24.456  1.00  0.00     0.043 A 
ATOM      9  C   UNL A   1      31.777  27.143  24.714  1.00  0.00     0.014 A 
ATOM     10  C   UNL A   1      29.593  25.875  24.806  1.00  0.00     0.062 C 
ATOM     11  C   UNL A   1      32.624  26.003  25.167  1.00  0.00     0.105 C 
ATOM     12  C   UNL A   1      30.439  24.786  25.488  1.00  0.00     0.072 C 
ATOM     13  C   UNL A   1      31.903  24.628  24.992  1.00  0.00     0.189 C 
BRANCH   6  14
ATOM     14  C   UNL A   1      29.093  28.300  22.704  1.00  0.00     0.171 C 
BRANCH  14  15
ATOM     15  C   UNL A   1      27.822  28.983  23.126  1.00  0.00    -0.011 C 
ATOM     16  C   UNL A   1      27.653  30.309  23.198  1.00  0.00     0.006 C 
ENDBRANCH  14  15
ENDBRANCH   6  14
BRANCH  13  17
ATOM     17  N   UNL A   1      32.214  23.956  23.712  1.00  0.00    -0.332 N 
ATOM     18  C   UNL A   1      31.743  22.612  23.434  1.00  0.00     0.262 C 
ATOM     19  C   UNL A   1      33.561  24.130  23.191  1.00  0.00     0.262 C 
ATOM     20  H   UNL A   1      31.563  24.542  23.188  1.00  0.00     0.348 HD
ATOM     21  C   UNL A   1      32.637  21.482  23.944  1.00  0.00     0.068 C 
ATOM     22  C   UNL A   1      34.589  23.210  23.830  1.00  0.00     0.068 C 
ATOM     23  C   UNL A   1      34.169  21.728  23.976  1.00  0.00     0.031 C 
BRANCH  23  24
ATOM     24  C   UNL A   1      34.902  21.051  25.198  1.00  0.00     0.062 C 
ATOM     25  C   UNL A   1      36.416  20.905  25.003  1.00  0.00     0.042 C 
ATOM     26  C   UNL A   1      34.628  21.820  26.496  1.00  0.00     0.042 C 
BRANCH  24  27
ATOM     27  O   UNL A   1      34.389  19.731  25.404  1.00  0.00    -0.390 OA
ATOM     28  H   UNL A   1      35.104  19.150  25.708  1.00  0.00     0.211 HD
ENDBRANCH  24  27
ENDBRANCH  23  24
ENDBRANCH  13  17
ENDBRANCH   3   5
ENDBRANCH   2   3
ENDBRANCH   1   2
BRANCH   1  29
ATOM     29  C   UNL A   1      33.339  31.556  27.700  1.00  0.00     0.275 C 
BRANCH  29  30
ATOM     30  O   UNL A   1      34.664  31.045  27.752  1.00  0.00    -0.458 OA
BRANCH  30  31
ATOM     31  C   UNL A   1      35.651  31.914  28.059  1.00  0.00     0.338 C 
ATOM     32  O   UNL A   1      35.813  33.038  27.619  1.00  0.00    -0.246 OA
BRANCH  31  33
ATOM     33  C   UNL A   1      36.613  31.207  28.911  1.00  0.00     0.060 A 
ATOM     34  C   UNL A   1      37.708  31.928  29.393  1.00  0.00     0.016 A 
ATOM     35  C   UNL A   1      36.559  29.806  28.966  1.00  0.00     0.016 A 
ATOM     36  C   UNL A   1      38.852  31.231  29.710  1.00  0.00     0.010 A 
ATOM     37  C   UNL A   1      37.702  29.115  29.250  1.00  0.00     0.010 A 
ATOM     38  C   UNL A   1      38.854  29.845  29.524  1.00  0.00    -0.014 A 
BRANCH  38  39
ATOM     39  C   UNL A   1      40.096  29.124  29.661  1.00  0.00     0.031 A 
ATOM     40  C   UNL A   1      40.541  29.025  31.064  1.00  0.00     0.074 A 
ATOM     41  C   UNL A   1      40.644  28.489  28.607  1.00  0.00     0.049 A 
ATOM     42  N   UNL A   1      41.580  29.565  31.604  1.00  0.00    -0.248 NA
ATOM     43  C   UNL A   1      39.621  28.393  32.027  1.00  0.00     0.031 C 
ATOM     44  C   UNL A   1      40.051  28.286  27.279  1.00  0.00     0.029 A 
ATOM     45  N   UNL A   1      41.807  27.788  28.533  1.00  0.00    -0.354 N 
ATOM     46  C   UNL A   1      41.556  29.150  32.932  1.00  0.00     0.074 A 
ATOM     47  C   UNL A   1      40.240  28.633  33.183  1.00  0.00     0.031 C 
ATOM     48  C   UNL A   1      40.745  27.331  26.620  1.00  0.00     0.029 A 
ATOM     49  C   UNL A   1      41.903  26.967  27.416  1.00  0.00     0.049 A 
ATOM     50  H   UNL A   1      42.518  27.856  29.210  1.00  0.00     0.167 HD
ATOM     51  C   UNL A   1      42.719  28.951  33.606  1.00  0.00     0.037 A 
ATOM     52  C   UNL A   1      42.836  26.005  27.225  1.00  0.00     0.037 A 
ATOM     53  C   UNL A   1      43.820  29.574  32.919  1.00  0.00     0.049 A 
ATOM     54  C   UNL A   1      43.976  26.311  28.123  1.00  0.00     0.074 A 
ATOM     55  C   UNL A   1      44.281  30.858  32.736  1.00  0.00     0.029 A 
ATOM     56  N   UNL A   1      44.376  28.792  31.942  1.00  0.00    -0.354 N 
ATOM     57  N   UNL A   1      44.727  27.373  28.000  1.00  0.00    -0.248 NA
ATOM     58  C   UNL A   1      44.072  25.628  29.409  1.00  0.00     0.031 C 
ATOM     59  C   UNL A   1      44.988  30.850  31.496  1.00  0.00     0.029 A 
ATOM     60  C   UNL A   1      44.967  29.556  30.974  1.00  0.00     0.049 A 
ATOM     61  H   UNL A   1      44.353  27.807  31.937  1.00  0.00     0.167 HD
ATOM     62  C   UNL A   1      45.057  27.717  29.298  1.00  0.00     0.074 A 
ATOM     63  C   UNL A   1      44.779  26.530  30.095  1.00  0.00     0.031 C 
ATOM     64  C   UNL A   1      45.216  29.026  29.652  1.00  0.00     0.037 A 
BRANCH  51  65
ATOM     65  C   UNL A   1      42.953  27.797  34.555  1.00  0.00     0.064 A 
ATOM     66  C   UNL A   1      43.269  28.077  35.898  1.00  0.00     0.173 A 
ATOM     67  C   UNL A   1      43.198  26.468  34.139  1.00  0.00     0.173 A 
ATOM     68  F   UNL A   1      43.108  29.314  36.392  1.00  0.00    -0.203 F 
ATOM     69  C   UNL A   1      43.842  27.117  36.738  1.00  0.00     0.198 A 
ATOM     70  C   UNL A   1      43.716  25.499  34.995  1.00  0.00     0.198 A 
ATOM     71  F   UNL A   1      43.067  26.078  32.866  1.00  0.00    -0.203 F 
ATOM     72  F   UNL A   1      44.238  27.462  37.970  1.00  0.00    -0.200 F 
ATOM     73  C   UNL A   1      44.066  25.830  36.285  1.00  0.00     0.200 A 
ATOM     74  F   UNL A   1      43.953  24.265  34.525  1.00  0.00    -0.200 F 
ATOM     75  F   UNL A   1      44.667  24.925  37.068  1.00  0.00    -0.200 F 
ENDBRANCH  51  65
BRANCH  52  76
ATOM     76  C   UNL A   1      42.646  24.676  26.596  1.00  0.00     0.064 A 
ATOM     77  C   UNL A   1      43.383  24.295  25.465  1.00  0.00     0.173 A 
ATOM     78  C   UNL A   1      41.945  23.651  27.264  1.00  0.00     0.173 A 
ATOM     79  F   UNL A   1      44.113  25.203  24.801  1.00  0.00    -0.203 F 
ATOM     80  C   UNL A   1      43.440  22.962  25.043  1.00  0.00     0.198 A 
ATOM     81  C   UNL A   1      41.999  22.324  26.839  1.00  0.00     0.198 A 
ATOM     82  F   UNL A   1      41.276  23.903  28.399  1.00  0.00    -0.203 F 
ATOM     83  F   UNL A   1      44.206  22.623  23.996  1.00  0.00    -0.200 F 
ATOM     84  C   UNL A   1      42.758  21.976  25.738  1.00  0.00     0.200 A 
ATOM     85  F   UNL A   1      41.366  21.375  27.544  1.00  0.00    -0.200 F 
ATOM     86  F   UNL A   1      42.865  20.690  25.374  1.00  0.00    -0.200 F 
ENDBRANCH  52  76
BRANCH  64  87
ATOM     87  C   UNL A   1      45.505  30.003  28.555  1.00  0.00     0.064 A 
ATOM     88  C   UNL A   1      44.524  30.713  27.845  1.00  0.00     0.173 A 
ATOM     89  C   UNL A   1      46.846  30.306  28.288  1.00  0.00     0.173 A 
ATOM     90  F   UNL A   1      43.222  30.533  28.101  1.00  0.00    -0.203 F 
ATOM     91  C   UNL A   1      44.877  31.661  26.884  1.00  0.00     0.198 A 
ATOM     92  C   UNL A   1      47.196  31.277  27.356  1.00  0.00     0.198 A 
ATOM     93  F   UNL A   1      47.822  29.687  28.971  1.00  0.00    -0.203 F 
ATOM     94  F   UNL A   1      43.926  32.319  26.206  1.00  0.00    -0.200 F 
ATOM     95  C   UNL A   1      46.212  31.947  26.648  1.00  0.00     0.200 A 
ATOM     96  F   UNL A   1      48.487  31.580  27.165  1.00  0.00    -0.200 F 
ATOM     97  F   UNL A   1      46.553  32.888  25.755  1.00  0.00    -0.200 F 
ENDBRANCH  64  87
ENDBRANCH  38  39
ENDBRANCH  31  33
ENDBRANCH  30  31
ENDBRANCH  29  30
ENDBRANCH   1  29
TORSDOF 16
ENDMDL
