MODEL 1
REMARK VINA RESULT:     -14.4      0.000      0.000
REMARK SMILES Cc1ccccc1NC(=O)CSc1nc(C(=O)OCCOC(=O)c2ccc(-c3c4nc(c(-c5c(F)c(F)c(F)c(F)c5F)c5ccc([nH]5)c(-c5c(F)c(F)c(F)c(F)c5F)c5nc(c(-c6c(F)c(F)c(F)c(F)c6F)c6ccc3[nH]6)C=C5)C=C4)cc2)c2ccccc2n1
REMARK SMILES IDX 19 1 18 2 16 3 17 4 15 5 13 6 14 7 93 8 92 9 87 10 91 11
REMARK SMILES IDX 88 12 90 13 89 14 12 15 11 16 9 17 8 18 10 20 7 21 1 22 2 23
REMARK SMILES IDX 3 24 4 25 6 26 5 27 20 28 21 29 22 30 23 31 24 32 25 33
REMARK SMILES IDX 86 34 26 35 85 36 27 37 28 38 29 39 79 40 30 41 84 42 78 43
REMARK SMILES IDX 80 44 31 45 83 46 77 47 76 48 32 50 64 51 44 52 63 53 45 54
REMARK SMILES IDX 48 55 62 56 81 57 46 58 47 59 61 61 82 62 49 63 33 64 34 65
REMARK SMILES IDX 42 66 35 67 36 68 40 69 43 70 37 71 38 72 41 73 39 74 65 75
REMARK SMILES IDX 66 76 74 77 67 78 68 79 72 80 75 81 69 82 70 83 73 84 71 85
REMARK SMILES IDX 50 86 51 87 59 88 52 89 53 90 57 91 60 92 54 93 55 94 58 95
REMARK SMILES IDX 56 96
REMARK H PARENT 8 19 80 49 48 60
REMARK Flexibility Score: inf
ROOT
ATOM      1  C   UNL A   1      33.248  29.115  27.216  1.00  0.00     0.275 C 
ENDROOT
BRANCH   1   2
ATOM      2  O   UNL A   1      32.378  28.736  26.144  1.00  0.00    -0.457 OA
BRANCH   2   3
ATOM      3  C   UNL A   1      31.720  29.738  25.533  1.00  0.00     0.357 C 
ATOM      4  O   UNL A   1      31.615  30.894  25.962  1.00  0.00    -0.244 OA
BRANCH   3   5
ATOM      5  C   UNL A   1      31.204  29.274  24.227  1.00  0.00     0.160 A 
ATOM      6  C   UNL A   1      31.188  27.627  22.651  1.00  0.00     0.189 A 
ATOM      7  N   UNL A   1      31.772  28.146  23.733  1.00  0.00    -0.215 NA
ATOM      8  N   UNL A   1      30.052  28.090  22.112  1.00  0.00    -0.222 NA
ATOM      9  C   UNL A   1      29.500  29.190  22.644  1.00  0.00     0.076 A 
ATOM     10  C   UNL A   1      30.077  29.901  23.692  1.00  0.00     0.034 A 
ATOM     11  C   UNL A   1      28.270  29.622  22.168  1.00  0.00     0.029 A 
ATOM     12  C   UNL A   1      29.485  31.107  24.155  1.00  0.00     0.013 A 
ATOM     13  C   UNL A   1      27.647  30.775  22.656  1.00  0.00     0.002 A 
ATOM     14  C   UNL A   1      28.276  31.545  23.625  1.00  0.00     0.001 A 
BRANCH   6  15
ATOM     15  S   UNL A   1      31.749  26.049  22.074  1.00  0.00    -0.076 SA
BRANCH  15  16
ATOM     16  C   UNL A   1      32.444  25.297  23.575  1.00  0.00     0.178 C 
BRANCH  16  17
ATOM     17  C   UNL A   1      32.185  23.815  23.724  1.00  0.00     0.234 C 
ATOM     18  N   UNL A   1      33.131  22.881  24.027  1.00  0.00    -0.325 N 
ATOM     19  H   UNL A   1      32.781  21.961  24.000  1.00  0.00     0.169 HD
ATOM     20  O   UNL A   1      31.037  23.388  23.534  1.00  0.00    -0.274 OA
BRANCH  18  21
ATOM     21  C   UNL A   1      34.498  22.933  24.372  1.00  0.00     0.044 A 
ATOM     22  C   UNL A   1      33.896  23.103  26.889  1.00  0.00     0.046 C 
ATOM     23  C   UNL A   1      34.857  23.113  25.728  1.00  0.00    -0.027 A 
ATOM     24  C   UNL A   1      36.204  23.378  26.054  1.00  0.00     0.005 A 
ATOM     25  C   UNL A   1      37.193  23.395  25.077  1.00  0.00     0.000 A 
ATOM     26  C   UNL A   1      35.525  22.845  23.428  1.00  0.00     0.026 A 
ATOM     27  C   UNL A   1      36.857  23.093  23.768  1.00  0.00     0.002 A 
ENDBRANCH  18  21
ENDBRANCH  16  17
ENDBRANCH  15  16
ENDBRANCH   6  15
ENDBRANCH   3   5
ENDBRANCH   2   3
ENDBRANCH   1   2
BRANCH   1  28
ATOM     28  C   UNL A   1      34.757  29.239  26.901  1.00  0.00     0.275 C 
BRANCH  28  29
ATOM     29  O   UNL A   1      35.542  30.362  27.405  1.00  0.00    -0.458 OA
BRANCH  29  30
ATOM     30  C   UNL A   1      36.257  30.540  28.544  1.00  0.00     0.338 C 
ATOM     31  O   UNL A   1      35.880  31.278  29.449  1.00  0.00    -0.246 OA
BRANCH  30  32
ATOM     32  C   UNL A   1      37.465  29.731  28.726  1.00  0.00     0.060 A 
ATOM     33  C   UNL A   1      37.586  28.892  29.845  1.00  0.00     0.016 A 
ATOM     34  C   UNL A   1      38.389  29.683  27.705  1.00  0.00     0.016 A 
ATOM     35  C   UNL A   1      38.569  27.909  29.878  1.00  0.00     0.010 A 
ATOM     36  C   UNL A   1      39.167  28.567  27.603  1.00  0.00     0.010 A 
ATOM     37  C   UNL A   1      39.333  27.745  28.727  1.00  0.00    -0.014 A 
BRANCH  37  38
ATOM     38  C   UNL A   1      40.598  27.039  28.676  1.00  0.00     0.031 A 
ATOM     39  C   UNL A   1      40.677  25.607  28.401  1.00  0.00     0.074 A 
ATOM     40  C   UNL A   1      41.644  27.897  28.738  1.00  0.00     0.049 A 
ATOM     41  N   UNL A   1      41.593  24.841  28.875  1.00  0.00    -0.248 NA
ATOM     42  C   UNL A   1      39.721  24.902  27.553  1.00  0.00     0.031 C 
ATOM     43  C   UNL A   1      43.063  27.733  28.505  1.00  0.00     0.029 A 
ATOM     44  N   UNL A   1      41.536  29.238  29.161  1.00  0.00    -0.354 N 
ATOM     45  C   UNL A   1      41.581  23.686  28.122  1.00  0.00     0.074 A 
ATOM     46  C   UNL A   1      40.312  23.704  27.431  1.00  0.00     0.031 C 
ATOM     47  C   UNL A   1      43.704  28.755  29.115  1.00  0.00     0.029 A 
ATOM     48  C   UNL A   1      42.710  29.549  29.835  1.00  0.00     0.049 A 
ATOM     49  H   UNL A   1      40.773  29.841  29.007  1.00  0.00     0.167 HD
ATOM     50  C   UNL A   1      42.748  22.981  28.011  1.00  0.00     0.037 A 
ATOM     51  C   UNL A   1      42.592  29.722  31.184  1.00  0.00     0.037 A 
ATOM     52  C   UNL A   1      43.806  23.682  28.750  1.00  0.00     0.049 A 
ATOM     53  C   UNL A   1      43.237  28.567  31.907  1.00  0.00     0.074 A 
ATOM     54  C   UNL A   1      44.768  24.583  28.321  1.00  0.00     0.029 A 
ATOM     55  N   UNL A   1      43.701  23.850  30.130  1.00  0.00    -0.354 N 
ATOM     56  N   UNL A   1      43.400  27.379  31.387  1.00  0.00    -0.248 NA
ATOM     57  C   UNL A   1      43.802  28.684  33.242  1.00  0.00     0.031 C 
ATOM     58  C   UNL A   1      45.170  25.360  29.437  1.00  0.00     0.029 A 
ATOM     59  C   UNL A   1      44.465  24.928  30.548  1.00  0.00     0.049 A 
ATOM     60  H   UNL A   1      43.161  23.281  30.724  1.00  0.00     0.167 HD
ATOM     61  C   UNL A   1      44.122  26.603  32.247  1.00  0.00     0.074 A 
ATOM     62  C   UNL A   1      44.349  27.467  33.395  1.00  0.00     0.031 C 
ATOM     63  C   UNL A   1      44.500  25.322  31.951  1.00  0.00     0.037 A 
BRANCH  50  64
ATOM     64  C   UNL A   1      43.040  21.907  26.976  1.00  0.00     0.064 A 
ATOM     65  C   UNL A   1      42.387  20.652  27.039  1.00  0.00     0.173 A 
ATOM     66  C   UNL A   1      43.953  22.034  25.912  1.00  0.00     0.173 A 
ATOM     67  F   UNL A   1      41.424  20.404  27.935  1.00  0.00    -0.203 F 
ATOM     68  C   UNL A   1      42.691  19.592  26.177  1.00  0.00     0.198 A 
ATOM     69  C   UNL A   1      44.280  20.962  25.067  1.00  0.00     0.198 A 
ATOM     70  F   UNL A   1      44.521  23.208  25.617  1.00  0.00    -0.203 F 
ATOM     71  F   UNL A   1      42.042  18.426  26.303  1.00  0.00    -0.200 F 
ATOM     72  C   UNL A   1      43.655  19.739  25.205  1.00  0.00     0.200 A 
ATOM     73  F   UNL A   1      45.205  21.128  24.110  1.00  0.00    -0.200 F 
ATOM     74  F   UNL A   1      43.962  18.719  24.392  1.00  0.00    -0.200 F 
ENDBRANCH  50  64
BRANCH  51  75
ATOM     75  C   UNL A   1      41.331  30.442  31.595  1.00  0.00     0.064 A 
ATOM     76  C   UNL A   1      40.354  29.719  32.323  1.00  0.00     0.173 A 
ATOM     77  C   UNL A   1      41.162  31.832  31.549  1.00  0.00     0.173 A 
ATOM     78  F   UNL A   1      40.438  28.380  32.412  1.00  0.00    -0.203 F 
ATOM     79  C   UNL A   1      39.341  30.350  33.047  1.00  0.00     0.198 A 
ATOM     80  C   UNL A   1      40.120  32.464  32.247  1.00  0.00     0.198 A 
ATOM     81  F   UNL A   1      42.033  32.601  30.881  1.00  0.00    -0.203 F 
ATOM     82  F   UNL A   1      38.519  29.625  33.819  1.00  0.00    -0.200 F 
ATOM     83  C   UNL A   1      39.229  31.726  33.015  1.00  0.00     0.200 A 
ATOM     84  F   UNL A   1      40.016  33.802  32.231  1.00  0.00    -0.200 F 
ATOM     85  F   UNL A   1      38.281  32.338  33.737  1.00  0.00    -0.200 F 
ENDBRANCH  51  75
BRANCH  63  86
ATOM     86  C   UNL A   1      45.066  24.351  32.952  1.00  0.00     0.064 A 
ATOM     87  C   UNL A   1      44.396  23.191  33.369  1.00  0.00     0.173 A 
ATOM     88  C   UNL A   1      46.390  24.499  33.429  1.00  0.00     0.173 A 
ATOM     89  F   UNL A   1      43.204  22.850  32.862  1.00  0.00    -0.203 F 
ATOM     90  C   UNL A   1      44.960  22.307  34.286  1.00  0.00     0.198 A 
ATOM     91  C   UNL A   1      46.981  23.568  34.277  1.00  0.00     0.198 A 
ATOM     92  F   UNL A   1      47.162  25.535  33.068  1.00  0.00    -0.203 F 
ATOM     93  F   UNL A   1      44.244  21.259  34.718  1.00  0.00    -0.200 F 
ATOM     94  C   UNL A   1      46.254  22.489  34.732  1.00  0.00     0.200 A 
ATOM     95  F   UNL A   1      48.264  23.717  34.637  1.00  0.00    -0.200 F 
ATOM     96  F   UNL A   1      46.807  21.613  35.579  1.00  0.00    -0.200 F 
ENDBRANCH  63  86
ENDBRANCH  37  38
ENDBRANCH  30  32
ENDBRANCH  29  30
ENDBRANCH  28  29
ENDBRANCH   1  28
TORSDOF 15
ENDMDL
MODEL 2
REMARK VINA RESULT:     -14.3      1.213      1.801
REMARK SMILES Cc1ccccc1NC(=O)CSc1nc(C(=O)OCCOC(=O)c2ccc(-c3c4nc(c(-c5c(F)c(F)c(F)c(F)c5F)c5ccc([nH]5)c(-c5c(F)c(F)c(F)c(F)c5F)c5nc(c(-c6c(F)c(F)c(F)c(F)c6F)c6ccc3[nH]6)C=C5)C=C4)cc2)c2ccccc2n1
REMARK SMILES IDX 19 1 18 2 16 3 17 4 15 5 13 6 14 7 93 8 92 9 87 10 91 11
REMARK SMILES IDX 88 12 90 13 89 14 12 15 11 16 9 17 8 18 10 20 7 21 1 22 2 23
REMARK SMILES IDX 3 24 4 25 6 26 5 27 20 28 21 29 22 30 23 31 24 32 25 33
REMARK SMILES IDX 86 34 26 35 85 36 27 37 28 38 29 39 79 40 30 41 84 42 78 43
REMARK SMILES IDX 80 44 31 45 83 46 77 47 76 48 32 50 64 51 44 52 63 53 45 54
REMARK SMILES IDX 48 55 62 56 81 57 46 58 47 59 61 61 82 62 49 63 33 64 34 65
REMARK SMILES IDX 42 66 35 67 36 68 40 69 43 70 37 71 38 72 41 73 39 74 65 75
REMARK SMILES IDX 66 76 74 77 67 78 68 79 72 80 75 81 69 82 70 83 73 84 71 85
REMARK SMILES IDX 50 86 51 87 59 88 52 89 53 90 57 91 60 92 54 93 55 94 58 95
REMARK SMILES IDX 56 96
REMARK H PARENT 8 19 80 49 48 60
REMARK Flexibility Score: inf
ROOT
ATOM      1  C   UNL A   1      33.905  29.066  25.933  1.00  0.00     0.275 C 
ENDROOT
BRANCH   1   2
ATOM      2  O   UNL A   1      32.952  29.404  24.920  1.00  0.00    -0.457 OA
BRANCH   2   3
ATOM      3  C   UNL A   1      32.957  28.626  23.821  1.00  0.00     0.357 C 
ATOM      4  O   UNL A   1      33.880  28.549  23.001  1.00  0.00    -0.244 OA
BRANCH   3   5
ATOM      5  C   UNL A   1      31.721  27.815  23.778  1.00  0.00     0.160 A 
ATOM      6  C   UNL A   1      30.576  26.027  24.607  1.00  0.00     0.189 A 
ATOM      7  N   UNL A   1      31.742  26.666  24.499  1.00  0.00    -0.215 NA
ATOM      8  N   UNL A   1      29.411  26.500  24.145  1.00  0.00    -0.222 NA
ATOM      9  C   UNL A   1      29.421  27.654  23.463  1.00  0.00     0.076 A 
ATOM     10  C   UNL A   1      30.588  28.355  23.169  1.00  0.00     0.034 A 
ATOM     11  C   UNL A   1      28.213  28.213  23.068  1.00  0.00     0.029 A 
ATOM     12  C   UNL A   1      30.539  29.529  22.368  1.00  0.00     0.013 A 
ATOM     13  C   UNL A   1      28.149  29.400  22.331  1.00  0.00     0.002 A 
ATOM     14  C   UNL A   1      29.318  30.040  21.944  1.00  0.00     0.001 A 
BRANCH   6  15
ATOM     15  S   UNL A   1      30.484  24.634  25.699  1.00  0.00    -0.076 SA
BRANCH  15  16
ATOM     16  C   UNL A   1      32.136  23.893  25.544  1.00  0.00     0.178 C 
BRANCH  16  17
ATOM     17  C   UNL A   1      32.631  23.176  26.779  1.00  0.00     0.234 C 
ATOM     18  N   UNL A   1      33.851  22.580  26.902  1.00  0.00    -0.325 N 
ATOM     19  H   UNL A   1      33.954  22.096  27.753  1.00  0.00     0.169 HD
ATOM     20  O   UNL A   1      31.877  23.085  27.758  1.00  0.00    -0.274 OA
BRANCH  18  21
ATOM     21  C   UNL A   1      35.000  22.499  26.087  1.00  0.00     0.044 A 
ATOM     22  C   UNL A   1      34.209  20.220  25.132  1.00  0.00     0.046 C 
ATOM     23  C   UNL A   1      35.203  21.340  25.301  1.00  0.00    -0.027 A 
ATOM     24  C   UNL A   1      36.443  21.158  24.652  1.00  0.00     0.005 A 
ATOM     25  C   UNL A   1      37.439  22.127  24.713  1.00  0.00     0.000 A 
ATOM     26  C   UNL A   1      35.971  23.503  26.040  1.00  0.00     0.026 A 
ATOM     27  C   UNL A   1      37.187  23.315  25.378  1.00  0.00     0.002 A 
ENDBRANCH  18  21
ENDBRANCH  16  17
ENDBRANCH  15  16
ENDBRANCH   6  15
ENDBRANCH   3   5
ENDBRANCH   2   3
ENDBRANCH   1   2
BRANCH   1  28
ATOM     28  C   UNL A   1      34.168  30.111  27.043  1.00  0.00     0.275 C 
BRANCH  28  29
ATOM     29  O   UNL A   1      35.176  29.877  28.074  1.00  0.00    -0.458 OA
BRANCH  29  30
ATOM     30  C   UNL A   1      36.335  30.512  28.378  1.00  0.00     0.338 C 
ATOM     31  O   UNL A   1      36.390  31.722  28.577  1.00  0.00    -0.246 OA
BRANCH  30  32
ATOM     32  C   UNL A   1      37.533  29.691  28.578  1.00  0.00     0.060 A 
ATOM     33  C   UNL A   1      37.603  28.803  29.663  1.00  0.00     0.016 A 
ATOM     34  C   UNL A   1      38.501  29.685  27.597  1.00  0.00     0.016 A 
ATOM     35  C   UNL A   1      38.581  27.816  29.695  1.00  0.00     0.010 A 
ATOM     36  C   UNL A   1      39.279  28.571  27.480  1.00  0.00     0.010 A 
ATOM     37  C   UNL A   1      39.395  27.700  28.572  1.00  0.00    -0.014 A 
BRANCH  37  38
ATOM     38  C   UNL A   1      40.659  26.992  28.546  1.00  0.00     0.031 A 
ATOM     39  C   UNL A   1      40.739  25.555  28.296  1.00  0.00     0.074 A 
ATOM     40  C   UNL A   1      41.706  27.849  28.604  1.00  0.00     0.049 A 
ATOM     41  N   UNL A   1      41.649  24.796  28.791  1.00  0.00    -0.248 NA
ATOM     42  C   UNL A   1      39.791  24.838  27.450  1.00  0.00     0.031 C 
ATOM     43  C   UNL A   1      43.126  27.681  28.387  1.00  0.00     0.029 A 
ATOM     44  N   UNL A   1      41.595  29.197  29.003  1.00  0.00    -0.354 N 
ATOM     45  C   UNL A   1      41.643  23.629  28.057  1.00  0.00     0.074 A 
ATOM     46  C   UNL A   1      40.381  23.636  27.354  1.00  0.00     0.031 C 
ATOM     47  C   UNL A   1      43.763  28.712  28.986  1.00  0.00     0.029 A 
ATOM     48  C   UNL A   1      42.763  29.519  29.683  1.00  0.00     0.049 A 
ATOM     49  H   UNL A   1      40.835  29.799  28.832  1.00  0.00     0.167 HD
ATOM     50  C   UNL A   1      42.811  22.921  27.970  1.00  0.00     0.037 A 
ATOM     51  C   UNL A   1      42.633  29.714  31.028  1.00  0.00     0.037 A 
ATOM     52  C   UNL A   1      43.862  23.633  28.707  1.00  0.00     0.049 A 
ATOM     53  C   UNL A   1      43.269  28.571  31.776  1.00  0.00     0.074 A 
ATOM     54  C   UNL A   1      44.830  24.526  28.273  1.00  0.00     0.029 A 
ATOM     55  N   UNL A   1      43.744  23.824  30.083  1.00  0.00    -0.354 N 
ATOM     56  N   UNL A   1      43.435  27.374  31.278  1.00  0.00    -0.248 NA
ATOM     57  C   UNL A   1      43.821  28.710  33.114  1.00  0.00     0.031 C 
ATOM     58  C   UNL A   1      45.222  25.321  29.380  1.00  0.00     0.029 A 
ATOM     59  C   UNL A   1      44.505  24.909  30.491  1.00  0.00     0.049 A 
ATOM     60  H   UNL A   1      43.198  23.266  30.682  1.00  0.00     0.167 HD
ATOM     61  C   UNL A   1      44.148  26.612  32.158  1.00  0.00     0.074 A 
ATOM     62  C   UNL A   1      44.365  27.495  33.293  1.00  0.00     0.031 C 
ATOM     63  C   UNL A   1      44.527  25.325  31.887  1.00  0.00     0.037 A 
BRANCH  50  64
ATOM     64  C   UNL A   1      43.111  21.829  26.956  1.00  0.00     0.064 A 
ATOM     65  C   UNL A   1      42.439  20.585  27.019  1.00  0.00     0.173 A 
ATOM     66  C   UNL A   1      44.050  21.930  25.912  1.00  0.00     0.173 A 
ATOM     67  F   UNL A   1      41.452  20.362  27.896  1.00  0.00    -0.203 F 
ATOM     68  C   UNL A   1      42.748  19.510  26.178  1.00  0.00     0.198 A 
ATOM     69  C   UNL A   1      44.382  20.842  25.089  1.00  0.00     0.198 A 
ATOM     70  F   UNL A   1      44.642  23.092  25.616  1.00  0.00    -0.203 F 
ATOM     71  F   UNL A   1      42.080  18.354  26.305  1.00  0.00    -0.200 F 
ATOM     72  C   UNL A   1      43.737  19.630  25.228  1.00  0.00     0.200 A 
ATOM     73  F   UNL A   1      45.332  20.982  24.152  1.00  0.00    -0.200 F 
ATOM     74  F   UNL A   1      44.048  18.595  24.436  1.00  0.00    -0.200 F 
ENDBRANCH  50  64
BRANCH  51  75
ATOM     75  C   UNL A   1      41.368  30.443  31.415  1.00  0.00     0.064 A 
ATOM     76  C   UNL A   1      41.100  31.691  30.799  1.00  0.00     0.173 A 
ATOM     77  C   UNL A   1      40.310  29.868  32.130  1.00  0.00     0.173 A 
ATOM     78  F   UNL A   1      42.064  32.314  30.099  1.00  0.00    -0.203 F 
ATOM     79  C   UNL A   1      39.831  32.270  30.805  1.00  0.00     0.198 A 
ATOM     80  C   UNL A   1      39.042  30.471  32.168  1.00  0.00     0.198 A 
ATOM     81  F   UNL A   1      40.469  28.691  32.751  1.00  0.00    -0.203 F 
ATOM     82  F   UNL A   1      39.603  33.389  30.102  1.00  0.00    -0.200 F 
ATOM     83  C   UNL A   1      38.798  31.655  31.484  1.00  0.00     0.200 A 
ATOM     84  F   UNL A   1      38.031  29.869  32.813  1.00  0.00    -0.200 F 
ATOM     85  F   UNL A   1      37.569  32.189  31.462  1.00  0.00    -0.200 F 
ENDBRANCH  51  75
BRANCH  63  86
ATOM     86  C   UNL A   1      45.083  24.371  32.909  1.00  0.00     0.064 A 
ATOM     87  C   UNL A   1      44.416  23.208  33.324  1.00  0.00     0.173 A 
ATOM     88  C   UNL A   1      46.394  24.538  33.414  1.00  0.00     0.173 A 
ATOM     89  F   UNL A   1      43.239  22.849  32.795  1.00  0.00    -0.203 F 
ATOM     90  C   UNL A   1      44.970  22.339  34.261  1.00  0.00     0.198 A 
ATOM     91  C   UNL A   1      46.977  23.623  34.283  1.00  0.00     0.198 A 
ATOM     92  F   UNL A   1      47.162  25.579  33.059  1.00  0.00    -0.203 F 
ATOM     93  F   UNL A   1      44.257  21.287  34.688  1.00  0.00    -0.200 F 
ATOM     94  C   UNL A   1      46.252  22.541  34.733  1.00  0.00     0.200 A 
ATOM     95  F   UNL A   1      48.250  23.789  34.669  1.00  0.00    -0.200 F 
ATOM     96  F   UNL A   1      46.797  21.679  35.601  1.00  0.00    -0.200 F 
ENDBRANCH  63  86
ENDBRANCH  37  38
ENDBRANCH  30  32
ENDBRANCH  29  30
ENDBRANCH  28  29
ENDBRANCH   1  28
TORSDOF 15
ENDMDL
MODEL 3
REMARK VINA RESULT:     -14.2      3.973     10.662
REMARK SMILES Cc1ccccc1NC(=O)CSc1nc(C(=O)OCCOC(=O)c2ccc(-c3c4nc(c(-c5c(F)c(F)c(F)c(F)c5F)c5ccc([nH]5)c(-c5c(F)c(F)c(F)c(F)c5F)c5nc(c(-c6c(F)c(F)c(F)c(F)c6F)c6ccc3[nH]6)C=C5)C=C4)cc2)c2ccccc2n1
REMARK SMILES IDX 19 1 18 2 16 3 17 4 15 5 13 6 14 7 93 8 92 9 87 10 91 11
REMARK SMILES IDX 88 12 90 13 89 14 12 15 11 16 9 17 8 18 10 20 7 21 1 22 2 23
REMARK SMILES IDX 3 24 4 25 6 26 5 27 20 28 21 29 22 30 23 31 24 32 25 33
REMARK SMILES IDX 86 34 26 35 85 36 27 37 28 38 29 39 79 40 30 41 84 42 78 43
REMARK SMILES IDX 80 44 31 45 83 46 77 47 76 48 32 50 64 51 44 52 63 53 45 54
REMARK SMILES IDX 48 55 62 56 81 57 46 58 47 59 61 61 82 62 49 63 33 64 34 65
REMARK SMILES IDX 42 66 35 67 36 68 40 69 43 70 37 71 38 72 41 73 39 74 65 75
REMARK SMILES IDX 66 76 74 77 67 78 68 79 72 80 75 81 69 82 70 83 73 84 71 85
REMARK SMILES IDX 50 86 51 87 59 88 52 89 53 90 57 91 60 92 54 93 55 94 58 95
REMARK SMILES IDX 56 96
REMARK H PARENT 8 19 80 49 48 60
REMARK Flexibility Score: inf
ROOT
ATOM      1  C   UNL A   1      37.952  21.819  25.622  1.00  0.00     0.275 C 
ENDROOT
BRANCH   1   2
ATOM      2  O   UNL A   1      36.663  21.197  25.662  1.00  0.00    -0.457 OA
BRANCH   2   3
ATOM      3  C   UNL A   1      35.823  21.510  24.659  1.00  0.00     0.357 C 
ATOM      4  O   UNL A   1      36.144  22.074  23.605  1.00  0.00    -0.244 OA
BRANCH   3   5
ATOM      5  C   UNL A   1      34.466  21.010  24.969  1.00  0.00     0.160 A 
ATOM      6  C   UNL A   1      32.279  21.523  25.356  1.00  0.00     0.189 A 
ATOM      7  N   UNL A   1      33.537  21.956  25.254  1.00  0.00    -0.215 NA
ATOM      8  N   UNL A   1      31.891  20.267  25.098  1.00  0.00    -0.222 NA
ATOM      9  C   UNL A   1      32.832  19.363  24.790  1.00  0.00     0.076 A 
ATOM     10  C   UNL A   1      34.193  19.655  24.775  1.00  0.00     0.034 A 
ATOM     11  C   UNL A   1      32.439  18.085  24.417  1.00  0.00     0.029 A 
ATOM     12  C   UNL A   1      35.145  18.631  24.522  1.00  0.00     0.013 A 
ATOM     13  C   UNL A   1      33.366  17.084  24.108  1.00  0.00     0.002 A 
ATOM     14  C   UNL A   1      34.726  17.345  24.200  1.00  0.00     0.001 A 
BRANCH   6  15
ATOM     15  S   UNL A   1      30.991  22.728  25.523  1.00  0.00    -0.076 SA
BRANCH  15  16
ATOM     16  C   UNL A   1      31.866  24.294  25.230  1.00  0.00     0.178 C 
BRANCH  16  17
ATOM     17  C   UNL A   1      31.088  25.320  24.440  1.00  0.00     0.234 C 
ATOM     18  N   UNL A   1      31.147  26.669  24.636  1.00  0.00    -0.325 N 
ATOM     19  H   UNL A   1      30.505  27.163  24.077  1.00  0.00     0.169 HD
ATOM     20  O   UNL A   1      30.307  24.930  23.560  1.00  0.00    -0.274 OA
BRANCH  18  21
ATOM     21  C   UNL A   1      31.920  27.517  25.457  1.00  0.00     0.044 A 
ATOM     22  C   UNL A   1      33.690  27.783  23.581  1.00  0.00     0.046 C 
ATOM     23  C   UNL A   1      33.165  27.986  24.979  1.00  0.00    -0.027 A 
ATOM     24  C   UNL A   1      34.035  28.654  25.867  1.00  0.00     0.005 A 
ATOM     25  C   UNL A   1      33.662  28.921  27.179  1.00  0.00     0.000 A 
ATOM     26  C   UNL A   1      31.526  27.895  26.744  1.00  0.00     0.026 A 
ATOM     27  C   UNL A   1      32.392  28.572  27.606  1.00  0.00     0.002 A 
ENDBRANCH  18  21
ENDBRANCH  16  17
ENDBRANCH  15  16
ENDBRANCH   6  15
ENDBRANCH   3   5
ENDBRANCH   2   3
ENDBRANCH   1   2
BRANCH   1  28
ATOM     28  C   UNL A   1      38.060  23.271  26.145  1.00  0.00     0.275 C 
BRANCH  28  29
ATOM     29  O   UNL A   1      39.087  23.648  27.113  1.00  0.00    -0.458 OA
BRANCH  29  30
ATOM     30  C   UNL A   1      40.213  24.395  27.006  1.00  0.00     0.338 C 
ATOM     31  O   UNL A   1      41.203  24.009  26.391  1.00  0.00    -0.246 OA
BRANCH  30  32
ATOM     32  C   UNL A   1      40.190  25.751  27.561  1.00  0.00     0.060 A 
ATOM     33  C   UNL A   1      40.555  26.844  26.759  1.00  0.00     0.016 A 
ATOM     34  C   UNL A   1      39.647  25.944  28.813  1.00  0.00     0.016 A 
ATOM     35  C   UNL A   1      40.254  28.139  27.164  1.00  0.00     0.010 A 
ATOM     36  C   UNL A   1      39.108  27.166  29.090  1.00  0.00     0.010 A 
ATOM     37  C   UNL A   1      39.500  28.275  28.326  1.00  0.00    -0.014 A 
BRANCH  37  38
ATOM     38  C   UNL A   1      39.379  29.503  29.086  1.00  0.00     0.031 A 
ATOM     39  C   UNL A   1      38.351  30.498  28.795  1.00  0.00     0.074 A 
ATOM     40  C   UNL A   1      40.203  29.500  30.161  1.00  0.00     0.049 A 
ATOM     41  N   UNL A   1      38.506  31.759  28.987  1.00  0.00    -0.248 NA
ATOM     42  C   UNL A   1      37.037  30.157  28.260  1.00  0.00     0.031 C 
ATOM     43  C   UNL A   1      40.300  30.353  31.326  1.00  0.00     0.029 A 
ATOM     44  N   UNL A   1      41.284  28.608  30.321  1.00  0.00    -0.354 N 
ATOM     45  C   UNL A   1      37.249  32.326  28.975  1.00  0.00     0.074 A 
ATOM     46  C   UNL A   1      36.397  31.332  28.365  1.00  0.00     0.031 C 
ATOM     47  C   UNL A   1      41.534  30.194  31.855  1.00  0.00     0.029 A 
ATOM     48  C   UNL A   1      42.290  29.300  30.981  1.00  0.00     0.049 A 
ATOM     49  H   UNL A   1      41.318  27.671  30.021  1.00  0.00     0.167 HD
ATOM     50  C   UNL A   1      37.058  33.475  29.693  1.00  0.00     0.037 A 
ATOM     51  C   UNL A   1      43.396  29.594  30.236  1.00  0.00     0.037 A 
ATOM     52  C   UNL A   1      38.313  33.839  30.363  1.00  0.00     0.049 A 
ATOM     53  C   UNL A   1      43.444  31.073  29.951  1.00  0.00     0.074 A 
ATOM     54  C   UNL A   1      38.763  33.578  31.649  1.00  0.00     0.029 A 
ATOM     55  N   UNL A   1      39.443  34.154  29.611  1.00  0.00    -0.354 N 
ATOM     56  N   UNL A   1      42.393  31.849  29.939  1.00  0.00    -0.248 NA
ATOM     57  C   UNL A   1      44.685  31.796  29.722  1.00  0.00     0.031 C 
ATOM     58  C   UNL A   1      40.179  33.644  31.640  1.00  0.00     0.029 A 
ATOM     59  C   UNL A   1      40.595  33.956  30.355  1.00  0.00     0.049 A 
ATOM     60  H   UNL A   1      39.425  34.475  28.681  1.00  0.00     0.167 HD
ATOM     61  C   UNL A   1      42.788  33.146  29.773  1.00  0.00     0.074 A 
ATOM     62  C   UNL A   1      44.234  33.059  29.642  1.00  0.00     0.031 C 
ATOM     63  C   UNL A   1      41.911  34.195  29.777  1.00  0.00     0.037 A 
BRANCH  50  64
ATOM     64  C   UNL A   1      35.712  34.057  30.093  1.00  0.00     0.064 A 
ATOM     65  C   UNL A   1      34.852  34.616  29.117  1.00  0.00     0.173 A 
ATOM     66  C   UNL A   1      35.212  34.110  31.407  1.00  0.00     0.173 A 
ATOM     67  F   UNL A   1      35.139  34.560  27.810  1.00  0.00    -0.203 F 
ATOM     68  C   UNL A   1      33.649  35.255  29.439  1.00  0.00     0.198 A 
ATOM     69  C   UNL A   1      34.021  34.779  31.734  1.00  0.00     0.198 A 
ATOM     70  F   UNL A   1      35.824  33.477  32.413  1.00  0.00    -0.203 F 
ATOM     71  F   UNL A   1      32.891  35.775  28.464  1.00  0.00    -0.200 F 
ATOM     72  C   UNL A   1      33.245  35.358  30.751  1.00  0.00     0.200 A 
ATOM     73  F   UNL A   1      33.629  34.851  33.015  1.00  0.00    -0.200 F 
ATOM     74  F   UNL A   1      32.104  35.989  31.063  1.00  0.00    -0.200 F 
ENDBRANCH  50  64
BRANCH  51  75
ATOM     75  C   UNL A   1      43.803  28.488  29.292  1.00  0.00     0.064 A 
ATOM     76  C   UNL A   1      43.661  28.710  27.900  1.00  0.00     0.173 A 
ATOM     77  C   UNL A   1      44.554  27.365  29.665  1.00  0.00     0.173 A 
ATOM     78  F   UNL A   1      42.950  29.761  27.457  1.00  0.00    -0.203 F 
ATOM     79  C   UNL A   1      44.317  27.928  26.947  1.00  0.00     0.198 A 
ATOM     80  C   UNL A   1      45.182  26.556  28.704  1.00  0.00     0.198 A 
ATOM     81  F   UNL A   1      44.739  27.070  30.958  1.00  0.00    -0.203 F 
ATOM     82  F   UNL A   1      44.249  28.258  25.650  1.00  0.00    -0.200 F 
ATOM     83  C   UNL A   1      45.085  26.854  27.351  1.00  0.00     0.200 A 
ATOM     84  F   UNL A   1      45.943  25.521  29.092  1.00  0.00    -0.200 F 
ATOM     85  F   UNL A   1      45.745  26.123  26.442  1.00  0.00    -0.200 F 
ENDBRANCH  51  75
BRANCH  63  86
ATOM     86  C   UNL A   1      42.259  35.595  29.348  1.00  0.00     0.064 A 
ATOM     87  C   UNL A   1      43.140  36.425  30.059  1.00  0.00     0.173 A 
ATOM     88  C   UNL A   1      41.806  36.102  28.107  1.00  0.00     0.173 A 
ATOM     89  F   UNL A   1      43.767  35.999  31.163  1.00  0.00    -0.203 F 
ATOM     90  C   UNL A   1      43.451  37.710  29.621  1.00  0.00     0.198 A 
ATOM     91  C   UNL A   1      42.189  37.352  27.632  1.00  0.00     0.198 A 
ATOM     92  F   UNL A   1      41.002  35.392  27.302  1.00  0.00    -0.203 F 
ATOM     93  F   UNL A   1      44.230  38.495  30.379  1.00  0.00    -0.200 F 
ATOM     94  C   UNL A   1      42.984  38.170  28.405  1.00  0.00     0.200 A 
ATOM     95  F   UNL A   1      41.793  37.751  26.415  1.00  0.00    -0.200 F 
ATOM     96  F   UNL A   1      43.322  39.389  27.968  1.00  0.00    -0.200 F 
ENDBRANCH  63  86
ENDBRANCH  37  38
ENDBRANCH  30  32
ENDBRANCH  29  30
ENDBRANCH  28  29
ENDBRANCH   1  28
TORSDOF 15
ENDMDL
