MODEL 1
REMARK VINA RESULT:     -11.4      0.000      0.000
REMARK SMILES CCOc1ccc(-c2nc(C(=O)OCCOC(=O)c3ccc(-c4c5nc(c(-c6c(F)c(F)c(F)c(F)c6F)c6ccc([nH]6)c(-c6c(F)c(F)c(F)c(F)c6F)c6nc(c(-c7c(F)c(F)c(F)c(F)c7F)c7ccc4[nH]7)C=C6)C=C5)cc3)cc(=O)[nH]2)cc1
REMARK SMILES IDX 14 1 13 2 11 3 12 4 10 5 8 6 9 7 85 8 83 9 82 11 84 12 7 13
REMARK SMILES IDX 4 14 5 15 87 16 6 17 86 18 3 19 2 20 1 21 15 22 16 23 17 24
REMARK SMILES IDX 18 25 19 26 20 27 81 28 21 29 80 30 22 31 23 32 24 33 74 34
REMARK SMILES IDX 25 35 79 36 73 37 75 38 26 39 78 40 72 41 71 42 27 44 59 45
REMARK SMILES IDX 39 46 58 47 40 48 43 49 57 50 76 51 41 52 42 53 56 55 77 56
REMARK SMILES IDX 44 57 28 58 29 59 37 60 30 61 31 62 35 63 38 64 32 65 33 66
REMARK SMILES IDX 36 67 34 68 60 69 61 70 69 71 62 72 63 73 67 74 70 75 64 76
REMARK SMILES IDX 65 77 68 78 66 79 45 80 46 81 54 82 47 83 48 84 52 85 55 86
REMARK SMILES IDX 49 87 50 88 53 89 51 90
REMARK H PARENT 85 10 75 43 43 54
REMARK Flexibility Score: inf
ROOT
ATOM      1  C   UNL A   1      33.270  33.823  27.938  1.00  0.00     0.275 C 
ENDROOT
BRANCH   1   2
ATOM      2  O   UNL A   1      32.682  34.276  29.174  1.00  0.00    -0.457 OA
BRANCH   2   3
ATOM      3  C   UNL A   1      32.903  35.582  29.484  1.00  0.00     0.357 C 
ATOM      4  O   UNL A   1      32.565  36.540  28.803  1.00  0.00    -0.244 OA
BRANCH   3   5
ATOM      5  C   UNL A   1      33.511  35.718  30.852  1.00  0.00     0.156 A 
ATOM      6  C   UNL A   1      34.726  34.718  32.508  1.00  0.00     0.141 A 
ATOM      7  N   UNL A   1      34.170  34.616  31.349  1.00  0.00    -0.223 NA
ATOM      8  N   UNL A   1      34.649  35.843  33.277  1.00  0.00    -0.306 N 
ATOM      9  C   UNL A   1      33.994  36.961  32.847  1.00  0.00     0.251 A 
ATOM     10  H   UNL A   1      35.076  35.849  34.164  1.00  0.00     0.171 HD
ATOM     11  C   UNL A   1      33.388  36.877  31.510  1.00  0.00     0.107 A 
ATOM     12  O   UNL A   1      33.914  37.982  33.518  1.00  0.00    -0.269 OA
BRANCH   6  13
ATOM     13  C   UNL A   1      35.529  33.602  33.034  1.00  0.00     0.018 A 
ATOM     14  C   UNL A   1      37.289  31.667  33.976  1.00  0.00     0.119 A 
ATOM     15  C   UNL A   1      36.672  31.506  32.732  1.00  0.00     0.047 A 
ATOM     16  C   UNL A   1      37.031  32.798  34.747  1.00  0.00     0.047 A 
ATOM     17  C   UNL A   1      35.779  32.471  32.257  1.00  0.00     0.016 A 
ATOM     18  C   UNL A   1      36.144  33.767  34.278  1.00  0.00     0.016 A 
BRANCH  14  19
ATOM     19  O   UNL A   1      38.242  30.754  34.329  1.00  0.00    -0.494 OA
BRANCH  19  20
ATOM     20  C   UNL A   1      38.646  30.826  35.700  1.00  0.00     0.226 C 
ATOM     21  C   UNL A   1      40.159  30.764  35.837  1.00  0.00     0.049 C 
ENDBRANCH  19  20
ENDBRANCH  14  19
ENDBRANCH   6  13
ENDBRANCH   3   5
ENDBRANCH   2   3
ENDBRANCH   1   2
BRANCH   1  22
ATOM     22  C   UNL A   1      34.637  33.181  28.185  1.00  0.00     0.275 C 
BRANCH  22  23
ATOM     23  O   UNL A   1      34.492  31.919  28.863  1.00  0.00    -0.458 OA
BRANCH  23  24
ATOM     24  C   UNL A   1      34.580  30.820  28.081  1.00  0.00     0.338 C 
ATOM     25  O   UNL A   1      33.764  30.407  27.275  1.00  0.00    -0.246 OA
BRANCH  24  26
ATOM     26  C   UNL A   1      35.876  30.162  28.301  1.00  0.00     0.060 A 
ATOM     27  C   UNL A   1      36.147  29.636  29.559  1.00  0.00     0.016 A 
ATOM     28  C   UNL A   1      36.869  30.192  27.322  1.00  0.00     0.016 A 
ATOM     29  C   UNL A   1      37.431  29.204  29.876  1.00  0.00     0.010 A 
ATOM     30  C   UNL A   1      38.145  29.698  27.623  1.00  0.00     0.010 A 
ATOM     31  C   UNL A   1      38.450  29.236  28.916  1.00  0.00    -0.014 A 
BRANCH  31  32
ATOM     32  C   UNL A   1      39.832  28.830  29.293  1.00  0.00     0.031 A 
ATOM     33  C   UNL A   1      40.644  29.682  30.231  1.00  0.00     0.074 A 
ATOM     34  C   UNL A   1      40.349  27.674  28.832  1.00  0.00     0.049 A 
ATOM     35  N   UNL A   1      41.896  29.552  30.596  1.00  0.00    -0.248 NA
ATOM     36  C   UNL A   1      39.963  30.836  30.839  1.00  0.00     0.031 C 
ATOM     37  C   UNL A   1      39.656  26.726  27.959  1.00  0.00     0.029 A 
ATOM     38  N   UNL A   1      41.574  27.093  29.045  1.00  0.00    -0.354 N 
ATOM     39  C   UNL A   1      42.168  30.635  31.422  1.00  0.00     0.074 A 
ATOM     40  C   UNL A   1      40.948  31.407  31.520  1.00  0.00     0.031 C 
ATOM     41  C   UNL A   1      40.448  25.665  27.744  1.00  0.00     0.029 A 
ATOM     42  C   UNL A   1      41.731  25.889  28.403  1.00  0.00     0.049 A 
ATOM     43  H   UNL A   1      42.275  27.500  29.605  1.00  0.00     0.167 HD
ATOM     44  C   UNL A   1      43.330  30.955  32.036  1.00  0.00     0.037 A 
ATOM     45  C   UNL A   1      42.796  25.069  28.328  1.00  0.00     0.037 A 
ATOM     46  C   UNL A   1      44.527  30.157  31.992  1.00  0.00     0.049 A 
ATOM     47  C   UNL A   1      44.075  25.455  29.015  1.00  0.00     0.074 A 
ATOM     48  C   UNL A   1      45.744  30.392  32.610  1.00  0.00     0.029 A 
ATOM     49  N   UNL A   1      44.653  28.961  31.303  1.00  0.00    -0.354 N 
ATOM     50  N   UNL A   1      44.331  26.502  29.760  1.00  0.00    -0.248 NA
ATOM     51  C   UNL A   1      45.223  24.554  28.831  1.00  0.00     0.031 C 
ATOM     52  C   UNL A   1      46.616  29.352  32.274  1.00  0.00     0.029 A 
ATOM     53  C   UNL A   1      45.932  28.454  31.471  1.00  0.00     0.049 A 
ATOM     54  H   UNL A   1      43.941  28.536  30.773  1.00  0.00     0.167 HD
ATOM     55  C   UNL A   1      45.660  26.383  30.140  1.00  0.00     0.074 A 
ATOM     56  C   UNL A   1      46.154  25.152  29.561  1.00  0.00     0.031 C 
ATOM     57  C   UNL A   1      46.407  27.226  30.893  1.00  0.00     0.037 A 
BRANCH  44  58
ATOM     58  C   UNL A   1      43.385  32.248  32.792  1.00  0.00     0.064 A 
ATOM     59  C   UNL A   1      43.516  33.480  32.139  1.00  0.00     0.173 A 
ATOM     60  C   UNL A   1      43.239  32.251  34.188  1.00  0.00     0.173 A 
ATOM     61  F   UNL A   1      43.671  33.526  30.807  1.00  0.00    -0.203 F 
ATOM     62  C   UNL A   1      43.507  34.672  32.859  1.00  0.00     0.198 A 
ATOM     63  C   UNL A   1      43.212  33.445  34.902  1.00  0.00     0.198 A 
ATOM     64  F   UNL A   1      43.107  31.095  34.855  1.00  0.00    -0.203 F 
ATOM     65  F   UNL A   1      43.657  35.841  32.220  1.00  0.00    -0.200 F 
ATOM     66  C   UNL A   1      43.347  34.654  34.238  1.00  0.00     0.200 A 
ATOM     67  F   UNL A   1      43.048  33.425  36.232  1.00  0.00    -0.200 F 
ATOM     68  F   UNL A   1      43.327  35.803  34.927  1.00  0.00    -0.200 F 
ENDBRANCH  44  58
BRANCH  45  69
ATOM     69  C   UNL A   1      42.709  23.812  27.542  1.00  0.00     0.064 A 
ATOM     70  C   UNL A   1      42.262  22.623  28.133  1.00  0.00     0.173 A 
ATOM     71  C   UNL A   1      43.083  23.771  26.191  1.00  0.00     0.173 A 
ATOM     72  F   UNL A   1      41.923  22.606  29.431  1.00  0.00    -0.203 F 
ATOM     73  C   UNL A   1      42.202  21.437  27.405  1.00  0.00     0.198 A 
ATOM     74  C   UNL A   1      42.998  22.592  25.457  1.00  0.00     0.198 A 
ATOM     75  F   UNL A   1      43.526  24.882  25.584  1.00  0.00    -0.203 F 
ATOM     76  F   UNL A   1      41.812  20.304  28.003  1.00  0.00    -0.200 F 
ATOM     77  C   UNL A   1      42.564  21.424  26.065  1.00  0.00     0.200 A 
ATOM     78  F   UNL A   1      43.342  22.586  24.162  1.00  0.00    -0.200 F 
ATOM     79  F   UNL A   1      42.505  20.283  25.365  1.00  0.00    -0.200 F 
ENDBRANCH  45  69
BRANCH  57  80
ATOM     80  C   UNL A   1      47.829  26.834  31.148  1.00  0.00     0.064 A 
ATOM     81  C   UNL A   1      48.167  25.944  32.177  1.00  0.00     0.173 A 
ATOM     82  C   UNL A   1      48.861  27.328  30.337  1.00  0.00     0.173 A 
ATOM     83  F   UNL A   1      47.215  25.459  32.989  1.00  0.00    -0.203 F 
ATOM     84  C   UNL A   1      49.491  25.577  32.397  1.00  0.00     0.198 A 
ATOM     85  C   UNL A   1      50.181  26.943  30.546  1.00  0.00     0.198 A 
ATOM     86  F   UNL A   1      48.585  28.179  29.337  1.00  0.00    -0.203 F 
ATOM     87  F   UNL A   1      49.796  24.753  33.410  1.00  0.00    -0.200 F 
ATOM     88  C   UNL A   1      50.496  26.071  31.579  1.00  0.00     0.200 A 
ATOM     89  F   UNL A   1      51.151  27.416  29.752  1.00  0.00    -0.200 F 
ATOM     90  F   UNL A   1      51.770  25.715  31.792  1.00  0.00    -0.200 F 
ENDBRANCH  57  80
ENDBRANCH  31  32
ENDBRANCH  24  26
ENDBRANCH  23  24
ENDBRANCH  22  23
ENDBRANCH   1  22
TORSDOF 14
ENDMDL
MODEL 2
REMARK VINA RESULT:     -11.3      4.980     10.572
REMARK SMILES CCOc1ccc(-c2nc(C(=O)OCCOC(=O)c3ccc(-c4c5nc(c(-c6c(F)c(F)c(F)c(F)c6F)c6ccc([nH]6)c(-c6c(F)c(F)c(F)c(F)c6F)c6nc(c(-c7c(F)c(F)c(F)c(F)c7F)c7ccc4[nH]7)C=C6)C=C5)cc3)cc(=O)[nH]2)cc1
REMARK SMILES IDX 14 1 13 2 11 3 12 4 10 5 8 6 9 7 85 8 83 9 82 11 84 12 7 13
REMARK SMILES IDX 4 14 5 15 87 16 6 17 86 18 3 19 2 20 1 21 15 22 16 23 17 24
REMARK SMILES IDX 18 25 19 26 20 27 81 28 21 29 80 30 22 31 23 32 24 33 74 34
REMARK SMILES IDX 25 35 79 36 73 37 75 38 26 39 78 40 72 41 71 42 27 44 59 45
REMARK SMILES IDX 39 46 58 47 40 48 43 49 57 50 76 51 41 52 42 53 56 55 77 56
REMARK SMILES IDX 44 57 28 58 29 59 37 60 30 61 31 62 35 63 38 64 32 65 33 66
REMARK SMILES IDX 36 67 34 68 60 69 61 70 69 71 62 72 63 73 67 74 70 75 64 76
REMARK SMILES IDX 65 77 68 78 66 79 45 80 46 81 54 82 47 83 48 84 52 85 55 86
REMARK SMILES IDX 49 87 50 88 53 89 51 90
REMARK H PARENT 85 10 75 43 43 54
REMARK Flexibility Score: inf
ROOT
ATOM      1  C   UNL A   1      32.268  28.372  25.121  1.00  0.00     0.275 C 
ENDROOT
BRANCH   1   2
ATOM      2  O   UNL A   1      31.394  27.876  24.087  1.00  0.00    -0.457 OA
BRANCH   2   3
ATOM      3  C   UNL A   1      30.992  26.584  24.229  1.00  0.00     0.357 C 
ATOM      4  O   UNL A   1      30.100  26.196  24.972  1.00  0.00    -0.244 OA
BRANCH   3   5
ATOM      5  C   UNL A   1      31.700  25.686  23.253  1.00  0.00     0.156 A 
ATOM      6  C   UNL A   1      32.610  23.626  22.871  1.00  0.00     0.141 A 
ATOM      7  N   UNL A   1      32.029  24.425  23.699  1.00  0.00    -0.223 NA
ATOM      8  N   UNL A   1      32.954  23.987  21.600  1.00  0.00    -0.306 N 
ATOM      9  C   UNL A   1      32.672  25.228  21.108  1.00  0.00     0.251 A 
ATOM     10  H   UNL A   1      33.418  23.336  21.025  1.00  0.00     0.171 HD
ATOM     11  C   UNL A   1      31.972  26.140  22.025  1.00  0.00     0.107 A 
ATOM     12  O   UNL A   1      32.969  25.574  19.971  1.00  0.00    -0.269 OA
BRANCH   6  13
ATOM     13  C   UNL A   1      32.886  22.237  23.269  1.00  0.00     0.018 A 
ATOM     14  C   UNL A   1      33.141  19.617  24.167  1.00  0.00     0.119 A 
ATOM     15  C   UNL A   1      33.909  20.633  24.744  1.00  0.00     0.047 A 
ATOM     16  C   UNL A   1      32.241  19.912  23.146  1.00  0.00     0.047 A 
ATOM     17  C   UNL A   1      33.791  21.950  24.291  1.00  0.00     0.016 A 
ATOM     18  C   UNL A   1      32.116  21.224  22.690  1.00  0.00     0.016 A 
BRANCH  14  19
ATOM     19  O   UNL A   1      33.210  18.376  24.735  1.00  0.00    -0.494 OA
BRANCH  19  20
ATOM     20  C   UNL A   1      34.385  17.636  24.389  1.00  0.00     0.226 C 
ATOM     21  C   UNL A   1      34.140  16.735  23.189  1.00  0.00     0.049 C 
ENDBRANCH  19  20
ENDBRANCH  14  19
ENDBRANCH   6  13
ENDBRANCH   3   5
ENDBRANCH   2   3
ENDBRANCH   1   2
BRANCH   1  22
ATOM     22  C   UNL A   1      31.933  29.823  25.470  1.00  0.00     0.275 C 
BRANCH  22  23
ATOM     23  O   UNL A   1      32.247  30.101  26.848  1.00  0.00    -0.458 OA
BRANCH  23  24
ATOM     24  C   UNL A   1      32.876  31.274  27.082  1.00  0.00     0.338 C 
ATOM     25  O   UNL A   1      32.435  32.402  26.942  1.00  0.00    -0.246 OA
BRANCH  24  26
ATOM     26  C   UNL A   1      34.228  31.013  27.597  1.00  0.00     0.060 A 
ATOM     27  C   UNL A   1      34.597  29.698  27.855  1.00  0.00     0.016 A 
ATOM     28  C   UNL A   1      35.071  32.064  27.958  1.00  0.00     0.016 A 
ATOM     29  C   UNL A   1      35.774  29.422  28.544  1.00  0.00     0.010 A 
ATOM     30  C   UNL A   1      36.287  31.781  28.595  1.00  0.00     0.010 A 
ATOM     31  C   UNL A   1      36.632  30.459  28.929  1.00  0.00    -0.014 A 
BRANCH  31  32
ATOM     32  C   UNL A   1      37.855  30.149  29.720  1.00  0.00     0.031 A 
ATOM     33  C   UNL A   1      38.953  29.309  29.125  1.00  0.00     0.074 A 
ATOM     34  C   UNL A   1      38.005  30.653  30.961  1.00  0.00     0.049 A 
ATOM     35  N   UNL A   1      40.041  28.846  29.688  1.00  0.00    -0.248 NA
ATOM     36  C   UNL A   1      38.809  28.936  27.708  1.00  0.00     0.031 C 
ATOM     37  C   UNL A   1      37.047  31.523  31.643  1.00  0.00     0.029 A 
ATOM     38  N   UNL A   1      39.030  30.517  31.865  1.00  0.00    -0.354 N 
ATOM     39  C   UNL A   1      40.677  28.081  28.718  1.00  0.00     0.074 A 
ATOM     40  C   UNL A   1      39.863  28.153  27.524  1.00  0.00     0.031 C 
ATOM     41  C   UNL A   1      37.544  31.876  32.838  1.00  0.00     0.029 A 
ATOM     42  C   UNL A   1      38.823  31.201  33.037  1.00  0.00     0.049 A 
ATOM     43  H   UNL A   1      39.837  29.981  31.689  1.00  0.00     0.167 HD
ATOM     44  C   UNL A   1      41.830  27.381  28.820  1.00  0.00     0.037 A 
ATOM     45  C   UNL A   1      39.564  31.256  34.161  1.00  0.00     0.037 A 
ATOM     46  C   UNL A   1      42.675  27.358  29.985  1.00  0.00     0.049 A 
ATOM     47  C   UNL A   1      40.836  30.463  34.246  1.00  0.00     0.074 A 
ATOM     48  C   UNL A   1      43.879  26.697  30.166  1.00  0.00     0.029 A 
ATOM     49  N   UNL A   1      42.411  28.038  31.164  1.00  0.00    -0.354 N 
ATOM     50  N   UNL A   1      41.406  29.713  33.336  1.00  0.00    -0.248 NA
ATOM     51  C   UNL A   1      41.559  30.508  35.527  1.00  0.00     0.031 C 
ATOM     52  C   UNL A   1      44.331  26.957  31.464  1.00  0.00     0.029 A 
ATOM     53  C   UNL A   1      43.425  27.802  32.080  1.00  0.00     0.049 A 
ATOM     54  H   UNL A   1      41.622  28.604  31.326  1.00  0.00     0.167 HD
ATOM     55  C   UNL A   1      42.553  29.203  33.927  1.00  0.00     0.074 A 
ATOM     56  C   UNL A   1      42.612  29.746  35.268  1.00  0.00     0.031 C 
ATOM     57  C   UNL A   1      43.471  28.353  33.408  1.00  0.00     0.037 A 
BRANCH  44  58
ATOM     58  C   UNL A   1      42.245  26.546  27.647  1.00  0.00     0.064 A 
ATOM     59  C   UNL A   1      43.218  26.981  26.738  1.00  0.00     0.173 A 
ATOM     60  C   UNL A   1      41.702  25.264  27.472  1.00  0.00     0.173 A 
ATOM     61  F   UNL A   1      43.756  28.204  26.858  1.00  0.00    -0.203 F 
ATOM     62  C   UNL A   1      43.629  26.163  25.688  1.00  0.00     0.198 A 
ATOM     63  C   UNL A   1      42.128  24.442  26.433  1.00  0.00     0.198 A 
ATOM     64  F   UNL A   1      40.770  24.803  28.320  1.00  0.00    -0.203 F 
ATOM     65  F   UNL A   1      44.544  26.605  24.815  1.00  0.00    -0.200 F 
ATOM     66  C   UNL A   1      43.090  24.892  25.541  1.00  0.00     0.200 A 
ATOM     67  F   UNL A   1      41.613  23.211  26.298  1.00  0.00    -0.200 F 
ATOM     68  F   UNL A   1      43.495  24.103  24.537  1.00  0.00    -0.200 F 
ENDBRANCH  44  58
BRANCH  45  69
ATOM     69  C   UNL A   1      39.101  32.072  35.313  1.00  0.00     0.064 A 
ATOM     70  C   UNL A   1      39.409  33.435  35.400  1.00  0.00     0.173 A 
ATOM     71  C   UNL A   1      38.355  31.501  36.354  1.00  0.00     0.173 A 
ATOM     72  F   UNL A   1      40.148  34.018  34.443  1.00  0.00    -0.203 F 
ATOM     73  C   UNL A   1      38.997  34.197  36.491  1.00  0.00     0.198 A 
ATOM     74  C   UNL A   1      37.921  32.268  37.431  1.00  0.00     0.198 A 
ATOM     75  F   UNL A   1      38.043  30.197  36.320  1.00  0.00    -0.203 F 
ATOM     76  F   UNL A   1      39.340  35.490  36.572  1.00  0.00    -0.200 F 
ATOM     77  C   UNL A   1      38.247  33.615  37.503  1.00  0.00     0.200 A 
ATOM     78  F   UNL A   1      37.192  31.703  38.403  1.00  0.00    -0.200 F 
ATOM     79  F   UNL A   1      37.850  34.347  38.552  1.00  0.00    -0.200 F 
ENDBRANCH  45  69
BRANCH  57  80
ATOM     80  C   UNL A   1      44.624  27.974  34.285  1.00  0.00     0.064 A 
ATOM     81  C   UNL A   1      44.575  26.835  35.101  1.00  0.00     0.173 A 
ATOM     82  C   UNL A   1      45.799  28.739  34.286  1.00  0.00     0.173 A 
ATOM     83  F   UNL A   1      43.465  26.084  35.145  1.00  0.00    -0.203 F 
ATOM     84  C   UNL A   1      45.659  26.486  35.903  1.00  0.00     0.198 A 
ATOM     85  C   UNL A   1      46.887  28.375  35.073  1.00  0.00     0.198 A 
ATOM     86  F   UNL A   1      45.893  29.835  33.517  1.00  0.00    -0.203 F 
ATOM     87  F   UNL A   1      45.578  25.414  36.704  1.00  0.00    -0.200 F 
ATOM     88  C   UNL A   1      46.814  27.252  35.884  1.00  0.00     0.200 A 
ATOM     89  F   UNL A   1      48.006  29.112  35.050  1.00  0.00    -0.200 F 
ATOM     90  F   UNL A   1      47.856  26.912  36.656  1.00  0.00    -0.200 F 
ENDBRANCH  57  80
ENDBRANCH  31  32
ENDBRANCH  24  26
ENDBRANCH  23  24
ENDBRANCH  22  23
ENDBRANCH   1  22
TORSDOF 14
ENDMDL
MODEL 3
REMARK VINA RESULT:     -11.2      5.300      9.198
REMARK SMILES CCOc1ccc(-c2nc(C(=O)OCCOC(=O)c3ccc(-c4c5nc(c(-c6c(F)c(F)c(F)c(F)c6F)c6ccc([nH]6)c(-c6c(F)c(F)c(F)c(F)c6F)c6nc(c(-c7c(F)c(F)c(F)c(F)c7F)c7ccc4[nH]7)C=C6)C=C5)cc3)cc(=O)[nH]2)cc1
REMARK SMILES IDX 14 1 13 2 11 3 12 4 10 5 8 6 9 7 85 8 83 9 82 11 84 12 7 13
REMARK SMILES IDX 4 14 5 15 87 16 6 17 86 18 3 19 2 20 1 21 15 22 16 23 17 24
REMARK SMILES IDX 18 25 19 26 20 27 81 28 21 29 80 30 22 31 23 32 24 33 74 34
REMARK SMILES IDX 25 35 79 36 73 37 75 38 26 39 78 40 72 41 71 42 27 44 59 45
REMARK SMILES IDX 39 46 58 47 40 48 43 49 57 50 76 51 41 52 42 53 56 55 77 56
REMARK SMILES IDX 44 57 28 58 29 59 37 60 30 61 31 62 35 63 38 64 32 65 33 66
REMARK SMILES IDX 36 67 34 68 60 69 61 70 69 71 62 72 63 73 67 74 70 75 64 76
REMARK SMILES IDX 65 77 68 78 66 79 45 80 46 81 54 82 47 83 48 84 52 85 55 86
REMARK SMILES IDX 49 87 50 88 53 89 51 90
REMARK H PARENT 85 10 75 43 43 54
REMARK Flexibility Score: inf
ROOT
ATOM      1  C   UNL A   1      35.127  21.903  24.414  1.00  0.00     0.275 C 
ENDROOT
BRANCH   1   2
ATOM      2  O   UNL A   1      34.181  22.242  25.447  1.00  0.00    -0.457 OA
BRANCH   2   3
ATOM      3  C   UNL A   1      34.043  23.571  25.703  1.00  0.00     0.357 C 
ATOM      4  O   UNL A   1      34.943  24.399  25.662  1.00  0.00    -0.244 OA
BRANCH   3   5
ATOM      5  C   UNL A   1      32.601  23.934  25.923  1.00  0.00     0.156 A 
ATOM      6  C   UNL A   1      30.911  25.401  25.463  1.00  0.00     0.141 A 
ATOM      7  N   UNL A   1      32.152  25.085  25.314  1.00  0.00    -0.223 NA
ATOM      8  N   UNL A   1      30.044  24.680  26.232  1.00  0.00    -0.306 N 
ATOM      9  C   UNL A   1      30.433  23.542  26.876  1.00  0.00     0.251 A 
ATOM     10  H   UNL A   1      29.113  24.989  26.324  1.00  0.00     0.171 HD
ATOM     11  C   UNL A   1      31.835  23.142  26.683  1.00  0.00     0.107 A 
ATOM     12  O   UNL A   1      29.673  22.877  27.568  1.00  0.00    -0.269 OA
BRANCH   6  13
ATOM     13  C   UNL A   1      30.363  26.564  24.747  1.00  0.00     0.018 A 
ATOM     14  C   UNL A   1      29.358  28.597  23.139  1.00  0.00     0.119 A 
ATOM     15  C   UNL A   1      30.643  28.703  23.680  1.00  0.00     0.047 A 
ATOM     16  C   UNL A   1      28.579  27.472  23.395  1.00  0.00     0.047 A 
ATOM     17  C   UNL A   1      31.150  27.688  24.497  1.00  0.00     0.016 A 
ATOM     18  C   UNL A   1      29.079  26.454  24.206  1.00  0.00     0.016 A 
BRANCH  14  19
ATOM     19  O   UNL A   1      28.969  29.561  22.251  1.00  0.00    -0.494 OA
BRANCH  19  20
ATOM     20  C   UNL A   1      27.654  30.077  22.485  1.00  0.00     0.226 C 
ATOM     21  C   UNL A   1      27.674  31.210  23.499  1.00  0.00     0.049 C 
ENDBRANCH  19  20
ENDBRANCH  14  19
ENDBRANCH   6  13
ENDBRANCH   3   5
ENDBRANCH   2   3
ENDBRANCH   1   2
BRANCH   1  22
ATOM     22  C   UNL A   1      36.210  20.964  24.950  1.00  0.00     0.275 C 
BRANCH  22  23
ATOM     23  O   UNL A   1      36.974  21.608  25.987  1.00  0.00    -0.458 OA
BRANCH  23  24
ATOM     24  C   UNL A   1      38.316  21.476  25.895  1.00  0.00     0.338 C 
ATOM     25  O   UNL A   1      38.946  20.571  25.375  1.00  0.00    -0.246 OA
BRANCH  24  26
ATOM     26  C   UNL A   1      38.968  22.646  26.498  1.00  0.00     0.060 A 
ATOM     27  C   UNL A   1      38.484  23.911  26.183  1.00  0.00     0.016 A 
ATOM     28  C   UNL A   1      40.135  22.508  27.251  1.00  0.00     0.016 A 
ATOM     29  C   UNL A   1      39.198  25.047  26.549  1.00  0.00     0.010 A 
ATOM     30  C   UNL A   1      40.820  23.655  27.674  1.00  0.00     0.010 A 
ATOM     31  C   UNL A   1      40.379  24.935  27.294  1.00  0.00    -0.014 A 
BRANCH  31  32
ATOM     32  C   UNL A   1      41.163  26.158  27.622  1.00  0.00     0.031 A 
ATOM     33  C   UNL A   1      40.563  27.237  28.484  1.00  0.00     0.074 A 
ATOM     34  C   UNL A   1      42.430  26.289  27.183  1.00  0.00     0.049 A 
ATOM     35  N   UNL A   1      41.045  28.415  28.793  1.00  0.00    -0.248 NA
ATOM     36  C   UNL A   1      39.245  26.957  29.076  1.00  0.00     0.031 C 
ATOM     37  C   UNL A   1      43.155  25.301  26.384  1.00  0.00     0.029 A 
ATOM     38  N   UNL A   1      43.339  27.303  27.361  1.00  0.00    -0.354 N 
ATOM     39  C   UNL A   1      40.068  29.037  29.561  1.00  0.00     0.074 A 
ATOM     40  C   UNL A   1      38.970  28.103  29.686  1.00  0.00     0.031 C 
ATOM     41  C   UNL A   1      44.407  25.737  26.174  1.00  0.00     0.029 A 
ATOM     42  C   UNL A   1      44.551  27.065  26.762  1.00  0.00     0.049 A 
ATOM     43  H   UNL A   1      43.141  28.122  27.870  1.00  0.00     0.167 HD
ATOM     44  C   UNL A   1      40.087  30.276  30.105  1.00  0.00     0.037 A 
ATOM     45  C   UNL A   1      45.649  27.839  26.669  1.00  0.00     0.037 A 
ATOM     46  C   UNL A   1      41.202  31.185  30.037  1.00  0.00     0.049 A 
ATOM     47  C   UNL A   1      45.638  29.213  27.278  1.00  0.00     0.074 A 
ATOM     48  C   UNL A   1      41.318  32.451  30.586  1.00  0.00     0.029 A 
ATOM     49  N   UNL A   1      42.399  30.917  29.392  1.00  0.00    -0.354 N 
ATOM     50  N   UNL A   1      44.694  29.804  27.967  1.00  0.00    -0.248 NA
ATOM     51  C   UNL A   1      46.840  30.036  27.076  1.00  0.00     0.031 C 
ATOM     52  C   UNL A   1      42.576  32.961  30.250  1.00  0.00     0.029 A 
ATOM     53  C   UNL A   1      43.254  32.000  29.519  1.00  0.00     0.049 A 
ATOM     54  H   UNL A   1      42.609  30.082  28.914  1.00  0.00     0.167 HD
ATOM     55  C   UNL A   1      45.187  31.061  28.287  1.00  0.00     0.074 A 
ATOM     56  C   UNL A   1      46.523  31.141  27.736  1.00  0.00     0.031 C 
ATOM     57  C   UNL A   1      44.582  32.063  28.969  1.00  0.00     0.037 A 
BRANCH  44  58
ATOM     58  C   UNL A   1      38.849  30.749  30.804  1.00  0.00     0.064 A 
ATOM     59  C   UNL A   1      38.686  30.614  32.189  1.00  0.00     0.173 A 
ATOM     60  C   UNL A   1      37.842  31.405  30.080  1.00  0.00     0.173 A 
ATOM     61  F   UNL A   1      39.617  29.984  32.920  1.00  0.00    -0.203 F 
ATOM     62  C   UNL A   1      37.551  31.114  32.824  1.00  0.00     0.198 A 
ATOM     63  C   UNL A   1      36.718  31.919  30.721  1.00  0.00     0.198 A 
ATOM     64  F   UNL A   1      37.956  31.561  28.753  1.00  0.00    -0.203 F 
ATOM     65  F   UNL A   1      37.402  30.955  34.147  1.00  0.00    -0.200 F 
ATOM     66  C   UNL A   1      36.574  31.772  32.092  1.00  0.00     0.200 A 
ATOM     67  F   UNL A   1      35.779  32.562  30.013  1.00  0.00    -0.200 F 
ATOM     68  F   UNL A   1      35.488  32.262  32.707  1.00  0.00    -0.200 F 
ENDBRANCH  44  58
BRANCH  45  69
ATOM     69  C   UNL A   1      46.845  27.345  25.940  1.00  0.00     0.064 A 
ATOM     70  C   UNL A   1      46.989  27.559  24.564  1.00  0.00     0.173 A 
ATOM     71  C   UNL A   1      47.859  26.638  26.602  1.00  0.00     0.173 A 
ATOM     72  F   UNL A   1      46.030  28.204  23.882  1.00  0.00    -0.203 F 
ATOM     73  C   UNL A   1      48.098  27.076  23.873  1.00  0.00     0.198 A 
ATOM     74  C   UNL A   1      48.980  26.178  25.917  1.00  0.00     0.198 A 
ATOM     75  F   UNL A   1      47.762  26.399  27.919  1.00  0.00    -0.203 F 
ATOM     76  F   UNL A   1      48.193  27.257  22.549  1.00  0.00    -0.200 F 
ATOM     77  C   UNL A   1      49.096  26.391  24.552  1.00  0.00     0.200 A 
ATOM     78  F   UNL A   1      49.944  25.522  26.578  1.00  0.00    -0.200 F 
ATOM     79  F   UNL A   1      50.163  25.927  23.888  1.00  0.00    -0.200 F 
ENDBRANCH  45  69
BRANCH  57  80
ATOM     80  C   UNL A   1      45.366  33.322  29.171  1.00  0.00     0.064 A 
ATOM     81  C   UNL A   1      46.201  33.489  30.285  1.00  0.00     0.173 A 
ATOM     82  C   UNL A   1      45.308  34.357  28.227  1.00  0.00     0.173 A 
ATOM     83  F   UNL A   1      46.275  32.532  31.223  1.00  0.00    -0.203 F 
ATOM     84  C   UNL A   1      46.936  34.659  30.457  1.00  0.00     0.198 A 
ATOM     85  C   UNL A   1      46.060  35.516  28.391  1.00  0.00     0.198 A 
ATOM     86  F   UNL A   1      44.527  34.240  27.143  1.00  0.00    -0.203 F 
ATOM     87  F   UNL A   1      47.699  34.814  31.548  1.00  0.00    -0.200 F 
ATOM     88  C   UNL A   1      46.869  35.668  29.508  1.00  0.00     0.200 A 
ATOM     89  F   UNL A   1      46.000  36.489  27.471  1.00  0.00    -0.200 F 
ATOM     90  F   UNL A   1      47.579  36.792  29.675  1.00  0.00    -0.200 F 
ENDBRANCH  57  80
ENDBRANCH  31  32
ENDBRANCH  24  26
ENDBRANCH  23  24
ENDBRANCH  22  23
ENDBRANCH   1  22
TORSDOF 14
ENDMDL
