MODEL 1
REMARK VINA RESULT:     -11.6      0.000      0.000
REMARK SMILES C[C@@](NC(=O)CSCc1ccccc1)(C(=O)OCCOC(=O)c1ccc(-c2c3nc(c(-c4c(F)c(F)c(F)c(F)c4F)c4ccc([nH]4)c(-c4c(F)c(F)c(F)c(F)c4F)c4nc(c(-c5c(F)c(F)c(F)c(F)c5F)c5ccc2[nH]5)C=C4)C=C3)cc1)C1CC1
REMARK SMILES IDX 17 1 15 2 16 3 2 4 1 5 3 6 4 7 5 9 6 10 7 11 8 12 9 13 10 14
REMARK SMILES IDX 14 15 11 16 13 17 12 18 86 19 87 20 88 21 18 22 19 23 20 24
REMARK SMILES IDX 21 25 22 26 23 27 24 28 85 29 25 30 84 31 26 32 27 33 28 34
REMARK SMILES IDX 78 35 29 36 83 37 77 38 79 39 30 40 82 41 76 42 75 43 31 45
REMARK SMILES IDX 63 46 43 47 62 48 44 49 47 50 61 51 80 52 45 53 46 54 60 56
REMARK SMILES IDX 81 57 48 58 32 59 33 60 41 61 34 62 35 63 39 64 42 65 36 66
REMARK SMILES IDX 37 67 40 68 38 69 64 70 65 71 73 72 66 73 67 74 71 75 74 76
REMARK SMILES IDX 68 77 69 78 72 79 70 80 49 81 50 82 58 83 51 84 52 85 56 86
REMARK SMILES IDX 59 87 53 88 54 89 57 90 55 91
REMARK H PARENT 3 8 79 44 47 55
REMARK Flexibility Score: inf
ROOT
ATOM      1  O   UNL A   1      33.056  27.274  24.906  1.00  0.00    -0.460 OA
ENDROOT
BRANCH   1   2
ATOM      2  C   UNL A   1      32.671  26.302  24.021  1.00  0.00     0.331 C 
ATOM      3  O   UNL A   1      33.371  25.932  23.082  1.00  0.00    -0.249 OA
BRANCH   2   4
ATOM      4  C   UNL A   1      31.189  25.807  24.269  1.00  0.00     0.138 C 
ATOM      5  C   UNL A   1      30.738  24.789  23.196  1.00  0.00     0.048 C 
BRANCH   4   6
ATOM      6  N   UNL A   1      30.937  25.208  25.609  1.00  0.00    -0.340 N 
ATOM      7  C   UNL A   1      31.353  24.101  26.262  1.00  0.00     0.230 C 
ATOM      8  H   UNL A   1      30.317  25.750  26.149  1.00  0.00     0.164 HD
ATOM      9  O   UNL A   1      30.792  23.831  27.327  1.00  0.00    -0.274 OA
BRANCH   7  10
ATOM     10  C   UNL A   1      32.525  23.291  25.789  1.00  0.00     0.169 C 
BRANCH  10  11
ATOM     11  S   UNL A   1      32.002  21.670  25.159  1.00  0.00    -0.147 SA
BRANCH  11  12
ATOM     12  C   UNL A   1      33.554  20.774  25.227  1.00  0.00     0.105 C 
BRANCH  12  13
ATOM     13  C   UNL A   1      33.648  19.497  24.428  1.00  0.00    -0.038 A 
ATOM     14  C   UNL A   1      32.621  19.251  23.504  1.00  0.00     0.004 A 
ATOM     15  C   UNL A   1      34.624  18.501  24.606  1.00  0.00     0.004 A 
ATOM     16  C   UNL A   1      32.534  18.030  22.838  1.00  0.00     0.000 A 
ATOM     17  C   UNL A   1      34.519  17.267  23.966  1.00  0.00     0.000 A 
ATOM     18  C   UNL A   1      33.466  17.028  23.093  1.00  0.00     0.000 A 
ENDBRANCH  12  13
ENDBRANCH  11  12
ENDBRANCH  10  11
ENDBRANCH   7  10
ENDBRANCH   4   6
BRANCH   4  19
ATOM     19  C   UNL A   1      30.175  26.994  24.258  1.00  0.00     0.026 C 
ATOM     20  C   UNL A   1      29.969  27.748  22.942  1.00  0.00     0.007 C 
ATOM     21  C   UNL A   1      28.820  27.045  23.572  1.00  0.00     0.007 C 
ENDBRANCH   4  19
ENDBRANCH   2   4
ENDBRANCH   1   2
BRANCH   1  22
ATOM     22  C   UNL A   1      33.430  28.567  24.366  1.00  0.00     0.274 C 
BRANCH  22  23
ATOM     23  C   UNL A   1      32.620  29.696  25.010  1.00  0.00     0.275 C 
BRANCH  23  24
ATOM     24  O   UNL A   1      32.925  29.744  26.410  1.00  0.00    -0.458 OA
BRANCH  24  25
ATOM     25  C   UNL A   1      33.203  30.989  26.864  1.00  0.00     0.338 C 
ATOM     26  O   UNL A   1      32.470  31.956  26.903  1.00  0.00    -0.246 OA
BRANCH  25  27
ATOM     27  C   UNL A   1      34.454  30.884  27.627  1.00  0.00     0.060 A 
ATOM     28  C   UNL A   1      34.746  29.632  28.169  1.00  0.00     0.016 A 
ATOM     29  C   UNL A   1      35.342  31.951  27.767  1.00  0.00     0.016 A 
ATOM     30  C   UNL A   1      35.942  29.431  28.834  1.00  0.00     0.010 A 
ATOM     31  C   UNL A   1      36.546  31.747  28.445  1.00  0.00     0.010 A 
ATOM     32  C   UNL A   1      36.855  30.479  28.966  1.00  0.00    -0.014 A 
BRANCH  32  33
ATOM     33  C   UNL A   1      38.068  30.246  29.772  1.00  0.00     0.031 A 
ATOM     34  C   UNL A   1      39.154  29.405  29.184  1.00  0.00     0.074 A 
ATOM     35  C   UNL A   1      38.236  30.858  30.957  1.00  0.00     0.049 A 
ATOM     36  N   UNL A   1      40.242  28.948  29.744  1.00  0.00    -0.248 NA
ATOM     37  C   UNL A   1      39.007  29.051  27.763  1.00  0.00     0.031 C 
ATOM     38  C   UNL A   1      37.320  31.834  31.546  1.00  0.00     0.029 A 
ATOM     39  N   UNL A   1      39.247  30.747  31.878  1.00  0.00    -0.354 N 
ATOM     40  C   UNL A   1      40.891  28.226  28.754  1.00  0.00     0.074 A 
ATOM     41  C   UNL A   1      40.091  28.321  27.554  1.00  0.00     0.031 C 
ATOM     42  C   UNL A   1      37.799  32.213  32.744  1.00  0.00     0.029 A 
ATOM     43  C   UNL A   1      39.013  31.453  33.034  1.00  0.00     0.049 A 
ATOM     44  H   UNL A   1      40.061  30.214  31.726  1.00  0.00     0.167 HD
ATOM     45  C   UNL A   1      42.045  27.530  28.857  1.00  0.00     0.037 A 
ATOM     46  C   UNL A   1      39.675  31.429  34.207  1.00  0.00     0.037 A 
ATOM     47  C   UNL A   1      42.826  27.449  30.062  1.00  0.00     0.049 A 
ATOM     48  C   UNL A   1      40.877  30.523  34.340  1.00  0.00     0.074 A 
ATOM     49  C   UNL A   1      43.990  26.738  30.288  1.00  0.00     0.029 A 
ATOM     50  N   UNL A   1      42.513  28.100  31.247  1.00  0.00    -0.354 N 
ATOM     51  N   UNL A   1      41.462  29.781  33.430  1.00  0.00    -0.248 NA
ATOM     52  C   UNL A   1      41.498  30.435  35.670  1.00  0.00     0.031 C 
ATOM     53  C   UNL A   1      44.347  26.909  31.629  1.00  0.00     0.029 A 
ATOM     54  C   UNL A   1      43.443  27.778  32.220  1.00  0.00     0.049 A 
ATOM     55  H   UNL A   1      41.744  28.701  31.375  1.00  0.00     0.167 HD
ATOM     56  C   UNL A   1      42.528  29.159  34.069  1.00  0.00     0.074 A 
ATOM     57  C   UNL A   1      42.525  29.631  35.437  1.00  0.00     0.031 C 
ATOM     58  C   UNL A   1      43.424  28.270  33.574  1.00  0.00     0.037 A 
BRANCH  45  59
ATOM     59  C   UNL A   1      42.482  26.733  27.667  1.00  0.00     0.064 A 
ATOM     60  C   UNL A   1      43.441  27.206  26.762  1.00  0.00     0.173 A 
ATOM     61  C   UNL A   1      41.947  25.455  27.454  1.00  0.00     0.173 A 
ATOM     62  F   UNL A   1      43.961  28.434  26.908  1.00  0.00    -0.203 F 
ATOM     63  C   UNL A   1      43.843  26.428  25.679  1.00  0.00     0.198 A 
ATOM     64  C   UNL A   1      42.371  24.669  26.388  1.00  0.00     0.198 A 
ATOM     65  F   UNL A   1      41.018  24.963  28.288  1.00  0.00    -0.203 F 
ATOM     66  F   UNL A   1      44.734  26.911  24.803  1.00  0.00    -0.200 F 
ATOM     67  C   UNL A   1      43.316  25.156  25.500  1.00  0.00     0.200 A 
ATOM     68  F   UNL A   1      41.865  23.439  26.222  1.00  0.00    -0.200 F 
ATOM     69  F   UNL A   1      43.714  24.404  24.465  1.00  0.00    -0.200 F 
ENDBRANCH  45  59
BRANCH  46  70
ATOM     70  C   UNL A   1      39.172  32.194  35.383  1.00  0.00     0.064 A 
ATOM     71  C   UNL A   1      39.555  33.524  35.609  1.00  0.00     0.173 A 
ATOM     72  C   UNL A   1      38.363  31.581  36.355  1.00  0.00     0.173 A 
ATOM     73  F   UNL A   1      40.354  34.148  34.731  1.00  0.00    -0.203 F 
ATOM     74  C   UNL A   1      39.179  34.197  36.771  1.00  0.00     0.198 A 
ATOM     75  C   UNL A   1      37.955  32.267  37.496  1.00  0.00     0.198 A 
ATOM     76  F   UNL A   1      37.976  30.306  36.202  1.00  0.00    -0.203 F 
ATOM     77  F   UNL A   1      39.626  35.440  36.996  1.00  0.00    -0.200 F 
ATOM     78  C   UNL A   1      38.376  33.569  37.712  1.00  0.00     0.200 A 
ATOM     79  F   UNL A   1      37.172  31.657  38.397  1.00  0.00    -0.200 F 
ATOM     80  F   UNL A   1      38.027  34.211  38.836  1.00  0.00    -0.200 F 
ENDBRANCH  46  70
BRANCH  58  81
ATOM     81  C   UNL A   1      44.495  27.778  34.504  1.00  0.00     0.064 A 
ATOM     82  C   UNL A   1      44.335  26.606  35.257  1.00  0.00     0.173 A 
ATOM     83  C   UNL A   1      45.717  28.461  34.604  1.00  0.00     0.173 A 
ATOM     84  F   UNL A   1      43.181  25.922  35.207  1.00  0.00    -0.203 F 
ATOM     85  C   UNL A   1      45.349  26.149  36.095  1.00  0.00     0.198 A 
ATOM     86  C   UNL A   1      46.742  27.983  35.415  1.00  0.00     0.198 A 
ATOM     87  F   UNL A   1      45.925  29.583  33.898  1.00  0.00    -0.203 F 
ATOM     88  F   UNL A   1      45.155  25.056  36.843  1.00  0.00    -0.200 F 
ATOM     89  C   UNL A   1      46.554  26.833  36.166  1.00  0.00     0.200 A 
ATOM     90  F   UNL A   1      47.912  28.633  35.466  1.00  0.00    -0.200 F 
ATOM     91  F   UNL A   1      47.533  26.385  36.964  1.00  0.00    -0.200 F 
ENDBRANCH  58  81
ENDBRANCH  32  33
ENDBRANCH  25  27
ENDBRANCH  24  25
ENDBRANCH  23  24
ENDBRANCH  22  23
ENDBRANCH   1  22
TORSDOF 17
ENDMDL
MODEL 2
REMARK VINA RESULT:     -11.2      1.653      2.689
REMARK SMILES C[C@@](NC(=O)CSCc1ccccc1)(C(=O)OCCOC(=O)c1ccc(-c2c3nc(c(-c4c(F)c(F)c(F)c(F)c4F)c4ccc([nH]4)c(-c4c(F)c(F)c(F)c(F)c4F)c4nc(c(-c5c(F)c(F)c(F)c(F)c5F)c5ccc2[nH]5)C=C4)C=C3)cc1)C1CC1
REMARK SMILES IDX 17 1 15 2 16 3 2 4 1 5 3 6 4 7 5 9 6 10 7 11 8 12 9 13 10 14
REMARK SMILES IDX 14 15 11 16 13 17 12 18 86 19 87 20 88 21 18 22 19 23 20 24
REMARK SMILES IDX 21 25 22 26 23 27 24 28 85 29 25 30 84 31 26 32 27 33 28 34
REMARK SMILES IDX 78 35 29 36 83 37 77 38 79 39 30 40 82 41 76 42 75 43 31 45
REMARK SMILES IDX 63 46 43 47 62 48 44 49 47 50 61 51 80 52 45 53 46 54 60 56
REMARK SMILES IDX 81 57 48 58 32 59 33 60 41 61 34 62 35 63 39 64 42 65 36 66
REMARK SMILES IDX 37 67 40 68 38 69 64 70 65 71 73 72 66 73 67 74 71 75 74 76
REMARK SMILES IDX 68 77 69 78 72 79 70 80 49 81 50 82 58 83 51 84 52 85 56 86
REMARK SMILES IDX 59 87 53 88 54 89 57 90 55 91
REMARK H PARENT 3 8 79 44 47 55
REMARK Flexibility Score: inf
ROOT
ATOM      1  O   UNL A   1      31.993  29.475  24.347  1.00  0.00    -0.460 OA
ENDROOT
BRANCH   1   2
ATOM      2  C   UNL A   1      32.572  28.357  23.806  1.00  0.00     0.331 C 
ATOM      3  O   UNL A   1      33.784  28.159  23.811  1.00  0.00    -0.249 OA
BRANCH   2   4
ATOM      4  C   UNL A   1      31.525  27.425  23.073  1.00  0.00     0.138 C 
ATOM      5  C   UNL A   1      30.204  28.171  22.778  1.00  0.00     0.048 C 
BRANCH   4   6
ATOM      6  N   UNL A   1      32.003  26.812  21.804  1.00  0.00    -0.340 N 
ATOM      7  C   UNL A   1      32.906  25.863  21.473  1.00  0.00     0.230 C 
ATOM      8  H   UNL A   1      31.551  27.189  21.014  1.00  0.00     0.164 HD
ATOM      9  O   UNL A   1      33.166  25.725  20.275  1.00  0.00    -0.274 OA
BRANCH   7  10
ATOM     10  C   UNL A   1      33.488  24.928  22.494  1.00  0.00     0.169 C 
BRANCH  10  11
ATOM     11  S   UNL A   1      33.199  23.192  22.045  1.00  0.00    -0.147 SA
BRANCH  11  12
ATOM     12  C   UNL A   1      33.782  22.368  23.528  1.00  0.00     0.105 C 
BRANCH  12  13
ATOM     13  C   UNL A   1      32.996  22.595  24.796  1.00  0.00    -0.038 A 
ATOM     14  C   UNL A   1      31.666  22.148  24.806  1.00  0.00     0.004 A 
ATOM     15  C   UNL A   1      33.460  23.299  25.921  1.00  0.00     0.004 A 
ATOM     16  C   UNL A   1      30.815  22.455  25.866  1.00  0.00     0.000 A 
ATOM     17  C   UNL A   1      32.601  23.634  26.966  1.00  0.00     0.000 A 
ATOM     18  C   UNL A   1      31.275  23.223  26.931  1.00  0.00     0.000 A 
ENDBRANCH  12  13
ENDBRANCH  11  12
ENDBRANCH  10  11
ENDBRANCH   7  10
ENDBRANCH   4   6
BRANCH   4  19
ATOM     19  C   UNL A   1      31.182  26.162  23.924  1.00  0.00     0.026 C 
ATOM     20  C   UNL A   1      30.082  26.288  24.982  1.00  0.00     0.007 C 
ATOM     21  C   UNL A   1      29.917  25.322  23.863  1.00  0.00     0.007 C 
ENDBRANCH   4  19
ENDBRANCH   2   4
ENDBRANCH   1   2
BRANCH   1  22
ATOM     22  C   UNL A   1      31.574  29.411  25.734  1.00  0.00     0.274 C 
BRANCH  22  23
ATOM     23  C   UNL A   1      31.869  30.724  26.467  1.00  0.00     0.275 C 
BRANCH  23  24
ATOM     24  O   UNL A   1      33.283  30.830  26.676  1.00  0.00    -0.458 OA
BRANCH  24  25
ATOM     25  C   UNL A   1      33.661  31.989  27.267  1.00  0.00     0.338 C 
ATOM     26  O   UNL A   1      33.010  33.003  27.418  1.00  0.00    -0.246 OA
BRANCH  25  27
ATOM     27  C   UNL A   1      34.895  31.694  28.008  1.00  0.00     0.060 A 
ATOM     28  C   UNL A   1      34.971  30.438  28.610  1.00  0.00     0.016 A 
ATOM     29  C   UNL A   1      35.965  32.586  28.071  1.00  0.00     0.016 A 
ATOM     30  C   UNL A   1      36.131  30.056  29.260  1.00  0.00     0.010 A 
ATOM     31  C   UNL A   1      37.132  32.200  28.734  1.00  0.00     0.010 A 
ATOM     32  C   UNL A   1      37.222  30.925  29.315  1.00  0.00    -0.014 A 
BRANCH  32  33
ATOM     33  C   UNL A   1      38.397  30.514  30.107  1.00  0.00     0.031 A 
ATOM     34  C   UNL A   1      39.377  29.575  29.481  1.00  0.00     0.074 A 
ATOM     35  C   UNL A   1      38.635  31.050  31.317  1.00  0.00     0.049 A 
ATOM     36  N   UNL A   1      40.400  28.967  30.017  1.00  0.00    -0.248 NA
ATOM     37  C   UNL A   1      39.190  29.302  28.046  1.00  0.00     0.031 C 
ATOM     38  C   UNL A   1      37.841  32.103  31.949  1.00  0.00     0.029 A 
ATOM     39  N   UNL A   1      39.623  30.779  32.229  1.00  0.00    -0.354 N 
ATOM     40  C   UNL A   1      40.960  28.215  28.995  1.00  0.00     0.074 A 
ATOM     41  C   UNL A   1      40.180  28.457  27.802  1.00  0.00     0.031 C 
ATOM     42  C   UNL A   1      38.360  32.370  33.161  1.00  0.00     0.029 A 
ATOM     43  C   UNL A   1      39.473  31.458  33.414  1.00  0.00     0.049 A 
ATOM     44  H   UNL A   1      40.368  30.160  32.052  1.00  0.00     0.167 HD
ATOM     45  C   UNL A   1      42.022  27.383  29.065  1.00  0.00     0.037 A 
ATOM     46  C   UNL A   1      40.125  31.305  34.584  1.00  0.00     0.037 A 
ATOM     47  C   UNL A   1      42.786  27.157  30.263  1.00  0.00     0.049 A 
ATOM     48  C   UNL A   1      41.210  30.258  34.674  1.00  0.00     0.074 A 
ATOM     49  C   UNL A   1      43.856  26.304  30.455  1.00  0.00     0.029 A 
ATOM     50  N   UNL A   1      42.551  27.790  31.475  1.00  0.00    -0.354 N 
ATOM     51  N   UNL A   1      41.704  29.491  33.732  1.00  0.00    -0.248 NA
ATOM     52  C   UNL A   1      41.813  30.039  35.996  1.00  0.00     0.031 C 
ATOM     53  C   UNL A   1      44.228  26.373  31.800  1.00  0.00     0.029 A 
ATOM     54  C   UNL A   1      43.434  27.318  32.430  1.00  0.00     0.049 A 
ATOM     55  H   UNL A   1      41.859  28.473  31.632  1.00  0.00     0.167 HD
ATOM     56  C   UNL A   1      42.686  28.719  34.340  1.00  0.00     0.074 A 
ATOM     57  C   UNL A   1      42.737  29.128  35.727  1.00  0.00     0.031 C 
ATOM     58  C   UNL A   1      43.471  27.750  33.804  1.00  0.00     0.037 A 
BRANCH  45  59
ATOM     59  C   UNL A   1      42.363  26.591  27.841  1.00  0.00     0.064 A 
ATOM     60  C   UNL A   1      43.322  27.022  26.915  1.00  0.00     0.173 A 
ATOM     61  C   UNL A   1      41.734  25.358  27.614  1.00  0.00     0.173 A 
ATOM     62  F   UNL A   1      43.932  28.206  27.073  1.00  0.00    -0.203 F 
ATOM     63  C   UNL A   1      43.633  26.247  25.799  1.00  0.00     0.198 A 
ATOM     64  C   UNL A   1      42.066  24.575  26.514  1.00  0.00     0.198 A 
ATOM     65  F   UNL A   1      40.801  24.909  28.467  1.00  0.00    -0.203 F 
ATOM     66  F   UNL A   1      44.526  26.693  24.905  1.00  0.00    -0.200 F 
ATOM     67  C   UNL A   1      43.013  25.021  25.606  1.00  0.00     0.200 A 
ATOM     68  F   UNL A   1      41.471  23.388  26.336  1.00  0.00    -0.200 F 
ATOM     69  F   UNL A   1      43.324  24.272  24.540  1.00  0.00    -0.200 F 
ENDBRANCH  45  59
BRANCH  46  70
ATOM     70  C   UNL A   1      39.715  32.075  35.793  1.00  0.00     0.064 A 
ATOM     71  C   UNL A   1      38.672  31.634  36.620  1.00  0.00     0.173 A 
ATOM     72  C   UNL A   1      40.303  33.314  36.097  1.00  0.00     0.173 A 
ATOM     73  F   UNL A   1      38.052  30.475  36.357  1.00  0.00    -0.203 F 
ATOM     74  C   UNL A   1      38.212  32.416  37.680  1.00  0.00     0.198 A 
ATOM     75  C   UNL A   1      39.869  34.074  37.180  1.00  0.00     0.198 A 
ATOM     76  F   UNL A   1      41.294  33.794  35.333  1.00  0.00    -0.203 F 
ATOM     77  F   UNL A   1      37.162  32.005  38.405  1.00  0.00    -0.200 F 
ATOM     78  C   UNL A   1      38.814  33.633  37.962  1.00  0.00     0.200 A 
ATOM     79  F   UNL A   1      40.461  35.246  37.452  1.00  0.00    -0.200 F 
ATOM     80  F   UNL A   1      38.362  34.390  38.972  1.00  0.00    -0.200 F 
ENDBRANCH  46  70
BRANCH  58  81
ATOM     81  C   UNL A   1      44.474  27.095  34.710  1.00  0.00     0.064 A 
ATOM     82  C   UNL A   1      45.731  27.667  34.953  1.00  0.00     0.173 A 
ATOM     83  C   UNL A   1      44.151  25.907  35.384  1.00  0.00     0.173 A 
ATOM     84  F   UNL A   1      46.093  28.796  34.324  1.00  0.00    -0.203 F 
ATOM     85  C   UNL A   1      46.638  27.060  35.817  1.00  0.00     0.198 A 
ATOM     86  C   UNL A   1      45.046  25.322  36.274  1.00  0.00     0.198 A 
ATOM     87  F   UNL A   1      42.958  25.324  35.194  1.00  0.00    -0.203 F 
ATOM     88  F   UNL A   1      47.853  27.596  35.994  1.00  0.00    -0.200 F 
ATOM     89  C   UNL A   1      46.292  25.893  36.483  1.00  0.00     0.200 A 
ATOM     90  F   UNL A   1      44.702  24.206  36.931  1.00  0.00    -0.200 F 
ATOM     91  F   UNL A   1      47.163  25.317  37.323  1.00  0.00    -0.200 F 
ENDBRANCH  58  81
ENDBRANCH  32  33
ENDBRANCH  25  27
ENDBRANCH  24  25
ENDBRANCH  23  24
ENDBRANCH  22  23
ENDBRANCH   1  22
TORSDOF 17
ENDMDL
MODEL 3
REMARK VINA RESULT:     -11.0      1.703      2.945
REMARK SMILES C[C@@](NC(=O)CSCc1ccccc1)(C(=O)OCCOC(=O)c1ccc(-c2c3nc(c(-c4c(F)c(F)c(F)c(F)c4F)c4ccc([nH]4)c(-c4c(F)c(F)c(F)c(F)c4F)c4nc(c(-c5c(F)c(F)c(F)c(F)c5F)c5ccc2[nH]5)C=C4)C=C3)cc1)C1CC1
REMARK SMILES IDX 17 1 15 2 16 3 2 4 1 5 3 6 4 7 5 9 6 10 7 11 8 12 9 13 10 14
REMARK SMILES IDX 14 15 11 16 13 17 12 18 86 19 87 20 88 21 18 22 19 23 20 24
REMARK SMILES IDX 21 25 22 26 23 27 24 28 85 29 25 30 84 31 26 32 27 33 28 34
REMARK SMILES IDX 78 35 29 36 83 37 77 38 79 39 30 40 82 41 76 42 75 43 31 45
REMARK SMILES IDX 63 46 43 47 62 48 44 49 47 50 61 51 80 52 45 53 46 54 60 56
REMARK SMILES IDX 81 57 48 58 32 59 33 60 41 61 34 62 35 63 39 64 42 65 36 66
REMARK SMILES IDX 37 67 40 68 38 69 64 70 65 71 73 72 66 73 67 74 71 75 74 76
REMARK SMILES IDX 68 77 69 78 72 79 70 80 49 81 50 82 58 83 51 84 52 85 56 86
REMARK SMILES IDX 59 87 53 88 54 89 57 90 55 91
REMARK H PARENT 3 8 79 44 47 55
REMARK Flexibility Score: inf
ROOT
ATOM      1  O   UNL A   1      31.969  27.213  26.417  1.00  0.00    -0.460 OA
ENDROOT
BRANCH   1   2
ATOM      2  C   UNL A   1      31.073  26.694  25.520  1.00  0.00     0.331 C 
ATOM      3  O   UNL A   1      30.088  26.042  25.855  1.00  0.00    -0.249 OA
BRANCH   2   4
ATOM      4  C   UNL A   1      31.516  26.921  24.019  1.00  0.00     0.138 C 
ATOM      5  C   UNL A   1      32.798  27.779  23.924  1.00  0.00     0.048 C 
BRANCH   4   6
ATOM      6  N   UNL A   1      31.731  25.680  23.226  1.00  0.00    -0.340 N 
ATOM      7  C   UNL A   1      32.332  24.490  23.446  1.00  0.00     0.230 C 
ATOM      8  H   UNL A   1      31.342  25.741  22.324  1.00  0.00     0.164 HD
ATOM      9  O   UNL A   1      32.466  23.738  22.476  1.00  0.00    -0.274 OA
BRANCH   7  10
ATOM     10  C   UNL A   1      32.716  24.034  24.824  1.00  0.00     0.169 C 
BRANCH  10  11
ATOM     11  S   UNL A   1      34.349  24.667  25.302  1.00  0.00    -0.147 SA
BRANCH  11  12
ATOM     12  C   UNL A   1      35.413  23.617  24.311  1.00  0.00     0.105 C 
BRANCH  12  13
ATOM     13  C   UNL A   1      36.728  23.196  24.921  1.00  0.00    -0.038 A 
ATOM     14  C   UNL A   1      37.135  21.872  24.696  1.00  0.00     0.004 A 
ATOM     15  C   UNL A   1      37.517  23.991  25.769  1.00  0.00     0.004 A 
ATOM     16  C   UNL A   1      38.248  21.345  25.348  1.00  0.00     0.000 A 
ATOM     17  C   UNL A   1      38.611  23.455  26.447  1.00  0.00     0.000 A 
ATOM     18  C   UNL A   1      38.967  22.127  26.246  1.00  0.00     0.000 A 
ENDBRANCH  12  13
ENDBRANCH  11  12
ENDBRANCH  10  11
ENDBRANCH   7  10
ENDBRANCH   4   6
BRANCH   4  19
ATOM     19  C   UNL A   1      30.401  27.635  23.190  1.00  0.00     0.026 C 
ATOM     20  C   UNL A   1      29.877  28.979  23.702  1.00  0.00     0.007 C 
ATOM     21  C   UNL A   1      30.530  28.906  22.368  1.00  0.00     0.007 C 
ENDBRANCH   4  19
ENDBRANCH   2   4
ENDBRANCH   1   2
BRANCH   1  22
ATOM     22  C   UNL A   1      31.498  28.245  27.320  1.00  0.00     0.274 C 
BRANCH  22  23
ATOM     23  C   UNL A   1      31.790  29.644  26.769  1.00  0.00     0.275 C 
BRANCH  23  24
ATOM     24  O   UNL A   1      33.209  29.844  26.742  1.00  0.00    -0.458 OA
BRANCH  24  25
ATOM     25  C   UNL A   1      33.591  31.085  27.129  1.00  0.00     0.338 C 
ATOM     26  O   UNL A   1      32.938  32.109  27.123  1.00  0.00    -0.246 OA
BRANCH  25  27
ATOM     27  C   UNL A   1      34.838  30.918  27.887  1.00  0.00     0.060 A 
ATOM     28  C   UNL A   1      35.058  29.660  28.448  1.00  0.00     0.016 A 
ATOM     29  C   UNL A   1      35.789  31.932  28.004  1.00  0.00     0.016 A 
ATOM     30  C   UNL A   1      36.245  29.400  29.111  1.00  0.00     0.010 A 
ATOM     31  C   UNL A   1      36.982  31.668  28.680  1.00  0.00     0.010 A 
ATOM     32  C   UNL A   1      37.219  30.393  29.220  1.00  0.00    -0.014 A 
BRANCH  32  33
ATOM     33  C   UNL A   1      38.421  30.102  30.024  1.00  0.00     0.031 A 
ATOM     34  C   UNL A   1      39.458  29.200  29.439  1.00  0.00     0.074 A 
ATOM     35  C   UNL A   1      38.626  30.713  31.204  1.00  0.00     0.049 A 
ATOM     36  N   UNL A   1      40.522  28.689  29.999  1.00  0.00    -0.248 NA
ATOM     37  C   UNL A   1      39.286  28.843  28.021  1.00  0.00     0.031 C 
ATOM     38  C   UNL A   1      37.765  31.741  31.788  1.00  0.00     0.029 A 
ATOM     39  N   UNL A   1      39.633  30.555  32.122  1.00  0.00    -0.354 N 
ATOM     40  C   UNL A   1      41.128  27.925  29.013  1.00  0.00     0.074 A 
ATOM     41  C   UNL A   1      40.330  28.054  27.814  1.00  0.00     0.031 C 
ATOM     42  C   UNL A   1      38.269  32.103  32.981  1.00  0.00     0.029 A 
ATOM     43  C   UNL A   1      39.441  31.281  33.273  1.00  0.00     0.049 A 
ATOM     44  H   UNL A   1      40.416  29.978  31.971  1.00  0.00     0.167 HD
ATOM     45  C   UNL A   1      42.243  27.169  29.117  1.00  0.00     0.037 A 
ATOM     46  C   UNL A   1      40.105  31.231  34.444  1.00  0.00     0.037 A 
ATOM     47  C   UNL A   1      43.023  27.056  30.320  1.00  0.00     0.049 A 
ATOM     48  C   UNL A   1      41.258  30.263  34.580  1.00  0.00     0.074 A 
ATOM     49  C   UNL A   1      44.148  26.286  30.548  1.00  0.00     0.029 A 
ATOM     50  N   UNL A   1      42.750  27.732  31.501  1.00  0.00    -0.354 N 
ATOM     51  N   UNL A   1      41.799  29.484  33.674  1.00  0.00    -0.248 NA
ATOM     52  C   UNL A   1      41.878  30.152  35.908  1.00  0.00     0.031 C 
ATOM     53  C   UNL A   1      44.519  26.448  31.886  1.00  0.00     0.029 A 
ATOM     54  C   UNL A   1      43.666  27.369  32.473  1.00  0.00     0.049 A 
ATOM     55  H   UNL A   1      42.015  28.375  31.627  1.00  0.00     0.167 HD
ATOM     56  C   UNL A   1      42.832  28.811  34.314  1.00  0.00     0.074 A 
ATOM     57  C   UNL A   1      42.860  29.292  35.679  1.00  0.00     0.031 C 
ATOM     58  C   UNL A   1      43.678  27.871  33.823  1.00  0.00     0.037 A 
BRANCH  45  59
ATOM     59  C   UNL A   1      42.632  26.341  27.932  1.00  0.00     0.064 A 
ATOM     60  C   UNL A   1      42.075  25.079  27.687  1.00  0.00     0.173 A 
ATOM     61  C   UNL A   1      43.561  26.843  27.009  1.00  0.00     0.173 A 
ATOM     62  F   UNL A   1      41.204  24.544  28.555  1.00  0.00    -0.203 F 
ATOM     63  C   UNL A   1      42.441  24.345  26.561  1.00  0.00     0.198 A 
ATOM     64  C   UNL A   1      43.903  26.121  25.871  1.00  0.00     0.198 A 
ATOM     65  F   UNL A   1      44.129  28.042  27.206  1.00  0.00    -0.203 F 
ATOM     66  F   UNL A   1      41.926  23.125  26.362  1.00  0.00    -0.200 F 
ATOM     67  C   UNL A   1      43.346  24.872  25.650  1.00  0.00     0.200 A 
ATOM     68  F   UNL A   1      44.771  26.635  24.990  1.00  0.00    -0.200 F 
ATOM     69  F   UNL A   1      43.686  24.170  24.560  1.00  0.00    -0.200 F 
ENDBRANCH  45  59
BRANCH  46  70
ATOM     70  C   UNL A   1      39.649  32.031  35.616  1.00  0.00     0.064 A 
ATOM     71  C   UNL A   1      38.631  31.571  36.464  1.00  0.00     0.173 A 
ATOM     72  C   UNL A   1      40.164  33.315  35.862  1.00  0.00     0.173 A 
ATOM     73  F   UNL A   1      38.079  30.367  36.255  1.00  0.00    -0.203 F 
ATOM     74  C   UNL A   1      38.123  32.373  37.485  1.00  0.00     0.198 A 
ATOM     75  C   UNL A   1      39.684  34.099  36.908  1.00  0.00     0.198 A 
ATOM     76  F   UNL A   1      41.128  33.815  35.076  1.00  0.00    -0.203 F 
ATOM     77  F   UNL A   1      37.098  31.938  38.229  1.00  0.00    -0.200 F 
ATOM     78  C   UNL A   1      38.654  33.636  37.710  1.00  0.00     0.200 A 
ATOM     79  F   UNL A   1      40.207  35.315  37.124  1.00  0.00    -0.200 F 
ATOM     80  F   UNL A   1      38.156  34.412  38.683  1.00  0.00    -0.200 F 
ENDBRANCH  46  70
BRANCH  58  81
ATOM     81  C   UNL A   1      44.725  27.330  34.754  1.00  0.00     0.064 A 
ATOM     82  C   UNL A   1      45.965  27.965  34.917  1.00  0.00     0.173 A 
ATOM     83  C   UNL A   1      44.462  26.192  35.532  1.00  0.00     0.173 A 
ATOM     84  F   UNL A   1      46.270  29.049  34.187  1.00  0.00    -0.203 F 
ATOM     85  C   UNL A   1      46.914  27.465  35.804  1.00  0.00     0.198 A 
ATOM     86  C   UNL A   1      45.399  25.716  36.444  1.00  0.00     0.198 A 
ATOM     87  F   UNL A   1      43.288  25.553  35.421  1.00  0.00    -0.203 F 
ATOM     88  F   UNL A   1      48.111  28.057  35.905  1.00  0.00    -0.200 F 
ATOM     89  C   UNL A   1      46.626  26.347  36.573  1.00  0.00     0.200 A 
ATOM     90  F   UNL A   1      45.112  24.648  37.201  1.00  0.00    -0.200 F 
ATOM     91  F   UNL A   1      47.537  25.874  37.436  1.00  0.00    -0.200 F 
ENDBRANCH  58  81
ENDBRANCH  32  33
ENDBRANCH  25  27
ENDBRANCH  24  25
ENDBRANCH  23  24
ENDBRANCH  22  23
ENDBRANCH   1  22
TORSDOF 17
ENDMDL
