MODEL 1
REMARK VINA RESULT:      -9.9      0.000      0.000
REMARK SMILES Cc1cc(/C=C/C(=O)OCCOC(=O)c2ccc(-c3c4nc(c(-c5c(F)c(F)c(F)c(F)c5F)c5ccc([nH]5)c(-c5c(F)c(F)c(F)c(F)c5F)c5nc(c(-c6c(F)c(F)c(F)c(F)c6F)c6ccc3[nH]6)C=C5)C=C4)cc2)ccc1O
REMARK SMILES IDX 10 1 9 2 7 3 8 4 6 5 5 6 4 7 1 8 2 9 3 10 80 11 79 12 78 13
REMARK SMILES IDX 81 14 11 16 12 17 13 18 14 19 15 20 16 21 77 22 17 23 76 24
REMARK SMILES IDX 18 25 19 26 20 27 70 28 21 29 75 30 69 31 71 32 22 33 74 34
REMARK SMILES IDX 68 35 67 36 23 38 55 39 35 40 54 41 36 42 39 43 53 44 72 45
REMARK SMILES IDX 37 46 38 47 52 49 73 50 40 51 24 52 25 53 33 54 26 55 27 56
REMARK SMILES IDX 31 57 34 58 28 59 29 60 32 61 30 62 56 63 57 64 65 65 58 66
REMARK SMILES IDX 59 67 63 68 66 69 60 70 61 71 64 72 62 73 41 74 42 75 50 76
REMARK SMILES IDX 43 77 44 78 48 79 51 80 45 81 46 82 49 83 47 84
REMARK H PARENT 81 15 71 37 39 48
REMARK Flexibility Score: inf
ROOT
ATOM      1  C   UNL A   1      44.661  18.713  25.003  1.00  0.00     0.275 C 
ENDROOT
BRANCH   1   2
ATOM      2  O   UNL A   1      44.870  20.074  24.583  1.00  0.00    -0.459 OA
BRANCH   2   3
ATOM      3  C   UNL A   1      46.109  20.573  24.797  1.00  0.00     0.330 C 
ATOM      4  O   UNL A   1      47.164  19.968  24.665  1.00  0.00    -0.247 OA
BRANCH   3   5
ATOM      5  C   UNL A   1      46.096  22.003  25.163  1.00  0.00     0.094 C 
ATOM      6  C   UNL A   1      46.086  23.034  24.305  1.00  0.00     0.015 C 
BRANCH   6   7
ATOM      7  C   UNL A   1      46.183  24.429  24.760  1.00  0.00    -0.025 A 
ATOM      8  C   UNL A   1      43.820  27.354  25.406  1.00  0.00     0.048 C 
ATOM      9  C   UNL A   1      45.086  26.556  25.285  1.00  0.00    -0.009 A 
ATOM     10  C   UNL A   1      45.023  25.211  24.876  1.00  0.00     0.015 A 
ATOM     11  C   UNL A   1      46.340  27.109  25.568  1.00  0.00     0.118 A 
ATOM     12  C   UNL A   1      47.501  26.352  25.437  1.00  0.00     0.047 A 
ATOM     13  C   UNL A   1      47.424  25.021  25.030  1.00  0.00     0.012 A 
BRANCH  11  14
ATOM     14  O   UNL A   1      46.513  28.400  25.978  1.00  0.00    -0.508 OA
ATOM     15  H   UNL A   1      45.913  28.781  26.588  1.00  0.00     0.293 HD
ENDBRANCH  11  14
ENDBRANCH   6   7
ENDBRANCH   3   5
ENDBRANCH   2   3
ENDBRANCH   1   2
BRANCH   1  16
ATOM     16  C   UNL A   1      43.338  18.554  25.758  1.00  0.00     0.275 C 
BRANCH  16  17
ATOM     17  O   UNL A   1      42.289  19.357  25.184  1.00  0.00    -0.458 OA
BRANCH  17  18
ATOM     18  C   UNL A   1      41.418  19.886  26.076  1.00  0.00     0.338 C 
ATOM     19  O   UNL A   1      40.403  19.370  26.512  1.00  0.00    -0.246 OA
BRANCH  18  20
ATOM     20  C   UNL A   1      41.930  21.176  26.571  1.00  0.00     0.060 A 
ATOM     21  C   UNL A   1      41.949  21.384  27.954  1.00  0.00     0.016 A 
ATOM     22  C   UNL A   1      42.319  22.194  25.696  1.00  0.00     0.016 A 
ATOM     23  C   UNL A   1      42.354  22.614  28.469  1.00  0.00     0.010 A 
ATOM     24  C   UNL A   1      42.722  23.430  26.214  1.00  0.00     0.010 A 
ATOM     25  C   UNL A   1      42.733  23.650  27.604  1.00  0.00    -0.014 A 
BRANCH  25  26
ATOM     26  C   UNL A   1      43.102  24.975  28.162  1.00  0.00     0.031 A 
ATOM     27  C   UNL A   1      42.043  26.012  28.399  1.00  0.00     0.074 A 
ATOM     28  C   UNL A   1      44.382  25.232  28.481  1.00  0.00     0.049 A 
ATOM     29  N   UNL A   1      42.166  27.231  28.864  1.00  0.00    -0.248 NA
ATOM     30  C   UNL A   1      40.661  25.629  28.073  1.00  0.00     0.031 C 
ATOM     31  C   UNL A   1      45.494  24.297  28.322  1.00  0.00     0.029 A 
ATOM     32  N   UNL A   1      44.963  26.360  29.006  1.00  0.00    -0.354 N 
ATOM     33  C   UNL A   1      40.883  27.761  28.880  1.00  0.00     0.074 A 
ATOM     34  C   UNL A   1      39.997  26.741  28.357  1.00  0.00     0.031 C 
ATOM     35  C   UNL A   1      46.626  24.888  28.742  1.00  0.00     0.029 A 
ATOM     36  C   UNL A   1      46.322  26.252  29.168  1.00  0.00     0.049 A 
ATOM     37  H   UNL A   1      44.454  27.169  29.243  1.00  0.00     0.167 HD
ATOM     38  C   UNL A   1      40.481  28.983  29.304  1.00  0.00     0.037 A 
ATOM     39  C   UNL A   1      47.222  27.158  29.595  1.00  0.00     0.037 A 
ATOM     40  C   UNL A   1      41.360  29.994  29.832  1.00  0.00     0.049 A 
ATOM     41  C   UNL A   1      46.755  28.530  30.004  1.00  0.00     0.074 A 
ATOM     42  C   UNL A   1      41.040  31.253  30.310  1.00  0.00     0.029 A 
ATOM     43  N   UNL A   1      42.736  29.861  29.948  1.00  0.00    -0.354 N 
ATOM     44  N   UNL A   1      45.537  29.013  30.039  1.00  0.00    -0.248 NA
ATOM     45  C   UNL A   1      47.790  29.483  30.430  1.00  0.00     0.031 C 
ATOM     46  C   UNL A   1      42.227  31.899  30.675  1.00  0.00     0.029 A 
ATOM     47  C   UNL A   1      43.282  31.025  30.466  1.00  0.00     0.049 A 
ATOM     48  H   UNL A   1      43.249  29.058  29.700  1.00  0.00     0.167 HD
ATOM     49  C   UNL A   1      45.655  30.314  30.509  1.00  0.00     0.074 A 
ATOM     50  C   UNL A   1      47.063  30.542  30.760  1.00  0.00     0.031 C 
ATOM     51  C   UNL A   1      44.685  31.237  30.712  1.00  0.00     0.037 A 
BRANCH  38  52
ATOM     52  C   UNL A   1      39.021  29.307  29.197  1.00  0.00     0.064 A 
ATOM     53  C   UNL A   1      38.414  29.568  27.959  1.00  0.00     0.173 A 
ATOM     54  C   UNL A   1      38.209  29.311  30.342  1.00  0.00     0.173 A 
ATOM     55  F   UNL A   1      39.150  29.587  26.838  1.00  0.00    -0.203 F 
ATOM     56  C   UNL A   1      37.052  29.841  27.874  1.00  0.00     0.198 A 
ATOM     57  C   UNL A   1      36.843  29.561  30.249  1.00  0.00     0.198 A 
ATOM     58  F   UNL A   1      38.740  29.062  31.548  1.00  0.00    -0.203 F 
ATOM     59  F   UNL A   1      36.499  30.123  26.686  1.00  0.00    -0.200 F 
ATOM     60  C   UNL A   1      36.266  29.831  29.017  1.00  0.00     0.200 A 
ATOM     61  F   UNL A   1      36.083  29.539  31.353  1.00  0.00    -0.200 F 
ATOM     62  F   UNL A   1      34.953  30.086  28.932  1.00  0.00    -0.200 F 
ENDBRANCH  38  52
BRANCH  39  63
ATOM     63  C   UNL A   1      48.663  26.802  29.647  1.00  0.00     0.064 A 
ATOM     64  C   UNL A   1      49.179  26.025  30.692  1.00  0.00     0.173 A 
ATOM     65  C   UNL A   1      49.555  27.244  28.658  1.00  0.00     0.173 A 
ATOM     66  F   UNL A   1      48.369  25.603  31.675  1.00  0.00    -0.203 F 
ATOM     67  C   UNL A   1      50.535  25.713  30.754  1.00  0.00     0.198 A 
ATOM     68  C   UNL A   1      50.906  26.910  28.708  1.00  0.00     0.198 A 
ATOM     69  F   UNL A   1      49.111  27.995  27.640  1.00  0.00    -0.203 F 
ATOM     70  F   UNL A   1      51.011  25.005  31.788  1.00  0.00    -0.200 F 
ATOM     71  C   UNL A   1      51.396  26.151  29.759  1.00  0.00     0.200 A 
ATOM     72  F   UNL A   1      51.733  27.328  27.740  1.00  0.00    -0.200 F 
ATOM     73  F   UNL A   1      52.701  25.851  29.820  1.00  0.00    -0.200 F 
ENDBRANCH  39  63
BRANCH  51  74
ATOM     74  C   UNL A   1      45.107  32.572  31.252  1.00  0.00     0.064 A 
ATOM     75  C   UNL A   1      45.400  33.646  30.400  1.00  0.00     0.173 A 
ATOM     76  C   UNL A   1      45.177  32.791  32.636  1.00  0.00     0.173 A 
ATOM     77  F   UNL A   1      45.363  33.482  29.068  1.00  0.00    -0.203 F 
ATOM     78  C   UNL A   1      45.769  34.887  30.913  1.00  0.00     0.198 A 
ATOM     79  C   UNL A   1      45.521  34.039  33.147  1.00  0.00     0.198 A 
ATOM     80  F   UNL A   1      44.900  31.797  33.492  1.00  0.00    -0.203 F 
ATOM     81  F   UNL A   1      46.084  35.889  30.082  1.00  0.00    -0.200 F 
ATOM     82  C   UNL A   1      45.822  35.084  32.286  1.00  0.00     0.200 A 
ATOM     83  F   UNL A   1      45.563  34.231  34.472  1.00  0.00    -0.200 F 
ATOM     84  F   UNL A   1      46.171  36.281  32.778  1.00  0.00    -0.200 F 
ENDBRANCH  51  74
ENDBRANCH  25  26
ENDBRANCH  18  20
ENDBRANCH  17  18
ENDBRANCH  16  17
ENDBRANCH   1  16
TORSDOF 13
ENDMDL
MODEL 2
REMARK VINA RESULT:      -9.7      0.336      2.140
REMARK SMILES Cc1cc(/C=C/C(=O)OCCOC(=O)c2ccc(-c3c4nc(c(-c5c(F)c(F)c(F)c(F)c5F)c5ccc([nH]5)c(-c5c(F)c(F)c(F)c(F)c5F)c5nc(c(-c6c(F)c(F)c(F)c(F)c6F)c6ccc3[nH]6)C=C5)C=C4)cc2)ccc1O
REMARK SMILES IDX 10 1 9 2 7 3 8 4 6 5 5 6 4 7 1 8 2 9 3 10 80 11 79 12 78 13
REMARK SMILES IDX 81 14 11 16 12 17 13 18 14 19 15 20 16 21 77 22 17 23 76 24
REMARK SMILES IDX 18 25 19 26 20 27 70 28 21 29 75 30 69 31 71 32 22 33 74 34
REMARK SMILES IDX 68 35 67 36 23 38 55 39 35 40 54 41 36 42 39 43 53 44 72 45
REMARK SMILES IDX 37 46 38 47 52 49 73 50 40 51 24 52 25 53 33 54 26 55 27 56
REMARK SMILES IDX 31 57 34 58 28 59 29 60 32 61 30 62 56 63 57 64 65 65 58 66
REMARK SMILES IDX 59 67 63 68 66 69 60 70 61 71 64 72 62 73 41 74 42 75 50 76
REMARK SMILES IDX 43 77 44 78 48 79 51 80 45 81 46 82 49 83 47 84
REMARK H PARENT 81 15 71 37 39 48
REMARK Flexibility Score: inf
ROOT
ATOM      1  C   UNL A   1      44.719  18.766  25.540  1.00  0.00     0.275 C 
ENDROOT
BRANCH   1   2
ATOM      2  O   UNL A   1      44.892  19.977  24.779  1.00  0.00    -0.459 OA
BRANCH   2   3
ATOM      3  C   UNL A   1      46.138  20.502  24.785  1.00  0.00     0.330 C 
ATOM      4  O   UNL A   1      47.172  19.917  24.494  1.00  0.00    -0.247 OA
BRANCH   3   5
ATOM      5  C   UNL A   1      46.153  21.938  25.131  1.00  0.00     0.094 C 
ATOM      6  C   UNL A   1      45.534  22.916  24.454  1.00  0.00     0.015 C 
BRANCH   6   7
ATOM      7  C   UNL A   1      45.693  24.334  24.811  1.00  0.00    -0.025 A 
ATOM      8  C   UNL A   1      43.449  27.369  25.371  1.00  0.00     0.048 C 
ATOM      9  C   UNL A   1      44.684  26.525  25.245  1.00  0.00    -0.009 A 
ATOM     10  C   UNL A   1      44.563  25.158  24.929  1.00  0.00     0.015 A 
ATOM     11  C   UNL A   1      45.966  27.054  25.432  1.00  0.00     0.118 A 
ATOM     12  C   UNL A   1      47.096  26.253  25.297  1.00  0.00     0.047 A 
ATOM     13  C   UNL A   1      46.961  24.902  24.983  1.00  0.00     0.012 A 
BRANCH  11  14
ATOM     14  O   UNL A   1      46.195  28.362  25.747  1.00  0.00    -0.508 OA
ATOM     15  H   UNL A   1      45.690  28.778  26.418  1.00  0.00     0.293 HD
ENDBRANCH  11  14
ENDBRANCH   6   7
ENDBRANCH   3   5
ENDBRANCH   2   3
ENDBRANCH   1   2
BRANCH   1  16
ATOM     16  C   UNL A   1      43.236  18.437  25.743  1.00  0.00     0.275 C 
BRANCH  16  17
ATOM     17  O   UNL A   1      42.378  19.479  25.241  1.00  0.00    -0.458 OA
BRANCH  17  18
ATOM     18  C   UNL A   1      41.364  19.832  26.066  1.00  0.00     0.338 C 
ATOM     19  O   UNL A   1      40.401  19.156  26.384  1.00  0.00    -0.246 OA
BRANCH  18  20
ATOM     20  C   UNL A   1      41.635  21.156  26.655  1.00  0.00     0.060 A 
ATOM     21  C   UNL A   1      41.915  22.213  25.784  1.00  0.00     0.016 A 
ATOM     22  C   UNL A   1      41.685  21.346  28.039  1.00  0.00     0.016 A 
ATOM     23  C   UNL A   1      42.250  23.467  26.293  1.00  0.00     0.010 A 
ATOM     24  C   UNL A   1      42.026  22.604  28.549  1.00  0.00     0.010 A 
ATOM     25  C   UNL A   1      42.319  23.669  27.679  1.00  0.00    -0.014 A 
BRANCH  25  26
ATOM     26  C   UNL A   1      42.738  24.991  28.207  1.00  0.00     0.031 A 
ATOM     27  C   UNL A   1      41.714  26.060  28.457  1.00  0.00     0.074 A 
ATOM     28  C   UNL A   1      44.033  25.219  28.488  1.00  0.00     0.049 A 
ATOM     29  N   UNL A   1      41.882  27.281  28.899  1.00  0.00    -0.248 NA
ATOM     30  C   UNL A   1      40.315  25.709  28.173  1.00  0.00     0.031 C 
ATOM     31  C   UNL A   1      45.115  24.251  28.313  1.00  0.00     0.029 A 
ATOM     32  N   UNL A   1      44.658  26.338  28.979  1.00  0.00    -0.354 N 
ATOM     33  C   UNL A   1      40.614  27.846  28.942  1.00  0.00     0.074 A 
ATOM     34  C   UNL A   1      39.688  26.843  28.458  1.00  0.00     0.031 C 
ATOM     35  C   UNL A   1      46.273  24.818  28.694  1.00  0.00     0.029 A 
ATOM     36  C   UNL A   1      46.018  26.196  29.107  1.00  0.00     0.049 A 
ATOM     37  H   UNL A   1      44.177  27.163  29.218  1.00  0.00     0.167 HD
ATOM     38  C   UNL A   1      40.257  29.085  29.357  1.00  0.00     0.037 A 
ATOM     39  C   UNL A   1      46.952  27.084  29.496  1.00  0.00     0.037 A 
ATOM     40  C   UNL A   1      41.176  30.079  29.846  1.00  0.00     0.049 A 
ATOM     41  C   UNL A   1      46.533  28.473  29.896  1.00  0.00     0.074 A 
ATOM     42  C   UNL A   1      40.902  31.353  30.313  1.00  0.00     0.029 A 
ATOM     43  N   UNL A   1      42.550  29.910  29.927  1.00  0.00    -0.354 N 
ATOM     44  N   UNL A   1      45.329  28.989  29.957  1.00  0.00    -0.248 NA
ATOM     45  C   UNL A   1      47.604  29.404  30.280  1.00  0.00     0.031 C 
ATOM     46  C   UNL A   1      42.116  31.972  30.636  1.00  0.00     0.029 A 
ATOM     47  C   UNL A   1      43.141  31.067  30.412  1.00  0.00     0.049 A 
ATOM     48  H   UNL A   1      43.035  29.091  29.678  1.00  0.00     0.167 HD
ATOM     49  C   UNL A   1      45.495  30.293  30.403  1.00  0.00     0.074 A 
ATOM     50  C   UNL A   1      46.915  30.487  30.613  1.00  0.00     0.031 C 
ATOM     51  C   UNL A   1      44.555  31.245  30.618  1.00  0.00     0.037 A 
BRANCH  38  52
ATOM     52  C   UNL A   1      38.804  29.447  29.284  1.00  0.00     0.064 A 
ATOM     53  C   UNL A   1      38.018  29.571  30.440  1.00  0.00     0.173 A 
ATOM     54  C   UNL A   1      38.200  29.718  28.047  1.00  0.00     0.173 A 
ATOM     55  F   UNL A   1      38.546  29.312  31.646  1.00  0.00    -0.203 F 
ATOM     56  C   UNL A   1      36.676  29.934  30.357  1.00  0.00     0.198 A 
ATOM     57  C   UNL A   1      36.865  30.104  27.971  1.00  0.00     0.198 A 
ATOM     58  F   UNL A   1      38.910  29.619  26.913  1.00  0.00    -0.203 F 
ATOM     59  F   UNL A   1      35.935  30.013  31.471  1.00  0.00    -0.200 F 
ATOM     60  C   UNL A   1      36.103  30.207  29.125  1.00  0.00     0.200 A 
ATOM     61  F   UNL A   1      36.316  30.378  26.779  1.00  0.00    -0.200 F 
ATOM     62  F   UNL A   1      34.813  30.564  29.048  1.00  0.00    -0.200 F 
ENDBRANCH  38  52
BRANCH  39  63
ATOM     63  C   UNL A   1      48.384  26.690  29.515  1.00  0.00     0.064 A 
ATOM     64  C   UNL A   1      49.253  27.068  28.483  1.00  0.00     0.173 A 
ATOM     65  C   UNL A   1      48.909  25.916  30.561  1.00  0.00     0.173 A 
ATOM     66  F   UNL A   1      48.789  27.785  27.448  1.00  0.00    -0.203 F 
ATOM     67  C   UNL A   1      50.589  26.676  28.489  1.00  0.00     0.198 A 
ATOM     68  C   UNL A   1      50.251  25.546  30.579  1.00  0.00     0.198 A 
ATOM     69  F   UNL A   1      48.117  25.524  31.570  1.00  0.00    -0.203 F 
ATOM     70  F   UNL A   1      51.389  27.014  27.467  1.00  0.00    -0.200 F 
ATOM     71  C   UNL A   1      51.089  25.921  29.539  1.00  0.00     0.200 A 
ATOM     72  F   UNL A   1      50.732  24.824  31.600  1.00  0.00    -0.200 F 
ATOM     73  F   UNL A   1      52.375  25.545  29.544  1.00  0.00    -0.200 F 
ENDBRANCH  39  63
BRANCH  51  74
ATOM     74  C   UNL A   1      45.027  32.575  31.126  1.00  0.00     0.064 A 
ATOM     75  C   UNL A   1      45.160  32.829  32.499  1.00  0.00     0.173 A 
ATOM     76  C   UNL A   1      45.390  33.592  30.230  1.00  0.00     0.173 A 
ATOM     77  F   UNL A   1      44.811  31.894  33.395  1.00  0.00    -0.203 F 
ATOM     78  C   UNL A   1      45.621  34.060  32.957  1.00  0.00     0.198 A 
ATOM     79  C   UNL A   1      45.874  34.814  30.691  1.00  0.00     0.198 A 
ATOM     80  F   UNL A   1      45.286  33.397  28.908  1.00  0.00    -0.203 F 
ATOM     81  F   UNL A   1      45.702  34.297  34.274  1.00  0.00    -0.200 F 
ATOM     82  C   UNL A   1      45.984  35.049  32.053  1.00  0.00     0.200 A 
ATOM     83  F   UNL A   1      46.234  35.763  29.817  1.00  0.00    -0.200 F 
ATOM     84  F   UNL A   1      46.433  36.231  32.497  1.00  0.00    -0.200 F 
ENDBRANCH  51  74
ENDBRANCH  25  26
ENDBRANCH  18  20
ENDBRANCH  17  18
ENDBRANCH  16  17
ENDBRANCH   1  16
TORSDOF 13
ENDMDL
MODEL 3
REMARK VINA RESULT:      -9.5      0.388      7.662
REMARK SMILES Cc1cc(/C=C/C(=O)OCCOC(=O)c2ccc(-c3c4nc(c(-c5c(F)c(F)c(F)c(F)c5F)c5ccc([nH]5)c(-c5c(F)c(F)c(F)c(F)c5F)c5nc(c(-c6c(F)c(F)c(F)c(F)c6F)c6ccc3[nH]6)C=C5)C=C4)cc2)ccc1O
REMARK SMILES IDX 10 1 9 2 7 3 8 4 6 5 5 6 4 7 1 8 2 9 3 10 80 11 79 12 78 13
REMARK SMILES IDX 81 14 11 16 12 17 13 18 14 19 15 20 16 21 77 22 17 23 76 24
REMARK SMILES IDX 18 25 19 26 20 27 70 28 21 29 75 30 69 31 71 32 22 33 74 34
REMARK SMILES IDX 68 35 67 36 23 38 55 39 35 40 54 41 36 42 39 43 53 44 72 45
REMARK SMILES IDX 37 46 38 47 52 49 73 50 40 51 24 52 25 53 33 54 26 55 27 56
REMARK SMILES IDX 31 57 34 58 28 59 29 60 32 61 30 62 56 63 57 64 65 65 58 66
REMARK SMILES IDX 59 67 63 68 66 69 60 70 61 71 64 72 62 73 41 74 42 75 50 76
REMARK SMILES IDX 43 77 44 78 48 79 51 80 45 81 46 82 49 83 47 84
REMARK H PARENT 81 15 71 37 39 48
REMARK Flexibility Score: inf
ROOT
ATOM      1  C   UNL A   1      44.718  18.775  25.330  1.00  0.00     0.275 C 
ENDROOT
BRANCH   1   2
ATOM      2  O   UNL A   1      44.799  20.124  24.831  1.00  0.00    -0.459 OA
BRANCH   2   3
ATOM      3  C   UNL A   1      46.029  20.688  24.856  1.00  0.00     0.330 C 
ATOM      4  O   UNL A   1      47.084  20.133  24.582  1.00  0.00    -0.247 OA
BRANCH   3   5
ATOM      5  C   UNL A   1      45.994  22.124  25.198  1.00  0.00     0.094 C 
ATOM      6  C   UNL A   1      46.193  23.140  24.345  1.00  0.00     0.015 C 
BRANCH   6   7
ATOM      7  C   UNL A   1      46.246  24.539  24.797  1.00  0.00    -0.025 A 
ATOM      8  C   UNL A   1      43.788  27.375  25.480  1.00  0.00     0.048 C 
ATOM      9  C   UNL A   1      45.080  26.625  25.338  1.00  0.00    -0.009 A 
ATOM     10  C   UNL A   1      45.060  25.277  24.931  1.00  0.00     0.015 A 
ATOM     11  C   UNL A   1      46.318  27.224  25.597  1.00  0.00     0.118 A 
ATOM     12  C   UNL A   1      47.503  26.510  25.447  1.00  0.00     0.047 A 
ATOM     13  C   UNL A   1      47.468  25.177  25.043  1.00  0.00     0.012 A 
BRANCH  11  14
ATOM     14  O   UNL A   1      46.450  28.521  26.002  1.00  0.00    -0.508 OA
ATOM     15  H   UNL A   1      45.689  29.052  26.128  1.00  0.00     0.293 HD
ENDBRANCH  11  14
ENDBRANCH   6   7
ENDBRANCH   3   5
ENDBRANCH   2   3
ENDBRANCH   1   2
BRANCH   1  16
ATOM     16  C   UNL A   1      43.266  18.297  25.427  1.00  0.00     0.275 C 
BRANCH  16  17
ATOM     17  O   UNL A   1      42.601  18.825  26.590  1.00  0.00    -0.458 OA
BRANCH  17  18
ATOM     18  C   UNL A   1      41.619  19.721  26.332  1.00  0.00     0.338 C 
ATOM     19  O   UNL A   1      40.505  19.490  25.894  1.00  0.00    -0.246 OA
BRANCH  18  20
ATOM     20  C   UNL A   1      42.038  21.063  26.774  1.00  0.00     0.060 A 
ATOM     21  C   UNL A   1      42.103  21.306  28.149  1.00  0.00     0.016 A 
ATOM     22  C   UNL A   1      42.293  22.089  25.860  1.00  0.00     0.016 A 
ATOM     23  C   UNL A   1      42.422  22.580  28.619  1.00  0.00     0.010 A 
ATOM     24  C   UNL A   1      42.610  23.368  26.332  1.00  0.00     0.010 A 
ATOM     25  C   UNL A   1      42.667  23.623  27.714  1.00  0.00    -0.014 A 
BRANCH  25  26
ATOM     26  C   UNL A   1      42.943  24.988  28.226  1.00  0.00     0.031 A 
ATOM     27  C   UNL A   1      44.347  25.391  28.572  1.00  0.00     0.074 A 
ATOM     28  C   UNL A   1      41.938  25.871  28.352  1.00  0.00     0.049 A 
ATOM     29  N   UNL A   1      44.790  26.528  29.048  1.00  0.00    -0.248 NA
ATOM     30  C   UNL A   1      45.394  24.381  28.355  1.00  0.00     0.031 C 
ATOM     31  C   UNL A   1      40.539  25.606  28.022  1.00  0.00     0.029 A 
ATOM     32  N   UNL A   1      41.939  27.171  28.792  1.00  0.00    -0.354 N 
ATOM     33  C   UNL A   1      46.162  26.371  29.191  1.00  0.00     0.074 A 
ATOM     34  C   UNL A   1      46.478  25.020  28.775  1.00  0.00     0.031 C 
ATOM     35  C   UNL A   1      39.814  26.711  28.270  1.00  0.00     0.029 A 
ATOM     36  C   UNL A   1      40.694  27.748  28.805  1.00  0.00     0.049 A 
ATOM     37  H   UNL A   1      42.756  27.646  29.071  1.00  0.00     0.167 HD
ATOM     38  C   UNL A   1      47.074  27.276  29.620  1.00  0.00     0.037 A 
ATOM     39  C   UNL A   1      40.305  28.968  29.220  1.00  0.00     0.037 A 
ATOM     40  C   UNL A   1      46.761  28.621  30.025  1.00  0.00     0.049 A 
ATOM     41  C   UNL A   1      41.332  29.934  29.748  1.00  0.00     0.074 A 
ATOM     42  C   UNL A   1      47.623  29.618  30.451  1.00  0.00     0.029 A 
ATOM     43  N   UNL A   1      45.483  29.158  30.059  1.00  0.00    -0.354 N 
ATOM     44  N   UNL A   1      42.630  29.784  29.856  1.00  0.00    -0.248 NA
ATOM     45  C   UNL A   1      40.838  31.238  30.214  1.00  0.00     0.031 C 
ATOM     46  C   UNL A   1      46.861  30.744  30.783  1.00  0.00     0.029 A 
ATOM     47  C   UNL A   1      45.530  30.463  30.523  1.00  0.00     0.049 A 
ATOM     48  H   UNL A   1      44.662  28.682  29.792  1.00  0.00     0.167 HD
ATOM     49  C   UNL A   1      43.109  30.977  30.381  1.00  0.00     0.074 A 
ATOM     50  C   UNL A   1      41.966  31.847  30.556  1.00  0.00     0.031 C 
ATOM     51  C   UNL A   1      44.383  31.318  30.691  1.00  0.00     0.037 A 
BRANCH  38  52
ATOM     52  C   UNL A   1      48.505  26.835  29.692  1.00  0.00     0.064 A 
ATOM     53  C   UNL A   1      48.961  25.979  30.706  1.00  0.00     0.173 A 
ATOM     54  C   UNL A   1      49.422  27.235  28.708  1.00  0.00     0.173 A 
ATOM     55  F   UNL A   1      48.126  25.578  31.676  1.00  0.00    -0.203 F 
ATOM     56  C   UNL A   1      50.287  25.557  30.744  1.00  0.00     0.198 A 
ATOM     57  C   UNL A   1      50.741  26.791  28.736  1.00  0.00     0.198 A 
ATOM     58  F   UNL A   1      49.034  28.047  27.714  1.00  0.00    -0.203 F 
ATOM     59  F   UNL A   1      50.710  24.769  31.742  1.00  0.00    -0.200 F 
ATOM     60  C   UNL A   1      51.174  25.958  29.756  1.00  0.00     0.200 A 
ATOM     61  F   UNL A   1      51.594  27.170  27.774  1.00  0.00    -0.200 F 
ATOM     62  F   UNL A   1      52.449  25.544  29.789  1.00  0.00    -0.200 F 
ENDBRANCH  38  52
BRANCH  39  63
ATOM     63  C   UNL A   1      38.869  29.346  29.164  1.00  0.00     0.064 A 
ATOM     64  C   UNL A   1      38.090  29.404  30.327  1.00  0.00     0.173 A 
ATOM     65  C   UNL A   1      38.244  29.643  27.943  1.00  0.00     0.173 A 
ATOM     66  F   UNL A   1      38.638  29.102  31.514  1.00  0.00    -0.203 F 
ATOM     67  C   UNL A   1      36.738  29.733  30.271  1.00  0.00     0.198 A 
ATOM     68  C   UNL A   1      36.899  29.997  27.892  1.00  0.00     0.198 A 
ATOM     69  F   UNL A   1      38.946  29.597  26.801  1.00  0.00    -0.203 F 
ATOM     70  F   UNL A   1      36.005  29.739  31.393  1.00  0.00    -0.200 F 
ATOM     71  C   UNL A   1      36.145  30.034  29.054  1.00  0.00     0.200 A 
ATOM     72  F   UNL A   1      36.331  30.295  26.715  1.00  0.00    -0.200 F 
ATOM     73  F   UNL A   1      34.844  30.351  29.001  1.00  0.00    -0.200 F 
ENDBRANCH  39  63
BRANCH  51  74
ATOM     74  C   UNL A   1      44.613  32.699  31.231  1.00  0.00     0.064 A 
ATOM     75  C   UNL A   1      44.835  33.791  30.380  1.00  0.00     0.173 A 
ATOM     76  C   UNL A   1      44.568  32.940  32.613  1.00  0.00     0.173 A 
ATOM     77  F   UNL A   1      44.902  33.609  29.052  1.00  0.00    -0.203 F 
ATOM     78  C   UNL A   1      45.024  35.071  30.892  1.00  0.00     0.198 A 
ATOM     79  C   UNL A   1      44.732  34.226  33.121  1.00  0.00     0.198 A 
ATOM     80  F   UNL A   1      44.353  31.930  33.468  1.00  0.00    -0.203 F 
ATOM     81  F   UNL A   1      45.275  36.094  30.064  1.00  0.00    -0.200 F 
ATOM     82  C   UNL A   1      44.966  35.289  32.262  1.00  0.00     0.200 A 
ATOM     83  F   UNL A   1      44.666  34.436  34.443  1.00  0.00    -0.200 F 
ATOM     84  F   UNL A   1      45.142  36.523  32.753  1.00  0.00    -0.200 F 
ENDBRANCH  51  74
ENDBRANCH  25  26
ENDBRANCH  18  20
ENDBRANCH  17  18
ENDBRANCH  16  17
ENDBRANCH   1  16
TORSDOF 13
ENDMDL
