MODEL 1
REMARK VINA RESULT:     -13.4      0.000      0.000
REMARK SMILES Cc1c(CC(=O)OCCOC(=O)c2ccc(-c3c4nc(c(-c5c(F)c(F)c(F)c(F)c5F)c5ccc([nH]5)c(-c5c(F)c(F)c(F)c(F)c5F)c5nc(c(-c6c(F)c(F)c(F)c(F)c6F)c6ccc3[nH]6)C=C5)C=C4)cc2)c2cc(O)ccc2n1C(=O)c1ccc(Cl)cc1
REMARK SMILES IDX 8 1 7 2 5 3 6 4 4 5 3 6 1 7 2 8 83 9 76 10 82 11 77 12 81 13
REMARK SMILES IDX 78 14 80 15 84 16 85 17 86 18 87 19 92 20 88 21 91 22 89 23
REMARK SMILES IDX 90 24 79 25 9 27 10 28 11 29 12 30 13 31 14 32 75 33 15 34
REMARK SMILES IDX 74 35 16 36 17 37 18 38 68 39 19 40 73 41 67 42 69 43 20 44
REMARK SMILES IDX 72 45 66 46 65 47 21 49 53 50 33 51 52 52 34 53 37 54 51 55
REMARK SMILES IDX 70 56 35 57 36 58 50 60 71 61 38 62 22 63 23 64 31 65 24 66
REMARK SMILES IDX 25 67 29 68 32 69 26 70 27 71 30 72 28 73 54 74 55 75 63 76
REMARK SMILES IDX 56 77 57 78 61 79 64 80 58 81 59 82 62 83 60 84 39 85 40 86
REMARK SMILES IDX 48 87 41 88 42 89 46 90 49 91 43 92 44 93 47 94 45 95
REMARK H PARENT 79 26 69 48 37 59
REMARK Flexibility Score: inf
ROOT
ATOM      1  C   UNL A   1      42.860  26.408  25.366  1.00  0.00     0.274 C 
ENDROOT
BRANCH   1   2
ATOM      2  O   UNL A   1      44.299  26.391  25.574  1.00  0.00    -0.462 OA
BRANCH   2   3
ATOM      3  C   UNL A   1      44.871  25.162  25.524  1.00  0.00     0.310 C 
ATOM      4  O   UNL A   1      45.662  24.868  24.626  1.00  0.00    -0.252 OA
BRANCH   3   5
ATOM      5  C   UNL A   1      44.461  24.219  26.695  1.00  0.00     0.160 C 
BRANCH   5   6
ATOM      6  C   UNL A   1      43.780  22.898  26.443  1.00  0.00    -0.008 A 
ATOM      7  C   UNL A   1      41.691  23.697  27.641  1.00  0.00     0.065 C 
ATOM      8  C   UNL A   1      42.499  22.695  26.893  1.00  0.00     0.028 A 
ATOM      9  N   UNL A   1      42.100  21.395  26.596  1.00  0.00    -0.280 N 
ATOM     10  C   UNL A   1      44.123  21.717  25.664  1.00  0.00     0.008 A 
ATOM     11  C   UNL A   1      43.131  20.773  25.880  1.00  0.00     0.057 A 
ATOM     12  C   UNL A   1      45.199  21.258  24.844  1.00  0.00     0.056 A 
ATOM     13  C   UNL A   1      43.315  19.474  25.338  1.00  0.00     0.031 A 
ATOM     14  C   UNL A   1      45.480  19.944  24.533  1.00  0.00     0.116 A 
ATOM     15  C   UNL A   1      44.504  19.038  24.749  1.00  0.00     0.048 A 
BRANCH   9  16
ATOM     16  C   UNL A   1      40.858  20.816  26.956  1.00  0.00     0.262 C 
ATOM     17  O   UNL A   1      40.778  20.176  28.001  1.00  0.00    -0.268 OA
BRANCH  16  18
ATOM     18  C   UNL A   1      39.622  20.972  26.170  1.00  0.00     0.040 A 
ATOM     19  C   UNL A   1      38.960  22.206  26.126  1.00  0.00     0.015 A 
ATOM     20  C   UNL A   1      39.063  19.845  25.569  1.00  0.00     0.015 A 
ATOM     21  C   UNL A   1      37.627  22.245  25.701  1.00  0.00     0.021 A 
ATOM     22  C   UNL A   1      37.813  19.953  24.957  1.00  0.00     0.021 A 
ATOM     23  C   UNL A   1      37.062  21.118  25.113  1.00  0.00     0.041 A 
ATOM     24  Cl  UNL A   1      35.417  21.157  24.611  1.00  0.00    -0.084 Cl
ENDBRANCH  16  18
ENDBRANCH   9  16
BRANCH  14  25
ATOM     25  O   UNL A   1      46.701  19.654  24.005  1.00  0.00    -0.508 OA
ATOM     26  H   UNL A   1      47.456  20.137  24.278  1.00  0.00     0.293 HD
ENDBRANCH  14  25
ENDBRANCH   5   6
ENDBRANCH   3   5
ENDBRANCH   2   3
ENDBRANCH   1   2
BRANCH   1  27
ATOM     27  C   UNL A   1      42.090  27.598  26.029  1.00  0.00     0.275 C 
BRANCH  27  28
ATOM     28  O   UNL A   1      40.685  27.270  26.394  1.00  0.00    -0.458 OA
BRANCH  28  29
ATOM     29  C   UNL A   1      40.279  28.072  27.419  1.00  0.00     0.338 C 
ATOM     30  O   UNL A   1      39.666  29.063  27.062  1.00  0.00    -0.246 OA
BRANCH  29  31
ATOM     31  C   UNL A   1      40.306  27.620  28.941  1.00  0.00     0.060 A 
ATOM     32  C   UNL A   1      39.278  27.004  29.492  1.00  0.00     0.016 A 
ATOM     33  C   UNL A   1      40.943  28.354  30.038  1.00  0.00     0.016 A 
ATOM     34  C   UNL A   1      38.811  27.725  30.921  1.00  0.00     0.010 A 
ATOM     35  C   UNL A   1      40.742  28.623  31.497  1.00  0.00     0.010 A 
ATOM     36  C   UNL A   1      39.476  29.140  31.684  1.00  0.00    -0.014 A 
BRANCH  36  37
ATOM     37  C   UNL A   1      39.395  30.636  32.966  1.00  0.00     0.031 A 
ATOM     38  C   UNL A   1      37.992  30.900  31.557  1.00  0.00     0.074 A 
ATOM     39  C   UNL A   1      40.198  31.009  34.577  1.00  0.00     0.049 A 
ATOM     40  N   UNL A   1      38.255  31.230  30.256  1.00  0.00    -0.248 NA
ATOM     41  C   UNL A   1      36.414  30.168  30.838  1.00  0.00     0.031 C 
ATOM     42  C   UNL A   1      41.038  31.419  36.280  1.00  0.00     0.029 A 
ATOM     43  N   UNL A   1      40.239  32.636  35.306  1.00  0.00    -0.354 N 
ATOM     44  C   UNL A   1      37.034  31.854  29.791  1.00  0.00     0.074 A 
ATOM     45  C   UNL A   1      35.904  31.056  29.939  1.00  0.00     0.031 C 
ATOM     46  C   UNL A   1      40.775  32.169  37.529  1.00  0.00     0.029 A 
ATOM     47  C   UNL A   1      40.063  33.126  36.896  1.00  0.00     0.049 A 
ATOM     48  H   UNL A   1      40.390  33.367  34.666  1.00  0.00     0.167 HD
ATOM     49  C   UNL A   1      36.867  33.137  30.131  1.00  0.00     0.037 A 
ATOM     50  C   UNL A   1      39.305  34.058  37.591  1.00  0.00     0.037 A 
ATOM     51  C   UNL A   1      38.146  33.621  30.458  1.00  0.00     0.049 A 
ATOM     52  C   UNL A   1      38.839  34.495  36.289  1.00  0.00     0.074 A 
ATOM     53  C   UNL A   1      39.328  33.527  29.765  1.00  0.00     0.029 A 
ATOM     54  N   UNL A   1      38.437  33.609  31.774  1.00  0.00    -0.354 N 
ATOM     55  N   UNL A   1      39.638  35.081  35.408  1.00  0.00    -0.248 NA
ATOM     56  C   UNL A   1      37.746  33.655  35.810  1.00  0.00     0.031 C 
ATOM     57  C   UNL A   1      40.355  33.586  30.710  1.00  0.00     0.029 A 
ATOM     58  C   UNL A   1      39.776  33.697  31.959  1.00  0.00     0.049 A 
ATOM     59  H   UNL A   1      37.771  33.546  32.496  1.00  0.00     0.167 HD
ATOM     60  C   UNL A   1      39.355  34.439  34.198  1.00  0.00     0.074 A 
ATOM     61  C   UNL A   1      38.081  33.648  34.521  1.00  0.00     0.031 C 
ATOM     62  C   UNL A   1      40.300  34.052  33.231  1.00  0.00     0.037 A 
BRANCH  49  63
ATOM     63  C   UNL A   1      35.600  33.818  30.439  1.00  0.00     0.064 A 
ATOM     64  C   UNL A   1      35.073  34.393  29.296  1.00  0.00     0.173 A 
ATOM     65  C   UNL A   1      34.928  34.007  31.670  1.00  0.00     0.173 A 
ATOM     66  F   UNL A   1      35.683  34.200  28.117  1.00  0.00    -0.203 F 
ATOM     67  C   UNL A   1      33.935  35.157  29.348  1.00  0.00     0.198 A 
ATOM     68  C   UNL A   1      33.760  34.763  31.716  1.00  0.00     0.198 A 
ATOM     69  F   UNL A   1      35.376  33.492  32.828  1.00  0.00    -0.203 F 
ATOM     70  F   UNL A   1      33.487  35.713  28.220  1.00  0.00    -0.200 F 
ATOM     71  C   UNL A   1      33.278  35.343  30.552  1.00  0.00     0.200 A 
ATOM     72  F   UNL A   1      33.113  34.945  32.876  1.00  0.00    -0.200 F 
ATOM     73  F   UNL A   1      32.173  36.095  30.582  1.00  0.00    -0.200 F 
ENDBRANCH  49  63
BRANCH  50  74
ATOM     74  C   UNL A   1      38.497  33.635  38.875  1.00  0.00     0.064 A 
ATOM     75  C   UNL A   1      37.777  32.427  39.056  1.00  0.00     0.173 A 
ATOM     76  C   UNL A   1      38.529  34.451  40.041  1.00  0.00     0.173 A 
ATOM     77  F   UNL A   1      37.560  31.609  38.017  1.00  0.00    -0.203 F 
ATOM     78  C   UNL A   1      37.261  32.023  40.317  1.00  0.00     0.198 A 
ATOM     79  C   UNL A   1      38.027  34.053  41.293  1.00  0.00     0.198 A 
ATOM     80  F   UNL A   1      39.093  35.665  39.988  1.00  0.00    -0.203 F 
ATOM     81  F   UNL A   1      36.657  30.831  40.455  1.00  0.00    -0.200 F 
ATOM     82  C   UNL A   1      37.418  32.824  41.437  1.00  0.00     0.200 A 
ATOM     83  F   UNL A   1      38.193  34.845  42.365  1.00  0.00    -0.200 F 
ATOM     84  F   UNL A   1      37.006  32.407  42.644  1.00  0.00    -0.200 F 
ENDBRANCH  50  74
BRANCH  62  85
ATOM     85  C   UNL A   1      41.864  34.173  33.281  1.00  0.00     0.064 A 
ATOM     86  C   UNL A   1      42.864  33.192  32.980  1.00  0.00     0.173 A 
ATOM     87  C   UNL A   1      42.383  35.445  33.498  1.00  0.00     0.173 A 
ATOM     88  F   UNL A   1      42.586  31.961  32.560  1.00  0.00    -0.203 F 
ATOM     89  C   UNL A   1      44.233  33.407  33.099  1.00  0.00     0.198 A 
ATOM     90  C   UNL A   1      43.761  35.691  33.526  1.00  0.00     0.198 A 
ATOM     91  F   UNL A   1      41.544  36.481  33.628  1.00  0.00    -0.203 F 
ATOM     92  F   UNL A   1      45.091  32.382  32.954  1.00  0.00    -0.200 F 
ATOM     93  C   UNL A   1      44.684  34.669  33.363  1.00  0.00     0.200 A 
ATOM     94  F   UNL A   1      44.200  36.939  33.726  1.00  0.00    -0.200 F 
ATOM     95  F   UNL A   1      46.000  34.901  33.438  1.00  0.00    -0.200 F 
ENDBRANCH  62  85
ENDBRANCH  36  37
ENDBRANCH  29  31
ENDBRANCH  28  29
ENDBRANCH  27  28
ENDBRANCH   1  27
TORSDOF 15
ENDMDL
MODEL 2
REMARK VINA RESULT:     -13.1      6.155     14.498
REMARK SMILES Cc1c(CC(=O)OCCOC(=O)c2ccc(-c3c4nc(c(-c5c(F)c(F)c(F)c(F)c5F)c5ccc([nH]5)c(-c5c(F)c(F)c(F)c(F)c5F)c5nc(c(-c6c(F)c(F)c(F)c(F)c6F)c6ccc3[nH]6)C=C5)C=C4)cc2)c2cc(O)ccc2n1C(=O)c1ccc(Cl)cc1
REMARK SMILES IDX 8 1 7 2 5 3 6 4 4 5 3 6 1 7 2 8 83 9 76 10 82 11 77 12 81 13
REMARK SMILES IDX 78 14 80 15 84 16 85 17 86 18 87 19 92 20 88 21 91 22 89 23
REMARK SMILES IDX 90 24 79 25 9 27 10 28 11 29 12 30 13 31 14 32 75 33 15 34
REMARK SMILES IDX 74 35 16 36 17 37 18 38 68 39 19 40 73 41 67 42 69 43 20 44
REMARK SMILES IDX 72 45 66 46 65 47 21 49 53 50 33 51 52 52 34 53 37 54 51 55
REMARK SMILES IDX 70 56 35 57 36 58 50 60 71 61 38 62 22 63 23 64 31 65 24 66
REMARK SMILES IDX 25 67 29 68 32 69 26 70 27 71 30 72 28 73 54 74 55 75 63 76
REMARK SMILES IDX 56 77 57 78 61 79 64 80 58 81 59 82 62 83 60 84 39 85 40 86
REMARK SMILES IDX 48 87 41 88 42 89 46 90 49 91 43 92 44 93 47 94 45 95
REMARK H PARENT 79 26 69 48 37 59
REMARK Flexibility Score: inf
ROOT
ATOM      1  C   UNL A   1      38.086  30.707  32.477  1.00  0.00     0.274 C 
ENDROOT
BRANCH   1   2
ATOM      2  O   UNL A   1      37.617  31.286  33.727  1.00  0.00    -0.462 OA
BRANCH   2   3
ATOM      3  C   UNL A   1      36.842  32.391  33.591  1.00  0.00     0.310 C 
ATOM      4  O   UNL A   1      36.043  32.716  34.471  1.00  0.00    -0.252 OA
BRANCH   3   5
ATOM      5  C   UNL A   1      37.089  33.186  32.274  1.00  0.00     0.160 C 
BRANCH   5   6
ATOM      6  C   UNL A   1      35.946  33.669  31.418  1.00  0.00    -0.008 A 
ATOM      7  C   UNL A   1      36.772  32.283  29.460  1.00  0.00     0.065 C 
ATOM      8  C   UNL A   1      35.831  33.227  30.123  1.00  0.00     0.028 A 
ATOM      9  N   UNL A   1      34.742  33.842  29.514  1.00  0.00    -0.280 N 
ATOM     10  C   UNL A   1      34.753  34.462  31.677  1.00  0.00     0.008 A 
ATOM     11  C   UNL A   1      34.106  34.650  30.466  1.00  0.00     0.057 A 
ATOM     12  C   UNL A   1      34.144  35.140  32.777  1.00  0.00     0.056 A 
ATOM     13  C   UNL A   1      32.984  35.520  30.435  1.00  0.00     0.031 A 
ATOM     14  C   UNL A   1      33.218  36.158  32.692  1.00  0.00     0.116 A 
ATOM     15  C   UNL A   1      32.597  36.327  31.507  1.00  0.00     0.048 A 
BRANCH   9  16
ATOM     16  C   UNL A   1      34.350  33.668  28.163  1.00  0.00     0.262 C 
ATOM     17  O   UNL A   1      34.771  34.448  27.314  1.00  0.00    -0.268 OA
BRANCH  16  18
ATOM     18  C   UNL A   1      33.494  32.565  27.694  1.00  0.00     0.040 A 
ATOM     19  C   UNL A   1      33.980  31.251  27.668  1.00  0.00     0.015 A 
ATOM     20  C   UNL A   1      32.238  32.867  27.169  1.00  0.00     0.015 A 
ATOM     21  C   UNL A   1      33.314  30.297  26.891  1.00  0.00     0.021 A 
ATOM     22  C   UNL A   1      31.487  31.849  26.579  1.00  0.00     0.021 A 
ATOM     23  C   UNL A   1      32.066  30.600  26.354  1.00  0.00     0.041 A 
ATOM     24  Cl  UNL A   1      31.257  29.438  25.379  1.00  0.00    -0.084 Cl
ENDBRANCH  16  18
ENDBRANCH   9  16
BRANCH  14  25
ATOM     25  O   UNL A   1      32.971  36.899  33.807  1.00  0.00    -0.508 OA
ATOM     26  H   UNL A   1      32.889  37.830  33.742  1.00  0.00     0.293 HD
ENDBRANCH  14  25
ENDBRANCH   5   6
ENDBRANCH   3   5
ENDBRANCH   2   3
ENDBRANCH   1   2
BRANCH   1  27
ATOM     27  C   UNL A   1      37.711  29.207  32.239  1.00  0.00     0.275 C 
BRANCH  27  28
ATOM     28  O   UNL A   1      37.432  28.880  30.814  1.00  0.00    -0.458 OA
BRANCH  28  29
ATOM     29  C   UNL A   1      38.568  28.417  30.220  1.00  0.00     0.338 C 
ATOM     30  O   UNL A   1      38.743  27.217  30.349  1.00  0.00    -0.246 OA
BRANCH  29  31
ATOM     31  C   UNL A   1      39.421  29.271  29.189  1.00  0.00     0.060 A 
ATOM     32  C   UNL A   1      39.132  29.278  27.901  1.00  0.00     0.016 A 
ATOM     33  C   UNL A   1      40.867  29.496  29.257  1.00  0.00     0.016 A 
ATOM     34  C   UNL A   1      40.471  28.956  26.961  1.00  0.00     0.010 A 
ATOM     35  C   UNL A   1      42.038  29.670  28.339  1.00  0.00     0.010 A 
ATOM     36  C   UNL A   1      42.093  28.594  27.478  1.00  0.00    -0.014 A 
BRANCH  36  37
ATOM     37  C   UNL A   1      43.911  27.897  27.169  1.00  0.00     0.031 A 
ATOM     38  C   UNL A   1      42.602  26.379  27.088  1.00  0.00     0.074 A 
ATOM     39  C   UNL A   1      45.565  28.656  26.917  1.00  0.00     0.049 A 
ATOM     40  N   UNL A   1      41.935  25.875  28.171  1.00  0.00    -0.248 NA
ATOM     41  C   UNL A   1      41.138  25.695  26.124  1.00  0.00     0.031 C 
ATOM     42  C   UNL A   1      47.323  29.441  26.647  1.00  0.00     0.029 A 
ATOM     43  N   UNL A   1      47.098  27.757  27.072  1.00  0.00    -0.354 N 
ATOM     44  C   UNL A   1      41.590  24.523  27.781  1.00  0.00     0.074 A 
ATOM     45  C   UNL A   1      40.859  24.449  26.599  1.00  0.00     0.031 C 
ATOM     46  C   UNL A   1      48.607  29.155  25.970  1.00  0.00     0.029 A 
ATOM     47  C   UNL A   1      48.501  27.823  26.164  1.00  0.00     0.049 A 
ATOM     48  H   UNL A   1      47.122  27.115  27.817  1.00  0.00     0.167 HD
ATOM     49  C   UNL A   1      42.564  23.614  27.900  1.00  0.00     0.037 A 
ATOM     50  C   UNL A   1      49.337  26.919  25.523  1.00  0.00     0.037 A 
ATOM     51  C   UNL A   1      43.498  24.163  28.797  1.00  0.00     0.049 A 
ATOM     52  C   UNL A   1      48.504  25.890  26.115  1.00  0.00     0.074 A 
ATOM     53  C   UNL A   1      43.305  24.728  30.034  1.00  0.00     0.029 A 
ATOM     54  N   UNL A   1      44.543  24.785  28.217  1.00  0.00    -0.354 N 
ATOM     55  N   UNL A   1      48.467  25.670  27.422  1.00  0.00    -0.248 NA
ATOM     56  C   UNL A   1      47.302  25.660  25.320  1.00  0.00     0.031 C 
ATOM     57  C   UNL A   1      44.354  25.630  30.232  1.00  0.00     0.029 A 
ATOM     58  C   UNL A   1      45.152  25.607  29.105  1.00  0.00     0.049 A 
ATOM     59  H   UNL A   1      44.823  24.659  27.281  1.00  0.00     0.167 HD
ATOM     60  C   UNL A   1      47.105  25.556  27.718  1.00  0.00     0.074 A 
ATOM     61  C   UNL A   1      46.461  25.445  26.330  1.00  0.00     0.031 C 
ATOM     62  C   UNL A   1      46.461  26.095  28.847  1.00  0.00     0.037 A 
BRANCH  49  63
ATOM     63  C   UNL A   1      42.804  22.450  27.036  1.00  0.00     0.064 A 
ATOM     64  C   UNL A   1      42.062  21.366  27.471  1.00  0.00     0.173 A 
ATOM     65  C   UNL A   1      43.680  22.280  25.936  1.00  0.00     0.173 A 
ATOM     66  F   UNL A   1      41.208  21.517  28.494  1.00  0.00    -0.203 F 
ATOM     67  C   UNL A   1      42.184  20.138  26.872  1.00  0.00     0.198 A 
ATOM     68  C   UNL A   1      43.783  21.038  25.315  1.00  0.00     0.198 A 
ATOM     69  F   UNL A   1      44.443  23.276  25.455  1.00  0.00    -0.203 F 
ATOM     70  F   UNL A   1      41.466  19.120  27.352  1.00  0.00    -0.200 F 
ATOM     71  C   UNL A   1      43.040  19.971  25.797  1.00  0.00     0.200 A 
ATOM     72  F   UNL A   1      44.605  20.867  24.269  1.00  0.00    -0.200 F 
ATOM     73  F   UNL A   1      43.148  18.765  25.231  1.00  0.00    -0.200 F 
ENDBRANCH  49  63
BRANCH  50  74
ATOM     74  C   UNL A   1      49.765  27.149  24.024  1.00  0.00     0.064 A 
ATOM     75  C   UNL A   1      51.074  27.027  23.494  1.00  0.00     0.173 A 
ATOM     76  C   UNL A   1      48.779  27.413  23.031  1.00  0.00     0.173 A 
ATOM     77  F   UNL A   1      52.124  26.894  24.316  1.00  0.00    -0.203 F 
ATOM     78  C   UNL A   1      51.341  27.034  22.098  1.00  0.00     0.198 A 
ATOM     79  C   UNL A   1      49.036  27.414  21.649  1.00  0.00     0.198 A 
ATOM     80  F   UNL A   1      47.511  27.646  23.398  1.00  0.00    -0.203 F 
ATOM     81  F   UNL A   1      52.589  26.833  21.643  1.00  0.00    -0.200 F 
ATOM     82  C   UNL A   1      50.315  27.194  21.181  1.00  0.00     0.200 A 
ATOM     83  F   UNL A   1      48.025  27.568  20.779  1.00  0.00    -0.200 F 
ATOM     84  F   UNL A   1      50.553  27.118  19.862  1.00  0.00    -0.200 F 
ENDBRANCH  50  74
BRANCH  62  85
ATOM     85  C   UNL A   1      47.062  26.987  29.989  1.00  0.00     0.064 A 
ATOM     86  C   UNL A   1      46.620  28.259  30.480  1.00  0.00     0.173 A 
ATOM     87  C   UNL A   1      48.075  26.419  30.755  1.00  0.00     0.173 A 
ATOM     88  F   UNL A   1      45.546  28.893  30.021  1.00  0.00    -0.203 F 
ATOM     89  C   UNL A   1      47.263  28.978  31.483  1.00  0.00     0.198 A 
ATOM     90  C   UNL A   1      48.667  27.098  31.827  1.00  0.00     0.198 A 
ATOM     91  F   UNL A   1      48.464  25.163  30.498  1.00  0.00    -0.203 F 
ATOM     92  F   UNL A   1      46.876  30.234  31.765  1.00  0.00    -0.200 F 
ATOM     93  C   UNL A   1      48.287  28.387  32.167  1.00  0.00     0.200 A 
ATOM     94  F   UNL A   1      49.629  26.494  32.534  1.00  0.00    -0.200 F 
ATOM     95  F   UNL A   1      48.887  29.049  33.163  1.00  0.00    -0.200 F 
ENDBRANCH  62  85
ENDBRANCH  36  37
ENDBRANCH  29  31
ENDBRANCH  28  29
ENDBRANCH  27  28
ENDBRANCH   1  27
TORSDOF 15
ENDMDL
MODEL 3
REMARK VINA RESULT:     -13.1      4.508      6.597
REMARK SMILES Cc1c(CC(=O)OCCOC(=O)c2ccc(-c3c4nc(c(-c5c(F)c(F)c(F)c(F)c5F)c5ccc([nH]5)c(-c5c(F)c(F)c(F)c(F)c5F)c5nc(c(-c6c(F)c(F)c(F)c(F)c6F)c6ccc3[nH]6)C=C5)C=C4)cc2)c2cc(O)ccc2n1C(=O)c1ccc(Cl)cc1
REMARK SMILES IDX 8 1 7 2 5 3 6 4 4 5 3 6 1 7 2 8 83 9 76 10 82 11 77 12 81 13
REMARK SMILES IDX 78 14 80 15 84 16 85 17 86 18 87 19 92 20 88 21 91 22 89 23
REMARK SMILES IDX 90 24 79 25 9 27 10 28 11 29 12 30 13 31 14 32 75 33 15 34
REMARK SMILES IDX 74 35 16 36 17 37 18 38 68 39 19 40 73 41 67 42 69 43 20 44
REMARK SMILES IDX 72 45 66 46 65 47 21 49 53 50 33 51 52 52 34 53 37 54 51 55
REMARK SMILES IDX 70 56 35 57 36 58 50 60 71 61 38 62 22 63 23 64 31 65 24 66
REMARK SMILES IDX 25 67 29 68 32 69 26 70 27 71 30 72 28 73 54 74 55 75 63 76
REMARK SMILES IDX 56 77 57 78 61 79 64 80 58 81 59 82 62 83 60 84 39 85 40 86
REMARK SMILES IDX 48 87 41 88 42 89 46 90 49 91 43 92 44 93 47 94 45 95
REMARK H PARENT 79 26 69 48 37 59
REMARK Flexibility Score: inf
ROOT
ATOM      1  C   UNL A   1      35.822  29.937  27.147  1.00  0.00     0.274 C 
ENDROOT
BRANCH   1   2
ATOM      2  O   UNL A   1      34.758  29.495  28.035  1.00  0.00    -0.462 OA
BRANCH   2   3
ATOM      3  C   UNL A   1      33.725  28.865  27.421  1.00  0.00     0.310 C 
ATOM      4  O   UNL A   1      32.566  29.262  27.565  1.00  0.00    -0.252 OA
BRANCH   3   5
ATOM      5  C   UNL A   1      34.150  27.661  26.528  1.00  0.00     0.160 C 
BRANCH   5   6
ATOM      6  C   UNL A   1      33.162  26.949  25.641  1.00  0.00    -0.008 A 
ATOM      7  C   UNL A   1      33.232  28.852  23.963  1.00  0.00     0.065 C 
ATOM      8  C   UNL A   1      32.763  27.530  24.462  1.00  0.00     0.028 A 
ATOM      9  N   UNL A   1      31.814  26.723  23.841  1.00  0.00    -0.280 N 
ATOM     10  C   UNL A   1      32.559  25.624  25.658  1.00  0.00     0.008 A 
ATOM     11  C   UNL A   1      31.650  25.565  24.613  1.00  0.00     0.057 A 
ATOM     12  C   UNL A   1      32.589  24.452  26.474  1.00  0.00     0.056 A 
ATOM     13  C   UNL A   1      30.825  24.415  24.509  1.00  0.00     0.031 A 
ATOM     14  C   UNL A   1      31.630  23.462  26.509  1.00  0.00     0.116 A 
ATOM     15  C   UNL A   1      30.753  23.419  25.485  1.00  0.00     0.048 A 
BRANCH   9  16
ATOM     16  C   UNL A   1      31.142  27.029  22.632  1.00  0.00     0.262 C 
ATOM     17  O   UNL A   1      31.385  26.363  21.628  1.00  0.00    -0.268 OA
BRANCH  16  18
ATOM     18  C   UNL A   1      30.118  28.080  22.506  1.00  0.00     0.040 A 
ATOM     19  C   UNL A   1      30.419  29.290  21.868  1.00  0.00     0.015 A 
ATOM     20  C   UNL A   1      28.887  27.895  23.133  1.00  0.00     0.015 A 
ATOM     21  C   UNL A   1      29.585  30.394  22.081  1.00  0.00     0.021 A 
ATOM     22  C   UNL A   1      27.971  28.949  23.153  1.00  0.00     0.021 A 
ATOM     23  C   UNL A   1      28.361  30.216  22.719  1.00  0.00     0.041 A 
ATOM     24  Cl  UNL A   1      27.345  31.574  23.001  1.00  0.00    -0.084 Cl
ENDBRANCH  16  18
ENDBRANCH   9  16
BRANCH  14  25
ATOM     25  O   UNL A   1      31.649  22.583  27.548  1.00  0.00    -0.508 OA
ATOM     26  H   UNL A   1      32.342  22.618  28.179  1.00  0.00     0.293 HD
ENDBRANCH  14  25
ENDBRANCH   5   6
ENDBRANCH   3   5
ENDBRANCH   2   3
ENDBRANCH   1   2
BRANCH   1  27
ATOM     27  C   UNL A   1      37.276  29.807  27.709  1.00  0.00     0.275 C 
BRANCH  27  28
ATOM     28  O   UNL A   1      37.746  28.400  27.830  1.00  0.00    -0.458 OA
BRANCH  28  29
ATOM     29  C   UNL A   1      39.083  28.385  28.091  1.00  0.00     0.338 C 
ATOM     30  O   UNL A   1      39.768  28.878  27.211  1.00  0.00    -0.246 OA
BRANCH  29  31
ATOM     31  C   UNL A   1      39.686  28.060  29.524  1.00  0.00     0.060 A 
ATOM     32  C   UNL A   1      39.051  27.275  30.373  1.00  0.00     0.016 A 
ATOM     33  C   UNL A   1      40.446  28.991  30.361  1.00  0.00     0.016 A 
ATOM     34  C   UNL A   1      38.901  27.977  31.878  1.00  0.00     0.010 A 
ATOM     35  C   UNL A   1      40.654  29.314  31.809  1.00  0.00     0.010 A 
ATOM     36  C   UNL A   1      39.427  29.554  32.391  1.00  0.00    -0.014 A 
BRANCH  36  37
ATOM     37  C   UNL A   1      39.409  31.084  33.636  1.00  0.00     0.031 A 
ATOM     38  C   UNL A   1      37.968  31.335  32.263  1.00  0.00     0.074 A 
ATOM     39  C   UNL A   1      40.267  31.484  35.211  1.00  0.00     0.049 A 
ATOM     40  N   UNL A   1      38.197  31.627  30.946  1.00  0.00    -0.248 NA
ATOM     41  C   UNL A   1      36.357  30.611  31.611  1.00  0.00     0.031 C 
ATOM     42  C   UNL A   1      41.164  31.925  36.877  1.00  0.00     0.029 A 
ATOM     43  N   UNL A   1      40.355  33.129  35.895  1.00  0.00    -0.354 N 
ATOM     44  C   UNL A   1      36.972  32.259  30.501  1.00  0.00     0.074 A 
ATOM     45  C   UNL A   1      35.834  31.483  30.705  1.00  0.00     0.031 C 
ATOM     46  C   UNL A   1      40.952  32.711  38.113  1.00  0.00     0.029 A 
ATOM     47  C   UNL A   1      40.236  33.663  37.476  1.00  0.00     0.049 A 
ATOM     48  H   UNL A   1      40.499  33.841  35.232  1.00  0.00     0.167 HD
ATOM     49  C   UNL A   1      36.836  33.553  30.813  1.00  0.00     0.037 A 
ATOM     50  C   UNL A   1      39.514  34.626  38.169  1.00  0.00     0.037 A 
ATOM     51  C   UNL A   1      38.132  34.024  31.088  1.00  0.00     0.049 A 
ATOM     52  C   UNL A   1      39.016  35.036  36.870  1.00  0.00     0.074 A 
ATOM     53  C   UNL A   1      39.290  33.891  30.362  1.00  0.00     0.029 A 
ATOM     54  N   UNL A   1      38.462  34.041  32.394  1.00  0.00    -0.354 N 
ATOM     55  N   UNL A   1      39.797  35.586  35.950  1.00  0.00    -0.248 NA
ATOM     56  C   UNL A   1      37.895  34.203  36.447  1.00  0.00     0.031 C 
ATOM     57  C   UNL A   1      40.347  33.958  31.275  1.00  0.00     0.029 A 
ATOM     58  C   UNL A   1      39.808  34.111  32.536  1.00  0.00     0.049 A 
ATOM     59  H   UNL A   1      37.818  34.007  33.138  1.00  0.00     0.167 HD
ATOM     60  C   UNL A   1      39.466  34.917  34.767  1.00  0.00     0.074 A 
ATOM     61  C   UNL A   1      38.190  34.157  35.149  1.00  0.00     0.031 C 
ATOM     62  C   UNL A   1      40.376  34.490  33.783  1.00  0.00     0.037 A 
BRANCH  49  63
ATOM     63  C   UNL A   1      35.590  34.262  31.140  1.00  0.00     0.064 A 
ATOM     64  C   UNL A   1      34.931  34.637  29.982  1.00  0.00     0.173 A 
ATOM     65  C   UNL A   1      35.045  34.645  32.389  1.00  0.00     0.173 A 
ATOM     66  F   UNL A   1      35.419  34.259  28.791  1.00  0.00    -0.203 F 
ATOM     67  C   UNL A   1      33.784  35.387  30.032  1.00  0.00     0.198 A 
ATOM     68  C   UNL A   1      33.868  35.386  32.437  1.00  0.00     0.198 A 
ATOM     69  F   UNL A   1      35.626  34.331  33.561  1.00  0.00    -0.203 F 
ATOM     70  F   UNL A   1      33.206  35.746  28.883  1.00  0.00    -0.200 F 
ATOM     71  C   UNL A   1      33.251  35.763  31.253  1.00  0.00     0.200 A 
ATOM     72  F   UNL A   1      33.341  35.750  33.615  1.00  0.00    -0.200 F 
ATOM     73  F   UNL A   1      32.136  36.499  31.279  1.00  0.00    -0.200 F 
ENDBRANCH  49  63
BRANCH  50  74
ATOM     74  C   UNL A   1      38.739  34.250  39.488  1.00  0.00     0.064 A 
ATOM     75  C   UNL A   1      38.043  33.040  39.738  1.00  0.00     0.173 A 
ATOM     76  C   UNL A   1      38.780  35.119  40.614  1.00  0.00     0.173 A 
ATOM     77  F   UNL A   1      37.819  32.172  38.743  1.00  0.00    -0.203 F 
ATOM     78  C   UNL A   1      37.559  32.687  41.027  1.00  0.00     0.198 A 
ATOM     79  C   UNL A   1      38.310  34.772  41.893  1.00  0.00     0.198 A 
ATOM     80  F   UNL A   1      39.323  36.338  40.493  1.00  0.00    -0.203 F 
ATOM     81  F   UNL A   1      36.977  31.493  41.232  1.00  0.00    -0.200 F 
ATOM     82  C   UNL A   1      37.725  33.541  42.106  1.00  0.00     0.200 A 
ATOM     83  F   UNL A   1      38.484  35.614  42.923  1.00  0.00    -0.200 F 
ATOM     84  F   UNL A   1      37.343  33.173  43.339  1.00  0.00    -0.200 F 
ENDBRANCH  50  74
BRANCH  62  85
ATOM     85  C   UNL A   1      41.942  34.586  33.783  1.00  0.00     0.064 A 
ATOM     86  C   UNL A   1      42.916  33.585  33.463  1.00  0.00     0.173 A 
ATOM     87  C   UNL A   1      42.488  35.852  33.966  1.00  0.00     0.173 A 
ATOM     88  F   UNL A   1      42.606  32.354  33.068  1.00  0.00    -0.203 F 
ATOM     89  C   UNL A   1      44.292  33.779  33.537  1.00  0.00     0.198 A 
ATOM     90  C   UNL A   1      43.870  36.076  33.948  1.00  0.00     0.198 A 
ATOM     91  F   UNL A   1      41.670  36.903  34.109  1.00  0.00    -0.203 F 
ATOM     92  F   UNL A   1      45.129  32.738  33.379  1.00  0.00    -0.200 F 
ATOM     93  C   UNL A   1      44.771  35.037  33.771  1.00  0.00     0.200 A 
ATOM     94  F   UNL A   1      44.335  37.319  34.119  1.00  0.00    -0.200 F 
ATOM     95  F   UNL A   1      46.092  35.248  33.801  1.00  0.00    -0.200 F 
ENDBRANCH  62  85
ENDBRANCH  36  37
ENDBRANCH  29  31
ENDBRANCH  28  29
ENDBRANCH  27  28
ENDBRANCH   1  27
TORSDOF 15
ENDMDL
