MODEL 1
REMARK VINA RESULT:     -13.0      0.000      0.000
REMARK SMILES Cc1ccc(Cl)c(Nc2ccccc2C(=O)N[C@@H](C)C(=O)OCCOC(=O)c2ccc(-c3c4nc(c(-c5c(F)c(F)c(F)c(F)c5F)c5ccc([nH]5)c(-c5c(F)c(F)c(F)c(F)c5F)c5nc(c(-c6c(F)c(F)c(F)c(F)c6F)c6ccc3[nH]6)C=C5)C=C4)cc2)c1Cl
REMARK SMILES IDX 23 1 22 2 20 3 21 4 18 5 19 6 17 7 15 8 16 9 14 11 9 12
REMARK SMILES IDX 10 13 11 14 13 15 12 16 8 17 7 19 1 20 2 21 3 22 91 23 4 24
REMARK SMILES IDX 92 25 5 26 6 27 24 28 25 29 26 30 27 31 28 32 29 33 90 34
REMARK SMILES IDX 30 35 89 36 31 37 32 38 33 39 83 40 34 41 88 42 82 43 84 44
REMARK SMILES IDX 35 45 87 46 81 47 80 48 36 50 68 51 48 52 67 53 49 54 52 55
REMARK SMILES IDX 66 56 85 57 50 58 51 59 65 61 86 62 53 63 37 64 38 65 46 66
REMARK SMILES IDX 39 67 40 68 44 69 47 70 41 71 42 72 45 73 43 74 69 75 70 76
REMARK SMILES IDX 78 77 71 78 72 79 76 80 79 81 73 82 74 83 77 84 75 85 54 86
REMARK SMILES IDX 55 87 63 88 56 89 57 90 61 91 64 92 58 93 59 94 62 95 60 96
REMARK H PARENT 17 10 8 18 84 49 52 60
REMARK Flexibility Score: inf
ROOT
ATOM      1  C   UNL A   1      32.025  27.872  24.153  1.00  0.00     0.274 C 
ENDROOT
BRANCH   1   2
ATOM      2  O   UNL A   1      32.484  26.726  24.978  1.00  0.00    -0.461 OA
BRANCH   2   3
ATOM      3  C   UNL A   1      31.654  25.886  25.701  1.00  0.00     0.328 C 
ATOM      4  O   UNL A   1      31.270  26.139  26.823  1.00  0.00    -0.250 OA
BRANCH   3   5
ATOM      5  C   UNL A   1      31.268  24.523  24.905  1.00  0.00     0.189 C 
ATOM      6  C   UNL A   1      31.029  23.389  25.899  1.00  0.00     0.043 C 
BRANCH   5   7
ATOM      7  N   UNL A   1      32.334  24.145  23.923  1.00  0.00    -0.339 N 
ATOM      8  C   UNL A   1      33.228  23.166  23.528  1.00  0.00     0.254 C 
ATOM      9  O   UNL A   1      33.947  23.617  22.616  1.00  0.00    -0.269 OA
ATOM     10  H   UNL A   1      32.442  24.904  23.305  1.00  0.00     0.164 HD
BRANCH   8  11
ATOM     11  C   UNL A   1      33.536  21.705  23.922  1.00  0.00     0.063 A 
ATOM     12  C   UNL A   1      34.532  21.111  24.735  1.00  0.00     0.051 A 
ATOM     13  C   UNL A   1      34.559  19.708  24.995  1.00  0.00     0.027 A 
ATOM     14  C   UNL A   1      33.525  18.881  24.605  1.00  0.00     0.002 A 
ATOM     15  C   UNL A   1      32.527  20.790  23.503  1.00  0.00     0.016 A 
ATOM     16  C   UNL A   1      32.494  19.430  23.868  1.00  0.00     0.001 A 
BRANCH  12  17
ATOM     17  N   UNL A   1      35.289  21.799  25.681  1.00  0.00    -0.352 N 
ATOM     18  H   UNL A   1      34.894  21.953  26.569  1.00  0.00     0.167 HD
BRANCH  17  19
ATOM     19  C   UNL A   1      36.589  22.285  25.437  1.00  0.00     0.077 A 
ATOM     20  C   UNL A   1      40.097  21.014  26.393  1.00  0.00     0.046 C 
ATOM     21  C   UNL A   1      38.907  21.874  26.090  1.00  0.00    -0.030 A 
ATOM     22  C   UNL A   1      38.914  23.182  26.502  1.00  0.00     0.006 A 
ATOM     23  C   UNL A   1      37.753  21.455  25.454  1.00  0.00     0.069 A 
ATOM     24  C   UNL A   1      37.876  24.078  26.176  1.00  0.00     0.023 A 
ATOM     25  Cl  UNL A   1      37.805  19.936  24.626  1.00  0.00    -0.082 Cl
ATOM     26  C   UNL A   1      36.711  23.647  25.620  1.00  0.00     0.066 A 
ATOM     27  Cl  UNL A   1      35.392  24.751  25.456  1.00  0.00    -0.082 Cl
ENDBRANCH  17  19
ENDBRANCH  12  17
ENDBRANCH   8  11
ENDBRANCH   5   7
ENDBRANCH   3   5
ENDBRANCH   2   3
ENDBRANCH   1   2
BRANCH   1  28
ATOM     28  C   UNL A   1      31.803  29.353  24.775  1.00  0.00     0.275 C 
BRANCH  28  29
ATOM     29  O   UNL A   1      31.958  29.569  26.234  1.00  0.00    -0.458 OA
BRANCH  29  30
ATOM     30  C   UNL A   1      32.515  30.772  26.671  1.00  0.00     0.338 C 
ATOM     31  O   UNL A   1      31.881  31.813  26.755  1.00  0.00    -0.246 OA
BRANCH  30  32
ATOM     32  C   UNL A   1      33.932  30.656  27.267  1.00  0.00     0.060 A 
ATOM     33  C   UNL A   1      34.484  29.434  27.614  1.00  0.00     0.016 A 
ATOM     34  C   UNL A   1      34.665  31.788  27.686  1.00  0.00     0.016 A 
ATOM     35  C   UNL A   1      35.579  29.361  28.510  1.00  0.00     0.010 A 
ATOM     36  C   UNL A   1      35.901  31.683  28.420  1.00  0.00     0.010 A 
ATOM     37  C   UNL A   1      36.402  30.449  28.858  1.00  0.00    -0.014 A 
BRANCH  37  38
ATOM     38  C   UNL A   1      37.765  30.217  29.540  1.00  0.00     0.031 A 
ATOM     39  C   UNL A   1      38.913  29.378  28.961  1.00  0.00     0.074 A 
ATOM     40  C   UNL A   1      38.029  30.765  30.759  1.00  0.00     0.049 A 
ATOM     41  N   UNL A   1      39.985  28.901  29.571  1.00  0.00    -0.248 NA
ATOM     42  C   UNL A   1      38.884  29.063  27.530  1.00  0.00     0.031 C 
ATOM     43  C   UNL A   1      37.142  31.650  31.515  1.00  0.00     0.029 A 
ATOM     44  N   UNL A   1      39.130  30.655  31.596  1.00  0.00    -0.354 N 
ATOM     45  C   UNL A   1      40.723  28.200  28.615  1.00  0.00     0.074 A 
ATOM     46  C   UNL A   1      39.996  28.347  27.369  1.00  0.00     0.031 C 
ATOM     47  C   UNL A   1      37.749  32.073  32.625  1.00  0.00     0.029 A 
ATOM     48  C   UNL A   1      38.974  31.313  32.796  1.00  0.00     0.049 A 
ATOM     49  H   UNL A   1      39.944  30.157  31.355  1.00  0.00     0.167 HD
ATOM     50  C   UNL A   1      41.877  27.489  28.754  1.00  0.00     0.037 A 
ATOM     51  C   UNL A   1      39.619  31.252  33.979  1.00  0.00     0.037 A 
ATOM     52  C   UNL A   1      42.651  27.348  29.972  1.00  0.00     0.049 A 
ATOM     53  C   UNL A   1      40.772  30.324  34.173  1.00  0.00     0.074 A 
ATOM     54  C   UNL A   1      43.831  26.640  30.172  1.00  0.00     0.029 A 
ATOM     55  N   UNL A   1      42.334  27.918  31.190  1.00  0.00    -0.354 N 
ATOM     56  N   UNL A   1      41.370  29.564  33.296  1.00  0.00    -0.248 NA
ATOM     57  C   UNL A   1      41.310  30.214  35.538  1.00  0.00     0.031 C 
ATOM     58  C   UNL A   1      44.191  26.734  31.522  1.00  0.00     0.029 A 
ATOM     59  C   UNL A   1      43.268  27.545  32.153  1.00  0.00     0.049 A 
ATOM     60  H   UNL A   1      41.560  28.504  31.355  1.00  0.00     0.167 HD
ATOM     61  C   UNL A   1      42.350  28.879  33.999  1.00  0.00     0.074 A 
ATOM     62  C   UNL A   1      42.286  29.333  35.371  1.00  0.00     0.031 C 
ATOM     63  C   UNL A   1      43.215  27.952  33.530  1.00  0.00     0.037 A 
BRANCH  50  64
ATOM     64  C   UNL A   1      42.394  26.711  27.566  1.00  0.00     0.064 A 
ATOM     65  C   UNL A   1      43.325  27.248  26.666  1.00  0.00     0.173 A 
ATOM     66  C   UNL A   1      42.063  25.352  27.429  1.00  0.00     0.173 A 
ATOM     67  F   UNL A   1      43.694  28.533  26.763  1.00  0.00    -0.203 F 
ATOM     68  C   UNL A   1      43.893  26.457  25.665  1.00  0.00     0.198 A 
ATOM     69  C   UNL A   1      42.650  24.559  26.443  1.00  0.00     0.198 A 
ATOM     70  F   UNL A   1      41.207  24.776  28.285  1.00  0.00    -0.203 F 
ATOM     71  F   UNL A   1      44.776  26.991  24.809  1.00  0.00    -0.200 F 
ATOM     72  C   UNL A   1      43.563  25.113  25.561  1.00  0.00     0.200 A 
ATOM     73  F   UNL A   1      42.350  23.255  26.366  1.00  0.00    -0.200 F 
ATOM     74  F   UNL A   1      44.130  24.351  24.615  1.00  0.00    -0.200 F 
ENDBRANCH  50  64
BRANCH  51  75
ATOM     75  C   UNL A   1      39.060  32.001  35.139  1.00  0.00     0.064 A 
ATOM     76  C   UNL A   1      38.273  31.365  36.105  1.00  0.00     0.173 A 
ATOM     77  C   UNL A   1      39.351  33.365  35.321  1.00  0.00     0.173 A 
ATOM     78  F   UNL A   1      37.939  30.076  35.953  1.00  0.00    -0.203 F 
ATOM     79  C   UNL A   1      37.814  32.060  37.221  1.00  0.00     0.198 A 
ATOM     80  C   UNL A   1      38.927  34.046  36.457  1.00  0.00     0.198 A 
ATOM     81  F   UNL A   1      40.097  34.019  34.418  1.00  0.00    -0.203 F 
ATOM     82  F   UNL A   1      37.041  31.439  38.122  1.00  0.00    -0.200 F 
ATOM     83  C   UNL A   1      38.156  33.394  37.405  1.00  0.00     0.200 A 
ATOM     84  F   UNL A   1      39.285  35.324  36.641  1.00  0.00    -0.200 F 
ATOM     85  F   UNL A   1      37.743  34.049  38.498  1.00  0.00    -0.200 F 
ENDBRANCH  51  75
BRANCH  63  86
ATOM     86  C   UNL A   1      44.183  27.363  34.513  1.00  0.00     0.064 A 
ATOM     87  C   UNL A   1      43.895  26.169  35.192  1.00  0.00     0.173 A 
ATOM     88  C   UNL A   1      45.396  28.005  34.800  1.00  0.00     0.173 A 
ATOM     89  F   UNL A   1      42.735  25.532  34.974  1.00  0.00    -0.203 F 
ATOM     90  C   UNL A   1      44.778  25.651  36.138  1.00  0.00     0.198 A 
ATOM     91  C   UNL A   1      46.286  27.473  35.731  1.00  0.00     0.198 A 
ATOM     92  F   UNL A   1      45.714  29.154  34.187  1.00  0.00    -0.203 F 
ATOM     93  F   UNL A   1      44.460  24.536  36.810  1.00  0.00    -0.200 F 
ATOM     94  C   UNL A   1      45.973  26.302  36.403  1.00  0.00     0.200 A 
ATOM     95  F   UNL A   1      47.441  28.103  35.987  1.00  0.00    -0.200 F 
ATOM     96  F   UNL A   1      46.818  25.807  37.319  1.00  0.00    -0.200 F 
ENDBRANCH  63  86
ENDBRANCH  37  38
ENDBRANCH  30  32
ENDBRANCH  29  30
ENDBRANCH  28  29
ENDBRANCH   1  28
TORSDOF 15
ENDMDL
MODEL 2
REMARK VINA RESULT:     -12.9      3.940      9.695
REMARK SMILES Cc1ccc(Cl)c(Nc2ccccc2C(=O)N[C@@H](C)C(=O)OCCOC(=O)c2ccc(-c3c4nc(c(-c5c(F)c(F)c(F)c(F)c5F)c5ccc([nH]5)c(-c5c(F)c(F)c(F)c(F)c5F)c5nc(c(-c6c(F)c(F)c(F)c(F)c6F)c6ccc3[nH]6)C=C5)C=C4)cc2)c1Cl
REMARK SMILES IDX 23 1 22 2 20 3 21 4 18 5 19 6 17 7 15 8 16 9 14 11 9 12
REMARK SMILES IDX 10 13 11 14 13 15 12 16 8 17 7 19 1 20 2 21 3 22 91 23 4 24
REMARK SMILES IDX 92 25 5 26 6 27 24 28 25 29 26 30 27 31 28 32 29 33 90 34
REMARK SMILES IDX 30 35 89 36 31 37 32 38 33 39 83 40 34 41 88 42 82 43 84 44
REMARK SMILES IDX 35 45 87 46 81 47 80 48 36 50 68 51 48 52 67 53 49 54 52 55
REMARK SMILES IDX 66 56 85 57 50 58 51 59 65 61 86 62 53 63 37 64 38 65 46 66
REMARK SMILES IDX 39 67 40 68 44 69 47 70 41 71 42 72 45 73 43 74 69 75 70 76
REMARK SMILES IDX 78 77 71 78 72 79 76 80 79 81 73 82 74 83 77 84 75 85 54 86
REMARK SMILES IDX 55 87 63 88 56 89 57 90 61 91 64 92 58 93 59 94 62 95 60 96
REMARK H PARENT 17 10 8 18 84 49 52 60
REMARK Flexibility Score: inf
ROOT
ATOM      1  C   UNL A   1      35.062  22.762  26.518  1.00  0.00     0.274 C 
ENDROOT
BRANCH   1   2
ATOM      2  O   UNL A   1      33.721  23.362  26.306  1.00  0.00    -0.461 OA
BRANCH   2   3
ATOM      3  C   UNL A   1      32.549  22.916  26.895  1.00  0.00     0.328 C 
ATOM      4  O   UNL A   1      32.462  22.642  28.072  1.00  0.00    -0.250 OA
BRANCH   3   5
ATOM      5  C   UNL A   1      31.316  22.777  25.846  1.00  0.00     0.189 C 
ATOM      6  C   UNL A   1      31.804  22.130  24.552  1.00  0.00     0.043 C 
BRANCH   5   7
ATOM      7  N   UNL A   1      30.686  24.106  25.564  1.00  0.00    -0.339 N 
ATOM      8  C   UNL A   1      30.793  25.476  25.720  1.00  0.00     0.254 C 
ATOM      9  O   UNL A   1      29.755  26.016  25.291  1.00  0.00    -0.269 OA
ATOM     10  H   UNL A   1      29.856  23.934  25.062  1.00  0.00     0.164 HD
BRANCH   8  11
ATOM     11  C   UNL A   1      31.846  26.463  26.270  1.00  0.00     0.063 A 
ATOM     12  C   UNL A   1      33.224  26.655  26.006  1.00  0.00     0.051 A 
ATOM     13  C   UNL A   1      33.973  27.705  26.617  1.00  0.00     0.027 A 
ATOM     14  C   UNL A   1      33.358  28.688  27.367  1.00  0.00     0.002 A 
ATOM     15  C   UNL A   1      31.281  27.477  27.095  1.00  0.00     0.016 A 
ATOM     16  C   UNL A   1      32.000  28.582  27.594  1.00  0.00     0.001 A 
BRANCH  12  17
ATOM     17  N   UNL A   1      33.882  26.179  24.875  1.00  0.00    -0.352 N 
ATOM     18  H   UNL A   1      34.715  25.670  25.002  1.00  0.00     0.167 HD
BRANCH  17  19
ATOM     19  C   UNL A   1      33.422  26.385  23.558  1.00  0.00     0.077 A 
ATOM     20  C   UNL A   1      30.446  28.339  22.087  1.00  0.00     0.046 C 
ATOM     21  C   UNL A   1      31.510  27.318  22.356  1.00  0.00    -0.030 A 
ATOM     22  C   UNL A   1      31.394  26.075  21.788  1.00  0.00     0.006 A 
ATOM     23  C   UNL A   1      32.608  27.498  23.177  1.00  0.00     0.069 A 
ATOM     24  C   UNL A   1      32.396  25.093  21.918  1.00  0.00     0.023 A 
ATOM     25  Cl  UNL A   1      32.991  29.116  23.655  1.00  0.00    -0.082 Cl
ATOM     26  C   UNL A   1      33.433  25.243  22.785  1.00  0.00     0.066 A 
ATOM     27  Cl  UNL A   1      34.499  23.913  23.069  1.00  0.00    -0.082 Cl
ENDBRANCH  17  19
ENDBRANCH  12  17
ENDBRANCH   8  11
ENDBRANCH   5   7
ENDBRANCH   3   5
ENDBRANCH   2   3
ENDBRANCH   1   2
BRANCH   1  28
ATOM     28  C   UNL A   1      35.550  21.433  25.726  1.00  0.00     0.275 C 
BRANCH  28  29
ATOM     29  O   UNL A   1      36.774  21.482  24.891  1.00  0.00    -0.458 OA
BRANCH  29  30
ATOM     30  C   UNL A   1      37.990  21.121  25.472  1.00  0.00     0.338 C 
ATOM     31  O   UNL A   1      38.522  20.035  25.294  1.00  0.00    -0.246 OA
BRANCH  30  32
ATOM     32  C   UNL A   1      38.744  22.267  26.174  1.00  0.00     0.060 A 
ATOM     33  C   UNL A   1      38.424  23.597  25.957  1.00  0.00     0.016 A 
ATOM     34  C   UNL A   1      39.928  22.047  26.912  1.00  0.00     0.016 A 
ATOM     35  C   UNL A   1      39.346  24.627  26.269  1.00  0.00     0.010 A 
ATOM     36  C   UNL A   1      40.746  23.126  27.406  1.00  0.00     0.010 A 
ATOM     37  C   UNL A   1      40.474  24.466  27.096  1.00  0.00    -0.014 A 
BRANCH  37  38
ATOM     38  C   UNL A   1      41.209  25.694  27.669  1.00  0.00     0.031 A 
ATOM     39  C   UNL A   1      40.574  26.772  28.557  1.00  0.00     0.074 A 
ATOM     40  C   UNL A   1      42.527  25.900  27.391  1.00  0.00     0.049 A 
ATOM     41  N   UNL A   1      41.030  27.975  28.863  1.00  0.00    -0.248 NA
ATOM     42  C   UNL A   1      39.299  26.464  29.211  1.00  0.00     0.031 C 
ATOM     43  C   UNL A   1      43.394  25.009  26.618  1.00  0.00     0.029 A 
ATOM     44  N   UNL A   1      43.384  26.940  27.724  1.00  0.00    -0.354 N 
ATOM     45  C   UNL A   1      40.084  28.572  29.698  1.00  0.00     0.074 A 
ATOM     46  C   UNL A   1      39.041  27.583  29.887  1.00  0.00     0.031 C 
ATOM     47  C   UNL A   1      44.645  25.471  26.617  1.00  0.00     0.029 A 
ATOM     48  C   UNL A   1      44.642  26.810  27.179  1.00  0.00     0.049 A 
ATOM     49  H   UNL A   1      43.119  27.697  28.296  1.00  0.00     0.167 HD
ATOM     50  C   UNL A   1      40.067  29.822  30.242  1.00  0.00     0.037 A 
ATOM     51  C   UNL A   1      45.667  27.667  26.994  1.00  0.00     0.037 A 
ATOM     52  C   UNL A   1      41.104  30.826  30.107  1.00  0.00     0.049 A 
ATOM     53  C   UNL A   1      45.560  29.091  27.429  1.00  0.00     0.074 A 
ATOM     54  C   UNL A   1      41.141  32.111  30.637  1.00  0.00     0.029 A 
ATOM     55  N   UNL A   1      42.281  30.668  29.398  1.00  0.00    -0.354 N 
ATOM     56  N   UNL A   1      44.601  29.675  28.094  1.00  0.00    -0.248 NA
ATOM     57  C   UNL A   1      46.664  29.984  27.045  1.00  0.00     0.031 C 
ATOM     58  C   UNL A   1      42.310  32.747  30.200  1.00  0.00     0.029 A 
ATOM     59  C   UNL A   1      43.028  31.842  29.442  1.00  0.00     0.049 A 
ATOM     60  H   UNL A   1      42.551  29.845  28.931  1.00  0.00     0.167 HD
ATOM     61  C   UNL A   1      44.978  31.005  28.205  1.00  0.00     0.074 A 
ATOM     62  C   UNL A   1      46.267  31.138  27.562  1.00  0.00     0.031 C 
ATOM     63  C   UNL A   1      44.296  32.016  28.789  1.00  0.00     0.037 A 
BRANCH  50  64
ATOM     64  C   UNL A   1      38.842  30.259  31.011  1.00  0.00     0.064 A 
ATOM     65  C   UNL A   1      38.782  30.219  32.411  1.00  0.00     0.173 A 
ATOM     66  C   UNL A   1      37.776  30.872  30.329  1.00  0.00     0.173 A 
ATOM     67  F   UNL A   1      39.779  29.665  33.114  1.00  0.00    -0.203 F 
ATOM     68  C   UNL A   1      37.695  30.765  33.098  1.00  0.00     0.198 A 
ATOM     69  C   UNL A   1      36.704  31.438  31.020  1.00  0.00     0.198 A 
ATOM     70  F   UNL A   1      37.799  30.972  28.992  1.00  0.00    -0.203 F 
ATOM     71  F   UNL A   1      37.652  30.710  34.436  1.00  0.00    -0.200 F 
ATOM     72  C   UNL A   1      36.663  31.381  32.403  1.00  0.00     0.200 A 
ATOM     73  F   UNL A   1      35.725  32.057  30.345  1.00  0.00    -0.200 F 
ATOM     74  F   UNL A   1      35.634  31.926  33.067  1.00  0.00    -0.200 F 
ENDBRANCH  50  64
BRANCH  51  75
ATOM     75  C   UNL A   1      46.842  27.215  26.198  1.00  0.00     0.064 A 
ATOM     76  C   UNL A   1      46.923  27.450  24.821  1.00  0.00     0.173 A 
ATOM     77  C   UNL A   1      47.932  26.581  26.822  1.00  0.00     0.173 A 
ATOM     78  F   UNL A   1      45.893  28.016  24.178  1.00  0.00    -0.203 F 
ATOM     79  C   UNL A   1      48.058  27.084  24.101  1.00  0.00     0.198 A 
ATOM     80  C   UNL A   1      49.081  26.257  26.109  1.00  0.00     0.198 A 
ATOM     81  F   UNL A   1      47.898  26.330  28.140  1.00  0.00    -0.203 F 
ATOM     82  F   UNL A   1      48.105  27.295  22.779  1.00  0.00    -0.200 F 
ATOM     83  C   UNL A   1      49.142  26.505  24.748  1.00  0.00     0.200 A 
ATOM     84  F   UNL A   1      50.133  25.724  26.745  1.00  0.00    -0.200 F 
ATOM     85  F   UNL A   1      50.246  26.189  24.058  1.00  0.00    -0.200 F 
ENDBRANCH  51  75
BRANCH  63  86
ATOM     86  C   UNL A   1      44.938  33.372  28.770  1.00  0.00     0.064 A 
ATOM     87  C   UNL A   1      44.653  34.299  27.756  1.00  0.00     0.173 A 
ATOM     88  C   UNL A   1      45.864  33.742  29.757  1.00  0.00     0.173 A 
ATOM     89  F   UNL A   1      43.797  33.982  26.773  1.00  0.00    -0.203 F 
ATOM     90  C   UNL A   1      45.288  35.539  27.719  1.00  0.00     0.198 A 
ATOM     91  C   UNL A   1      46.480  34.992  29.728  1.00  0.00     0.198 A 
ATOM     92  F   UNL A   1      46.179  32.889  30.742  1.00  0.00    -0.203 F 
ATOM     93  F   UNL A   1      45.037  36.389  26.713  1.00  0.00    -0.200 F 
ATOM     94  C   UNL A   1      46.197  35.885  28.706  1.00  0.00     0.200 A 
ATOM     95  F   UNL A   1      47.360  35.325  30.683  1.00  0.00    -0.200 F 
ATOM     96  F   UNL A   1      46.813  37.075  28.665  1.00  0.00    -0.200 F 
ENDBRANCH  63  86
ENDBRANCH  37  38
ENDBRANCH  30  32
ENDBRANCH  29  30
ENDBRANCH  28  29
ENDBRANCH   1  28
TORSDOF 15
ENDMDL
MODEL 3
REMARK VINA RESULT:     -12.6      4.039      9.529
REMARK SMILES Cc1ccc(Cl)c(Nc2ccccc2C(=O)N[C@@H](C)C(=O)OCCOC(=O)c2ccc(-c3c4nc(c(-c5c(F)c(F)c(F)c(F)c5F)c5ccc([nH]5)c(-c5c(F)c(F)c(F)c(F)c5F)c5nc(c(-c6c(F)c(F)c(F)c(F)c6F)c6ccc3[nH]6)C=C5)C=C4)cc2)c1Cl
REMARK SMILES IDX 23 1 22 2 20 3 21 4 18 5 19 6 17 7 15 8 16 9 14 11 9 12
REMARK SMILES IDX 10 13 11 14 13 15 12 16 8 17 7 19 1 20 2 21 3 22 91 23 4 24
REMARK SMILES IDX 92 25 5 26 6 27 24 28 25 29 26 30 27 31 28 32 29 33 90 34
REMARK SMILES IDX 30 35 89 36 31 37 32 38 33 39 83 40 34 41 88 42 82 43 84 44
REMARK SMILES IDX 35 45 87 46 81 47 80 48 36 50 68 51 48 52 67 53 49 54 52 55
REMARK SMILES IDX 66 56 85 57 50 58 51 59 65 61 86 62 53 63 37 64 38 65 46 66
REMARK SMILES IDX 39 67 40 68 44 69 47 70 41 71 42 72 45 73 43 74 69 75 70 76
REMARK SMILES IDX 78 77 71 78 72 79 76 80 79 81 73 82 74 83 77 84 75 85 54 86
REMARK SMILES IDX 55 87 63 88 56 89 57 90 61 91 64 92 58 93 59 94 62 95 60 96
REMARK H PARENT 17 10 8 18 84 49 52 60
REMARK Flexibility Score: inf
ROOT
ATOM      1  C   UNL A   1      33.688  21.100  25.727  1.00  0.00     0.274 C 
ENDROOT
BRANCH   1   2
ATOM      2  O   UNL A   1      32.597  22.106  25.786  1.00  0.00    -0.461 OA
BRANCH   2   3
ATOM      3  C   UNL A   1      32.112  22.684  26.948  1.00  0.00     0.328 C 
ATOM      4  O   UNL A   1      32.617  22.510  28.035  1.00  0.00    -0.250 OA
BRANCH   3   5
ATOM      5  C   UNL A   1      30.789  23.598  26.706  1.00  0.00     0.189 C 
ATOM      6  C   UNL A   1      29.555  22.880  27.248  1.00  0.00     0.043 C 
BRANCH   5   7
ATOM      7  N   UNL A   1      30.612  23.928  25.256  1.00  0.00    -0.339 N 
ATOM      8  C   UNL A   1      30.471  24.941  24.325  1.00  0.00     0.254 C 
ATOM      9  O   UNL A   1      30.233  24.437  23.210  1.00  0.00    -0.269 OA
ATOM     10  H   UNL A   1      30.585  23.075  24.765  1.00  0.00     0.164 HD
BRANCH   8  11
ATOM     11  C   UNL A   1      30.538  26.483  24.328  1.00  0.00     0.063 A 
ATOM     12  C   UNL A   1      31.554  27.408  24.671  1.00  0.00     0.051 A 
ATOM     13  C   UNL A   1      31.380  28.816  24.520  1.00  0.00     0.027 A 
ATOM     14  C   UNL A   1      30.276  29.342  23.879  1.00  0.00     0.002 A 
ATOM     15  C   UNL A   1      29.401  27.092  23.721  1.00  0.00     0.016 A 
ATOM     16  C   UNL A   1      29.289  28.472  23.462  1.00  0.00     0.001 A 
BRANCH  12  17
ATOM     17  N   UNL A   1      32.907  27.090  24.767  1.00  0.00    -0.352 N 
ATOM     18  H   UNL A   1      33.409  27.424  25.545  1.00  0.00     0.167 HD
BRANCH  17  19
ATOM     19  C   UNL A   1      33.598  26.316  23.812  1.00  0.00     0.077 A 
ATOM     20  C   UNL A   1      32.826  25.331  20.168  1.00  0.00     0.046 C 
ATOM     21  C   UNL A   1      33.277  25.333  21.598  1.00  0.00    -0.030 A 
ATOM     22  C   UNL A   1      33.563  24.136  22.203  1.00  0.00     0.006 A 
ATOM     23  C   UNL A   1      33.399  26.451  22.401  1.00  0.00     0.069 A 
ATOM     24  C   UNL A   1      34.080  24.060  23.512  1.00  0.00     0.023 A 
ATOM     25  Cl  UNL A   1      33.377  27.998  21.626  1.00  0.00    -0.082 Cl
ATOM     26  C   UNL A   1      34.126  25.150  24.324  1.00  0.00     0.066 A 
ATOM     27  Cl  UNL A   1      34.553  24.949  25.987  1.00  0.00    -0.082 Cl
ENDBRANCH  17  19
ENDBRANCH  12  17
ENDBRANCH   8  11
ENDBRANCH   5   7
ENDBRANCH   3   5
ENDBRANCH   2   3
ENDBRANCH   1   2
BRANCH   1  28
ATOM     28  C   UNL A   1      35.214  21.454  26.146  1.00  0.00     0.275 C 
BRANCH  28  29
ATOM     29  O   UNL A   1      36.249  21.606  25.095  1.00  0.00    -0.458 OA
BRANCH  29  30
ATOM     30  C   UNL A   1      37.569  21.280  25.411  1.00  0.00     0.338 C 
ATOM     31  O   UNL A   1      38.126  20.273  25.001  1.00  0.00    -0.246 OA
BRANCH  30  32
ATOM     32  C   UNL A   1      38.363  22.391  26.126  1.00  0.00     0.060 A 
ATOM     33  C   UNL A   1      38.005  23.725  26.030  1.00  0.00     0.016 A 
ATOM     34  C   UNL A   1      39.608  22.145  26.744  1.00  0.00     0.016 A 
ATOM     35  C   UNL A   1      38.935  24.750  26.335  1.00  0.00     0.010 A 
ATOM     36  C   UNL A   1      40.449  23.204  27.242  1.00  0.00     0.010 A 
ATOM     37  C   UNL A   1      40.132  24.556  27.051  1.00  0.00    -0.014 A 
BRANCH  37  38
ATOM     38  C   UNL A   1      40.895  25.758  27.645  1.00  0.00     0.031 A 
ATOM     39  C   UNL A   1      40.276  26.854  28.523  1.00  0.00     0.074 A 
ATOM     40  C   UNL A   1      42.224  25.920  27.398  1.00  0.00     0.049 A 
ATOM     41  N   UNL A   1      40.765  28.040  28.843  1.00  0.00    -0.248 NA
ATOM     42  C   UNL A   1      38.976  26.587  29.146  1.00  0.00     0.031 C 
ATOM     43  C   UNL A   1      43.079  25.002  26.642  1.00  0.00     0.029 A 
ATOM     44  N   UNL A   1      43.108  26.929  27.754  1.00  0.00    -0.354 N 
ATOM     45  C   UNL A   1      39.820  28.666  29.659  1.00  0.00     0.074 A 
ATOM     46  C   UNL A   1      38.741  27.712  29.820  1.00  0.00     0.031 C 
ATOM     47  C   UNL A   1      44.344  25.421  26.670  1.00  0.00     0.029 A 
ATOM     48  C   UNL A   1      44.373  26.758  27.237  1.00  0.00     0.049 A 
ATOM     49  H   UNL A   1      42.855  27.692  28.322  1.00  0.00     0.167 HD
ATOM     50  C   UNL A   1      39.833  29.914  30.206  1.00  0.00     0.037 A 
ATOM     51  C   UNL A   1      45.430  27.580  27.079  1.00  0.00     0.037 A 
ATOM     52  C   UNL A   1      40.906  30.883  30.098  1.00  0.00     0.049 A 
ATOM     53  C   UNL A   1      45.362  29.006  27.516  1.00  0.00     0.074 A 
ATOM     54  C   UNL A   1      40.975  32.164  30.634  1.00  0.00     0.029 A 
ATOM     55  N   UNL A   1      42.093  30.687  29.416  1.00  0.00    -0.354 N 
ATOM     56  N   UNL A   1      44.408  29.620  28.161  1.00  0.00    -0.248 NA
ATOM     57  C   UNL A   1      46.504  29.862  27.161  1.00  0.00     0.031 C 
ATOM     58  C   UNL A   1      42.174  32.762  30.226  1.00  0.00     0.029 A 
ATOM     59  C   UNL A   1      42.878  31.836  29.481  1.00  0.00     0.049 A 
ATOM     60  H   UNL A   1      42.347  29.857  28.952  1.00  0.00     0.167 HD
ATOM     61  C   UNL A   1      44.827  30.936  28.286  1.00  0.00     0.074 A 
ATOM     62  C   UNL A   1      46.134  31.027  27.673  1.00  0.00     0.031 C 
ATOM     63  C   UNL A   1      44.166  31.968  28.857  1.00  0.00     0.037 A 
BRANCH  50  64
ATOM     64  C   UNL A   1      38.606  30.390  30.949  1.00  0.00     0.064 A 
ATOM     65  C   UNL A   1      38.544  30.425  32.348  1.00  0.00     0.173 A 
ATOM     66  C   UNL A   1      37.541  30.965  30.233  1.00  0.00     0.173 A 
ATOM     67  F   UNL A   1      39.540  29.910  33.082  1.00  0.00    -0.203 F 
ATOM     68  C   UNL A   1      37.455  31.005  33.003  1.00  0.00     0.198 A 
ATOM     69  C   UNL A   1      36.467  31.565  30.891  1.00  0.00     0.198 A 
ATOM     70  F   UNL A   1      37.566  30.994  28.893  1.00  0.00    -0.203 F 
ATOM     71  F   UNL A   1      37.410  31.021  34.343  1.00  0.00    -0.200 F 
ATOM     72  C   UNL A   1      36.424  31.582  32.275  1.00  0.00     0.200 A 
ATOM     73  F   UNL A   1      35.489  32.146  30.182  1.00  0.00    -0.200 F 
ATOM     74  F   UNL A   1      35.393  32.160  32.907  1.00  0.00    -0.200 F 
ENDBRANCH  50  64
BRANCH  51  75
ATOM     75  C   UNL A   1      46.608  27.092  26.308  1.00  0.00     0.064 A 
ATOM     76  C   UNL A   1      46.746  27.358  24.942  1.00  0.00     0.173 A 
ATOM     77  C   UNL A   1      47.644  26.387  26.949  1.00  0.00     0.173 A 
ATOM     78  F   UNL A   1      45.767  27.993  24.282  1.00  0.00    -0.203 F 
ATOM     79  C   UNL A   1      47.884  26.956  24.248  1.00  0.00     0.198 A 
ATOM     80  C   UNL A   1      48.798  26.024  26.264  1.00  0.00     0.198 A 
ATOM     81  F   UNL A   1      47.554  26.103  28.257  1.00  0.00    -0.203 F 
ATOM     82  F   UNL A   1      47.986  27.199  22.935  1.00  0.00    -0.200 F 
ATOM     83  C   UNL A   1      48.916  26.306  24.913  1.00  0.00     0.200 A 
ATOM     84  F   UNL A   1      49.800  25.422  26.918  1.00  0.00    -0.200 F 
ATOM     85  F   UNL A   1      50.026  25.953  24.250  1.00  0.00    -0.200 F 
ENDBRANCH  51  75
BRANCH  63  86
ATOM     86  C   UNL A   1      44.854  33.302  28.858  1.00  0.00     0.064 A 
ATOM     87  C   UNL A   1      44.623  34.242  27.842  1.00  0.00     0.173 A 
ATOM     88  C   UNL A   1      45.769  33.637  29.867  1.00  0.00     0.173 A 
ATOM     89  F   UNL A   1      43.778  33.956  26.839  1.00  0.00    -0.203 F 
ATOM     90  C   UNL A   1      45.300  35.459  27.824  1.00  0.00     0.198 A 
ATOM     91  C   UNL A   1      46.428  34.865  29.856  1.00  0.00     0.198 A 
ATOM     92  F   UNL A   1      46.034  32.771  30.855  1.00  0.00    -0.203 F 
ATOM     93  F   UNL A   1      45.100  36.320  26.816  1.00  0.00    -0.200 F 
ATOM     94  C   UNL A   1      46.198  35.771  28.832  1.00  0.00     0.200 A 
ATOM     95  F   UNL A   1      47.297  35.166  30.832  1.00  0.00    -0.200 F 
ATOM     96  F   UNL A   1      46.855  36.940  28.809  1.00  0.00    -0.200 F 
ENDBRANCH  63  86
ENDBRANCH  37  38
ENDBRANCH  30  32
ENDBRANCH  29  30
ENDBRANCH  28  29
ENDBRANCH   1  28
TORSDOF 15
ENDMDL
