MODEL 1
REMARK VINA RESULT:     -11.9      0.000      0.000
REMARK SMILES COc1ccc(/C=C/c2nc(C(=O)OCCOC(=O)c3ccc(-c4c5nc(c(-c6c(F)c(F)c(F)c(F)c6F)c6ccc([nH]6)c(-c6c(F)c(F)c(F)c(F)c6F)c6nc(c(-c7c(F)c(F)c(F)c(F)c7F)c7ccc4[nH]7)C=C6)C=C5)cc3)ccc2C#N)cc1F
REMARK SMILES IDX 15 1 14 2 12 3 13 4 11 5 9 6 10 7 85 8 84 9 83 10 8 11 7 12
REMARK SMILES IDX 6 13 3 14 4 15 89 16 5 17 88 18 90 19 2 20 1 21 86 22 87 23
REMARK SMILES IDX 16 24 17 25 18 26 19 27 20 28 21 29 82 30 22 31 81 32 23 33
REMARK SMILES IDX 24 34 25 35 75 36 26 37 80 38 74 39 76 40 27 41 79 42 73 43
REMARK SMILES IDX 72 44 28 46 60 47 40 48 59 49 41 50 44 51 58 52 77 53 42 54
REMARK SMILES IDX 43 55 57 57 78 58 45 59 29 60 30 61 38 62 31 63 32 64 36 65
REMARK SMILES IDX 39 66 33 67 34 68 37 69 35 70 61 71 62 72 70 73 63 74 64 75
REMARK SMILES IDX 68 76 71 77 65 78 66 79 69 80 67 81 46 82 47 83 55 84 48 85
REMARK SMILES IDX 49 86 53 87 56 88 50 89 51 90 54 91 52 92
REMARK H PARENT 76 45 44 56
REMARK Flexibility Score: inf
ROOT
ATOM      1  C   UNL A   1      31.814  28.329  25.689  1.00  0.00     0.275 C 
ENDROOT
BRANCH   1   2
ATOM      2  O   UNL A   1      31.859  28.363  24.247  1.00  0.00    -0.457 OA
BRANCH   2   3
ATOM      3  C   UNL A   1      32.952  27.791  23.675  1.00  0.00     0.357 C 
ATOM      4  O   UNL A   1      34.019  28.351  23.470  1.00  0.00    -0.244 OA
BRANCH   3   5
ATOM      5  C   UNL A   1      32.722  26.329  23.431  1.00  0.00     0.149 A 
ATOM      6  C   UNL A   1      33.672  24.191  23.498  1.00  0.00     0.082 A 
ATOM      7  N   UNL A   1      33.808  25.531  23.630  1.00  0.00    -0.240 NA
ATOM      8  C   UNL A   1      32.470  23.606  23.110  1.00  0.00     0.078 A 
ATOM      9  C   UNL A   1      31.370  24.444  22.876  1.00  0.00     0.024 A 
ATOM     10  C   UNL A   1      31.488  25.824  23.052  1.00  0.00     0.037 A 
BRANCH   6  11
ATOM     11  C   UNL A   1      34.884  23.444  23.873  1.00  0.00     0.030 C 
ATOM     12  C   UNL A   1      35.724  23.861  24.834  1.00  0.00     0.010 C 
BRANCH  12  13
ATOM     13  C   UNL A   1      36.951  23.191  25.305  1.00  0.00    -0.022 A 
ATOM     14  C   UNL A   1      39.262  21.756  26.086  1.00  0.00     0.154 A 
ATOM     15  C   UNL A   1      39.073  23.073  26.505  1.00  0.00     0.050 A 
ATOM     16  C   UNL A   1      38.274  21.148  25.317  1.00  0.00     0.165 A 
ATOM     17  C   UNL A   1      37.932  23.790  26.110  1.00  0.00     0.012 A 
ATOM     18  C   UNL A   1      37.137  21.853  24.927  1.00  0.00     0.051 A 
ATOM     19  F   UNL A   1      38.374  19.863  24.946  1.00  0.00    -0.203 F 
BRANCH  14  20
ATOM     20  O   UNL A   1      40.398  21.130  26.521  1.00  0.00    -0.494 OA
ATOM     21  C   UNL A   1      40.809  21.549  27.822  1.00  0.00     0.278 C 
ENDBRANCH  14  20
ENDBRANCH  12  13
ENDBRANCH   6  11
BRANCH   8  22
ATOM     22  C   UNL A   1      32.327  22.190  22.955  1.00  0.00     0.101 C 
ATOM     23  N   UNL A   1      32.214  21.048  22.799  1.00  0.00    -0.192 NA
ENDBRANCH   8  22
ENDBRANCH   3   5
ENDBRANCH   2   3
ENDBRANCH   1   2
BRANCH   1  24
ATOM     24  C   UNL A   1      31.814  29.739  26.291  1.00  0.00     0.275 C 
BRANCH  24  25
ATOM     25  O   UNL A   1      33.078  30.406  26.113  1.00  0.00    -0.458 OA
BRANCH  25  26
ATOM     26  C   UNL A   1      33.353  31.364  27.027  1.00  0.00     0.338 C 
ATOM     27  O   UNL A   1      32.621  32.263  27.404  1.00  0.00    -0.246 OA
BRANCH  26  28
ATOM     28  C   UNL A   1      34.676  31.120  27.616  1.00  0.00     0.060 A 
ATOM     29  C   UNL A   1      34.994  29.817  27.992  1.00  0.00     0.016 A 
ATOM     30  C   UNL A   1      35.549  32.166  27.901  1.00  0.00     0.016 A 
ATOM     31  C   UNL A   1      36.149  29.547  28.711  1.00  0.00     0.010 A 
ATOM     32  C   UNL A   1      36.744  31.888  28.573  1.00  0.00     0.010 A 
ATOM     33  C   UNL A   1      37.041  30.580  29.001  1.00  0.00    -0.014 A 
BRANCH  33  34
ATOM     34  C   UNL A   1      38.277  30.298  29.770  1.00  0.00     0.031 A 
ATOM     35  C   UNL A   1      39.351  29.443  29.163  1.00  0.00     0.074 A 
ATOM     36  C   UNL A   1      38.432  30.813  31.006  1.00  0.00     0.049 A 
ATOM     37  N   UNL A   1      40.414  28.930  29.725  1.00  0.00    -0.248 NA
ATOM     38  C   UNL A   1      39.210  29.121  27.733  1.00  0.00     0.031 C 
ATOM     39  C   UNL A   1      37.497  31.725  31.666  1.00  0.00     0.029 A 
ATOM     40  N   UNL A   1      39.431  30.638  31.930  1.00  0.00    -0.354 N 
ATOM     41  C   UNL A   1      41.052  28.203  28.728  1.00  0.00     0.074 A 
ATOM     42  C   UNL A   1      40.248  28.321  27.532  1.00  0.00     0.031 C 
ATOM     43  C   UNL A   1      37.969  32.036  32.882  1.00  0.00     0.029 A 
ATOM     44  C   UNL A   1      39.195  31.282  33.120  1.00  0.00     0.049 A 
ATOM     45  H   UNL A   1      40.240  30.102  31.757  1.00  0.00     0.167 HD
ATOM     46  C   UNL A   1      42.210  27.509  28.813  1.00  0.00     0.037 A 
ATOM     47  C   UNL A   1      39.866  31.234  34.287  1.00  0.00     0.037 A 
ATOM     48  C   UNL A   1      43.008  27.418  30.007  1.00  0.00     0.049 A 
ATOM     49  C   UNL A   1      41.088  30.360  34.386  1.00  0.00     0.074 A 
ATOM     50  C   UNL A   1      44.190  26.728  30.201  1.00  0.00     0.029 A 
ATOM     51  N   UNL A   1      42.706  28.044  31.208  1.00  0.00    -0.354 N 
ATOM     52  N   UNL A   1      41.665  29.640  33.454  1.00  0.00    -0.248 NA
ATOM     53  C   UNL A   1      41.744  30.278  35.697  1.00  0.00     0.031 C 
ATOM     54  C   UNL A   1      44.576  26.891  31.533  1.00  0.00     0.029 A 
ATOM     55  C   UNL A   1      43.671  27.739  32.152  1.00  0.00     0.049 A 
ATOM     56  H   UNL A   1      41.922  28.620  31.366  1.00  0.00     0.167 HD
ATOM     57  C   UNL A   1      42.772  29.056  34.054  1.00  0.00     0.074 A 
ATOM     58  C   UNL A   1      42.787  29.504  35.430  1.00  0.00     0.031 C 
ATOM     59  C   UNL A   1      43.692  28.223  33.509  1.00  0.00     0.037 A 
BRANCH  46  60
ATOM     60  C   UNL A   1      42.693  26.780  27.593  1.00  0.00     0.064 A 
ATOM     61  C   UNL A   1      42.312  25.448  27.366  1.00  0.00     0.173 A 
ATOM     62  C   UNL A   1      43.610  27.360  26.705  1.00  0.00     0.173 A 
ATOM     63  F   UNL A   1      41.440  24.844  28.188  1.00  0.00    -0.203 F 
ATOM     64  C   UNL A   1      42.851  24.717  26.312  1.00  0.00     0.198 A 
ATOM     65  C   UNL A   1      44.124  26.635  25.633  1.00  0.00     0.198 A 
ATOM     66  F   UNL A   1      43.996  28.634  26.870  1.00  0.00    -0.203 F 
ATOM     67  F   UNL A   1      42.508  23.432  26.143  1.00  0.00    -0.200 F 
ATOM     68  C   UNL A   1      43.756  25.311  25.445  1.00  0.00     0.200 A 
ATOM     69  F   UNL A   1      44.980  27.217  24.782  1.00  0.00    -0.200 F 
ATOM     70  F   UNL A   1      44.274  24.607  24.429  1.00  0.00    -0.200 F 
ENDBRANCH  46  60
BRANCH  47  71
ATOM     71  C   UNL A   1      39.389  32.023  35.454  1.00  0.00     0.064 A 
ATOM     72  C   UNL A   1      39.809  33.345  35.671  1.00  0.00     0.173 A 
ATOM     73  C   UNL A   1      38.503  31.463  36.383  1.00  0.00     0.173 A 
ATOM     74  F   UNL A   1      40.656  33.933  34.813  1.00  0.00    -0.203 F 
ATOM     75  C   UNL A   1      39.380  34.065  36.785  1.00  0.00     0.198 A 
ATOM     76  C   UNL A   1      38.047  32.194  37.477  1.00  0.00     0.198 A 
ATOM     77  F   UNL A   1      38.055  30.210  36.209  1.00  0.00    -0.203 F 
ATOM     78  F   UNL A   1      39.826  35.312  36.987  1.00  0.00    -0.200 F 
ATOM     79  C   UNL A   1      38.492  33.492  37.682  1.00  0.00     0.200 A 
ATOM     80  F   UNL A   1      37.166  31.648  38.325  1.00  0.00    -0.200 F 
ATOM     81  F   UNL A   1      38.060  34.192  38.740  1.00  0.00    -0.200 F 
ENDBRANCH  47  71
BRANCH  59  82
ATOM     82  C   UNL A   1      44.837  27.777  34.369  1.00  0.00     0.064 A 
ATOM     83  C   UNL A   1      46.024  28.526  34.401  1.00  0.00     0.173 A 
ATOM     84  C   UNL A   1      44.811  26.554  35.053  1.00  0.00     0.173 A 
ATOM     85  F   UNL A   1      46.100  29.699  33.755  1.00  0.00    -0.203 F 
ATOM     86  C   UNL A   1      47.155  28.049  35.055  1.00  0.00     0.198 A 
ATOM     87  C   UNL A   1      45.935  26.095  35.734  1.00  0.00     0.198 A 
ATOM     88  F   UNL A   1      43.696  25.809  35.063  1.00  0.00    -0.203 F 
ATOM     89  F   UNL A   1      48.295  28.754  35.021  1.00  0.00    -0.200 F 
ATOM     90  C   UNL A   1      47.110  26.833  35.720  1.00  0.00     0.200 A 
ATOM     91  F   UNL A   1      45.886  24.931  36.396  1.00  0.00    -0.200 F 
ATOM     92  F   UNL A   1      48.201  26.371  36.345  1.00  0.00    -0.200 F 
ENDBRANCH  59  82
ENDBRANCH  33  34
ENDBRANCH  26  28
ENDBRANCH  25  26
ENDBRANCH  24  25
ENDBRANCH   1  24
TORSDOF 15
ENDMDL
MODEL 2
REMARK VINA RESULT:     -11.7      4.103      9.916
REMARK SMILES COc1ccc(/C=C/c2nc(C(=O)OCCOC(=O)c3ccc(-c4c5nc(c(-c6c(F)c(F)c(F)c(F)c6F)c6ccc([nH]6)c(-c6c(F)c(F)c(F)c(F)c6F)c6nc(c(-c7c(F)c(F)c(F)c(F)c7F)c7ccc4[nH]7)C=C6)C=C5)cc3)ccc2C#N)cc1F
REMARK SMILES IDX 15 1 14 2 12 3 13 4 11 5 9 6 10 7 85 8 84 9 83 10 8 11 7 12
REMARK SMILES IDX 6 13 3 14 4 15 89 16 5 17 88 18 90 19 2 20 1 21 86 22 87 23
REMARK SMILES IDX 16 24 17 25 18 26 19 27 20 28 21 29 82 30 22 31 81 32 23 33
REMARK SMILES IDX 24 34 25 35 75 36 26 37 80 38 74 39 76 40 27 41 79 42 73 43
REMARK SMILES IDX 72 44 28 46 60 47 40 48 59 49 41 50 44 51 58 52 77 53 42 54
REMARK SMILES IDX 43 55 57 57 78 58 45 59 29 60 30 61 38 62 31 63 32 64 36 65
REMARK SMILES IDX 39 66 33 67 34 68 37 69 35 70 61 71 62 72 70 73 63 74 64 75
REMARK SMILES IDX 68 76 71 77 65 78 66 79 69 80 67 81 46 82 47 83 55 84 48 85
REMARK SMILES IDX 49 86 53 87 56 88 50 89 51 90 54 91 52 92
REMARK H PARENT 76 45 44 56
REMARK Flexibility Score: inf
ROOT
ATOM      1  C   UNL A   1      36.883  22.107  23.855  1.00  0.00     0.275 C 
ENDROOT
BRANCH   1   2
ATOM      2  O   UNL A   1      35.784  22.830  24.448  1.00  0.00    -0.457 OA
BRANCH   2   3
ATOM      3  C   UNL A   1      34.846  23.297  23.581  1.00  0.00     0.357 C 
ATOM      4  O   UNL A   1      34.980  23.376  22.369  1.00  0.00    -0.244 OA
BRANCH   3   5
ATOM      5  C   UNL A   1      33.562  23.598  24.295  1.00  0.00     0.149 A 
ATOM      6  C   UNL A   1      32.385  25.176  25.563  1.00  0.00     0.082 A 
ATOM      7  N   UNL A   1      33.529  24.794  24.948  1.00  0.00    -0.240 NA
ATOM      8  C   UNL A   1      31.258  24.359  25.597  1.00  0.00     0.078 A 
ATOM      9  C   UNL A   1      31.319  23.117  24.949  1.00  0.00     0.024 A 
ATOM     10  C   UNL A   1      32.480  22.732  24.274  1.00  0.00     0.037 A 
BRANCH   6  11
ATOM     11  C   UNL A   1      32.447  26.541  26.109  1.00  0.00     0.030 C 
ATOM     12  C   UNL A   1      33.597  27.222  26.229  1.00  0.00     0.010 C 
BRANCH  12  13
ATOM     13  C   UNL A   1      33.779  28.594  26.741  1.00  0.00    -0.022 A 
ATOM     14  C   UNL A   1      33.931  31.254  27.695  1.00  0.00     0.154 A 
ATOM     15  C   UNL A   1      35.026  30.397  27.814  1.00  0.00     0.050 A 
ATOM     16  C   UNL A   1      32.782  30.791  27.060  1.00  0.00     0.165 A 
ATOM     17  C   UNL A   1      34.948  29.073  27.351  1.00  0.00     0.012 A 
ATOM     18  C   UNL A   1      32.702  29.481  26.593  1.00  0.00     0.051 A 
ATOM     19  F   UNL A   1      31.728  31.596  26.858  1.00  0.00    -0.203 F 
BRANCH  14  20
ATOM     20  O   UNL A   1      34.095  32.527  28.168  1.00  0.00    -0.494 OA
ATOM     21  C   UNL A   1      35.339  33.113  27.789  1.00  0.00     0.278 C 
ENDBRANCH  14  20
ENDBRANCH  12  13
ENDBRANCH   6  11
BRANCH   8  22
ATOM     22  C   UNL A   1      30.052  24.753  26.260  1.00  0.00     0.101 C 
ATOM     23  N   UNL A   1      29.090  25.100  26.803  1.00  0.00    -0.192 NA
ENDBRANCH   8  22
ENDBRANCH   3   5
ENDBRANCH   2   3
ENDBRANCH   1   2
BRANCH   1  24
ATOM     24  C   UNL A   1      37.355  20.956  24.753  1.00  0.00     0.275 C 
BRANCH  24  25
ATOM     25  O   UNL A   1      37.840  21.423  26.026  1.00  0.00    -0.458 OA
BRANCH  25  26
ATOM     26  C   UNL A   1      39.157  21.213  26.248  1.00  0.00     0.338 C 
ATOM     27  O   UNL A   1      39.803  20.209  25.996  1.00  0.00    -0.246 OA
BRANCH  26  28
ATOM     28  C   UNL A   1      39.773  22.441  26.767  1.00  0.00     0.060 A 
ATOM     29  C   UNL A   1      39.333  23.660  26.256  1.00  0.00     0.016 A 
ATOM     30  C   UNL A   1      40.842  22.399  27.656  1.00  0.00     0.016 A 
ATOM     31  C   UNL A   1      39.988  24.841  26.569  1.00  0.00     0.010 A 
ATOM     32  C   UNL A   1      41.468  23.595  28.023  1.00  0.00     0.010 A 
ATOM     33  C   UNL A   1      41.059  24.822  27.465  1.00  0.00    -0.014 A 
BRANCH  33  34
ATOM     34  C   UNL A   1      41.765  26.080  27.804  1.00  0.00     0.031 A 
ATOM     35  C   UNL A   1      41.073  27.118  28.639  1.00  0.00     0.074 A 
ATOM     36  C   UNL A   1      43.022  26.285  27.366  1.00  0.00     0.049 A 
ATOM     37  N   UNL A   1      41.434  28.348  28.894  1.00  0.00    -0.248 NA
ATOM     38  C   UNL A   1      39.804  26.720  29.270  1.00  0.00     0.031 C 
ATOM     39  C   UNL A   1      43.826  25.316  26.620  1.00  0.00     0.029 A 
ATOM     40  N   UNL A   1      43.844  27.378  27.479  1.00  0.00    -0.354 N 
ATOM     41  C   UNL A   1      40.428  28.879  29.689  1.00  0.00     0.074 A 
ATOM     42  C   UNL A   1      39.428  27.847  29.859  1.00  0.00     0.031 C 
ATOM     43  C   UNL A   1      45.026  25.853  26.351  1.00  0.00     0.029 A 
ATOM     44  C   UNL A   1      45.045  27.231  26.830  1.00  0.00     0.049 A 
ATOM     45  H   UNL A   1      43.595  28.191  27.978  1.00  0.00     0.167 HD
ATOM     46  C   UNL A   1      40.358  30.116  30.233  1.00  0.00     0.037 A 
ATOM     47  C   UNL A   1      46.032  28.119  26.608  1.00  0.00     0.037 A 
ATOM     48  C   UNL A   1      41.372  31.124  30.070  1.00  0.00     0.049 A 
ATOM     49  C   UNL A   1      45.874  29.524  27.124  1.00  0.00     0.074 A 
ATOM     50  C   UNL A   1      41.389  32.414  30.568  1.00  0.00     0.029 A 
ATOM     51  N   UNL A   1      42.552  30.950  29.361  1.00  0.00    -0.354 N 
ATOM     52  N   UNL A   1      44.902  30.034  27.840  1.00  0.00    -0.248 NA
ATOM     53  C   UNL A   1      46.940  30.479  26.793  1.00  0.00     0.031 C 
ATOM     54  C   UNL A   1      42.552  33.040  30.114  1.00  0.00     0.029 A 
ATOM     55  C   UNL A   1      43.294  32.118  29.392  1.00  0.00     0.049 A 
ATOM     56  H   UNL A   1      42.821  30.121  28.903  1.00  0.00     0.167 HD
ATOM     57  C   UNL A   1      45.257  31.355  28.079  1.00  0.00     0.074 A 
ATOM     58  C   UNL A   1      46.535  31.568  27.433  1.00  0.00     0.031 C 
ATOM     59  C   UNL A   1      44.582  32.303  28.774  1.00  0.00     0.037 A 
BRANCH  46  60
ATOM     60  C   UNL A   1      39.147  30.468  31.048  1.00  0.00     0.064 A 
ATOM     61  C   UNL A   1      38.055  31.118  30.451  1.00  0.00     0.173 A 
ATOM     62  C   UNL A   1      39.107  30.255  32.433  1.00  0.00     0.173 A 
ATOM     63  F   UNL A   1      38.045  31.350  29.129  1.00  0.00    -0.203 F 
ATOM     64  C   UNL A   1      36.982  31.565  31.215  1.00  0.00     0.198 A 
ATOM     65  C   UNL A   1      38.016  30.676  33.190  1.00  0.00     0.198 A 
ATOM     66  F   UNL A   1      40.119  29.626  33.049  1.00  0.00    -0.203 F 
ATOM     67  F   UNL A   1      35.973  32.226  30.630  1.00  0.00    -0.200 F 
ATOM     68  C   UNL A   1      36.962  31.344  32.584  1.00  0.00     0.200 A 
ATOM     69  F   UNL A   1      37.988  30.441  34.509  1.00  0.00    -0.200 F 
ATOM     70  F   UNL A   1      35.928  31.774  33.320  1.00  0.00    -0.200 F 
ENDBRANCH  46  60
BRANCH  47  71
ATOM     71  C   UNL A   1      47.245  27.710  25.849  1.00  0.00     0.064 A 
ATOM     72  C   UNL A   1      48.412  27.280  26.501  1.00  0.00     0.173 A 
ATOM     73  C   UNL A   1      47.262  27.751  24.449  1.00  0.00     0.173 A 
ATOM     74  F   UNL A   1      48.453  27.221  27.840  1.00  0.00    -0.203 F 
ATOM     75  C   UNL A   1      49.553  26.929  25.781  1.00  0.00     0.198 A 
ATOM     76  C   UNL A   1      48.390  27.367  23.730  1.00  0.00     0.198 A 
ATOM     77  F   UNL A   1      46.165  28.134  23.778  1.00  0.00    -0.203 F 
ATOM     78  F   UNL A   1      50.664  26.558  26.431  1.00  0.00    -0.200 F 
ATOM     79  C   UNL A   1      49.538  26.965  24.396  1.00  0.00     0.200 A 
ATOM     80  F   UNL A   1      48.362  27.373  22.390  1.00  0.00    -0.200 F 
ATOM     81  F   UNL A   1      50.627  26.605  23.703  1.00  0.00    -0.200 F 
ENDBRANCH  47  71
BRANCH  59  82
ATOM     82  C   UNL A   1      45.223  33.650  28.935  1.00  0.00     0.064 A 
ATOM     83  C   UNL A   1      46.012  33.920  30.065  1.00  0.00     0.173 A 
ATOM     84  C   UNL A   1      44.955  34.703  28.051  1.00  0.00     0.173 A 
ATOM     85  F   UNL A   1      46.289  32.947  30.945  1.00  0.00    -0.203 F 
ATOM     86  C   UNL A   1      46.478  35.205  30.322  1.00  0.00     0.198 A 
ATOM     87  C   UNL A   1      45.450  35.981  28.295  1.00  0.00     0.198 A 
ATOM     88  F   UNL A   1      44.218  34.491  26.952  1.00  0.00    -0.203 F 
ATOM     89  F   UNL A   1      47.178  35.452  31.438  1.00  0.00    -0.200 F 
ATOM     90  C   UNL A   1      46.196  36.235  29.438  1.00  0.00     0.200 A 
ATOM     91  F   UNL A   1      45.198  36.972  27.429  1.00  0.00    -0.200 F 
ATOM     92  F   UNL A   1      46.639  37.474  29.689  1.00  0.00    -0.200 F 
ENDBRANCH  59  82
ENDBRANCH  33  34
ENDBRANCH  26  28
ENDBRANCH  25  26
ENDBRANCH  24  25
ENDBRANCH   1  24
TORSDOF 15
ENDMDL
MODEL 3
REMARK VINA RESULT:     -11.7      1.992      2.771
REMARK SMILES COc1ccc(/C=C/c2nc(C(=O)OCCOC(=O)c3ccc(-c4c5nc(c(-c6c(F)c(F)c(F)c(F)c6F)c6ccc([nH]6)c(-c6c(F)c(F)c(F)c(F)c6F)c6nc(c(-c7c(F)c(F)c(F)c(F)c7F)c7ccc4[nH]7)C=C6)C=C5)cc3)ccc2C#N)cc1F
REMARK SMILES IDX 15 1 14 2 12 3 13 4 11 5 9 6 10 7 85 8 84 9 83 10 8 11 7 12
REMARK SMILES IDX 6 13 3 14 4 15 89 16 5 17 88 18 90 19 2 20 1 21 86 22 87 23
REMARK SMILES IDX 16 24 17 25 18 26 19 27 20 28 21 29 82 30 22 31 81 32 23 33
REMARK SMILES IDX 24 34 25 35 75 36 26 37 80 38 74 39 76 40 27 41 79 42 73 43
REMARK SMILES IDX 72 44 28 46 60 47 40 48 59 49 41 50 44 51 58 52 77 53 42 54
REMARK SMILES IDX 43 55 57 57 78 58 45 59 29 60 30 61 38 62 31 63 32 64 36 65
REMARK SMILES IDX 39 66 33 67 34 68 37 69 35 70 61 71 62 72 70 73 63 74 64 75
REMARK SMILES IDX 68 76 71 77 65 78 66 79 69 80 67 81 46 82 47 83 55 84 48 85
REMARK SMILES IDX 49 86 53 87 56 88 50 89 51 90 54 91 52 92
REMARK H PARENT 76 45 44 56
REMARK Flexibility Score: inf
ROOT
ATOM      1  C   UNL A   1      32.762  29.270  24.160  1.00  0.00     0.275 C 
ENDROOT
BRANCH   1   2
ATOM      2  O   UNL A   1      33.372  28.063  24.666  1.00  0.00    -0.457 OA
BRANCH   2   3
ATOM      3  C   UNL A   1      33.110  26.928  23.963  1.00  0.00     0.357 C 
ATOM      4  O   UNL A   1      33.619  26.623  22.895  1.00  0.00    -0.244 OA
BRANCH   3   5
ATOM      5  C   UNL A   1      32.192  26.026  24.733  1.00  0.00     0.149 A 
ATOM      6  C   UNL A   1      31.784  23.826  25.422  1.00  0.00     0.082 A 
ATOM      7  N   UNL A   1      32.519  24.703  24.700  1.00  0.00    -0.240 NA
ATOM      8  C   UNL A   1      30.669  24.225  26.154  1.00  0.00     0.078 A 
ATOM      9  C   UNL A   1      30.326  25.585  26.152  1.00  0.00     0.024 A 
ATOM     10  C   UNL A   1      31.104  26.505  25.445  1.00  0.00     0.037 A 
BRANCH   6  11
ATOM     11  C   UNL A   1      32.327  22.458  25.403  1.00  0.00     0.030 C 
ATOM     12  C   UNL A   1      32.364  21.709  24.290  1.00  0.00     0.010 C 
BRANCH  12  13
ATOM     13  C   UNL A   1      32.899  20.341  24.146  1.00  0.00    -0.022 A 
ATOM     14  C   UNL A   1      33.798  17.693  23.716  1.00  0.00     0.154 A 
ATOM     15  C   UNL A   1      34.466  18.528  24.612  1.00  0.00     0.050 A 
ATOM     16  C   UNL A   1      32.659  18.169  23.075  1.00  0.00     0.165 A 
ATOM     17  C   UNL A   1      34.027  19.847  24.818  1.00  0.00     0.012 A 
ATOM     18  C   UNL A   1      32.216  19.474  23.280  1.00  0.00     0.051 A 
ATOM     19  F   UNL A   1      31.942  17.383  22.258  1.00  0.00    -0.203 F 
BRANCH  14  20
ATOM     20  O   UNL A   1      34.290  16.423  23.579  1.00  0.00    -0.494 OA
ATOM     21  C   UNL A   1      34.665  15.828  24.821  1.00  0.00     0.278 C 
ENDBRANCH  14  20
ENDBRANCH  12  13
ENDBRANCH   6  11
BRANCH   8  22
ATOM     22  C   UNL A   1      29.881  23.298  26.908  1.00  0.00     0.101 C 
ATOM     23  N   UNL A   1      29.242  22.567  27.541  1.00  0.00    -0.192 NA
ENDBRANCH   8  22
ENDBRANCH   3   5
ENDBRANCH   2   3
ENDBRANCH   1   2
BRANCH   1  24
ATOM     24  C   UNL A   1      32.057  30.058  25.271  1.00  0.00     0.275 C 
BRANCH  24  25
ATOM     25  O   UNL A   1      32.738  29.943  26.535  1.00  0.00    -0.458 OA
BRANCH  25  26
ATOM     26  C   UNL A   1      33.190  31.109  27.049  1.00  0.00     0.338 C 
ATOM     27  O   UNL A   1      32.593  32.170  27.123  1.00  0.00    -0.246 OA
BRANCH  26  28
ATOM     28  C   UNL A   1      34.524  30.909  27.631  1.00  0.00     0.060 A 
ATOM     29  C   UNL A   1      34.898  29.614  27.980  1.00  0.00     0.016 A 
ATOM     30  C   UNL A   1      35.354  31.985  27.934  1.00  0.00     0.016 A 
ATOM     31  C   UNL A   1      36.065  29.378  28.691  1.00  0.00     0.010 A 
ATOM     32  C   UNL A   1      36.561  31.744  28.598  1.00  0.00     0.010 A 
ATOM     33  C   UNL A   1      36.914  30.441  28.999  1.00  0.00    -0.014 A 
BRANCH  33  34
ATOM     34  C   UNL A   1      38.163  30.196  29.760  1.00  0.00     0.031 A 
ATOM     35  C   UNL A   1      39.240  29.338  29.162  1.00  0.00     0.074 A 
ATOM     36  C   UNL A   1      38.327  30.746  30.979  1.00  0.00     0.049 A 
ATOM     37  N   UNL A   1      40.317  28.854  29.724  1.00  0.00    -0.248 NA
ATOM     38  C   UNL A   1      39.085  28.975  27.744  1.00  0.00     0.031 C 
ATOM     39  C   UNL A   1      37.388  31.664  31.626  1.00  0.00     0.029 A 
ATOM     40  N   UNL A   1      39.340  30.610  31.894  1.00  0.00    -0.354 N 
ATOM     41  C   UNL A   1      40.951  28.108  28.740  1.00  0.00     0.074 A 
ATOM     42  C   UNL A   1      40.131  28.184  27.551  1.00  0.00     0.031 C 
ATOM     43  C   UNL A   1      37.872  32.015  32.827  1.00  0.00     0.029 A 
ATOM     44  C   UNL A   1      39.110  31.283  33.070  1.00  0.00     0.049 A 
ATOM     45  H   UNL A   1      40.153  30.079  31.725  1.00  0.00     0.167 HD
ATOM     46  C   UNL A   1      42.120  27.431  28.828  1.00  0.00     0.037 A 
ATOM     47  C   UNL A   1      39.796  31.275  34.228  1.00  0.00     0.037 A 
ATOM     48  C   UNL A   1      42.933  27.384  30.014  1.00  0.00     0.049 A 
ATOM     49  C   UNL A   1      41.030  30.419  34.336  1.00  0.00     0.074 A 
ATOM     50  C   UNL A   1      44.127  26.714  30.211  1.00  0.00     0.029 A 
ATOM     51  N   UNL A   1      42.638  28.039  31.202  1.00  0.00    -0.354 N 
ATOM     52  N   UNL A   1      41.604  29.682  33.417  1.00  0.00    -0.248 NA
ATOM     53  C   UNL A   1      41.704  30.383  35.640  1.00  0.00     0.031 C 
ATOM     54  C   UNL A   1      44.527  26.918  31.534  1.00  0.00     0.029 A 
ATOM     55  C   UNL A   1      43.619  27.772  32.141  1.00  0.00     0.049 A 
ATOM     56  H   UNL A   1      41.849  28.608  31.353  1.00  0.00     0.167 HD
ATOM     57  C   UNL A   1      42.726  29.128  34.018  1.00  0.00     0.074 A 
ATOM     58  C   UNL A   1      42.753  29.614  35.381  1.00  0.00     0.031 C 
ATOM     59  C   UNL A   1      43.650  28.293  33.484  1.00  0.00     0.037 A 
BRANCH  46  60
ATOM     60  C   UNL A   1      42.597  26.675  27.623  1.00  0.00     0.064 A 
ATOM     61  C   UNL A   1      42.240  25.329  27.443  1.00  0.00     0.173 A 
ATOM     62  C   UNL A   1      43.485  27.247  26.701  1.00  0.00     0.173 A 
ATOM     63  F   UNL A   1      41.396  24.733  28.299  1.00  0.00    -0.203 F 
ATOM     64  C   UNL A   1      42.776  24.578  26.402  1.00  0.00     0.198 A 
ATOM     65  C   UNL A   1      43.996  26.500  25.642  1.00  0.00     0.198 A 
ATOM     66  F   UNL A   1      43.847  28.533  26.820  1.00  0.00    -0.203 F 
ATOM     67  F   UNL A   1      42.458  23.281  26.279  1.00  0.00    -0.200 F 
ATOM     68  C   UNL A   1      43.653  25.163  25.501  1.00  0.00     0.200 A 
ATOM     69  F   UNL A   1      44.824  27.074  24.759  1.00  0.00    -0.200 F 
ATOM     70  F   UNL A   1      44.168  24.439  24.498  1.00  0.00    -0.200 F 
ENDBRANCH  46  60
BRANCH  47  71
ATOM     71  C   UNL A   1      39.323  32.090  35.379  1.00  0.00     0.064 A 
ATOM     72  C   UNL A   1      38.486  31.552  36.369  1.00  0.00     0.173 A 
ATOM     73  C   UNL A   1      39.697  33.434  35.506  1.00  0.00     0.173 A 
ATOM     74  F   UNL A   1      38.097  30.270  36.299  1.00  0.00    -0.203 F 
ATOM     75  C   UNL A   1      38.024  32.334  37.427  1.00  0.00     0.198 A 
ATOM     76  C   UNL A   1      39.264  34.205  36.582  1.00  0.00     0.198 A 
ATOM     77  F   UNL A   1      40.514  33.990  34.598  1.00  0.00    -0.203 F 
ATOM     78  F   UNL A   1      37.196  31.804  38.337  1.00  0.00    -0.200 F 
ATOM     79  C   UNL A   1      38.421  33.657  37.537  1.00  0.00     0.200 A 
ATOM     80  F   UNL A   1      39.673  35.476  36.701  1.00  0.00    -0.200 F 
ATOM     81  F   UNL A   1      37.996  34.403  38.566  1.00  0.00    -0.200 F 
ENDBRANCH  47  71
BRANCH  59  82
ATOM     82  C   UNL A   1      44.812  27.884  34.341  1.00  0.00     0.064 A 
ATOM     83  C   UNL A   1      46.012  28.613  34.289  1.00  0.00     0.173 A 
ATOM     84  C   UNL A   1      44.785  26.711  35.106  1.00  0.00     0.173 A 
ATOM     85  F   UNL A   1      46.089  29.738  33.563  1.00  0.00    -0.203 F 
ATOM     86  C   UNL A   1      47.152  28.160  34.944  1.00  0.00     0.198 A 
ATOM     87  C   UNL A   1      45.920  26.279  35.786  1.00  0.00     0.198 A 
ATOM     88  F   UNL A   1      43.659  25.989  35.198  1.00  0.00    -0.203 F 
ATOM     89  F   UNL A   1      48.302  28.840  34.830  1.00  0.00    -0.200 F 
ATOM     90  C   UNL A   1      47.106  26.993  35.691  1.00  0.00     0.200 A 
ATOM     91  F   UNL A   1      45.871  25.164  36.528  1.00  0.00    -0.200 F 
ATOM     92  F   UNL A   1      48.207  26.554  36.316  1.00  0.00    -0.200 F 
ENDBRANCH  59  82
ENDBRANCH  33  34
ENDBRANCH  26  28
ENDBRANCH  25  26
ENDBRANCH  24  25
ENDBRANCH   1  24
TORSDOF 15
ENDMDL
