MODEL 1
REMARK VINA RESULT:     -12.3      0.000      0.000
REMARK SMILES CC(=O)c1nnn(-c2ccc(C(=O)OCCOC(=O)c3ccc(-c4c5nc(c(-c6c(F)c(F)c(F)c(F)c6F)c6ccc([nH]6)c(-c6c(F)c(F)c(F)c(F)c6F)c6nc(c(-c7c(F)c(F)c(F)c(F)c7F)c7ccc4[nH]7)C=C6)C=C5)cc3)cc2)c1C
REMARK SMILES IDX 15 1 14 2 12 3 13 4 11 5 8 6 9 7 84 8 10 9 83 10 7 11 4 12
REMARK SMILES IDX 5 13 85 14 6 15 86 16 2 17 1 18 3 19 16 20 17 21 18 22 19 23
REMARK SMILES IDX 20 24 21 25 82 26 22 27 81 28 23 29 24 30 25 31 75 32 26 33
REMARK SMILES IDX 80 34 74 35 76 36 27 37 79 38 73 39 72 40 28 42 60 43 40 44
REMARK SMILES IDX 59 45 41 46 44 47 58 48 77 49 42 50 43 51 57 53 78 54 45 55
REMARK SMILES IDX 29 56 30 57 38 58 31 59 32 60 36 61 39 62 33 63 34 64 37 65
REMARK SMILES IDX 35 66 61 67 62 68 70 69 63 70 64 71 68 72 71 73 65 74 66 75
REMARK SMILES IDX 69 76 67 77 46 78 47 79 55 80 48 81 49 82 53 83 56 84 50 85
REMARK SMILES IDX 51 86 54 87 52 88
REMARK H PARENT 76 41 44 52
REMARK Flexibility Score: inf
ROOT
ATOM      1  C   UNL A   1      42.577  18.436  26.292  1.00  0.00     0.275 C 
ENDROOT
BRANCH   1   2
ATOM      2  O   UNL A   1      41.521  19.230  25.735  1.00  0.00    -0.458 OA
BRANCH   2   3
ATOM      3  C   UNL A   1      41.190  20.345  26.445  1.00  0.00     0.338 C 
ATOM      4  O   UNL A   1      41.896  20.941  27.224  1.00  0.00    -0.246 OA
BRANCH   3   5
ATOM      5  C   UNL A   1      39.821  20.789  26.074  1.00  0.00     0.060 A 
ATOM      6  C   UNL A   1      37.399  21.652  25.045  1.00  0.00     0.067 A 
ATOM      7  C   UNL A   1      37.758  20.314  24.878  1.00  0.00     0.029 A 
ATOM      8  C   UNL A   1      38.158  22.512  25.850  1.00  0.00     0.029 A 
ATOM      9  C   UNL A   1      38.992  19.892  25.377  1.00  0.00     0.018 A 
ATOM     10  C   UNL A   1      39.370  22.077  26.370  1.00  0.00     0.018 A 
BRANCH   6  11
ATOM     11  N   UNL A   1      36.375  22.201  24.249  1.00  0.00    -0.217 N 
ATOM     12  C   UNL A   1      34.450  22.727  23.375  1.00  0.00     0.151 A 
ATOM     13  N   UNL A   1      35.460  23.300  22.638  1.00  0.00    -0.126 NA
ATOM     14  C   UNL A   1      35.007  22.068  24.459  1.00  0.00     0.073 A 
ATOM     15  N   UNL A   1      36.612  23.073  23.254  1.00  0.00    -0.061 NA
ATOM     16  C   UNL A   1      34.446  21.409  25.667  1.00  0.00     0.069 C 
BRANCH  12  17
ATOM     17  C   UNL A   1      33.051  22.897  22.998  1.00  0.00     0.181 C 
ATOM     18  C   UNL A   1      32.593  24.240  22.486  1.00  0.00     0.095 C 
ATOM     19  O   UNL A   1      32.249  21.967  23.076  1.00  0.00    -0.293 OA
ENDBRANCH  12  17
ENDBRANCH   6  11
ENDBRANCH   3   5
ENDBRANCH   2   3
ENDBRANCH   1   2
BRANCH   1  20
ATOM     20  C   UNL A   1      43.817  18.492  25.413  1.00  0.00     0.275 C 
BRANCH  20  21
ATOM     21  O   UNL A   1      43.751  19.558  24.466  1.00  0.00    -0.458 OA
BRANCH  21  22
ATOM     22  C   UNL A   1      44.943  20.111  24.147  1.00  0.00     0.338 C 
ATOM     23  O   UNL A   1      45.940  19.546  23.727  1.00  0.00    -0.246 OA
BRANCH  22  24
ATOM     24  C   UNL A   1      44.974  21.489  24.638  1.00  0.00     0.060 A 
ATOM     25  C   UNL A   1      45.911  21.810  25.624  1.00  0.00     0.016 A 
ATOM     26  C   UNL A   1      43.899  22.336  24.333  1.00  0.00     0.016 A 
ATOM     27  C   UNL A   1      45.679  22.921  26.410  1.00  0.00     0.010 A 
ATOM     28  C   UNL A   1      43.661  23.430  25.130  1.00  0.00     0.010 A 
ATOM     29  C   UNL A   1      44.518  23.678  26.197  1.00  0.00    -0.014 A 
BRANCH  29  30
ATOM     30  C   UNL A   1      44.322  24.881  26.985  1.00  0.00     0.031 A 
ATOM     31  C   UNL A   1      45.403  25.864  26.739  1.00  0.00     0.074 A 
ATOM     32  C   UNL A   1      43.221  25.109  27.728  1.00  0.00     0.049 A 
ATOM     33  N   UNL A   1      46.293  26.266  27.581  1.00  0.00    -0.248 NA
ATOM     34  C   UNL A   1      45.655  26.296  25.351  1.00  0.00     0.031 C 
ATOM     35  C   UNL A   1      42.004  24.298  27.810  1.00  0.00     0.029 A 
ATOM     36  N   UNL A   1      42.917  26.183  28.512  1.00  0.00    -0.354 N 
ATOM     37  C   UNL A   1      47.085  27.173  26.884  1.00  0.00     0.074 A 
ATOM     38  C   UNL A   1      46.781  26.995  25.492  1.00  0.00     0.031 C 
ATOM     39  C   UNL A   1      41.023  25.016  28.406  1.00  0.00     0.029 A 
ATOM     40  C   UNL A   1      41.572  26.281  28.861  1.00  0.00     0.049 A 
ATOM     41  H   UNL A   1      43.593  26.835  28.808  1.00  0.00     0.167 HD
ATOM     42  C   UNL A   1      47.685  28.196  27.549  1.00  0.00     0.037 A 
ATOM     43  C   UNL A   1      40.962  27.357  29.427  1.00  0.00     0.037 A 
ATOM     44  C   UNL A   1      47.774  27.897  28.958  1.00  0.00     0.049 A 
ATOM     45  C   UNL A   1      42.027  28.193  30.032  1.00  0.00     0.074 A 
ATOM     46  C   UNL A   1      48.387  26.920  29.716  1.00  0.00     0.029 A 
ATOM     47  N   UNL A   1      46.823  28.465  29.767  1.00  0.00    -0.354 N 
ATOM     48  N   UNL A   1      42.727  27.836  31.071  1.00  0.00    -0.248 NA
ATOM     49  C   UNL A   1      42.623  29.227  29.201  1.00  0.00     0.031 C 
ATOM     50  C   UNL A   1      47.486  26.659  30.791  1.00  0.00     0.029 A 
ATOM     51  C   UNL A   1      46.408  27.539  30.681  1.00  0.00     0.049 A 
ATOM     52  H   UNL A   1      46.494  29.390  29.700  1.00  0.00     0.167 HD
ATOM     53  C   UNL A   1      44.019  28.240  30.773  1.00  0.00     0.074 A 
ATOM     54  C   UNL A   1      43.877  29.173  29.657  1.00  0.00     0.031 C 
ATOM     55  C   UNL A   1      45.088  27.546  31.264  1.00  0.00     0.037 A 
BRANCH  42  56
ATOM     56  C   UNL A   1      47.720  29.620  27.029  1.00  0.00     0.064 A 
ATOM     57  C   UNL A   1      48.913  30.355  27.181  1.00  0.00     0.173 A 
ATOM     58  C   UNL A   1      46.576  30.386  26.713  1.00  0.00     0.173 A 
ATOM     59  F   UNL A   1      50.063  29.737  27.493  1.00  0.00    -0.203 F 
ATOM     60  C   UNL A   1      48.933  31.751  27.132  1.00  0.00     0.198 A 
ATOM     61  C   UNL A   1      46.610  31.775  26.614  1.00  0.00     0.198 A 
ATOM     62  F   UNL A   1      45.356  29.854  26.596  1.00  0.00    -0.203 F 
ATOM     63  F   UNL A   1      50.060  32.410  27.431  1.00  0.00    -0.200 F 
ATOM     64  C   UNL A   1      47.779  32.460  26.860  1.00  0.00     0.200 A 
ATOM     65  F   UNL A   1      45.475  32.444  26.370  1.00  0.00    -0.200 F 
ATOM     66  F   UNL A   1      47.778  33.800  26.884  1.00  0.00    -0.200 F 
ENDBRANCH  42  56
BRANCH  43  67
ATOM     67  C   UNL A   1      39.595  27.896  29.201  1.00  0.00     0.064 A 
ATOM     68  C   UNL A   1      38.690  28.045  30.270  1.00  0.00     0.173 A 
ATOM     69  C   UNL A   1      39.256  28.559  28.006  1.00  0.00     0.173 A 
ATOM     70  F   UNL A   1      38.954  27.487  31.460  1.00  0.00    -0.203 F 
ATOM     71  C   UNL A   1      37.540  28.836  30.160  1.00  0.00     0.198 A 
ATOM     72  C   UNL A   1      38.105  29.344  27.897  1.00  0.00     0.198 A 
ATOM     73  F   UNL A   1      40.084  28.544  26.953  1.00  0.00    -0.203 F 
ATOM     74  F   UNL A   1      36.742  29.010  31.224  1.00  0.00    -0.200 F 
ATOM     75  C   UNL A   1      37.256  29.496  28.977  1.00  0.00     0.200 A 
ATOM     76  F   UNL A   1      37.862  30.009  26.758  1.00  0.00    -0.200 F 
ATOM     77  F   UNL A   1      36.193  30.308  28.890  1.00  0.00    -0.200 F 
ENDBRANCH  43  67
BRANCH  55  78
ATOM     78  C   UNL A   1      44.835  26.575  32.384  1.00  0.00     0.064 A 
ATOM     79  C   UNL A   1      44.724  26.927  33.742  1.00  0.00     0.173 A 
ATOM     80  C   UNL A   1      44.572  25.243  32.039  1.00  0.00     0.173 A 
ATOM     81  F   UNL A   1      44.871  28.197  34.142  1.00  0.00    -0.203 F 
ATOM     82  C   UNL A   1      44.406  25.972  34.708  1.00  0.00     0.198 A 
ATOM     83  C   UNL A   1      44.214  24.303  32.998  1.00  0.00     0.198 A 
ATOM     84  F   UNL A   1      44.617  24.863  30.752  1.00  0.00    -0.203 F 
ATOM     85  F   UNL A   1      44.322  26.323  36.000  1.00  0.00    -0.200 F 
ATOM     86  C   UNL A   1      44.142  24.665  34.333  1.00  0.00     0.200 A 
ATOM     87  F   UNL A   1      43.914  23.052  32.624  1.00  0.00    -0.200 F 
ATOM     88  F   UNL A   1      43.797  23.755  35.256  1.00  0.00    -0.200 F 
ENDBRANCH  55  78
ENDBRANCH  29  30
ENDBRANCH  22  24
ENDBRANCH  21  22
ENDBRANCH  20  21
ENDBRANCH   1  20
TORSDOF 13
ENDMDL
MODEL 2
REMARK VINA RESULT:     -12.0      5.304     11.463
REMARK SMILES CC(=O)c1nnn(-c2ccc(C(=O)OCCOC(=O)c3ccc(-c4c5nc(c(-c6c(F)c(F)c(F)c(F)c6F)c6ccc([nH]6)c(-c6c(F)c(F)c(F)c(F)c6F)c6nc(c(-c7c(F)c(F)c(F)c(F)c7F)c7ccc4[nH]7)C=C6)C=C5)cc3)cc2)c1C
REMARK SMILES IDX 15 1 14 2 12 3 13 4 11 5 8 6 9 7 84 8 10 9 83 10 7 11 4 12
REMARK SMILES IDX 5 13 85 14 6 15 86 16 2 17 1 18 3 19 16 20 17 21 18 22 19 23
REMARK SMILES IDX 20 24 21 25 82 26 22 27 81 28 23 29 24 30 25 31 75 32 26 33
REMARK SMILES IDX 80 34 74 35 76 36 27 37 79 38 73 39 72 40 28 42 60 43 40 44
REMARK SMILES IDX 59 45 41 46 44 47 58 48 77 49 42 50 43 51 57 53 78 54 45 55
REMARK SMILES IDX 29 56 30 57 38 58 31 59 32 60 36 61 39 62 33 63 34 64 37 65
REMARK SMILES IDX 35 66 61 67 62 68 70 69 63 70 64 71 68 72 71 73 65 74 66 75
REMARK SMILES IDX 69 76 67 77 46 78 47 79 55 80 48 81 49 82 53 83 56 84 50 85
REMARK SMILES IDX 51 86 54 87 52 88
REMARK H PARENT 76 41 44 52
REMARK Flexibility Score: inf
ROOT
ATOM      1  C   UNL A   1      33.501  35.730  28.748  1.00  0.00     0.275 C 
ENDROOT
BRANCH   1   2
ATOM      2  O   UNL A   1      32.744  35.074  29.774  1.00  0.00    -0.458 OA
BRANCH   2   3
ATOM      3  C   UNL A   1      32.824  35.639  31.012  1.00  0.00     0.338 C 
ATOM      4  O   UNL A   1      32.053  36.436  31.494  1.00  0.00    -0.246 OA
BRANCH   3   5
ATOM      5  C   UNL A   1      33.988  35.076  31.745  1.00  0.00     0.060 A 
ATOM      6  C   UNL A   1      35.917  33.900  33.348  1.00  0.00     0.067 A 
ATOM      7  C   UNL A   1      35.226  33.101  32.435  1.00  0.00     0.029 A 
ATOM      8  C   UNL A   1      35.764  35.293  33.353  1.00  0.00     0.029 A 
ATOM      9  C   UNL A   1      34.237  33.696  31.649  1.00  0.00     0.018 A 
ATOM     10  C   UNL A   1      34.801  35.883  32.545  1.00  0.00     0.018 A 
BRANCH   6  11
ATOM     11  N   UNL A   1      36.627  33.295  34.402  1.00  0.00    -0.217 N 
ATOM     12  C   UNL A   1      38.104  32.229  35.598  1.00  0.00     0.151 A 
ATOM     13  N   UNL A   1      37.033  32.572  36.390  1.00  0.00    -0.126 NA
ATOM     14  C   UNL A   1      37.901  32.742  34.326  1.00  0.00     0.073 A 
ATOM     15  N   UNL A   1      36.206  33.324  35.678  1.00  0.00    -0.061 NA
ATOM     16  C   UNL A   1      38.742  32.841  33.106  1.00  0.00     0.069 C 
BRANCH  12  17
ATOM     17  C   UNL A   1      39.236  31.484  36.139  1.00  0.00     0.181 C 
ATOM     18  C   UNL A   1      40.558  32.189  36.308  1.00  0.00     0.095 C 
ATOM     19  O   UNL A   1      39.125  30.304  36.472  1.00  0.00    -0.293 OA
ENDBRANCH  12  17
ENDBRANCH   6  11
ENDBRANCH   3   5
ENDBRANCH   2   3
ENDBRANCH   1   2
BRANCH   1  20
ATOM     20  C   UNL A   1      34.192  34.713  27.852  1.00  0.00     0.275 C 
BRANCH  20  21
ATOM     21  O   UNL A   1      35.094  33.884  28.584  1.00  0.00    -0.458 OA
BRANCH  21  22
ATOM     22  C   UNL A   1      34.916  32.555  28.408  1.00  0.00     0.338 C 
ATOM     23  O   UNL A   1      33.913  31.981  28.014  1.00  0.00    -0.246 OA
BRANCH  22  24
ATOM     24  C   UNL A   1      36.034  31.840  29.026  1.00  0.00     0.060 A 
ATOM     25  C   UNL A   1      37.173  32.576  29.363  1.00  0.00     0.016 A 
ATOM     26  C   UNL A   1      36.044  30.439  28.978  1.00  0.00     0.016 A 
ATOM     27  C   UNL A   1      38.368  31.901  29.511  1.00  0.00     0.010 A 
ATOM     28  C   UNL A   1      37.239  29.772  29.107  1.00  0.00     0.010 A 
ATOM     29  C   UNL A   1      38.398  30.513  29.311  1.00  0.00    -0.014 A 
BRANCH  29  30
ATOM     30  C   UNL A   1      39.646  29.808  29.537  1.00  0.00     0.031 A 
ATOM     31  C   UNL A   1      39.950  29.706  30.984  1.00  0.00     0.074 A 
ATOM     32  C   UNL A   1      40.349  29.211  28.554  1.00  0.00     0.049 A 
ATOM     33  N   UNL A   1      40.929  30.262  31.613  1.00  0.00    -0.248 NA
ATOM     34  C   UNL A   1      38.944  29.091  31.870  1.00  0.00     0.031 C 
ATOM     35  C   UNL A   1      39.973  29.051  27.147  1.00  0.00     0.029 A 
ATOM     36  N   UNL A   1      41.527  28.528  28.628  1.00  0.00    -0.354 N 
ATOM     37  C   UNL A   1      40.784  29.881  32.943  1.00  0.00     0.074 A 
ATOM     38  C   UNL A   1      39.457  29.348  33.073  1.00  0.00     0.031 C 
ATOM     39  C   UNL A   1      40.782  28.133  26.566  1.00  0.00     0.029 A 
ATOM     40  C   UNL A   1      41.807  27.738  27.515  1.00  0.00     0.049 A 
ATOM     41  H   UNL A   1      42.131  28.590  29.403  1.00  0.00     0.167 HD
ATOM     42  C   UNL A   1      41.883  29.759  33.733  1.00  0.00     0.037 A 
ATOM     43  C   UNL A   1      42.778  26.789  27.424  1.00  0.00     0.037 A 
ATOM     44  C   UNL A   1      42.989  30.500  33.177  1.00  0.00     0.049 A 
ATOM     45  C   UNL A   1      43.762  27.069  28.499  1.00  0.00     0.074 A 
ATOM     46  C   UNL A   1      43.232  31.827  32.885  1.00  0.00     0.029 A 
ATOM     47  N   UNL A   1      43.917  29.780  32.470  1.00  0.00    -0.354 N 
ATOM     48  N   UNL A   1      44.548  28.107  28.510  1.00  0.00    -0.248 NA
ATOM     49  C   UNL A   1      43.548  26.431  29.787  1.00  0.00     0.031 C 
ATOM     50  C   UNL A   1      44.008  31.812  31.687  1.00  0.00     0.029 A 
ATOM     51  C   UNL A   1      44.265  30.482  31.351  1.00  0.00     0.049 A 
ATOM     52  H   UNL A   1      44.274  28.899  32.727  1.00  0.00     0.167 HD
ATOM     53  C   UNL A   1      44.545  28.528  29.831  1.00  0.00     0.074 A 
ATOM     54  C   UNL A   1      43.992  27.405  30.586  1.00  0.00     0.031 C 
ATOM     55  C   UNL A   1      44.710  29.849  30.133  1.00  0.00     0.037 A 
BRANCH  42  56
ATOM     56  C   UNL A   1      42.095  28.602  34.690  1.00  0.00     0.064 A 
ATOM     57  C   UNL A   1      42.805  28.846  35.883  1.00  0.00     0.173 A 
ATOM     58  C   UNL A   1      41.944  27.239  34.346  1.00  0.00     0.173 A 
ATOM     59  F   UNL A   1      43.022  30.100  36.306  1.00  0.00    -0.203 F 
ATOM     60  C   UNL A   1      43.409  27.815  36.608  1.00  0.00     0.198 A 
ATOM     61  C   UNL A   1      42.505  26.211  35.100  1.00  0.00     0.198 A 
ATOM     62  F   UNL A   1      41.353  26.838  33.217  1.00  0.00    -0.203 F 
ATOM     63  F   UNL A   1      44.198  28.110  37.650  1.00  0.00    -0.200 F 
ATOM     64  C   UNL A   1      43.268  26.500  36.209  1.00  0.00     0.200 A 
ATOM     65  F   UNL A   1      42.372  24.944  34.683  1.00  0.00    -0.200 F 
ATOM     66  F   UNL A   1      43.904  25.517  36.859  1.00  0.00    -0.200 F 
ENDBRANCH  42  56
BRANCH  43  67
ATOM     67  C   UNL A   1      42.758  25.480  26.719  1.00  0.00     0.064 A 
ATOM     68  C   UNL A   1      43.607  25.235  25.623  1.00  0.00     0.173 A 
ATOM     69  C   UNL A   1      42.140  24.350  27.289  1.00  0.00     0.173 A 
ATOM     70  F   UNL A   1      44.274  26.245  25.047  1.00  0.00    -0.203 F 
ATOM     71  C   UNL A   1      43.851  23.940  25.152  1.00  0.00     0.198 A 
ATOM     72  C   UNL A   1      42.380  23.058  26.814  1.00  0.00     0.198 A 
ATOM     73  F   UNL A   1      41.372  24.464  28.381  1.00  0.00    -0.203 F 
ATOM     74  F   UNL A   1      44.722  23.743  24.152  1.00  0.00    -0.200 F 
ATOM     75  C   UNL A   1      43.246  22.851  25.757  1.00  0.00     0.200 A 
ATOM     76  F   UNL A   1      41.819  22.010  27.433  1.00  0.00    -0.200 F 
ATOM     77  F   UNL A   1      43.531  21.605  25.353  1.00  0.00    -0.200 F 
ENDBRANCH  43  67
BRANCH  55  78
ATOM     78  C   UNL A   1      45.228  30.754  29.049  1.00  0.00     0.064 A 
ATOM     79  C   UNL A   1      46.588  30.946  28.745  1.00  0.00     0.173 A 
ATOM     80  C   UNL A   1      44.286  31.355  28.203  1.00  0.00     0.173 A 
ATOM     81  F   UNL A   1      47.548  30.332  29.448  1.00  0.00    -0.203 F 
ATOM     82  C   UNL A   1      46.978  31.741  27.666  1.00  0.00     0.198 A 
ATOM     83  C   UNL A   1      44.678  32.112  27.105  1.00  0.00     0.198 A 
ATOM     84  F   UNL A   1      42.974  31.167  28.420  1.00  0.00    -0.203 F 
ATOM     85  F   UNL A   1      48.280  31.927  27.403  1.00  0.00    -0.200 F 
ATOM     86  C   UNL A   1      46.022  32.315  26.843  1.00  0.00     0.200 A 
ATOM     87  F   UNL A   1      43.749  32.625  26.286  1.00  0.00    -0.200 F 
ATOM     88  F   UNL A   1      46.396  33.046  25.784  1.00  0.00    -0.200 F 
ENDBRANCH  55  78
ENDBRANCH  29  30
ENDBRANCH  22  24
ENDBRANCH  21  22
ENDBRANCH  20  21
ENDBRANCH   1  20
TORSDOF 13
ENDMDL
MODEL 3
REMARK VINA RESULT:     -11.7      3.330      6.032
REMARK SMILES CC(=O)c1nnn(-c2ccc(C(=O)OCCOC(=O)c3ccc(-c4c5nc(c(-c6c(F)c(F)c(F)c(F)c6F)c6ccc([nH]6)c(-c6c(F)c(F)c(F)c(F)c6F)c6nc(c(-c7c(F)c(F)c(F)c(F)c7F)c7ccc4[nH]7)C=C6)C=C5)cc3)cc2)c1C
REMARK SMILES IDX 15 1 14 2 12 3 13 4 11 5 8 6 9 7 84 8 10 9 83 10 7 11 4 12
REMARK SMILES IDX 5 13 85 14 6 15 86 16 2 17 1 18 3 19 16 20 17 21 18 22 19 23
REMARK SMILES IDX 20 24 21 25 82 26 22 27 81 28 23 29 24 30 25 31 75 32 26 33
REMARK SMILES IDX 80 34 74 35 76 36 27 37 79 38 73 39 72 40 28 42 60 43 40 44
REMARK SMILES IDX 59 45 41 46 44 47 58 48 77 49 42 50 43 51 57 53 78 54 45 55
REMARK SMILES IDX 29 56 30 57 38 58 31 59 32 60 36 61 39 62 33 63 34 64 37 65
REMARK SMILES IDX 35 66 61 67 62 68 70 69 63 70 64 71 68 72 71 73 65 74 66 75
REMARK SMILES IDX 69 76 67 77 46 78 47 79 55 80 48 81 49 82 53 83 56 84 50 85
REMARK SMILES IDX 51 86 54 87 52 88
REMARK H PARENT 76 41 44 52
REMARK Flexibility Score: inf
ROOT
ATOM      1  C   UNL A   1      41.754  19.125  26.635  1.00  0.00     0.275 C 
ENDROOT
BRANCH   1   2
ATOM      2  O   UNL A   1      42.413  19.173  25.363  1.00  0.00    -0.458 OA
BRANCH   2   3
ATOM      3  C   UNL A   1      43.771  19.071  25.402  1.00  0.00     0.338 C 
ATOM      4  O   UNL A   1      44.414  18.082  25.666  1.00  0.00    -0.246 OA
BRANCH   3   5
ATOM      5  C   UNL A   1      44.383  20.365  24.999  1.00  0.00     0.060 A 
ATOM      6  C   UNL A   1      45.663  22.785  24.581  1.00  0.00     0.067 A 
ATOM      7  C   UNL A   1      46.403  21.607  24.463  1.00  0.00     0.029 A 
ATOM      8  C   UNL A   1      44.272  22.754  24.747  1.00  0.00     0.029 A 
ATOM      9  C   UNL A   1      45.756  20.392  24.701  1.00  0.00     0.018 A 
ATOM     10  C   UNL A   1      43.630  21.540  24.951  1.00  0.00     0.018 A 
BRANCH   6  11
ATOM     11  N   UNL A   1      46.334  24.014  24.728  1.00  0.00    -0.217 N 
ATOM     12  C   UNL A   1      47.036  25.949  25.441  1.00  0.00     0.151 A 
ATOM     13  N   UNL A   1      47.619  25.668  24.227  1.00  0.00    -0.126 NA
ATOM     14  C   UNL A   1      46.255  24.870  25.821  1.00  0.00     0.073 A 
ATOM     15  N   UNL A   1      47.278  24.438  23.870  1.00  0.00    -0.061 NA
ATOM     16  C   UNL A   1      45.521  24.513  27.063  1.00  0.00     0.069 C 
BRANCH  12  17
ATOM     17  C   UNL A   1      47.313  27.199  26.140  1.00  0.00     0.181 C 
ATOM     18  C   UNL A   1      47.205  28.498  25.381  1.00  0.00     0.095 C 
ATOM     19  O   UNL A   1      47.616  27.212  27.333  1.00  0.00    -0.293 OA
ENDBRANCH  12  17
ENDBRANCH   6  11
ENDBRANCH   3   5
ENDBRANCH   2   3
ENDBRANCH   1   2
BRANCH   1  20
ATOM     20  C   UNL A   1      40.492  19.974  26.625  1.00  0.00     0.275 C 
BRANCH  20  21
ATOM     21  O   UNL A   1      40.753  21.320  27.023  1.00  0.00    -0.458 OA
BRANCH  21  22
ATOM     22  C   UNL A   1      39.860  22.230  26.574  1.00  0.00     0.338 C 
ATOM     23  O   UNL A   1      38.901  22.038  25.845  1.00  0.00    -0.246 OA
BRANCH  22  24
ATOM     24  C   UNL A   1      40.362  23.574  26.868  1.00  0.00     0.060 A 
ATOM     25  C   UNL A   1      41.494  23.685  27.680  1.00  0.00     0.016 A 
ATOM     26  C   UNL A   1      39.540  24.675  26.588  1.00  0.00     0.016 A 
ATOM     27  C   UNL A   1      41.716  24.881  28.333  1.00  0.00     0.010 A 
ATOM     28  C   UNL A   1      39.752  25.857  27.255  1.00  0.00     0.010 A 
ATOM     29  C   UNL A   1      40.801  25.931  28.166  1.00  0.00    -0.014 A 
BRANCH  29  30
ATOM     30  C   UNL A   1      41.084  27.203  28.803  1.00  0.00     0.031 A 
ATOM     31  C   UNL A   1      42.346  27.789  28.293  1.00  0.00     0.074 A 
ATOM     32  C   UNL A   1      40.228  27.818  29.642  1.00  0.00     0.049 A 
ATOM     33  N   UNL A   1      43.437  27.979  28.955  1.00  0.00    -0.248 NA
ATOM     34  C   UNL A   1      42.486  27.997  26.840  1.00  0.00     0.031 C 
ATOM     35  C   UNL A   1      38.860  27.422  29.984  1.00  0.00     0.029 A 
ATOM     36  N   UNL A   1      40.371  29.001  30.307  1.00  0.00    -0.354 N 
ATOM     37  C   UNL A   1      44.332  28.538  28.049  1.00  0.00     0.074 A 
ATOM     38  C   UNL A   1      43.772  28.334  26.742  1.00  0.00     0.031 C 
ATOM     39  C   UNL A   1      38.231  28.454  30.597  1.00  0.00     0.029 A 
ATOM     40  C   UNL A   1      39.183  29.530  30.806  1.00  0.00     0.049 A 
ATOM     41  H   UNL A   1      41.242  29.443  30.425  1.00  0.00     0.167 HD
ATOM     42  C   UNL A   1      45.296  29.389  28.490  1.00  0.00     0.037 A 
ATOM     43  C   UNL A   1      39.003  30.787  31.295  1.00  0.00     0.037 A 
ATOM     44  C   UNL A   1      45.521  29.206  29.904  1.00  0.00     0.049 A 
ATOM     45  C   UNL A   1      40.345  31.315  31.643  1.00  0.00     0.074 A 
ATOM     46  C   UNL A   1      45.944  28.163  30.702  1.00  0.00     0.029 A 
ATOM     47  N   UNL A   1      44.913  30.105  30.743  1.00  0.00    -0.354 N 
ATOM     48  N   UNL A   1      41.070  30.859  32.625  1.00  0.00    -0.248 NA
ATOM     49  C   UNL A   1      41.069  32.042  30.614  1.00  0.00     0.031 C 
ATOM     50  C   UNL A   1      45.189  28.284  31.908  1.00  0.00     0.029 A 
ATOM     51  C   UNL A   1      44.403  29.434  31.818  1.00  0.00     0.049 A 
ATOM     52  H   UNL A   1      44.854  31.076  30.594  1.00  0.00     0.167 HD
ATOM     53  C   UNL A   1      42.359  30.827  32.115  1.00  0.00     0.074 A 
ATOM     54  C   UNL A   1      42.312  31.654  30.910  1.00  0.00     0.031 C 
ATOM     55  C   UNL A   1      43.251  29.891  32.556  1.00  0.00     0.037 A 
BRANCH  42  56
ATOM     56  C   UNL A   1      45.651  30.683  27.783  1.00  0.00     0.064 A 
ATOM     57  C   UNL A   1      47.005  31.076  27.755  1.00  0.00     0.173 A 
ATOM     58  C   UNL A   1      44.723  31.693  27.446  1.00  0.00     0.173 A 
ATOM     59  F   UNL A   1      47.977  30.206  28.069  1.00  0.00    -0.203 F 
ATOM     60  C   UNL A   1      47.385  32.400  27.520  1.00  0.00     0.198 A 
ATOM     61  C   UNL A   1      45.110  33.000  27.161  1.00  0.00     0.198 A 
ATOM     62  F   UNL A   1      43.401  31.504  27.484  1.00  0.00    -0.203 F 
ATOM     63  F   UNL A   1      48.670  32.755  27.652  1.00  0.00    -0.200 F 
ATOM     64  C   UNL A   1      46.437  33.363  27.234  1.00  0.00     0.200 A 
ATOM     65  F   UNL A   1      44.172  33.922  26.907  1.00  0.00    -0.200 F 
ATOM     66  F   UNL A   1      46.790  34.646  27.080  1.00  0.00    -0.200 F 
ENDBRANCH  42  56
BRANCH  43  67
ATOM     67  C   UNL A   1      37.828  31.690  31.173  1.00  0.00     0.064 A 
ATOM     68  C   UNL A   1      37.402  32.157  29.915  1.00  0.00     0.173 A 
ATOM     69  C   UNL A   1      36.922  31.862  32.237  1.00  0.00     0.173 A 
ATOM     70  F   UNL A   1      38.180  31.993  28.835  1.00  0.00    -0.203 F 
ATOM     71  C   UNL A   1      36.136  32.725  29.728  1.00  0.00     0.198 A 
ATOM     72  C   UNL A   1      35.661  32.435  32.049  1.00  0.00     0.198 A 
ATOM     73  F   UNL A   1      37.198  31.386  33.459  1.00  0.00    -0.203 F 
ATOM     74  F   UNL A   1      35.741  33.091  28.500  1.00  0.00    -0.200 F 
ATOM     75  C   UNL A   1      35.262  32.852  30.794  1.00  0.00     0.200 A 
ATOM     76  F   UNL A   1      34.809  32.515  33.081  1.00  0.00    -0.200 F 
ATOM     77  F   UNL A   1      34.025  33.332  30.604  1.00  0.00    -0.200 F 
ENDBRANCH  43  67
BRANCH  55  78
ATOM     78  C   UNL A   1      42.915  29.147  33.819  1.00  0.00     0.064 A 
ATOM     79  C   UNL A   1      42.114  27.992  33.881  1.00  0.00     0.173 A 
ATOM     80  C   UNL A   1      43.541  29.564  35.001  1.00  0.00     0.173 A 
ATOM     81  F   UNL A   1      41.555  27.477  32.778  1.00  0.00    -0.203 F 
ATOM     82  C   UNL A   1      41.921  27.316  35.086  1.00  0.00     0.198 A 
ATOM     83  C   UNL A   1      43.380  28.863  36.191  1.00  0.00     0.198 A 
ATOM     84  F   UNL A   1      44.353  30.633  34.988  1.00  0.00    -0.203 F 
ATOM     85  F   UNL A   1      41.140  26.226  35.129  1.00  0.00    -0.200 F 
ATOM     86  C   UNL A   1      42.562  27.747  36.236  1.00  0.00     0.200 A 
ATOM     87  F   UNL A   1      44.040  29.258  37.288  1.00  0.00    -0.200 F 
ATOM     88  F   UNL A   1      42.408  27.074  37.386  1.00  0.00    -0.200 F 
ENDBRANCH  55  78
ENDBRANCH  29  30
ENDBRANCH  22  24
ENDBRANCH  21  22
ENDBRANCH  20  21
ENDBRANCH   1  20
TORSDOF 13
ENDMDL
