MODEL 1
REMARK VINA RESULT:     -11.3      0.000      0.000
REMARK SMILES CCC(CC)(NC(=O)c1ccc(C)s1)C(=O)OCCOC(=O)c1ccc(-c2c3nc(c(-c4c(F)c(F)c(F)c(F)c4F)c4ccc([nH]4)c(-c4c(F)c(F)c(F)c(F)c4F)c4nc(c(-c5c(F)c(F)c(F)c(F)c5F)c5ccc2[nH]5)C=C4)C=C3)cc1
REMARK SMILES IDX 18 1 17 2 15 3 16 4 3 5 2 6 1 7 4 8 5 9 6 10 7 11 8 13 9 14
REMARK SMILES IDX 10 15 14 16 11 17 12 18 13 19 19 20 20 21 21 22 22 23 23 24
REMARK SMILES IDX 24 25 85 26 25 27 84 28 26 29 27 30 28 31 78 32 29 33 83 34
REMARK SMILES IDX 77 35 79 36 30 37 82 38 76 39 75 40 31 42 63 43 43 44 62 45
REMARK SMILES IDX 44 46 47 47 61 48 80 49 45 50 46 51 60 53 81 54 48 55 32 56
REMARK SMILES IDX 33 57 41 58 34 59 35 60 39 61 42 62 36 63 37 64 40 65 38 66
REMARK SMILES IDX 64 67 65 68 73 69 66 70 67 71 71 72 74 73 68 74 69 75 72 76
REMARK SMILES IDX 70 77 49 78 50 79 58 80 51 81 52 82 56 83 59 84 53 85 54 86
REMARK SMILES IDX 57 87 55 88
REMARK H PARENT 6 12 79 41 47 52
REMARK Flexibility Score: inf
ROOT
ATOM      1  C   UNL A   1      31.455  29.538  25.382  1.00  0.00     0.274 C 
ENDROOT
BRANCH   1   2
ATOM      2  O   UNL A   1      32.297  28.479  25.889  1.00  0.00    -0.460 OA
BRANCH   2   3
ATOM      3  C   UNL A   1      31.641  27.515  26.588  1.00  0.00     0.331 C 
ATOM      4  O   UNL A   1      31.019  27.742  27.622  1.00  0.00    -0.249 OA
BRANCH   3   5
ATOM      5  C   UNL A   1      31.711  26.099  25.934  1.00  0.00     0.137 C 
BRANCH   5   6
ATOM      6  C   UNL A   1      33.174  25.562  26.111  1.00  0.00     0.037 C 
ATOM      7  C   UNL A   1      34.082  25.555  24.888  1.00  0.00     0.007 C 
ENDBRANCH   5   6
BRANCH   5   8
ATOM      8  C   UNL A   1      31.372  26.259  24.427  1.00  0.00     0.037 C 
ATOM      9  C   UNL A   1      29.904  26.095  24.055  1.00  0.00     0.007 C 
ENDBRANCH   5   8
BRANCH   5  10
ATOM     10  N   UNL A   1      30.864  25.043  26.561  1.00  0.00    -0.335 N 
ATOM     11  C   UNL A   1      30.887  23.677  26.665  1.00  0.00     0.262 C 
ATOM     12  H   UNL A   1      30.085  25.429  27.023  1.00  0.00     0.165 HD
ATOM     13  O   UNL A   1      30.117  23.209  27.508  1.00  0.00    -0.268 OA
BRANCH  11  14
ATOM     14  C   UNL A   1      31.682  22.846  25.790  1.00  0.00     0.092 A 
ATOM     15  C   UNL A   1      31.644  22.635  24.428  1.00  0.00     0.026 A 
ATOM     16  S   UNL A   1      33.011  22.016  26.499  1.00  0.00    -0.135 S 
ATOM     17  C   UNL A   1      32.653  21.725  23.985  1.00  0.00     0.016 A 
ATOM     18  C   UNL A   1      33.455  21.292  25.019  1.00  0.00     0.002 A 
ATOM     19  C   UNL A   1      34.612  20.352  24.972  1.00  0.00     0.056 C 
ENDBRANCH  11  14
ENDBRANCH   5  10
ENDBRANCH   3   5
ENDBRANCH   2   3
ENDBRANCH   1   2
BRANCH   1  20
ATOM     20  C   UNL A   1      31.704  30.828  26.158  1.00  0.00     0.275 C 
BRANCH  20  21
ATOM     21  O   UNL A   1      33.003  30.720  26.762  1.00  0.00    -0.458 OA
BRANCH  21  22
ATOM     22  C   UNL A   1      33.485  31.861  27.300  1.00  0.00     0.338 C 
ATOM     23  O   UNL A   1      32.948  32.946  27.396  1.00  0.00    -0.246 OA
BRANCH  22  24
ATOM     24  C   UNL A   1      34.767  31.527  27.926  1.00  0.00     0.060 A 
ATOM     25  C   UNL A   1      34.964  30.209  28.341  1.00  0.00     0.016 A 
ATOM     26  C   UNL A   1      35.730  32.502  28.162  1.00  0.00     0.016 A 
ATOM     27  C   UNL A   1      36.103  29.865  29.059  1.00  0.00     0.010 A 
ATOM     28  C   UNL A   1      36.908  32.138  28.818  1.00  0.00     0.010 A 
ATOM     29  C   UNL A   1      37.095  30.825  29.294  1.00  0.00    -0.014 A 
BRANCH  29  30
ATOM     30  C   UNL A   1      38.311  30.483  30.076  1.00  0.00     0.031 A 
ATOM     31  C   UNL A   1      39.351  29.583  29.472  1.00  0.00     0.074 A 
ATOM     32  C   UNL A   1      38.487  30.965  31.321  1.00  0.00     0.049 A 
ATOM     33  N   UNL A   1      40.347  28.961  30.047  1.00  0.00    -0.248 NA
ATOM     34  C   UNL A   1      39.247  29.341  28.024  1.00  0.00     0.031 C 
ATOM     35  C   UNL A   1      37.597  31.903  32.004  1.00  0.00     0.029 A 
ATOM     36  N   UNL A   1      39.480  30.721  32.238  1.00  0.00    -0.354 N 
ATOM     37  C   UNL A   1      40.948  28.207  29.050  1.00  0.00     0.074 A 
ATOM     38  C   UNL A   1      40.217  28.459  27.827  1.00  0.00     0.031 C 
ATOM     39  C   UNL A   1      38.090  32.169  33.224  1.00  0.00     0.029 A 
ATOM     40  C   UNL A   1      39.283  31.357  33.439  1.00  0.00     0.049 A 
ATOM     41  H   UNL A   1      40.257  30.147  32.052  1.00  0.00     0.167 HD
ATOM     42  C   UNL A   1      42.007  27.371  29.153  1.00  0.00     0.037 A 
ATOM     43  C   UNL A   1      39.958  31.257  34.602  1.00  0.00     0.037 A 
ATOM     44  C   UNL A   1      42.762  27.163  30.359  1.00  0.00     0.049 A 
ATOM     45  C   UNL A   1      41.116  30.303  34.699  1.00  0.00     0.074 A 
ATOM     46  C   UNL A   1      43.845  26.328  30.572  1.00  0.00     0.029 A 
ATOM     47  N   UNL A   1      42.521  27.819  31.559  1.00  0.00    -0.354 N 
ATOM     48  N   UNL A   1      41.624  29.524  33.776  1.00  0.00    -0.248 NA
ATOM     49  C   UNL A   1      41.777  30.196  36.007  1.00  0.00     0.031 C 
ATOM     50  C   UNL A   1      44.248  26.464  31.905  1.00  0.00     0.029 A 
ATOM     51  C   UNL A   1      43.435  27.406  32.513  1.00  0.00     0.049 A 
ATOM     52  H   UNL A   1      41.808  28.480  31.707  1.00  0.00     0.167 HD
ATOM     53  C   UNL A   1      42.664  28.838  34.387  1.00  0.00     0.074 A 
ATOM     54  C   UNL A   1      42.730  29.310  35.755  1.00  0.00     0.031 C 
ATOM     55  C   UNL A   1      43.485  27.895  33.866  1.00  0.00     0.037 A 
BRANCH  42  56
ATOM     56  C   UNL A   1      42.389  26.584  27.936  1.00  0.00     0.064 A 
ATOM     57  C   UNL A   1      41.816  25.338  27.649  1.00  0.00     0.173 A 
ATOM     58  C   UNL A   1      43.325  27.105  27.028  1.00  0.00     0.173 A 
ATOM     59  F   UNL A   1      40.931  24.791  28.496  1.00  0.00    -0.203 F 
ATOM     60  C   UNL A   1      42.176  24.634  26.502  1.00  0.00     0.198 A 
ATOM     61  C   UNL A   1      43.666  26.409  25.872  1.00  0.00     0.198 A 
ATOM     62  F   UNL A   1      43.900  28.294  27.259  1.00  0.00    -0.203 F 
ATOM     63  F   UNL A   1      41.642  23.428  26.263  1.00  0.00    -0.200 F 
ATOM     64  C   UNL A   1      43.095  25.172  25.612  1.00  0.00     0.200 A 
ATOM     65  F   UNL A   1      44.548  26.934  25.011  1.00  0.00    -0.200 F 
ATOM     66  F   UNL A   1      43.435  24.495  24.507  1.00  0.00    -0.200 F 
ENDBRANCH  42  56
BRANCH  43  67
ATOM     67  C   UNL A   1      39.520  32.046  35.782  1.00  0.00     0.064 A 
ATOM     68  C   UNL A   1      40.112  33.280  36.081  1.00  0.00     0.173 A 
ATOM     69  C   UNL A   1      38.502  31.585  36.630  1.00  0.00     0.173 A 
ATOM     70  F   UNL A   1      41.108  33.748  35.315  1.00  0.00    -0.203 F 
ATOM     71  C   UNL A   1      39.708  34.020  37.190  1.00  0.00     0.198 A 
ATOM     72  C   UNL A   1      38.080  32.339  37.722  1.00  0.00     0.198 A 
ATOM     73  F   UNL A   1      37.906  30.408  36.387  1.00  0.00    -0.203 F 
ATOM     74  F   UNL A   1      40.316  35.179  37.476  1.00  0.00    -0.200 F 
ATOM     75  C   UNL A   1      38.688  33.552  38.005  1.00  0.00     0.200 A 
ATOM     76  F   UNL A   1      37.086  31.889  38.499  1.00  0.00    -0.200 F 
ATOM     77  F   UNL A   1      38.294  34.269  39.066  1.00  0.00    -0.200 F 
ENDBRANCH  43  67
BRANCH  55  78
ATOM     78  C   UNL A   1      44.535  27.330  34.772  1.00  0.00     0.064 A 
ATOM     79  C   UNL A   1      45.787  27.948  34.913  1.00  0.00     0.173 A 
ATOM     80  C   UNL A   1      44.276  26.180  35.530  1.00  0.00     0.173 A 
ATOM     81  F   UNL A   1      46.084  29.041  34.193  1.00  0.00    -0.203 F 
ATOM     82  C   UNL A   1      46.748  27.423  35.771  1.00  0.00     0.198 A 
ATOM     83  C   UNL A   1      45.233  25.670  36.403  1.00  0.00     0.198 A 
ATOM     84  F   UNL A   1      43.093  25.557  35.430  1.00  0.00    -0.203 F 
ATOM     85  F   UNL A   1      47.950  28.007  35.865  1.00  0.00    -0.200 F 
ATOM     86  C   UNL A   1      46.469  26.288  36.519  1.00  0.00     0.200 A 
ATOM     87  F   UNL A   1      44.961  24.577  37.129  1.00  0.00    -0.200 F 
ATOM     88  F   UNL A   1      47.395  25.786  37.346  1.00  0.00    -0.200 F 
ENDBRANCH  55  78
ENDBRANCH  29  30
ENDBRANCH  22  24
ENDBRANCH  21  22
ENDBRANCH  20  21
ENDBRANCH   1  20
TORSDOF 15
ENDMDL
MODEL 2
REMARK VINA RESULT:     -11.0      4.623      9.896
REMARK SMILES CCC(CC)(NC(=O)c1ccc(C)s1)C(=O)OCCOC(=O)c1ccc(-c2c3nc(c(-c4c(F)c(F)c(F)c(F)c4F)c4ccc([nH]4)c(-c4c(F)c(F)c(F)c(F)c4F)c4nc(c(-c5c(F)c(F)c(F)c(F)c5F)c5ccc2[nH]5)C=C4)C=C3)cc1
REMARK SMILES IDX 18 1 17 2 15 3 16 4 3 5 2 6 1 7 4 8 5 9 6 10 7 11 8 13 9 14
REMARK SMILES IDX 10 15 14 16 11 17 12 18 13 19 19 20 20 21 21 22 22 23 23 24
REMARK SMILES IDX 24 25 85 26 25 27 84 28 26 29 27 30 28 31 78 32 29 33 83 34
REMARK SMILES IDX 77 35 79 36 30 37 82 38 76 39 75 40 31 42 63 43 43 44 62 45
REMARK SMILES IDX 44 46 47 47 61 48 80 49 45 50 46 51 60 53 81 54 48 55 32 56
REMARK SMILES IDX 33 57 41 58 34 59 35 60 39 61 42 62 36 63 37 64 40 65 38 66
REMARK SMILES IDX 64 67 65 68 73 69 66 70 67 71 71 72 74 73 68 74 69 75 72 76
REMARK SMILES IDX 70 77 49 78 50 79 58 80 51 81 52 82 56 83 59 84 53 85 54 86
REMARK SMILES IDX 57 87 55 88
REMARK H PARENT 6 12 79 41 47 52
REMARK Flexibility Score: inf
ROOT
ATOM      1  C   UNL A   1      36.750  22.568  23.861  1.00  0.00     0.274 C 
ENDROOT
BRANCH   1   2
ATOM      2  O   UNL A   1      35.614  23.070  24.600  1.00  0.00    -0.460 OA
BRANCH   2   3
ATOM      3  C   UNL A   1      34.522  23.355  23.841  1.00  0.00     0.331 C 
ATOM      4  O   UNL A   1      34.558  24.109  22.871  1.00  0.00    -0.249 OA
BRANCH   3   5
ATOM      5  C   UNL A   1      33.227  22.605  24.285  1.00  0.00     0.137 C 
BRANCH   5   6
ATOM      6  C   UNL A   1      33.606  21.102  24.532  1.00  0.00     0.037 C 
ATOM      7  C   UNL A   1      33.494  20.566  25.952  1.00  0.00     0.007 C 
ENDBRANCH   5   6
BRANCH   5   8
ATOM      8  C   UNL A   1      32.197  22.720  23.129  1.00  0.00     0.037 C 
ATOM      9  C   UNL A   1      31.918  21.436  22.358  1.00  0.00     0.007 C 
ENDBRANCH   5   8
BRANCH   5  10
ATOM     10  N   UNL A   1      32.627  23.040  25.579  1.00  0.00    -0.335 N 
ATOM     11  C   UNL A   1      32.186  24.214  26.130  1.00  0.00     0.262 C 
ATOM     12  H   UNL A   1      32.520  22.284  26.202  1.00  0.00     0.165 HD
ATOM     13  O   UNL A   1      31.511  24.084  27.155  1.00  0.00    -0.268 OA
BRANCH  11  14
ATOM     14  C   UNL A   1      32.561  25.506  25.603  1.00  0.00     0.092 A 
ATOM     15  C   UNL A   1      33.716  26.250  25.713  1.00  0.00     0.026 A 
ATOM     16  S   UNL A   1      31.441  26.271  24.545  1.00  0.00    -0.135 S 
ATOM     17  C   UNL A   1      33.644  27.485  24.997  1.00  0.00     0.016 A 
ATOM     18  C   UNL A   1      32.445  27.634  24.333  1.00  0.00     0.002 A 
ATOM     19  C   UNL A   1      31.986  28.767  23.479  1.00  0.00     0.056 C 
ENDBRANCH  11  14
ENDBRANCH   5  10
ENDBRANCH   3   5
ENDBRANCH   2   3
ENDBRANCH   1   2
BRANCH   1  20
ATOM     20  C   UNL A   1      37.378  21.388  24.598  1.00  0.00     0.275 C 
BRANCH  20  21
ATOM     21  O   UNL A   1      37.822  21.870  25.876  1.00  0.00    -0.458 OA
BRANCH  21  22
ATOM     22  C   UNL A   1      39.076  21.511  26.223  1.00  0.00     0.338 C 
ATOM     23  O   UNL A   1      39.642  20.449  26.050  1.00  0.00    -0.246 OA
BRANCH  22  24
ATOM     24  C   UNL A   1      39.740  22.716  26.727  1.00  0.00     0.060 A 
ATOM     25  C   UNL A   1      39.341  23.946  26.201  1.00  0.00     0.016 A 
ATOM     26  C   UNL A   1      40.778  22.637  27.648  1.00  0.00     0.016 A 
ATOM     27  C   UNL A   1      40.024  25.107  26.542  1.00  0.00     0.010 A 
ATOM     28  C   UNL A   1      41.416  23.814  28.047  1.00  0.00     0.010 A 
ATOM     29  C   UNL A   1      41.062  25.055  27.480  1.00  0.00    -0.014 A 
BRANCH  29  30
ATOM     30  C   UNL A   1      41.818  26.281  27.843  1.00  0.00     0.031 A 
ATOM     31  C   UNL A   1      41.154  27.339  28.678  1.00  0.00     0.074 A 
ATOM     32  C   UNL A   1      43.087  26.456  27.427  1.00  0.00     0.049 A 
ATOM     33  N   UNL A   1      41.524  28.574  28.900  1.00  0.00    -0.248 NA
ATOM     34  C   UNL A   1      39.898  26.958  29.342  1.00  0.00     0.031 C 
ATOM     35  C   UNL A   1      43.877  25.483  26.674  1.00  0.00     0.029 A 
ATOM     36  N   UNL A   1      43.933  27.527  27.577  1.00  0.00    -0.354 N 
ATOM     37  C   UNL A   1      40.518  29.135  29.675  1.00  0.00     0.074 A 
ATOM     38  C   UNL A   1      39.528  28.103  29.898  1.00  0.00     0.031 C 
ATOM     39  C   UNL A   1      45.097  25.993  26.441  1.00  0.00     0.029 A 
ATOM     40  C   UNL A   1      45.146  27.358  26.955  1.00  0.00     0.049 A 
ATOM     41  H   UNL A   1      43.694  28.338  28.083  1.00  0.00     0.167 HD
ATOM     42  C   UNL A   1      40.427  30.401  30.143  1.00  0.00     0.037 A 
ATOM     43  C   UNL A   1      46.162  28.223  26.773  1.00  0.00     0.037 A 
ATOM     44  C   UNL A   1      41.438  31.408  29.961  1.00  0.00     0.049 A 
ATOM     45  C   UNL A   1      46.028  29.632  27.281  1.00  0.00     0.074 A 
ATOM     46  C   UNL A   1      41.437  32.725  30.386  1.00  0.00     0.029 A 
ATOM     47  N   UNL A   1      42.647  31.198  29.313  1.00  0.00    -0.354 N 
ATOM     48  N   UNL A   1      45.035  30.183  27.934  1.00  0.00    -0.248 NA
ATOM     49  C   UNL A   1      47.146  30.545  27.003  1.00  0.00     0.031 C 
ATOM     50  C   UNL A   1      42.638  33.318  29.979  1.00  0.00     0.029 A 
ATOM     51  C   UNL A   1      43.398  32.361  29.327  1.00  0.00     0.049 A 
ATOM     52  H   UNL A   1      42.929  30.348  28.905  1.00  0.00     0.167 HD
ATOM     53  C   UNL A   1      45.406  31.503  28.148  1.00  0.00     0.074 A 
ATOM     54  C   UNL A   1      46.727  31.665  27.576  1.00  0.00     0.031 C 
ATOM     55  C   UNL A   1      44.713  32.495  28.756  1.00  0.00     0.037 A 
BRANCH  42  56
ATOM     56  C   UNL A   1      39.171  30.784  30.865  1.00  0.00     0.064 A 
ATOM     57  C   UNL A   1      38.062  31.316  30.193  1.00  0.00     0.173 A 
ATOM     58  C   UNL A   1      39.069  30.585  32.251  1.00  0.00     0.173 A 
ATOM     59  F   UNL A   1      38.119  31.541  28.872  1.00  0.00    -0.203 F 
ATOM     60  C   UNL A   1      36.900  31.648  30.885  1.00  0.00     0.198 A 
ATOM     61  C   UNL A   1      37.899  30.898  32.936  1.00  0.00     0.198 A 
ATOM     62  F   UNL A   1      40.103  30.078  32.938  1.00  0.00    -0.203 F 
ATOM     63  F   UNL A   1      35.863  32.187  30.229  1.00  0.00    -0.200 F 
ATOM     64  C   UNL A   1      36.817  31.433  32.254  1.00  0.00     0.200 A 
ATOM     65  F   UNL A   1      37.819  30.682  34.256  1.00  0.00    -0.200 F 
ATOM     66  F   UNL A   1      35.695  31.748  32.916  1.00  0.00    -0.200 F 
ENDBRANCH  42  56
BRANCH  43  67
ATOM     67  C   UNL A   1      47.375  27.794  26.030  1.00  0.00     0.064 A 
ATOM     68  C   UNL A   1      47.393  27.784  24.629  1.00  0.00     0.173 A 
ATOM     69  C   UNL A   1      48.537  27.389  26.703  1.00  0.00     0.173 A 
ATOM     70  F   UNL A   1      46.297  28.136  23.943  1.00  0.00    -0.203 F 
ATOM     71  C   UNL A   1      48.527  27.377  23.929  1.00  0.00     0.198 A 
ATOM     72  C   UNL A   1      49.679  27.008  26.002  1.00  0.00     0.198 A 
ATOM     73  F   UNL A   1      48.568  27.378  28.044  1.00  0.00    -0.203 F 
ATOM     74  F   UNL A   1      48.507  27.340  22.590  1.00  0.00    -0.200 F 
ATOM     75  C   UNL A   1      49.670  26.996  24.616  1.00  0.00     0.200 A 
ATOM     76  F   UNL A   1      50.784  26.653  26.670  1.00  0.00    -0.200 F 
ATOM     77  F   UNL A   1      50.763  26.613  23.942  1.00  0.00    -0.200 F 
ENDBRANCH  43  67
BRANCH  55  78
ATOM     78  C   UNL A   1      45.380  33.833  28.851  1.00  0.00     0.064 A 
ATOM     79  C   UNL A   1      45.190  34.814  27.868  1.00  0.00     0.173 A 
ATOM     80  C   UNL A   1      46.189  34.147  29.952  1.00  0.00     0.173 A 
ATOM     81  F   UNL A   1      44.438  34.551  26.788  1.00  0.00    -0.203 F 
ATOM     82  C   UNL A   1      45.802  36.060  27.976  1.00  0.00     0.198 A 
ATOM     83  C   UNL A   1      46.782  35.400  30.068  1.00  0.00     0.198 A 
ATOM     84  F   UNL A   1      46.397  33.240  30.919  1.00  0.00    -0.203 F 
ATOM     85  F   UNL A   1      45.637  36.971  27.009  1.00  0.00    -0.200 F 
ATOM     86  C   UNL A   1      46.593  36.353  29.078  1.00  0.00     0.200 A 
ATOM     87  F   UNL A   1      47.541  35.686  31.135  1.00  0.00    -0.200 F 
ATOM     88  F   UNL A   1      47.179  37.554  29.182  1.00  0.00    -0.200 F 
ENDBRANCH  55  78
ENDBRANCH  29  30
ENDBRANCH  22  24
ENDBRANCH  21  22
ENDBRANCH  20  21
ENDBRANCH   1  20
TORSDOF 15
ENDMDL
MODEL 3
REMARK VINA RESULT:     -11.0      4.521      9.902
REMARK SMILES CCC(CC)(NC(=O)c1ccc(C)s1)C(=O)OCCOC(=O)c1ccc(-c2c3nc(c(-c4c(F)c(F)c(F)c(F)c4F)c4ccc([nH]4)c(-c4c(F)c(F)c(F)c(F)c4F)c4nc(c(-c5c(F)c(F)c(F)c(F)c5F)c5ccc2[nH]5)C=C4)C=C3)cc1
REMARK SMILES IDX 18 1 17 2 15 3 16 4 3 5 2 6 1 7 4 8 5 9 6 10 7 11 8 13 9 14
REMARK SMILES IDX 10 15 14 16 11 17 12 18 13 19 19 20 20 21 21 22 22 23 23 24
REMARK SMILES IDX 24 25 85 26 25 27 84 28 26 29 27 30 28 31 78 32 29 33 83 34
REMARK SMILES IDX 77 35 79 36 30 37 82 38 76 39 75 40 31 42 63 43 43 44 62 45
REMARK SMILES IDX 44 46 47 47 61 48 80 49 45 50 46 51 60 53 81 54 48 55 32 56
REMARK SMILES IDX 33 57 41 58 34 59 35 60 39 61 42 62 36 63 37 64 40 65 38 66
REMARK SMILES IDX 64 67 65 68 73 69 66 70 67 71 71 72 74 73 68 74 69 75 72 76
REMARK SMILES IDX 70 77 49 78 50 79 58 80 51 81 52 82 56 83 59 84 53 85 54 86
REMARK SMILES IDX 57 87 55 88
REMARK H PARENT 6 12 79 41 47 52
REMARK Flexibility Score: inf
ROOT
ATOM      1  C   UNL A   1      35.917  20.649  25.020  1.00  0.00     0.274 C 
ENDROOT
BRANCH   1   2
ATOM      2  O   UNL A   1      35.304  21.957  25.033  1.00  0.00    -0.460 OA
BRANCH   2   3
ATOM      3  C   UNL A   1      34.292  22.102  25.929  1.00  0.00     0.331 C 
ATOM      4  O   UNL A   1      34.185  21.411  26.938  1.00  0.00    -0.249 OA
BRANCH   3   5
ATOM      5  C   UNL A   1      33.300  23.258  25.584  1.00  0.00     0.137 C 
BRANCH   5   6
ATOM      6  C   UNL A   1      32.748  22.998  24.138  1.00  0.00     0.037 C 
ATOM      7  C   UNL A   1      32.139  21.634  23.844  1.00  0.00     0.007 C 
ENDBRANCH   5   6
BRANCH   5   8
ATOM      8  C   UNL A   1      34.094  24.590  25.628  1.00  0.00     0.037 C 
ATOM      9  C   UNL A   1      34.209  25.340  24.307  1.00  0.00     0.007 C 
ENDBRANCH   5   8
BRANCH   5  10
ATOM     10  N   UNL A   1      32.070  23.341  26.425  1.00  0.00    -0.335 N 
ATOM     11  C   UNL A   1      30.973  24.156  26.508  1.00  0.00     0.262 C 
ATOM     12  H   UNL A   1      32.040  22.622  27.096  1.00  0.00     0.165 HD
ATOM     13  O   UNL A   1      30.047  23.711  27.192  1.00  0.00    -0.268 OA
BRANCH  11  14
ATOM     14  C   UNL A   1      30.938  25.474  25.917  1.00  0.00     0.092 A 
ATOM     15  C   UNL A   1      31.403  26.697  26.354  1.00  0.00     0.026 A 
ATOM     16  S   UNL A   1      30.305  25.597  24.322  1.00  0.00    -0.135 S 
ATOM     17  C   UNL A   1      31.161  27.744  25.413  1.00  0.00     0.016 A 
ATOM     18  C   UNL A   1      30.545  27.286  24.268  1.00  0.00     0.002 A 
ATOM     19  C   UNL A   1      30.132  28.055  23.059  1.00  0.00     0.056 C 
ENDBRANCH  11  14
ENDBRANCH   5  10
ENDBRANCH   3   5
ENDBRANCH   2   3
ENDBRANCH   1   2
BRANCH   1  20
ATOM     20  C   UNL A   1      37.403  20.765  24.691  1.00  0.00     0.275 C 
BRANCH  20  21
ATOM     21  O   UNL A   1      37.975  21.702  25.618  1.00  0.00    -0.458 OA
BRANCH  21  22
ATOM     22  C   UNL A   1      39.131  21.310  26.194  1.00  0.00     0.338 C 
ATOM     23  O   UNL A   1      39.645  20.208  26.203  1.00  0.00    -0.246 OA
BRANCH  22  24
ATOM     24  C   UNL A   1      39.785  22.518  26.701  1.00  0.00     0.060 A 
ATOM     25  C   UNL A   1      39.344  23.750  26.213  1.00  0.00     0.016 A 
ATOM     26  C   UNL A   1      40.854  22.443  27.587  1.00  0.00     0.016 A 
ATOM     27  C   UNL A   1      40.014  24.918  26.556  1.00  0.00     0.010 A 
ATOM     28  C   UNL A   1      41.479  23.626  27.989  1.00  0.00     0.010 A 
ATOM     29  C   UNL A   1      41.082  24.870  27.459  1.00  0.00    -0.014 A 
BRANCH  29  30
ATOM     30  C   UNL A   1      41.824  26.104  27.823  1.00  0.00     0.031 A 
ATOM     31  C   UNL A   1      41.154  27.147  28.672  1.00  0.00     0.074 A 
ATOM     32  C   UNL A   1      43.085  26.301  27.395  1.00  0.00     0.049 A 
ATOM     33  N   UNL A   1      41.508  28.385  28.899  1.00  0.00    -0.248 NA
ATOM     34  C   UNL A   1      39.910  26.743  29.346  1.00  0.00     0.031 C 
ATOM     35  C   UNL A   1      43.882  25.345  26.626  1.00  0.00     0.029 A 
ATOM     36  N   UNL A   1      43.918  27.383  27.544  1.00  0.00    -0.354 N 
ATOM     37  C   UNL A   1      40.502  28.926  29.688  1.00  0.00     0.074 A 
ATOM     38  C   UNL A   1      39.530  27.878  29.915  1.00  0.00     0.031 C 
ATOM     39  C   UNL A   1      45.092  25.874  26.384  1.00  0.00     0.029 A 
ATOM     40  C   UNL A   1      45.126  27.236  26.908  1.00  0.00     0.049 A 
ATOM     41  H   UNL A   1      43.672  28.187  28.057  1.00  0.00     0.167 HD
ATOM     42  C   UNL A   1      40.398  30.188  30.166  1.00  0.00     0.037 A 
ATOM     43  C   UNL A   1      46.128  28.117  26.721  1.00  0.00     0.037 A 
ATOM     44  C   UNL A   1      41.392  31.211  29.981  1.00  0.00     0.049 A 
ATOM     45  C   UNL A   1      45.979  29.520  27.241  1.00  0.00     0.074 A 
ATOM     46  C   UNL A   1      41.377  32.525  30.415  1.00  0.00     0.029 A 
ATOM     47  N   UNL A   1      42.597  31.023  29.319  1.00  0.00    -0.354 N 
ATOM     48  N   UNL A   1      44.984  30.053  27.908  1.00  0.00    -0.248 NA
ATOM     49  C   UNL A   1      47.080  30.451  26.957  1.00  0.00     0.031 C 
ATOM     50  C   UNL A   1      42.564  33.137  29.999  1.00  0.00     0.029 A 
ATOM     51  C   UNL A   1      43.331  32.196  29.333  1.00  0.00     0.049 A 
ATOM     52  H   UNL A   1      42.887  30.179  28.902  1.00  0.00     0.167 HD
ATOM     53  C   UNL A   1      45.339  31.376  28.127  1.00  0.00     0.074 A 
ATOM     54  C   UNL A   1      46.651  31.561  27.543  1.00  0.00     0.031 C 
ATOM     55  C   UNL A   1      44.637  32.354  28.750  1.00  0.00     0.037 A 
BRANCH  42  56
ATOM     56  C   UNL A   1      39.144  30.547  30.904  1.00  0.00     0.064 A 
ATOM     57  C   UNL A   1      39.044  30.431  32.297  1.00  0.00     0.173 A 
ATOM     58  C   UNL A   1      38.034  31.045  30.202  1.00  0.00     0.173 A 
ATOM     59  F   UNL A   1      40.072  29.944  33.008  1.00  0.00    -0.203 F 
ATOM     60  C   UNL A   1      37.873  30.788  32.961  1.00  0.00     0.198 A 
ATOM     61  C   UNL A   1      36.873  31.421  30.871  1.00  0.00     0.198 A 
ATOM     62  F   UNL A   1      38.082  31.175  28.868  1.00  0.00    -0.203 F 
ATOM     63  F   UNL A   1      37.786  30.638  34.290  1.00  0.00    -0.200 F 
ATOM     64  C   UNL A   1      36.792  31.288  32.249  1.00  0.00     0.200 A 
ATOM     65  F   UNL A   1      35.833  31.911  30.182  1.00  0.00    -0.200 F 
ATOM     66  F   UNL A   1      35.668  31.636  32.891  1.00  0.00    -0.200 F 
ENDBRANCH  42  56
BRANCH  43  67
ATOM     67  C   UNL A   1      47.339  27.711  25.962  1.00  0.00     0.064 A 
ATOM     68  C   UNL A   1      48.497  27.290  26.629  1.00  0.00     0.173 A 
ATOM     69  C   UNL A   1      47.362  27.733  24.560  1.00  0.00     0.173 A 
ATOM     70  F   UNL A   1      48.531  27.279  27.969  1.00  0.00    -0.203 F 
ATOM     71  C   UNL A   1      49.637  26.913  25.922  1.00  0.00     0.198 A 
ATOM     72  C   UNL A   1      48.493  27.330  23.853  1.00  0.00     0.198 A 
ATOM     73  F   UNL A   1      46.280  28.131  23.876  1.00  0.00    -0.203 F 
ATOM     74  F   UNL A   1      50.743  26.551  26.583  1.00  0.00    -0.200 F 
ATOM     75  C   UNL A   1      49.631  26.927  24.535  1.00  0.00     0.200 A 
ATOM     76  F   UNL A   1      48.479  27.333  22.514  1.00  0.00    -0.200 F 
ATOM     77  F   UNL A   1      50.724  26.557  23.855  1.00  0.00    -0.200 F 
ENDBRANCH  43  67
BRANCH  55  78
ATOM     78  C   UNL A   1      45.286  33.701  28.847  1.00  0.00     0.064 A 
ATOM     79  C   UNL A   1      45.071  34.686  27.873  1.00  0.00     0.173 A 
ATOM     80  C   UNL A   1      46.102  34.018  29.942  1.00  0.00     0.173 A 
ATOM     81  F   UNL A   1      44.311  34.419  26.800  1.00  0.00    -0.203 F 
ATOM     82  C   UNL A   1      45.666  35.939  27.984  1.00  0.00     0.198 A 
ATOM     83  C   UNL A   1      46.679  35.280  30.060  1.00  0.00     0.198 A 
ATOM     84  F   UNL A   1      46.334  33.108  30.899  1.00  0.00    -0.203 F 
ATOM     85  F   UNL A   1      45.477  36.855  27.025  1.00  0.00    -0.200 F 
ATOM     86  C   UNL A   1      46.464  36.237  29.079  1.00  0.00     0.200 A 
ATOM     87  F   UNL A   1      47.445  35.568  31.120  1.00  0.00    -0.200 F 
ATOM     88  F   UNL A   1      47.034  37.445  29.185  1.00  0.00    -0.200 F 
ENDBRANCH  55  78
ENDBRANCH  29  30
ENDBRANCH  22  24
ENDBRANCH  21  22
ENDBRANCH  20  21
ENDBRANCH   1  20
TORSDOF 15
ENDMDL
