MODEL 1
REMARK VINA RESULT:     -11.5      0.000      0.000
REMARK SMILES COc1cc(OC)cc(-c2ccc(C(=O)OCCOC(=O)c3ccc(-c4c5nc(c(-c6c(F)c(F)c(F)c(F)c6F)c6ccc([nH]6)c(-c6c(F)c(F)c(F)c(F)c6F)c6nc(c(-c7c(F)c(F)c(F)c(F)c7F)c7ccc4[nH]7)C=C6)C=C5)cc3)o2)c1
REMARK SMILES IDX 17 1 16 2 14 3 15 4 13 5 10 6 11 7 85 8 12 9 9 10 3 11 4 12
REMARK SMILES IDX 86 13 5 14 8 15 2 16 1 17 6 18 7 19 18 20 19 21 20 22 21 23
REMARK SMILES IDX 22 24 23 25 84 26 24 27 83 28 25 29 26 30 27 31 77 32 28 33
REMARK SMILES IDX 82 34 76 35 78 36 29 37 81 38 75 39 74 40 30 42 62 43 42 44
REMARK SMILES IDX 61 45 43 46 46 47 60 48 79 49 44 50 45 51 59 53 80 54 47 55
REMARK SMILES IDX 31 56 32 57 40 58 33 59 34 60 38 61 41 62 35 63 36 64 39 65
REMARK SMILES IDX 37 66 63 67 64 68 72 69 65 70 66 71 70 72 73 73 67 74 68 75
REMARK SMILES IDX 71 76 69 77 48 78 49 79 57 80 50 81 51 82 55 83 58 84 52 85
REMARK SMILES IDX 53 86 56 87 54 88
REMARK H PARENT 78 41 46 52
REMARK Flexibility Score: inf
ROOT
ATOM      1  C   UNL A   1      42.713  21.009  26.032  1.00  0.00     0.275 C 
ENDROOT
BRANCH   1   2
ATOM      2  O   UNL A   1      41.366  21.380  25.683  1.00  0.00    -0.456 OA
BRANCH   2   3
ATOM      3  C   UNL A   1      40.458  21.379  26.707  1.00  0.00     0.374 C 
ATOM      4  O   UNL A   1      40.630  20.824  27.780  1.00  0.00    -0.242 OA
BRANCH   3   5
ATOM      5  C   UNL A   1      39.326  22.209  26.357  1.00  0.00     0.212 A 
ATOM      6  C   UNL A   1      37.259  22.530  25.656  1.00  0.00     0.135 A 
ATOM      7  C   UNL A   1      37.704  23.751  26.108  1.00  0.00     0.052 A 
ATOM      8  O   UNL A   1      38.250  21.604  25.752  1.00  0.00    -0.449 OA
ATOM      9  C   UNL A   1      39.030  23.545  26.567  1.00  0.00     0.059 A 
BRANCH   6  10
ATOM     10  C   UNL A   1      35.982  22.043  25.169  1.00  0.00     0.025 A 
ATOM     11  C   UNL A   1      33.751  22.472  24.332  1.00  0.00     0.123 A 
ATOM     12  C   UNL A   1      33.495  21.100  24.351  1.00  0.00     0.092 A 
ATOM     13  C   UNL A   1      34.996  22.945  24.748  1.00  0.00     0.058 A 
ATOM     14  C   UNL A   1      34.472  20.188  24.758  1.00  0.00     0.123 A 
ATOM     15  C   UNL A   1      35.721  20.663  25.158  1.00  0.00     0.058 A 
BRANCH  11  16
ATOM     16  O   UNL A   1      32.698  23.248  23.932  1.00  0.00    -0.497 OA
ATOM     17  C   UNL A   1      31.480  23.074  24.644  1.00  0.00     0.278 C 
ENDBRANCH  11  16
BRANCH  14  18
ATOM     18  O   UNL A   1      34.080  18.879  24.719  1.00  0.00    -0.497 OA
ATOM     19  C   UNL A   1      32.842  18.552  25.336  1.00  0.00     0.278 C 
ENDBRANCH  14  18
ENDBRANCH   6  10
ENDBRANCH   3   5
ENDBRANCH   2   3
ENDBRANCH   1   2
BRANCH   1  20
ATOM     20  C   UNL A   1      43.744  21.838  25.255  1.00  0.00     0.275 C 
BRANCH  20  21
ATOM     21  O   UNL A   1      43.217  23.118  24.859  1.00  0.00    -0.458 OA
BRANCH  21  22
ATOM     22  C   UNL A   1      44.004  24.183  25.141  1.00  0.00     0.338 C 
ATOM     23  O   UNL A   1      45.010  24.531  24.544  1.00  0.00    -0.246 OA
BRANCH  22  24
ATOM     24  C   UNL A   1      43.392  24.986  26.214  1.00  0.00     0.060 A 
ATOM     25  C   UNL A   1      43.813  26.311  26.350  1.00  0.00     0.016 A 
ATOM     26  C   UNL A   1      42.466  24.444  27.107  1.00  0.00     0.016 A 
ATOM     27  C   UNL A   1      43.311  27.108  27.374  1.00  0.00     0.010 A 
ATOM     28  C   UNL A   1      41.967  25.243  28.144  1.00  0.00     0.010 A 
ATOM     29  C   UNL A   1      42.394  26.575  28.286  1.00  0.00    -0.014 A 
BRANCH  29  30
ATOM     30  C   UNL A   1      41.934  27.411  29.418  1.00  0.00     0.031 A 
ATOM     31  C   UNL A   1      42.708  27.415  30.703  1.00  0.00     0.074 A 
ATOM     32  C   UNL A   1      40.856  28.202  29.273  1.00  0.00     0.049 A 
ATOM     33  N   UNL A   1      42.477  28.074  31.809  1.00  0.00    -0.248 NA
ATOM     34  C   UNL A   1      43.907  26.565  30.746  1.00  0.00     0.031 C 
ATOM     35  C   UNL A   1      40.057  28.321  28.054  1.00  0.00     0.029 A 
ATOM     36  N   UNL A   1      40.257  29.065  30.155  1.00  0.00    -0.354 N 
ATOM     37  C   UNL A   1      43.490  27.711  32.684  1.00  0.00     0.074 A 
ATOM     38  C   UNL A   1      44.329  26.758  31.988  1.00  0.00     0.031 C 
ATOM     39  C   UNL A   1      39.081  29.220  28.261  1.00  0.00     0.029 A 
ATOM     40  C   UNL A   1      39.165  29.711  29.634  1.00  0.00     0.049 A 
ATOM     41  H   UNL A   1      40.580  29.207  31.076  1.00  0.00     0.167 HD
ATOM     42  C   UNL A   1      43.701  28.137  33.952  1.00  0.00     0.037 A 
ATOM     43  C   UNL A   1      38.323  30.592  30.206  1.00  0.00     0.037 A 
ATOM     44  C   UNL A   1      42.872  29.094  34.637  1.00  0.00     0.049 A 
ATOM     45  C   UNL A   1      38.542  30.996  31.639  1.00  0.00     0.074 A 
ATOM     46  C   UNL A   1      43.021  29.610  35.913  1.00  0.00     0.029 A 
ATOM     47  N   UNL A   1      41.736  29.680  34.098  1.00  0.00    -0.354 N 
ATOM     48  N   UNL A   1      39.506  30.654  32.457  1.00  0.00    -0.248 NA
ATOM     49  C   UNL A   1      37.548  31.904  32.228  1.00  0.00     0.031 C 
ATOM     50  C   UNL A   1      41.948  30.475  36.163  1.00  0.00     0.029 A 
ATOM     51  C   UNL A   1      41.155  30.529  35.028  1.00  0.00     0.049 A 
ATOM     52  H   UNL A   1      41.392  29.517  33.191  1.00  0.00     0.167 HD
ATOM     53  C   UNL A   1      39.250  31.319  33.649  1.00  0.00     0.074 A 
ATOM     54  C   UNL A   1      38.042  32.093  33.443  1.00  0.00     0.031 C 
ATOM     55  C   UNL A   1      39.953  31.291  34.807  1.00  0.00     0.037 A 
BRANCH  42  56
ATOM     56  C   UNL A   1      44.858  27.537  34.693  1.00  0.00     0.064 A 
ATOM     57  C   UNL A   1      44.722  26.367  35.454  1.00  0.00     0.173 A 
ATOM     58  C   UNL A   1      46.124  28.137  34.628  1.00  0.00     0.173 A 
ATOM     59  F   UNL A   1      43.527  25.767  35.562  1.00  0.00    -0.203 F 
ATOM     60  C   UNL A   1      45.806  25.835  36.145  1.00  0.00     0.198 A 
ATOM     61  C   UNL A   1      47.212  27.589  35.302  1.00  0.00     0.198 A 
ATOM     62  F   UNL A   1      46.306  29.258  33.913  1.00  0.00    -0.203 F 
ATOM     63  F   UNL A   1      45.644  24.742  36.905  1.00  0.00    -0.200 F 
ATOM     64  C   UNL A   1      47.052  26.442  36.065  1.00  0.00     0.200 A 
ATOM     65  F   UNL A   1      48.415  28.175  35.218  1.00  0.00    -0.200 F 
ATOM     66  F   UNL A   1      48.094  25.930  36.733  1.00  0.00    -0.200 F 
ENDBRANCH  42  56
BRANCH  43  67
ATOM     67  C   UNL A   1      37.196  31.153  29.420  1.00  0.00     0.064 A 
ATOM     68  C   UNL A   1      36.071  30.374  29.119  1.00  0.00     0.173 A 
ATOM     69  C   UNL A   1      37.221  32.476  28.955  1.00  0.00     0.173 A 
ATOM     70  F   UNL A   1      36.016  29.095  29.517  1.00  0.00    -0.203 F 
ATOM     71  C   UNL A   1      35.014  30.896  28.377  1.00  0.00     0.198 A 
ATOM     72  C   UNL A   1      36.152  33.003  28.233  1.00  0.00     0.198 A 
ATOM     73  F   UNL A   1      38.279  33.258  29.212  1.00  0.00    -0.203 F 
ATOM     74  F   UNL A   1      33.965  30.120  28.072  1.00  0.00    -0.200 F 
ATOM     75  C   UNL A   1      35.053  32.211  27.940  1.00  0.00     0.200 A 
ATOM     76  F   UNL A   1      36.191  34.277  27.819  1.00  0.00    -0.200 F 
ATOM     77  F   UNL A   1      34.034  32.714  27.230  1.00  0.00    -0.200 F 
ENDBRANCH  43  67
BRANCH  55  78
ATOM     78  C   UNL A   1      39.447  32.140  35.935  1.00  0.00     0.064 A 
ATOM     79  C   UNL A   1      39.942  33.434  36.155  1.00  0.00     0.173 A 
ATOM     80  C   UNL A   1      38.433  31.668  36.783  1.00  0.00     0.173 A 
ATOM     81  F   UNL A   1      40.923  33.922  35.381  1.00  0.00    -0.203 F 
ATOM     82  C   UNL A   1      39.452  34.218  37.196  1.00  0.00     0.198 A 
ATOM     83  C   UNL A   1      37.930  32.464  37.807  1.00  0.00     0.198 A 
ATOM     84  F   UNL A   1      37.924  30.440  36.609  1.00  0.00    -0.203 F 
ATOM     85  F   UNL A   1      39.967  35.436  37.413  1.00  0.00    -0.200 F 
ATOM     86  C   UNL A   1      38.444  33.735  38.017  1.00  0.00     0.200 A 
ATOM     87  F   UNL A   1      36.950  32.000  38.594  1.00  0.00    -0.200 F 
ATOM     88  F   UNL A   1      37.972  34.493  39.017  1.00  0.00    -0.200 F 
ENDBRANCH  55  78
ENDBRANCH  29  30
ENDBRANCH  22  24
ENDBRANCH  21  22
ENDBRANCH  20  21
ENDBRANCH   1  20
TORSDOF 14
ENDMDL
MODEL 2
REMARK VINA RESULT:     -11.5      5.282      7.751
REMARK SMILES COc1cc(OC)cc(-c2ccc(C(=O)OCCOC(=O)c3ccc(-c4c5nc(c(-c6c(F)c(F)c(F)c(F)c6F)c6ccc([nH]6)c(-c6c(F)c(F)c(F)c(F)c6F)c6nc(c(-c7c(F)c(F)c(F)c(F)c7F)c7ccc4[nH]7)C=C6)C=C5)cc3)o2)c1
REMARK SMILES IDX 17 1 16 2 14 3 15 4 13 5 10 6 11 7 85 8 12 9 9 10 3 11 4 12
REMARK SMILES IDX 86 13 5 14 8 15 2 16 1 17 6 18 7 19 18 20 19 21 20 22 21 23
REMARK SMILES IDX 22 24 23 25 84 26 24 27 83 28 25 29 26 30 27 31 77 32 28 33
REMARK SMILES IDX 82 34 76 35 78 36 29 37 81 38 75 39 74 40 30 42 62 43 42 44
REMARK SMILES IDX 61 45 43 46 46 47 60 48 79 49 44 50 45 51 59 53 80 54 47 55
REMARK SMILES IDX 31 56 32 57 40 58 33 59 34 60 38 61 41 62 35 63 36 64 39 65
REMARK SMILES IDX 37 66 63 67 64 68 72 69 65 70 66 71 70 72 73 73 67 74 68 75
REMARK SMILES IDX 71 76 69 77 48 78 49 79 57 80 50 81 51 82 55 83 58 84 52 85
REMARK SMILES IDX 53 86 56 87 54 88
REMARK H PARENT 78 41 46 52
REMARK Flexibility Score: inf
ROOT
ATOM      1  C   UNL A   1      41.554  19.350  25.952  1.00  0.00     0.275 C 
ENDROOT
BRANCH   1   2
ATOM      2  O   UNL A   1      41.346  20.773  26.010  1.00  0.00    -0.456 OA
BRANCH   2   3
ATOM      3  C   UNL A   1      40.598  21.228  27.063  1.00  0.00     0.374 C 
ATOM      4  O   UNL A   1      40.778  20.905  28.225  1.00  0.00    -0.242 OA
BRANCH   3   5
ATOM      5  C   UNL A   1      39.646  22.212  26.595  1.00  0.00     0.212 A 
ATOM      6  C   UNL A   1      37.743  22.826  25.663  1.00  0.00     0.135 A 
ATOM      7  C   UNL A   1      38.301  23.970  26.184  1.00  0.00     0.052 A 
ATOM      8  O   UNL A   1      38.573  21.767  25.860  1.00  0.00    -0.449 OA
ATOM      9  C   UNL A   1      39.521  23.577  26.790  1.00  0.00     0.059 A 
BRANCH   6  10
ATOM     10  C   UNL A   1      36.475  22.527  25.023  1.00  0.00     0.025 A 
ATOM     11  C   UNL A   1      34.771  23.059  23.389  1.00  0.00     0.123 A 
ATOM     12  C   UNL A   1      33.989  22.014  23.885  1.00  0.00     0.092 A 
ATOM     13  C   UNL A   1      36.015  23.319  23.964  1.00  0.00     0.058 A 
ATOM     14  C   UNL A   1      34.439  21.209  24.934  1.00  0.00     0.123 A 
ATOM     15  C   UNL A   1      35.690  21.462  25.496  1.00  0.00     0.058 A 
BRANCH  11  16
ATOM     16  O   UNL A   1      34.196  23.777  22.376  1.00  0.00    -0.497 OA
ATOM     17  C   UNL A   1      33.519  24.968  22.754  1.00  0.00     0.278 C 
ENDBRANCH  11  16
BRANCH  14  18
ATOM     18  O   UNL A   1      33.569  20.224  25.309  1.00  0.00    -0.497 OA
ATOM     19  C   UNL A   1      32.668  19.741  24.322  1.00  0.00     0.278 C 
ENDBRANCH  14  18
ENDBRANCH   6  10
ENDBRANCH   3   5
ENDBRANCH   2   3
ENDBRANCH   1   2
BRANCH   1  20
ATOM     20  C   UNL A   1      43.034  19.005  25.736  1.00  0.00     0.275 C 
BRANCH  20  21
ATOM     21  O   UNL A   1      43.443  19.223  24.372  1.00  0.00    -0.458 OA
BRANCH  21  22
ATOM     22  C   UNL A   1      44.750  19.532  24.200  1.00  0.00     0.338 C 
ATOM     23  O   UNL A   1      45.613  18.824  23.706  1.00  0.00    -0.246 OA
BRANCH  22  24
ATOM     24  C   UNL A   1      44.983  20.940  24.568  1.00  0.00     0.060 A 
ATOM     25  C   UNL A   1      45.651  21.192  25.769  1.00  0.00     0.016 A 
ATOM     26  C   UNL A   1      44.512  21.997  23.787  1.00  0.00     0.016 A 
ATOM     27  C   UNL A   1      45.860  22.499  26.197  1.00  0.00     0.010 A 
ATOM     28  C   UNL A   1      44.712  23.313  24.222  1.00  0.00     0.010 A 
ATOM     29  C   UNL A   1      45.380  23.569  25.433  1.00  0.00    -0.014 A 
BRANCH  29  30
ATOM     30  C   UNL A   1      45.537  24.948  25.946  1.00  0.00     0.031 A 
ATOM     31  C   UNL A   1      46.868  25.633  25.844  1.00  0.00     0.074 A 
ATOM     32  C   UNL A   1      44.477  25.601  26.452  1.00  0.00     0.049 A 
ATOM     33  N   UNL A   1      47.215  26.834  26.230  1.00  0.00    -0.248 NA
ATOM     34  C   UNL A   1      47.954  24.862  25.220  1.00  0.00     0.031 C 
ATOM     35  C   UNL A   1      43.123  25.056  26.553  1.00  0.00     0.029 A 
ATOM     36  N   UNL A   1      44.369  26.868  26.965  1.00  0.00    -0.354 N 
ATOM     37  C   UNL A   1      48.559  26.960  25.909  1.00  0.00     0.074 A 
ATOM     38  C   UNL A   1      48.971  25.707  25.313  1.00  0.00     0.031 C 
ATOM     39  C   UNL A   1      42.316  25.991  27.079  1.00  0.00     0.029 A 
ATOM     40  C   UNL A   1      43.102  27.184  27.384  1.00  0.00     0.049 A 
ATOM     41  H   UNL A   1      45.129  27.492  27.026  1.00  0.00     0.167 HD
ATOM     42  C   UNL A   1      49.372  28.028  26.092  1.00  0.00     0.037 A 
ATOM     43  C   UNL A   1      42.633  28.308  27.959  1.00  0.00     0.037 A 
ATOM     44  C   UNL A   1      48.956  29.277  26.673  1.00  0.00     0.049 A 
ATOM     45  C   UNL A   1      43.574  29.454  28.213  1.00  0.00     0.074 A 
ATOM     46  C   UNL A   1      49.700  30.427  26.876  1.00  0.00     0.029 A 
ATOM     47  N   UNL A   1      47.678  29.539  27.146  1.00  0.00    -0.354 N 
ATOM     48  N   UNL A   1      44.841  29.568  27.901  1.00  0.00    -0.248 NA
ATOM     49  C   UNL A   1      43.019  30.623  28.909  1.00  0.00     0.031 C 
ATOM     50  C   UNL A   1      48.883  31.370  27.512  1.00  0.00     0.029 A 
ATOM     51  C   UNL A   1      47.620  30.822  27.668  1.00  0.00     0.049 A 
ATOM     52  H   UNL A   1      46.924  28.907  27.116  1.00  0.00     0.167 HD
ATOM     53  C   UNL A   1      45.231  30.826  28.339  1.00  0.00     0.074 A 
ATOM     54  C   UNL A   1      44.062  31.442  28.934  1.00  0.00     0.031 C 
ATOM     55  C   UNL A   1      46.448  31.417  28.256  1.00  0.00     0.037 A 
BRANCH  42  56
ATOM     56  C   UNL A   1      50.809  27.872  25.692  1.00  0.00     0.064 A 
ATOM     57  C   UNL A   1      51.228  28.035  24.364  1.00  0.00     0.173 A 
ATOM     58  C   UNL A   1      51.780  27.568  26.657  1.00  0.00     0.173 A 
ATOM     59  F   UNL A   1      50.333  28.307  23.403  1.00  0.00    -0.203 F 
ATOM     60  C   UNL A   1      52.565  27.872  24.012  1.00  0.00     0.198 A 
ATOM     61  C   UNL A   1      53.120  27.429  26.305  1.00  0.00     0.198 A 
ATOM     62  F   UNL A   1      51.430  27.402  27.942  1.00  0.00    -0.203 F 
ATOM     63  F   UNL A   1      52.937  27.986  22.729  1.00  0.00    -0.200 F 
ATOM     64  C   UNL A   1      53.511  27.575  24.983  1.00  0.00     0.200 A 
ATOM     65  F   UNL A   1      54.033  27.146  27.246  1.00  0.00    -0.200 F 
ATOM     66  F   UNL A   1      54.797  27.416  24.641  1.00  0.00    -0.200 F 
ENDBRANCH  42  56
BRANCH  43  67
ATOM     67  C   UNL A   1      41.199  28.404  28.331  1.00  0.00     0.064 A 
ATOM     68  C   UNL A   1      40.754  27.981  29.590  1.00  0.00     0.173 A 
ATOM     69  C   UNL A   1      40.248  28.919  27.438  1.00  0.00     0.173 A 
ATOM     70  F   UNL A   1      41.621  27.454  30.466  1.00  0.00    -0.203 F 
ATOM     71  C   UNL A   1      39.408  28.064  29.941  1.00  0.00     0.198 A 
ATOM     72  C   UNL A   1      38.907  29.022  27.799  1.00  0.00     0.198 A 
ATOM     73  F   UNL A   1      40.626  29.329  26.219  1.00  0.00    -0.203 F 
ATOM     74  F   UNL A   1      39.001  27.620  31.138  1.00  0.00    -0.200 F 
ATOM     75  C   UNL A   1      38.488  28.591  29.047  1.00  0.00     0.200 A 
ATOM     76  F   UNL A   1      38.022  29.538  26.935  1.00  0.00    -0.200 F 
ATOM     77  F   UNL A   1      37.193  28.675  29.387  1.00  0.00    -0.200 F 
ENDBRANCH  43  67
BRANCH  55  78
ATOM     78  C   UNL A   1      46.570  32.810  28.800  1.00  0.00     0.064 A 
ATOM     79  C   UNL A   1      46.958  33.046  30.126  1.00  0.00     0.173 A 
ATOM     80  C   UNL A   1      46.327  33.920  27.976  1.00  0.00     0.173 A 
ATOM     81  F   UNL A   1      47.184  32.017  30.956  1.00  0.00    -0.203 F 
ATOM     82  C   UNL A   1      47.082  34.344  30.613  1.00  0.00     0.198 A 
ATOM     83  C   UNL A   1      46.475  35.215  28.460  1.00  0.00     0.198 A 
ATOM     84  F   UNL A   1      45.958  33.745  26.698  1.00  0.00    -0.203 F 
ATOM     85  F   UNL A   1      47.417  34.547  31.895  1.00  0.00    -0.200 F 
ATOM     86  C   UNL A   1      46.846  35.427  29.780  1.00  0.00     0.200 A 
ATOM     87  F   UNL A   1      46.255  36.261  27.651  1.00  0.00    -0.200 F 
ATOM     88  F   UNL A   1      46.970  36.676  30.250  1.00  0.00    -0.200 F 
ENDBRANCH  55  78
ENDBRANCH  29  30
ENDBRANCH  22  24
ENDBRANCH  21  22
ENDBRANCH  20  21
ENDBRANCH   1  20
TORSDOF 14
ENDMDL
MODEL 3
REMARK VINA RESULT:     -11.4      0.611      2.107
REMARK SMILES COc1cc(OC)cc(-c2ccc(C(=O)OCCOC(=O)c3ccc(-c4c5nc(c(-c6c(F)c(F)c(F)c(F)c6F)c6ccc([nH]6)c(-c6c(F)c(F)c(F)c(F)c6F)c6nc(c(-c7c(F)c(F)c(F)c(F)c7F)c7ccc4[nH]7)C=C6)C=C5)cc3)o2)c1
REMARK SMILES IDX 17 1 16 2 14 3 15 4 13 5 10 6 11 7 85 8 12 9 9 10 3 11 4 12
REMARK SMILES IDX 86 13 5 14 8 15 2 16 1 17 6 18 7 19 18 20 19 21 20 22 21 23
REMARK SMILES IDX 22 24 23 25 84 26 24 27 83 28 25 29 26 30 27 31 77 32 28 33
REMARK SMILES IDX 82 34 76 35 78 36 29 37 81 38 75 39 74 40 30 42 62 43 42 44
REMARK SMILES IDX 61 45 43 46 46 47 60 48 79 49 44 50 45 51 59 53 80 54 47 55
REMARK SMILES IDX 31 56 32 57 40 58 33 59 34 60 38 61 41 62 35 63 36 64 39 65
REMARK SMILES IDX 37 66 63 67 64 68 72 69 65 70 66 71 70 72 73 73 67 74 68 75
REMARK SMILES IDX 71 76 69 77 48 78 49 79 57 80 50 81 51 82 55 83 58 84 52 85
REMARK SMILES IDX 53 86 56 87 54 88
REMARK H PARENT 78 41 46 52
REMARK Flexibility Score: inf
ROOT
ATOM      1  C   UNL A   1      42.797  20.690  26.087  1.00  0.00     0.275 C 
ENDROOT
BRANCH   1   2
ATOM      2  O   UNL A   1      41.416  20.978  25.799  1.00  0.00    -0.456 OA
BRANCH   2   3
ATOM      3  C   UNL A   1      40.612  21.208  26.883  1.00  0.00     0.374 C 
ATOM      4  O   UNL A   1      40.778  20.707  27.982  1.00  0.00    -0.242 OA
BRANCH   3   5
ATOM      5  C   UNL A   1      39.611  22.198  26.547  1.00  0.00     0.212 A 
ATOM      6  C   UNL A   1      37.653  22.831  25.753  1.00  0.00     0.135 A 
ATOM      7  C   UNL A   1      38.200  23.942  26.353  1.00  0.00     0.052 A 
ATOM      8  O   UNL A   1      38.521  21.786  25.818  1.00  0.00    -0.449 OA
ATOM      9  C   UNL A   1      39.456  23.534  26.871  1.00  0.00     0.059 A 
BRANCH   6  10
ATOM     10  C   UNL A   1      36.368  22.550  25.141  1.00  0.00     0.025 A 
ATOM     11  C   UNL A   1      34.412  21.142  24.913  1.00  0.00     0.123 A 
ATOM     12  C   UNL A   1      33.963  21.958  23.873  1.00  0.00     0.092 A 
ATOM     13  C   UNL A   1      35.621  21.436  25.544  1.00  0.00     0.058 A 
ATOM     14  C   UNL A   1      34.692  23.079  23.467  1.00  0.00     0.123 A 
ATOM     15  C   UNL A   1      35.892  23.379  24.110  1.00  0.00     0.058 A 
BRANCH  11  16
ATOM     16  O   UNL A   1      33.610  20.069  25.191  1.00  0.00    -0.497 OA
ATOM     17  C   UNL A   1      32.521  19.851  24.303  1.00  0.00     0.278 C 
ENDBRANCH  11  16
BRANCH  14  18
ATOM     18  O   UNL A   1      34.126  23.784  22.442  1.00  0.00    -0.497 OA
ATOM     19  C   UNL A   1      33.090  24.698  22.775  1.00  0.00     0.278 C 
ENDBRANCH  14  18
ENDBRANCH   6  10
ENDBRANCH   3   5
ENDBRANCH   2   3
ENDBRANCH   1   2
BRANCH   1  20
ATOM     20  C   UNL A   1      43.739  21.638  25.333  1.00  0.00     0.275 C 
BRANCH  20  21
ATOM     21  O   UNL A   1      43.129  22.920  25.091  1.00  0.00    -0.458 OA
BRANCH  21  22
ATOM     22  C   UNL A   1      43.965  23.983  25.155  1.00  0.00     0.338 C 
ATOM     23  O   UNL A   1      44.831  24.287  24.350  1.00  0.00    -0.246 OA
BRANCH  22  24
ATOM     24  C   UNL A   1      43.593  24.843  26.292  1.00  0.00     0.060 A 
ATOM     25  C   UNL A   1      42.804  24.280  27.298  1.00  0.00     0.016 A 
ATOM     26  C   UNL A   1      43.957  26.190  26.351  1.00  0.00     0.016 A 
ATOM     27  C   UNL A   1      42.377  25.052  28.374  1.00  0.00     0.010 A 
ATOM     28  C   UNL A   1      43.519  26.971  27.428  1.00  0.00     0.010 A 
ATOM     29  C   UNL A   1      42.721  26.406  28.440  1.00  0.00    -0.014 A 
BRANCH  29  30
ATOM     30  C   UNL A   1      42.188  27.232  29.547  1.00  0.00     0.031 A 
ATOM     31  C   UNL A   1      42.920  27.284  30.855  1.00  0.00     0.074 A 
ATOM     32  C   UNL A   1      41.082  27.972  29.359  1.00  0.00     0.049 A 
ATOM     33  N   UNL A   1      42.625  27.943  31.946  1.00  0.00    -0.248 NA
ATOM     34  C   UNL A   1      44.154  26.489  30.946  1.00  0.00     0.031 C 
ATOM     35  C   UNL A   1      40.318  28.043  28.115  1.00  0.00     0.029 A 
ATOM     36  N   UNL A   1      40.417  28.816  30.212  1.00  0.00    -0.354 N 
ATOM     37  C   UNL A   1      43.625  27.634  32.856  1.00  0.00     0.074 A 
ATOM     38  C   UNL A   1      44.527  26.713  32.198  1.00  0.00     0.031 C 
ATOM     39  C   UNL A   1      39.296  28.899  28.280  1.00  0.00     0.029 A 
ATOM     40  C   UNL A   1      39.314  29.407  29.650  1.00  0.00     0.049 A 
ATOM     41  H   UNL A   1      40.703  28.981  31.140  1.00  0.00     0.167 HD
ATOM     42  C   UNL A   1      43.776  28.082  34.126  1.00  0.00     0.037 A 
ATOM     43  C   UNL A   1      38.416  30.255  30.185  1.00  0.00     0.037 A 
ATOM     44  C   UNL A   1      42.884  29.008  34.773  1.00  0.00     0.049 A 
ATOM     45  C   UNL A   1      38.570  30.683  31.619  1.00  0.00     0.074 A 
ATOM     46  C   UNL A   1      42.968  29.542  36.047  1.00  0.00     0.029 A 
ATOM     47  N   UNL A   1      41.740  29.536  34.192  1.00  0.00    -0.354 N 
ATOM     48  N   UNL A   1      39.522  30.393  32.471  1.00  0.00    -0.248 NA
ATOM     49  C   UNL A   1      37.519  31.551  32.166  1.00  0.00     0.031 C 
ATOM     50  C   UNL A   1      41.851  30.360  36.254  1.00  0.00     0.029 A 
ATOM     51  C   UNL A   1      41.093  30.368  35.093  1.00  0.00     0.049 A 
ATOM     52  H   UNL A   1      41.433  29.349  33.277  1.00  0.00     0.167 HD
ATOM     53  C   UNL A   1      39.199  31.057  33.646  1.00  0.00     0.074 A 
ATOM     54  C   UNL A   1      37.965  31.774  33.394  1.00  0.00     0.031 C 
ATOM     55  C   UNL A   1      39.865  31.072  34.826  1.00  0.00     0.037 A 
BRANCH  42  56
ATOM     56  C   UNL A   1      44.934  27.542  34.910  1.00  0.00     0.064 A 
ATOM     57  C   UNL A   1      46.153  28.231  34.997  1.00  0.00     0.173 A 
ATOM     58  C   UNL A   1      44.816  26.324  35.594  1.00  0.00     0.173 A 
ATOM     59  F   UNL A   1      46.320  29.392  34.345  1.00  0.00    -0.203 F 
ATOM     60  C   UNL A   1      47.220  27.706  35.719  1.00  0.00     0.198 A 
ATOM     61  C   UNL A   1      45.879  25.813  36.334  1.00  0.00     0.198 A 
ATOM     62  F   UNL A   1      43.671  25.626  35.541  1.00  0.00    -0.203 F 
ATOM     63  F   UNL A   1      48.391  28.358  35.751  1.00  0.00    -0.200 F 
ATOM     64  C   UNL A   1      47.081  26.500  36.392  1.00  0.00     0.200 A 
ATOM     65  F   UNL A   1      45.740  24.649  36.987  1.00  0.00    -0.200 F 
ATOM     66  F   UNL A   1      48.111  25.994  37.084  1.00  0.00    -0.200 F 
ENDBRANCH  42  56
BRANCH  43  67
ATOM     67  C   UNL A   1      37.291  30.757  29.358  1.00  0.00     0.064 A 
ATOM     68  C   UNL A   1      36.202  29.931  29.047  1.00  0.00     0.173 A 
ATOM     69  C   UNL A   1      37.280  32.069  28.862  1.00  0.00     0.173 A 
ATOM     70  F   UNL A   1      36.182  28.660  29.474  1.00  0.00    -0.203 F 
ATOM     71  C   UNL A   1      35.147  30.398  28.266  1.00  0.00     0.198 A 
ATOM     72  C   UNL A   1      36.213  32.540  28.100  1.00  0.00     0.198 A 
ATOM     73  F   UNL A   1      38.304  32.894  29.126  1.00  0.00    -0.203 F 
ATOM     74  F   UNL A   1      34.135  29.577  27.953  1.00  0.00    -0.200 F 
ATOM     75  C   UNL A   1      35.151  31.703  27.799  1.00  0.00     0.200 A 
ATOM     76  F   UNL A   1      36.218  33.805  27.657  1.00  0.00    -0.200 F 
ATOM     77  F   UNL A   1      34.133  32.152  27.051  1.00  0.00    -0.200 F 
ENDBRANCH  43  67
BRANCH  55  78
ATOM     78  C   UNL A   1      39.286  31.910  35.928  1.00  0.00     0.064 A 
ATOM     79  C   UNL A   1      38.318  31.398  36.803  1.00  0.00     0.173 A 
ATOM     80  C   UNL A   1      39.728  33.226  36.129  1.00  0.00     0.173 A 
ATOM     81  F   UNL A   1      37.852  30.150  36.640  1.00  0.00    -0.203 F 
ATOM     82  C   UNL A   1      37.800  32.181  37.831  1.00  0.00     0.198 A 
ATOM     83  C   UNL A   1      39.225  33.997  37.172  1.00  0.00     0.198 A 
ATOM     84  F   UNL A   1      40.656  33.759  35.320  1.00  0.00    -0.203 F 
ATOM     85  F   UNL A   1      36.846  31.685  38.633  1.00  0.00    -0.200 F 
ATOM     86  C   UNL A   1      38.257  33.477  38.018  1.00  0.00     0.200 A 
ATOM     87  F   UNL A   1      39.673  35.246  37.357  1.00  0.00    -0.200 F 
ATOM     88  F   UNL A   1      37.759  34.228  39.010  1.00  0.00    -0.200 F 
ENDBRANCH  55  78
ENDBRANCH  29  30
ENDBRANCH  22  24
ENDBRANCH  21  22
ENDBRANCH  20  21
ENDBRANCH   1  20
TORSDOF 14
ENDMDL
