MODEL 1
REMARK VINA RESULT:     -11.0      0.000      0.000
REMARK SMILES CNC(=O)[C@H]1CCCCN1C(=O)NCCOCC(=O)OCCOC(=O)c1ccc(-c2c3nc(c(-c4c(F)c(F)c(F)c(F)c4F)c4ccc([nH]4)c(-c4c(F)c(F)c(F)c(F)c4F)c4nc(c(-c5c(F)c(F)c(F)c(F)c5F)c5ccc2[nH]5)C=C4)C=C3)cc1
REMARK SMILES IDX 18 1 19 2 17 3 16 4 15 5 14 6 13 7 11 8 12 9 10 11 5 12 6 13
REMARK SMILES IDX 7 14 9 15 8 16 3 17 1 18 2 19 4 21 20 22 21 23 22 24 23 25
REMARK SMILES IDX 24 26 25 27 26 28 27 29 88 30 28 31 87 32 29 33 30 34 31 35
REMARK SMILES IDX 81 36 32 37 86 38 80 39 82 40 33 41 85 42 79 43 78 44 34 46
REMARK SMILES IDX 66 47 46 48 65 49 47 50 50 51 64 52 83 53 48 54 49 55 63 57
REMARK SMILES IDX 84 58 51 59 35 60 36 61 44 62 37 63 38 64 42 65 45 66 39 67
REMARK SMILES IDX 40 68 43 69 41 70 67 71 68 72 76 73 69 74 70 75 74 76 77 77
REMARK SMILES IDX 71 78 72 79 75 80 73 81 52 82 53 83 61 84 54 85 55 86 59 87
REMARK SMILES IDX 62 88 56 89 57 90 60 91 58 92
REMARK H PARENT 13 10 2 20 82 45 50 56
REMARK Flexibility Score: inf
ROOT
ATOM      1  C   UNL A   1      34.572  32.246  27.893  1.00  0.00     0.332 C 
ATOM      2  O   UNL A   1      35.760  32.452  27.661  1.00  0.00    -0.250 OA
ENDROOT
BRANCH   1   3
ATOM      3  C   UNL A   1      33.908  30.890  27.600  1.00  0.00     0.282 C 
BRANCH   3   4
ATOM      4  O   UNL A   1      34.596  29.657  27.685  1.00  0.00    -0.368 OA
BRANCH   4   5
ATOM      5  C   UNL A   1      33.879  28.503  27.236  1.00  0.00     0.182 C 
BRANCH   5   6
ATOM      6  C   UNL A   1      32.346  28.647  27.288  1.00  0.00     0.146 C 
BRANCH   6   7
ATOM      7  N   UNL A   1      31.610  27.431  26.981  1.00  0.00    -0.336 N 
ATOM      8  C   UNL A   1      31.054  26.833  25.928  1.00  0.00     0.318 C 
ATOM      9  O   UNL A   1      30.247  25.966  26.256  1.00  0.00    -0.249 OA
ATOM     10  H   UNL A   1      31.485  26.889  27.793  1.00  0.00     0.165 HD
BRANCH   8  11
ATOM     11  N   UNL A   1      31.340  27.027  24.620  1.00  0.00    -0.313 N 
ATOM     12  C   UNL A   1      32.262  26.049  23.956  1.00  0.00     0.176 C 
ATOM     13  C   UNL A   1      33.584  26.696  23.496  1.00  0.00     0.035 C 
ATOM     14  C   UNL A   1      33.456  28.112  22.948  1.00  0.00     0.004 C 
ATOM     15  C   UNL A   1      31.156  28.272  23.902  1.00  0.00     0.122 C 
ATOM     16  C   UNL A   1      32.508  28.965  23.778  1.00  0.00     0.022 C 
BRANCH  12  17
ATOM     17  C   UNL A   1      31.634  25.204  22.822  1.00  0.00     0.242 C 
ATOM     18  C   UNL A   1      31.400  23.104  24.278  1.00  0.00     0.142 C 
ATOM     19  N   UNL A   1      31.283  23.897  23.070  1.00  0.00    -0.357 N 
ATOM     20  H   UNL A   1      30.889  23.424  22.302  1.00  0.00     0.163 HD
ATOM     21  O   UNL A   1      31.479  25.629  21.675  1.00  0.00    -0.273 OA
ENDBRANCH  12  17
ENDBRANCH   8  11
ENDBRANCH   6   7
ENDBRANCH   5   6
ENDBRANCH   4   5
ENDBRANCH   3   4
ENDBRANCH   1   3
BRANCH   1  22
ATOM     22  O   UNL A   1      33.740  33.136  28.494  1.00  0.00    -0.460 OA
BRANCH  22  23
ATOM     23  C   UNL A   1      33.793  34.489  27.996  1.00  0.00     0.274 C 
BRANCH  23  24
ATOM     24  C   UNL A   1      33.473  35.521  29.089  1.00  0.00     0.275 C 
BRANCH  24  25
ATOM     25  O   UNL A   1      32.733  34.956  30.197  1.00  0.00    -0.458 OA
BRANCH  25  26
ATOM     26  C   UNL A   1      32.767  35.724  31.303  1.00  0.00     0.338 C 
ATOM     27  O   UNL A   1      32.154  36.777  31.457  1.00  0.00    -0.246 OA
BRANCH  26  28
ATOM     28  C   UNL A   1      33.620  35.219  32.383  1.00  0.00     0.060 A 
ATOM     29  C   UNL A   1      34.898  35.774  32.536  1.00  0.00     0.016 A 
ATOM     30  C   UNL A   1      33.337  33.947  32.885  1.00  0.00     0.016 A 
ATOM     31  C   UNL A   1      35.938  34.994  33.055  1.00  0.00     0.010 A 
ATOM     32  C   UNL A   1      34.376  33.180  33.421  1.00  0.00     0.010 A 
ATOM     33  C   UNL A   1      35.701  33.659  33.424  1.00  0.00    -0.014 A 
BRANCH  33  34
ATOM     34  C   UNL A   1      36.775  32.791  33.963  1.00  0.00     0.031 A 
ATOM     35  C   UNL A   1      37.454  32.996  35.292  1.00  0.00     0.074 A 
ATOM     36  C   UNL A   1      37.221  31.841  33.133  1.00  0.00     0.049 A 
ATOM     37  N   UNL A   1      38.674  32.677  35.661  1.00  0.00    -0.248 NA
ATOM     38  C   UNL A   1      36.676  33.626  36.355  1.00  0.00     0.031 C 
ATOM     39  C   UNL A   1      36.601  31.500  31.856  1.00  0.00     0.029 A 
ATOM     40  N   UNL A   1      38.311  31.025  33.225  1.00  0.00    -0.354 N 
ATOM     41  C   UNL A   1      38.840  33.195  36.946  1.00  0.00     0.074 A 
ATOM     42  C   UNL A   1      37.578  33.790  37.316  1.00  0.00     0.031 C 
ATOM     43  C   UNL A   1      37.342  30.562  31.258  1.00  0.00     0.029 A 
ATOM     44  C   UNL A   1      38.511  30.292  32.088  1.00  0.00     0.049 A 
ATOM     45  H   UNL A   1      38.888  30.970  34.022  1.00  0.00     0.167 HD
ATOM     46  C   UNL A   1      39.950  33.161  37.729  1.00  0.00     0.037 A 
ATOM     47  C   UNL A   1      39.549  29.522  31.731  1.00  0.00     0.037 A 
ATOM     48  C   UNL A   1      41.095  32.329  37.433  1.00  0.00     0.049 A 
ATOM     49  C   UNL A   1      40.687  29.353  32.680  1.00  0.00     0.074 A 
ATOM     50  C   UNL A   1      42.233  32.114  38.195  1.00  0.00     0.029 A 
ATOM     51  N   UNL A   1      41.206  31.514  36.316  1.00  0.00    -0.354 N 
ATOM     52  N   UNL A   1      40.924  29.987  33.803  1.00  0.00    -0.248 NA
ATOM     53  C   UNL A   1      41.688  28.343  32.328  1.00  0.00     0.031 C 
ATOM     54  C   UNL A   1      43.033  31.174  37.536  1.00  0.00     0.029 A 
ATOM     55  C   UNL A   1      42.374  30.772  36.385  1.00  0.00     0.049 A 
ATOM     56  H   UNL A   1      40.552  31.469  35.582  1.00  0.00     0.167 HD
ATOM     57  C   UNL A   1      42.095  29.444  34.304  1.00  0.00     0.074 A 
ATOM     58  C   UNL A   1      42.509  28.416  33.366  1.00  0.00     0.031 C 
ATOM     59  C   UNL A   1      42.767  29.765  35.436  1.00  0.00     0.037 A 
BRANCH  46  60
ATOM     60  C   UNL A   1      40.031  34.021  38.969  1.00  0.00     0.064 A 
ATOM     61  C   UNL A   1      40.534  35.328  38.975  1.00  0.00     0.173 A 
ATOM     62  C   UNL A   1      39.445  33.553  40.163  1.00  0.00     0.173 A 
ATOM     63  F   UNL A   1      41.097  35.842  37.871  1.00  0.00    -0.203 F 
ATOM     64  C   UNL A   1      40.455  36.127  40.119  1.00  0.00     0.198 A 
ATOM     65  C   UNL A   1      39.334  34.365  41.290  1.00  0.00     0.198 A 
ATOM     66  F   UNL A   1      38.933  32.313  40.223  1.00  0.00    -0.203 F 
ATOM     67  F   UNL A   1      40.964  37.367  40.104  1.00  0.00    -0.200 F 
ATOM     68  C   UNL A   1      39.841  35.652  41.268  1.00  0.00     0.200 A 
ATOM     69  F   UNL A   1      38.711  33.910  42.386  1.00  0.00    -0.200 F 
ATOM     70  F   UNL A   1      39.730  36.438  42.349  1.00  0.00    -0.200 F 
ENDBRANCH  46  60
BRANCH  47  71
ATOM     71  C   UNL A   1      39.467  28.837  30.426  1.00  0.00     0.064 A 
ATOM     72  C   UNL A   1      39.999  29.446  29.284  1.00  0.00     0.173 A 
ATOM     73  C   UNL A   1      39.059  27.498  30.338  1.00  0.00     0.173 A 
ATOM     74  F   UNL A   1      40.408  30.723  29.338  1.00  0.00    -0.203 F 
ATOM     75  C   UNL A   1      40.144  28.733  28.101  1.00  0.00     0.198 A 
ATOM     76  C   UNL A   1      39.227  26.779  29.159  1.00  0.00     0.198 A 
ATOM     77  F   UNL A   1      38.582  26.867  31.423  1.00  0.00    -0.203 F 
ATOM     78  F   UNL A   1      40.674  29.330  27.024  1.00  0.00    -0.200 F 
ATOM     79  C   UNL A   1      39.775  27.396  28.043  1.00  0.00     0.200 A 
ATOM     80  F   UNL A   1      38.905  25.480  29.117  1.00  0.00    -0.200 F 
ATOM     81  F   UNL A   1      39.965  26.697  26.917  1.00  0.00    -0.200 F 
ENDBRANCH  47  71
BRANCH  59  82
ATOM     82  C   UNL A   1      44.002  28.968  35.726  1.00  0.00     0.064 A 
ATOM     83  C   UNL A   1      45.257  29.369  35.247  1.00  0.00     0.173 A 
ATOM     84  C   UNL A   1      43.922  27.785  36.475  1.00  0.00     0.173 A 
ATOM     85  F   UNL A   1      45.375  30.487  34.516  1.00  0.00    -0.203 F 
ATOM     86  C   UNL A   1      46.386  28.588  35.473  1.00  0.00     0.198 A 
ATOM     87  C   UNL A   1      45.058  27.020  36.719  1.00  0.00     0.198 A 
ATOM     88  F   UNL A   1      42.744  27.369  36.961  1.00  0.00    -0.203 F 
ATOM     89  F   UNL A   1      47.565  28.955  34.955  1.00  0.00    -0.200 F 
ATOM     90  C   UNL A   1      46.286  27.415  36.207  1.00  0.00     0.200 A 
ATOM     91  F   UNL A   1      44.962  25.891  37.434  1.00  0.00    -0.200 F 
ATOM     92  F   UNL A   1      47.371  26.657  36.410  1.00  0.00    -0.200 F 
ENDBRANCH  59  82
ENDBRANCH  33  34
ENDBRANCH  26  28
ENDBRANCH  25  26
ENDBRANCH  24  25
ENDBRANCH  23  24
ENDBRANCH  22  23
ENDBRANCH   1  22
TORSDOF 17
ENDMDL
MODEL 2
REMARK VINA RESULT:     -10.9      0.773      1.242
REMARK SMILES CNC(=O)[C@H]1CCCCN1C(=O)NCCOCC(=O)OCCOC(=O)c1ccc(-c2c3nc(c(-c4c(F)c(F)c(F)c(F)c4F)c4ccc([nH]4)c(-c4c(F)c(F)c(F)c(F)c4F)c4nc(c(-c5c(F)c(F)c(F)c(F)c5F)c5ccc2[nH]5)C=C4)C=C3)cc1
REMARK SMILES IDX 18 1 19 2 17 3 16 4 15 5 14 6 13 7 11 8 12 9 10 11 5 12 6 13
REMARK SMILES IDX 7 14 9 15 8 16 3 17 1 18 2 19 4 21 20 22 21 23 22 24 23 25
REMARK SMILES IDX 24 26 25 27 26 28 27 29 88 30 28 31 87 32 29 33 30 34 31 35
REMARK SMILES IDX 81 36 32 37 86 38 80 39 82 40 33 41 85 42 79 43 78 44 34 46
REMARK SMILES IDX 66 47 46 48 65 49 47 50 50 51 64 52 83 53 48 54 49 55 63 57
REMARK SMILES IDX 84 58 51 59 35 60 36 61 44 62 37 63 38 64 42 65 45 66 39 67
REMARK SMILES IDX 40 68 43 69 41 70 67 71 68 72 76 73 69 74 70 75 74 76 77 77
REMARK SMILES IDX 71 78 72 79 75 80 73 81 52 82 53 83 61 84 54 85 55 86 59 87
REMARK SMILES IDX 62 88 56 89 57 90 60 91 58 92
REMARK H PARENT 13 10 2 20 82 45 50 56
REMARK Flexibility Score: inf
ROOT
ATOM      1  C   UNL A   1      35.013  32.456  28.255  1.00  0.00     0.332 C 
ATOM      2  O   UNL A   1      36.168  32.847  28.396  1.00  0.00    -0.250 OA
ENDROOT
BRANCH   1   3
ATOM      3  C   UNL A   1      34.688  31.048  27.730  1.00  0.00     0.282 C 
BRANCH   3   4
ATOM      4  O   UNL A   1      33.381  30.632  27.384  1.00  0.00    -0.368 OA
BRANCH   4   5
ATOM      5  C   UNL A   1      33.281  29.394  26.672  1.00  0.00     0.182 C 
BRANCH   5   6
ATOM      6  C   UNL A   1      31.835  28.937  26.396  1.00  0.00     0.146 C 
BRANCH   6   7
ATOM      7  N   UNL A   1      31.603  27.513  26.578  1.00  0.00    -0.336 N 
ATOM      8  C   UNL A   1      31.830  26.369  25.935  1.00  0.00     0.318 C 
ATOM      9  O   UNL A   1      31.131  25.450  26.356  1.00  0.00    -0.249 OA
ATOM     10  H   UNL A   1      31.139  27.345  27.430  1.00  0.00     0.165 HD
BRANCH   8  11
ATOM     11  N   UNL A   1      32.756  26.127  24.979  1.00  0.00    -0.313 N 
ATOM     12  C   UNL A   1      32.266  25.794  23.602  1.00  0.00     0.176 C 
ATOM     13  C   UNL A   1      32.637  24.361  23.168  1.00  0.00     0.035 C 
ATOM     14  C   UNL A   1      34.010  23.882  23.622  1.00  0.00     0.004 C 
ATOM     15  C   UNL A   1      34.141  25.787  25.228  1.00  0.00     0.122 C 
ATOM     16  C   UNL A   1      34.311  24.282  25.058  1.00  0.00     0.022 C 
BRANCH  12  17
ATOM     17  C   UNL A   1      32.627  26.818  22.499  1.00  0.00     0.242 C 
ATOM     18  C   UNL A   1      30.370  28.031  22.642  1.00  0.00     0.142 C 
ATOM     19  N   UNL A   1      31.708  27.778  22.145  1.00  0.00    -0.357 N 
ATOM     20  H   UNL A   1      32.009  28.395  21.438  1.00  0.00     0.163 HD
ATOM     21  O   UNL A   1      33.689  26.785  21.874  1.00  0.00    -0.273 OA
ENDBRANCH  12  17
ENDBRANCH   8  11
ENDBRANCH   6   7
ENDBRANCH   5   6
ENDBRANCH   4   5
ENDBRANCH   3   4
ENDBRANCH   1   3
BRANCH   1  22
ATOM     22  O   UNL A   1      33.911  33.167  28.612  1.00  0.00    -0.460 OA
BRANCH  22  23
ATOM     23  C   UNL A   1      33.790  34.482  28.029  1.00  0.00     0.274 C 
BRANCH  23  24
ATOM     24  C   UNL A   1      33.304  35.523  29.049  1.00  0.00     0.275 C 
BRANCH  24  25
ATOM     25  O   UNL A   1      32.749  34.925  30.244  1.00  0.00    -0.458 OA
BRANCH  25  26
ATOM     26  C   UNL A   1      32.837  35.723  31.325  1.00  0.00     0.338 C 
ATOM     27  O   UNL A   1      32.260  36.798  31.464  1.00  0.00    -0.246 OA
BRANCH  26  28
ATOM     28  C   UNL A   1      33.703  35.223  32.398  1.00  0.00     0.060 A 
ATOM     29  C   UNL A   1      34.990  35.766  32.520  1.00  0.00     0.016 A 
ATOM     30  C   UNL A   1      33.416  33.962  32.921  1.00  0.00     0.016 A 
ATOM     31  C   UNL A   1      36.030  34.982  33.031  1.00  0.00     0.010 A 
ATOM     32  C   UNL A   1      34.456  33.190  33.449  1.00  0.00     0.010 A 
ATOM     33  C   UNL A   1      35.785  33.655  33.423  1.00  0.00    -0.014 A 
BRANCH  33  34
ATOM     34  C   UNL A   1      36.860  32.783  33.954  1.00  0.00     0.031 A 
ATOM     35  C   UNL A   1      37.547  32.983  35.279  1.00  0.00     0.074 A 
ATOM     36  C   UNL A   1      37.297  31.832  33.121  1.00  0.00     0.049 A 
ATOM     37  N   UNL A   1      38.768  32.660  35.642  1.00  0.00    -0.248 NA
ATOM     38  C   UNL A   1      36.777  33.615  36.348  1.00  0.00     0.031 C 
ATOM     39  C   UNL A   1      36.669  31.495  31.847  1.00  0.00     0.029 A 
ATOM     40  N   UNL A   1      38.385  31.012  33.206  1.00  0.00    -0.354 N 
ATOM     41  C   UNL A   1      38.944  33.176  36.926  1.00  0.00     0.074 A 
ATOM     42  C   UNL A   1      37.685  33.775  37.304  1.00  0.00     0.031 C 
ATOM     43  C   UNL A   1      37.403  30.555  31.243  1.00  0.00     0.029 A 
ATOM     44  C   UNL A   1      38.576  30.280  32.067  1.00  0.00     0.049 A 
ATOM     45  H   UNL A   1      38.967  30.954  33.999  1.00  0.00     0.167 HD
ATOM     46  C   UNL A   1      40.058  33.137  37.702  1.00  0.00     0.037 A 
ATOM     47  C   UNL A   1      39.609  29.506  31.703  1.00  0.00     0.037 A 
ATOM     48  C   UNL A   1      41.198  32.302  37.399  1.00  0.00     0.049 A 
ATOM     49  C   UNL A   1      40.753  29.332  32.645  1.00  0.00     0.074 A 
ATOM     50  C   UNL A   1      42.339  32.081  38.154  1.00  0.00     0.029 A 
ATOM     51  N   UNL A   1      41.300  31.487  36.280  1.00  0.00    -0.354 N 
ATOM     52  N   UNL A   1      40.998  29.964  33.767  1.00  0.00    -0.248 NA
ATOM     53  C   UNL A   1      41.748  28.320  32.286  1.00  0.00     0.031 C 
ATOM     54  C   UNL A   1      43.133  31.139  37.489  1.00  0.00     0.029 A 
ATOM     55  C   UNL A   1      42.466  30.741  36.342  1.00  0.00     0.049 A 
ATOM     56  H   UNL A   1      40.641  31.446  35.550  1.00  0.00     0.167 HD
ATOM     57  C   UNL A   1      42.170  29.417  34.260  1.00  0.00     0.074 A 
ATOM     58  C   UNL A   1      42.575  28.389  33.320  1.00  0.00     0.031 C 
ATOM     59  C   UNL A   1      42.850  29.734  35.389  1.00  0.00     0.037 A 
BRANCH  46  60
ATOM     60  C   UNL A   1      40.149  33.995  38.943  1.00  0.00     0.064 A 
ATOM     61  C   UNL A   1      40.654  35.302  38.947  1.00  0.00     0.173 A 
ATOM     62  C   UNL A   1      39.570  33.527  40.140  1.00  0.00     0.173 A 
ATOM     63  F   UNL A   1      41.212  35.816  37.840  1.00  0.00    -0.203 F 
ATOM     64  C   UNL A   1      40.585  36.099  40.093  1.00  0.00     0.198 A 
ATOM     65  C   UNL A   1      39.468  34.338  41.269  1.00  0.00     0.198 A 
ATOM     66  F   UNL A   1      39.056  32.288  40.202  1.00  0.00    -0.203 F 
ATOM     67  F   UNL A   1      41.096  37.338  40.076  1.00  0.00    -0.200 F 
ATOM     68  C   UNL A   1      39.978  35.624  41.245  1.00  0.00     0.200 A 
ATOM     69  F   UNL A   1      38.852  33.882  42.369  1.00  0.00    -0.200 F 
ATOM     70  F   UNL A   1      39.876  36.408  42.328  1.00  0.00    -0.200 F 
ENDBRANCH  46  60
BRANCH  47  71
ATOM     71  C   UNL A   1      39.518  28.823  30.398  1.00  0.00     0.064 A 
ATOM     72  C   UNL A   1      40.049  29.430  29.254  1.00  0.00     0.173 A 
ATOM     73  C   UNL A   1      39.100  27.487  30.310  1.00  0.00     0.173 A 
ATOM     74  F   UNL A   1      40.466  30.704  29.307  1.00  0.00    -0.203 F 
ATOM     75  C   UNL A   1      40.185  28.717  28.069  1.00  0.00     0.198 A 
ATOM     76  C   UNL A   1      39.259  26.768  29.130  1.00  0.00     0.198 A 
ATOM     77  F   UNL A   1      38.624  26.859  31.397  1.00  0.00    -0.203 F 
ATOM     78  F   UNL A   1      40.713  29.312  26.991  1.00  0.00    -0.200 F 
ATOM     79  C   UNL A   1      39.806  27.383  28.012  1.00  0.00     0.200 A 
ATOM     80  F   UNL A   1      38.928  25.471  29.088  1.00  0.00    -0.200 F 
ATOM     81  F   UNL A   1      39.987  26.684  26.884  1.00  0.00    -0.200 F 
ENDBRANCH  47  71
BRANCH  59  82
ATOM     82  C   UNL A   1      44.083  28.933  35.671  1.00  0.00     0.064 A 
ATOM     83  C   UNL A   1      45.336  29.325  35.179  1.00  0.00     0.173 A 
ATOM     84  C   UNL A   1      44.005  27.754  36.426  1.00  0.00     0.173 A 
ATOM     85  F   UNL A   1      45.452  30.440  34.441  1.00  0.00    -0.203 F 
ATOM     86  C   UNL A   1      46.463  28.540  35.398  1.00  0.00     0.198 A 
ATOM     87  C   UNL A   1      45.139  26.984  36.663  1.00  0.00     0.198 A 
ATOM     88  F   UNL A   1      42.829  27.345  36.924  1.00  0.00    -0.203 F 
ATOM     89  F   UNL A   1      47.639  28.900  34.867  1.00  0.00    -0.200 F 
ATOM     90  C   UNL A   1      46.365  27.371  36.138  1.00  0.00     0.200 A 
ATOM     91  F   UNL A   1      45.045  25.858  37.384  1.00  0.00    -0.200 F 
ATOM     92  F   UNL A   1      47.448  26.609  36.334  1.00  0.00    -0.200 F 
ENDBRANCH  59  82
ENDBRANCH  33  34
ENDBRANCH  26  28
ENDBRANCH  25  26
ENDBRANCH  24  25
ENDBRANCH  23  24
ENDBRANCH  22  23
ENDBRANCH   1  22
TORSDOF 17
ENDMDL
MODEL 3
REMARK VINA RESULT:     -10.7      3.174      8.736
REMARK SMILES CNC(=O)[C@H]1CCCCN1C(=O)NCCOCC(=O)OCCOC(=O)c1ccc(-c2c3nc(c(-c4c(F)c(F)c(F)c(F)c4F)c4ccc([nH]4)c(-c4c(F)c(F)c(F)c(F)c4F)c4nc(c(-c5c(F)c(F)c(F)c(F)c5F)c5ccc2[nH]5)C=C4)C=C3)cc1
REMARK SMILES IDX 18 1 19 2 17 3 16 4 15 5 14 6 13 7 11 8 12 9 10 11 5 12 6 13
REMARK SMILES IDX 7 14 9 15 8 16 3 17 1 18 2 19 4 21 20 22 21 23 22 24 23 25
REMARK SMILES IDX 24 26 25 27 26 28 27 29 88 30 28 31 87 32 29 33 30 34 31 35
REMARK SMILES IDX 81 36 32 37 86 38 80 39 82 40 33 41 85 42 79 43 78 44 34 46
REMARK SMILES IDX 66 47 46 48 65 49 47 50 50 51 64 52 83 53 48 54 49 55 63 57
REMARK SMILES IDX 84 58 51 59 35 60 36 61 44 62 37 63 38 64 42 65 45 66 39 67
REMARK SMILES IDX 40 68 43 69 41 70 67 71 68 72 76 73 69 74 70 75 74 76 77 77
REMARK SMILES IDX 71 78 72 79 75 80 73 81 52 82 53 83 61 84 54 85 55 86 59 87
REMARK SMILES IDX 62 88 56 89 57 90 60 91 58 92
REMARK H PARENT 13 10 2 20 82 45 50 56
REMARK Flexibility Score: inf
ROOT
ATOM      1  C   UNL A   1      31.419  26.758  26.307  1.00  0.00     0.332 C 
ATOM      2  O   UNL A   1      31.028  27.344  27.313  1.00  0.00    -0.250 OA
ENDROOT
BRANCH   1   3
ATOM      3  C   UNL A   1      31.388  25.225  26.195  1.00  0.00     0.282 C 
BRANCH   3   4
ATOM      4  O   UNL A   1      31.408  24.366  27.318  1.00  0.00    -0.368 OA
BRANCH   4   5
ATOM      5  C   UNL A   1      31.799  23.011  27.070  1.00  0.00     0.182 C 
BRANCH   5   6
ATOM      6  C   UNL A   1      31.351  22.462  25.702  1.00  0.00     0.146 C 
BRANCH   6   7
ATOM      7  N   UNL A   1      32.235  21.458  25.131  1.00  0.00    -0.336 N 
ATOM      8  C   UNL A   1      33.111  21.342  24.134  1.00  0.00     0.318 C 
ATOM      9  O   UNL A   1      33.351  20.169  23.858  1.00  0.00    -0.249 OA
ATOM     10  H   UNL A   1      32.164  20.612  25.629  1.00  0.00     0.165 HD
BRANCH   8  11
ATOM     11  N   UNL A   1      33.777  22.334  23.497  1.00  0.00    -0.313 N 
ATOM     12  C   UNL A   1      34.919  22.982  24.221  1.00  0.00     0.176 C 
ATOM     13  C   UNL A   1      34.658  24.470  24.531  1.00  0.00     0.035 C 
ATOM     14  C   UNL A   1      33.912  25.237  23.446  1.00  0.00     0.004 C 
ATOM     15  C   UNL A   1      33.273  23.081  22.365  1.00  0.00     0.122 C 
ATOM     16  C   UNL A   1      32.764  24.430  22.860  1.00  0.00     0.022 C 
BRANCH  12  17
ATOM     17  C   UNL A   1      36.313  22.786  23.580  1.00  0.00     0.242 C 
ATOM     18  C   UNL A   1      37.379  21.916  25.745  1.00  0.00     0.142 C 
ATOM     19  N   UNL A   1      37.346  22.302  24.349  1.00  0.00    -0.357 N 
ATOM     20  H   UNL A   1      38.202  22.202  23.872  1.00  0.00     0.163 HD
ATOM     21  O   UNL A   1      36.565  23.094  22.414  1.00  0.00    -0.273 OA
ENDBRANCH  12  17
ENDBRANCH   8  11
ENDBRANCH   6   7
ENDBRANCH   5   6
ENDBRANCH   4   5
ENDBRANCH   3   4
ENDBRANCH   1   3
BRANCH   1  22
ATOM     22  O   UNL A   1      31.838  27.375  25.171  1.00  0.00    -0.460 OA
BRANCH  22  23
ATOM     23  C   UNL A   1      31.601  28.796  25.099  1.00  0.00     0.274 C 
BRANCH  23  24
ATOM     24  C   UNL A   1      32.899  29.587  24.864  1.00  0.00     0.275 C 
BRANCH  24  25
ATOM     25  O   UNL A   1      33.805  29.529  25.991  1.00  0.00    -0.458 OA
BRANCH  25  26
ATOM     26  C   UNL A   1      33.583  30.498  26.899  1.00  0.00     0.338 C 
ATOM     27  O   UNL A   1      32.592  31.224  26.937  1.00  0.00    -0.246 OA
BRANCH  26  28
ATOM     28  C   UNL A   1      34.639  30.662  27.903  1.00  0.00     0.060 A 
ATOM     29  C   UNL A   1      35.600  31.663  27.699  1.00  0.00     0.016 A 
ATOM     30  C   UNL A   1      34.919  29.571  28.726  1.00  0.00     0.016 A 
ATOM     31  C   UNL A   1      36.897  31.493  28.197  1.00  0.00     0.010 A 
ATOM     32  C   UNL A   1      36.212  29.416  29.236  1.00  0.00     0.010 A 
ATOM     33  C   UNL A   1      37.234  30.324  28.900  1.00  0.00    -0.014 A 
BRANCH  33  34
ATOM     34  C   UNL A   1      38.600  30.095  29.430  1.00  0.00     0.031 A 
ATOM     35  C   UNL A   1      39.619  29.179  28.804  1.00  0.00     0.074 A 
ATOM     36  C   UNL A   1      38.865  30.671  30.608  1.00  0.00     0.049 A 
ATOM     37  N   UNL A   1      40.593  28.505  29.372  1.00  0.00    -0.248 NA
ATOM     38  C   UNL A   1      39.557  28.995  27.356  1.00  0.00     0.031 C 
ATOM     39  C   UNL A   1      37.991  31.631  31.277  1.00  0.00     0.029 A 
ATOM     40  N   UNL A   1      39.919  30.502  31.459  1.00  0.00    -0.354 N 
ATOM     41  C   UNL A   1      41.161  27.720  28.368  1.00  0.00     0.074 A 
ATOM     42  C   UNL A   1      40.465  28.048  27.146  1.00  0.00     0.031 C 
ATOM     43  C   UNL A   1      38.527  31.946  32.459  1.00  0.00     0.029 A 
ATOM     44  C   UNL A   1      39.744  31.161  32.644  1.00  0.00     0.049 A 
ATOM     45  H   UNL A   1      40.717  29.966  31.243  1.00  0.00     0.167 HD
ATOM     46  C   UNL A   1      42.171  26.819  28.477  1.00  0.00     0.037 A 
ATOM     47  C   UNL A   1      40.459  31.102  33.777  1.00  0.00     0.037 A 
ATOM     48  C   UNL A   1      43.012  26.717  29.649  1.00  0.00     0.049 A 
ATOM     49  C   UNL A   1      41.674  30.238  33.824  1.00  0.00     0.074 A 
ATOM     50  C   UNL A   1      44.135  25.931  29.847  1.00  0.00     0.029 A 
ATOM     51  N   UNL A   1      42.861  27.489  30.792  1.00  0.00    -0.354 N 
ATOM     52  N   UNL A   1      42.095  29.361  32.945  1.00  0.00    -0.248 NA
ATOM     53  C   UNL A   1      42.526  30.372  35.007  1.00  0.00     0.031 C 
ATOM     54  C   UNL A   1      44.660  26.223  31.111  1.00  0.00     0.029 A 
ATOM     55  C   UNL A   1      43.889  27.222  31.682  1.00  0.00     0.049 A 
ATOM     56  H   UNL A   1      42.132  28.132  30.947  1.00  0.00     0.167 HD
ATOM     57  C   UNL A   1      43.273  28.847  33.458  1.00  0.00     0.074 A 
ATOM     58  C   UNL A   1      43.505  29.525  34.720  1.00  0.00     0.031 C 
ATOM     59  C   UNL A   1      44.091  27.902  32.934  1.00  0.00     0.037 A 
BRANCH  46  60
ATOM     60  C   UNL A   1      42.457  25.858  27.345  1.00  0.00     0.064 A 
ATOM     61  C   UNL A   1      43.493  26.035  26.420  1.00  0.00     0.173 A 
ATOM     62  C   UNL A   1      41.744  24.643  27.286  1.00  0.00     0.173 A 
ATOM     63  F   UNL A   1      44.219  27.164  26.424  1.00  0.00    -0.203 F 
ATOM     64  C   UNL A   1      43.801  25.046  25.482  1.00  0.00     0.198 A 
ATOM     65  C   UNL A   1      42.079  23.643  26.375  1.00  0.00     0.198 A 
ATOM     66  F   UNL A   1      40.746  24.403  28.152  1.00  0.00    -0.203 F 
ATOM     67  F   UNL A   1      44.784  25.251  24.594  1.00  0.00    -0.200 F 
ATOM     68  C   UNL A   1      43.106  23.846  25.471  1.00  0.00     0.200 A 
ATOM     69  F   UNL A   1      41.423  22.473  26.391  1.00  0.00    -0.200 F 
ATOM     70  F   UNL A   1      43.434  22.884  24.597  1.00  0.00    -0.200 F 
ENDBRANCH  46  60
BRANCH  47  71
ATOM     71  C   UNL A   1      40.022  31.955  34.900  1.00  0.00     0.064 A 
ATOM     72  C   UNL A   1      40.362  33.312  34.919  1.00  0.00     0.173 A 
ATOM     73  C   UNL A   1      39.094  31.488  35.842  1.00  0.00     0.173 A 
ATOM     74  F   UNL A   1      41.239  33.793  34.024  1.00  0.00    -0.203 F 
ATOM     75  C   UNL A   1      39.775  34.180  35.831  1.00  0.00     0.198 A 
ATOM     76  C   UNL A   1      38.490  32.362  36.739  1.00  0.00     0.198 A 
ATOM     77  F   UNL A   1      38.712  30.201  35.828  1.00  0.00    -0.203 F 
ATOM     78  F   UNL A   1      40.101  35.479  35.819  1.00  0.00    -0.200 F 
ATOM     79  C   UNL A   1      38.827  33.709  36.729  1.00  0.00     0.200 A 
ATOM     80  F   UNL A   1      37.549  31.913  37.579  1.00  0.00    -0.200 F 
ATOM     81  F   UNL A   1      38.224  34.557  37.572  1.00  0.00    -0.200 F 
ENDBRANCH  47  71
BRANCH  59  82
ATOM     82  C   UNL A   1      45.322  27.576  33.721  1.00  0.00     0.064 A 
ATOM     83  C   UNL A   1      46.525  28.265  33.512  1.00  0.00     0.173 A 
ATOM     84  C   UNL A   1      45.300  26.554  34.681  1.00  0.00     0.173 A 
ATOM     85  F   UNL A   1      46.593  29.241  32.594  1.00  0.00    -0.203 F 
ATOM     86  C   UNL A   1      47.676  27.912  34.207  1.00  0.00     0.198 A 
ATOM     87  C   UNL A   1      46.448  26.220  35.392  1.00  0.00     0.198 A 
ATOM     88  F   UNL A   1      44.169  25.875  34.922  1.00  0.00    -0.203 F 
ATOM     89  F   UNL A   1      48.831  28.540  33.948  1.00  0.00    -0.200 F 
ATOM     90  C   UNL A   1      47.638  26.890  35.145  1.00  0.00     0.200 A 
ATOM     91  F   UNL A   1      46.408  25.238  36.303  1.00  0.00    -0.200 F 
ATOM     92  F   UNL A   1      48.752  26.542  35.803  1.00  0.00    -0.200 F 
ENDBRANCH  59  82
ENDBRANCH  33  34
ENDBRANCH  26  28
ENDBRANCH  25  26
ENDBRANCH  24  25
ENDBRANCH  23  24
ENDBRANCH  22  23
ENDBRANCH   1  22
TORSDOF 17
ENDMDL
