MODEL 1
REMARK VINA RESULT:     -13.9      0.000      0.000
REMARK SMILES CCC[C@@](C)(NC(=O)N1CCN(C)C(=O)C1(C)C)C(=O)OCCOC(=O)c1ccc(-c2c3nc(c(-c4c(F)c(F)c(F)c(F)c4F)c4ccc([nH]4)c(-c4c(F)c(F)c(F)c(F)c4F)c4nc(c(-c5c(F)c(F)c(F)c(F)c5F)c5ccc2[nH]5)C=C4)C=C3)cc1
REMARK SMILES IDX 22 1 21 2 19 3 20 4 4 5 5 6 3 7 2 8 1 9 6 10 7 11 8 13 9 14
REMARK SMILES IDX 10 15 16 16 11 17 14 18 17 19 18 20 12 21 15 22 13 23 23 24
REMARK SMILES IDX 24 25 25 26 26 27 27 28 28 29 89 30 29 31 88 32 30 33 31 34
REMARK SMILES IDX 32 35 82 36 33 37 87 38 81 39 83 40 34 41 86 42 80 43 79 44
REMARK SMILES IDX 35 46 67 47 47 48 66 49 48 50 51 51 65 52 84 53 49 54 50 55
REMARK SMILES IDX 64 57 85 58 52 59 36 60 37 61 45 62 38 63 39 64 43 65 46 66
REMARK SMILES IDX 40 67 41 68 44 69 42 70 68 71 69 72 77 73 70 74 71 75 75 76
REMARK SMILES IDX 78 77 72 78 73 79 76 80 74 81 53 82 54 83 62 84 55 85 56 86
REMARK SMILES IDX 60 87 63 88 57 89 58 90 61 91 59 92
REMARK H PARENT 6 12 83 45 51 56
REMARK Flexibility Score: inf
ROOT
ATOM      1  C   UNL A   1      31.537  30.614  25.505  1.00  0.00     0.274 C 
ENDROOT
BRANCH   1   2
ATOM      2  O   UNL A   1      32.147  29.375  26.687  1.00  0.00    -0.460 OA
BRANCH   2   3
ATOM      3  C   UNL A   1      31.773  27.995  27.029  1.00  0.00     0.331 C 
ATOM      4  O   UNL A   1      31.149  27.747  28.058  1.00  0.00    -0.249 OA
BRANCH   3   5
ATOM      5  C   UNL A   1      31.659  26.731  26.021  1.00  0.00     0.136 C 
ATOM      6  C   UNL A   1      30.714  26.909  24.788  1.00  0.00     0.047 C 
BRANCH   5   7
ATOM      7  C   UNL A   1      33.066  26.629  25.215  1.00  0.00     0.040 C 
BRANCH   7   8
ATOM      8  C   UNL A   1      33.269  27.245  23.781  1.00  0.00    -0.000 C 
ATOM      9  C   UNL A   1      34.036  28.535  23.435  1.00  0.00     0.004 C 
ENDBRANCH   7   8
ENDBRANCH   5   7
BRANCH   5  10
ATOM     10  N   UNL A   1      31.505  25.243  26.740  1.00  0.00    -0.322 N 
ATOM     11  C   UNL A   1      31.837  23.877  26.644  1.00  0.00     0.319 C 
ATOM     12  H   UNL A   1      30.967  25.362  27.556  1.00  0.00     0.166 HD
ATOM     13  O   UNL A   1      31.328  23.111  27.465  1.00  0.00    -0.249 OA
BRANCH  11  14
ATOM     14  N   UNL A   1      32.752  23.401  25.714  1.00  0.00    -0.309 N 
ATOM     15  C   UNL A   1      34.545  23.196  25.932  1.00  0.00     0.144 C 
ATOM     16  C   UNL A   1      32.134  22.497  24.623  1.00  0.00     0.118 C 
ATOM     17  C   UNL A   1      35.332  21.406  25.810  1.00  0.00     0.140 C 
ATOM     18  C   UNL A   1      32.498  20.393  24.894  1.00  0.00     0.247 C 
ATOM     19  C   UNL A   1      30.781  23.410  24.026  1.00  0.00     0.045 C 
ATOM     20  C   UNL A   1      32.843  23.573  23.253  1.00  0.00     0.045 C 
ATOM     21  N   UNL A   1      34.234  20.003  25.298  1.00  0.00    -0.342 N 
ATOM     22  O   UNL A   1      32.002  19.341  24.442  1.00  0.00    -0.272 OA
ATOM     23  C   UNL A   1      34.798  18.819  24.641  1.00  0.00     0.146 C 
ENDBRANCH  11  14
ENDBRANCH   5  10
ENDBRANCH   3   5
ENDBRANCH   2   3
ENDBRANCH   1   2
BRANCH   1  24
ATOM     24  C   UNL A   1      30.954  32.346  26.224  1.00  0.00     0.275 C 
BRANCH  24  25
ATOM     25  O   UNL A   1      32.329  33.156  27.414  1.00  0.00    -0.458 OA
BRANCH  25  26
ATOM     26  C   UNL A   1      33.592  33.475  28.063  1.00  0.00     0.338 C 
ATOM     27  O   UNL A   1      33.637  34.493  28.773  1.00  0.00    -0.246 OA
BRANCH  26  28
ATOM     28  C   UNL A   1      34.962  32.857  28.035  1.00  0.00     0.060 A 
ATOM     29  C   UNL A   1      34.941  31.630  28.674  1.00  0.00     0.016 A 
ATOM     30  C   UNL A   1      36.172  33.546  28.138  1.00  0.00     0.016 A 
ATOM     31  C   UNL A   1      35.959  31.082  29.430  1.00  0.00     0.010 A 
ATOM     32  C   UNL A   1      37.295  32.950  28.796  1.00  0.00     0.010 A 
ATOM     33  C   UNL A   1      37.184  31.712  29.462  1.00  0.00    -0.014 A 
BRANCH  33  34
ATOM     34  C   UNL A   1      38.230  31.029  30.267  1.00  0.00     0.031 A 
ATOM     35  C   UNL A   1      39.195  30.090  29.612  1.00  0.00     0.074 A 
ATOM     36  C   UNL A   1      38.435  31.418  31.544  1.00  0.00     0.049 A 
ATOM     37  N   UNL A   1      40.184  29.419  30.144  1.00  0.00    -0.248 NA
ATOM     38  C   UNL A   1      39.032  29.882  28.168  1.00  0.00     0.031 C 
ATOM     39  C   UNL A   1      37.651  32.444  32.241  1.00  0.00     0.029 A 
ATOM     40  N   UNL A   1      39.373  31.043  32.474  1.00  0.00    -0.354 N 
ATOM     41  C   UNL A   1      40.734  28.677  29.109  1.00  0.00     0.074 A 
ATOM     42  C   UNL A   1      39.958  28.967  27.922  1.00  0.00     0.031 C 
ATOM     43  C   UNL A   1      38.151  32.631  33.469  1.00  0.00     0.029 A 
ATOM     44  C   UNL A   1      39.224  31.673  33.687  1.00  0.00     0.049 A 
ATOM     45  H   UNL A   1      40.084  30.387  32.290  1.00  0.00     0.167 HD
ATOM     46  C   UNL A   1      41.785  27.827  29.161  1.00  0.00     0.037 A 
ATOM     47  C   UNL A   1      39.842  31.463  34.863  1.00  0.00     0.037 A 
ATOM     48  C   UNL A   1      42.535  27.552  30.359  1.00  0.00     0.049 A 
ATOM     49  C   UNL A   1      40.916  30.415  34.919  1.00  0.00     0.074 A 
ATOM     50  C   UNL A   1      43.603  26.690  30.527  1.00  0.00     0.029 A 
ATOM     51  N   UNL A   1      42.281  28.120  31.601  1.00  0.00    -0.354 N 
ATOM     52  N   UNL A   1      41.397  29.673  33.951  1.00  0.00    -0.248 NA
ATOM     53  C   UNL A   1      41.534  30.175  36.227  1.00  0.00     0.031 C 
ATOM     54  C   UNL A   1      43.918  26.650  31.888  1.00  0.00     0.029 A 
ATOM     55  C   UNL A   1      43.139  27.586  32.549  1.00  0.00     0.049 A 
ATOM     56  H   UNL A   1      41.593  28.802  31.781  1.00  0.00     0.167 HD
ATOM     57  C   UNL A   1      42.399  28.904  34.521  1.00  0.00     0.074 A 
ATOM     58  C   UNL A   1      42.468  29.292  35.916  1.00  0.00     0.031 C 
ATOM     59  C   UNL A   1      43.193  27.971  33.939  1.00  0.00     0.037 A 
BRANCH  46  60
ATOM     60  C   UNL A   1      42.111  27.055  27.914  1.00  0.00     0.064 A 
ATOM     61  C   UNL A   1      41.523  25.818  27.614  1.00  0.00     0.173 A 
ATOM     62  C   UNL A   1      43.047  27.572  27.004  1.00  0.00     0.173 A 
ATOM     63  F   UNL A   1      40.626  25.272  28.450  1.00  0.00    -0.203 F 
ATOM     64  C   UNL A   1      41.901  25.103  26.479  1.00  0.00     0.198 A 
ATOM     65  C   UNL A   1      43.381  26.883  25.844  1.00  0.00     0.198 A 
ATOM     66  F   UNL A   1      43.640  28.753  27.238  1.00  0.00    -0.203 F 
ATOM     67  F   UNL A   1      41.395  23.882  26.261  1.00  0.00    -0.200 F 
ATOM     68  C   UNL A   1      42.823  25.640  25.593  1.00  0.00     0.200 A 
ATOM     69  F   UNL A   1      44.251  27.417  24.977  1.00  0.00    -0.200 F 
ATOM     70  F   UNL A   1      43.181  24.954  24.499  1.00  0.00    -0.200 F 
ENDBRANCH  46  60
BRANCH  47  71
ATOM     71  C   UNL A   1      39.412  32.199  36.083  1.00  0.00     0.064 A 
ATOM     72  C   UNL A   1      38.399  31.711  36.919  1.00  0.00     0.173 A 
ATOM     73  C   UNL A   1      39.991  33.434  36.421  1.00  0.00     0.173 A 
ATOM     74  F   UNL A   1      37.796  30.547  36.634  1.00  0.00    -0.203 F 
ATOM     75  C   UNL A   1      37.959  32.442  38.022  1.00  0.00     0.198 A 
ATOM     76  C   UNL A   1      39.587  34.139  37.551  1.00  0.00     0.198 A 
ATOM     77  F   UNL A   1      40.960  33.956  35.655  1.00  0.00    -0.203 F 
ATOM     78  F   UNL A   1      36.937  31.988  38.758  1.00  0.00    -0.200 F 
ATOM     79  C   UNL A   1      38.561  33.650  38.342  1.00  0.00     0.200 A 
ATOM     80  F   UNL A   1      40.187  35.294  37.867  1.00  0.00    -0.200 F 
ATOM     81  F   UNL A   1      38.142  34.349  39.406  1.00  0.00    -0.200 F 
ENDBRANCH  47  71
BRANCH  59  82
ATOM     82  C   UNL A   1      44.263  27.357  34.799  1.00  0.00     0.064 A 
ATOM     83  C   UNL A   1      44.072  26.150  35.489  1.00  0.00     0.173 A 
ATOM     84  C   UNL A   1      45.498  28.008  34.952  1.00  0.00     0.173 A 
ATOM     85  F   UNL A   1      42.917  25.478  35.373  1.00  0.00    -0.203 F 
ATOM     86  C   UNL A   1      45.038  25.672  36.370  1.00  0.00     0.198 A 
ATOM     87  C   UNL A   1      46.488  27.488  35.777  1.00  0.00     0.198 A 
ATOM     88  F   UNL A   1      45.750  29.153  34.299  1.00  0.00    -0.203 F 
ATOM     89  F   UNL A   1      44.780  24.587  37.115  1.00  0.00    -0.200 F 
ATOM     90  C   UNL A   1      46.246  26.337  36.510  1.00  0.00     0.200 A 
ATOM     91  F   UNL A   1      47.670  28.113  35.877  1.00  0.00    -0.200 F 
ATOM     92  F   UNL A   1      47.170  25.880  37.363  1.00  0.00    -0.200 F 
ENDBRANCH  59  82
ENDBRANCH  33  34
ENDBRANCH  26  28
ENDBRANCH  25  26
ENDBRANCH  24  25
ENDBRANCH   1  24
TORSDOF 15
ENDMDL
MODEL 2
REMARK VINA RESULT:     -13.6      4.362      7.996
REMARK SMILES CCC[C@@](C)(NC(=O)N1CCN(C)C(=O)C1(C)C)C(=O)OCCOC(=O)c1ccc(-c2c3nc(c(-c4c(F)c(F)c(F)c(F)c4F)c4ccc([nH]4)c(-c4c(F)c(F)c(F)c(F)c4F)c4nc(c(-c5c(F)c(F)c(F)c(F)c5F)c5ccc2[nH]5)C=C4)C=C3)cc1
REMARK SMILES IDX 22 1 21 2 19 3 20 4 4 5 5 6 3 7 2 8 1 9 6 10 7 11 8 13 9 14
REMARK SMILES IDX 10 15 16 16 11 17 14 18 17 19 18 20 12 21 15 22 13 23 23 24
REMARK SMILES IDX 24 25 25 26 26 27 27 28 28 29 89 30 29 31 88 32 30 33 31 34
REMARK SMILES IDX 32 35 82 36 33 37 87 38 81 39 83 40 34 41 86 42 80 43 79 44
REMARK SMILES IDX 35 46 67 47 47 48 66 49 48 50 51 51 65 52 84 53 49 54 50 55
REMARK SMILES IDX 64 57 85 58 52 59 36 60 37 61 45 62 38 63 39 64 43 65 46 66
REMARK SMILES IDX 40 67 41 68 44 69 42 70 68 71 69 72 77 73 70 74 71 75 75 76
REMARK SMILES IDX 78 77 72 78 73 79 76 80 74 81 53 82 54 83 62 84 55 85 56 86
REMARK SMILES IDX 60 87 63 88 57 89 58 90 61 91 59 92
REMARK H PARENT 6 12 83 45 51 56
REMARK Flexibility Score: inf
ROOT
ATOM      1  C   UNL A   1      36.340  22.851  23.845  1.00  0.00     0.274 C 
ENDROOT
BRANCH   1   2
ATOM      2  O   UNL A   1      35.167  22.946  22.459  1.00  0.00    -0.460 OA
BRANCH   2   3
ATOM      3  C   UNL A   1      33.759  23.345  22.318  1.00  0.00     0.331 C 
ATOM      4  O   UNL A   1      33.409  24.124  21.436  1.00  0.00    -0.249 OA
BRANCH   3   5
ATOM      5  C   UNL A   1      32.457  22.561  22.883  1.00  0.00     0.136 C 
ATOM      6  C   UNL A   1      31.899  21.407  21.989  1.00  0.00     0.047 C 
BRANCH   5   7
ATOM      7  C   UNL A   1      32.946  21.658  24.141  1.00  0.00     0.040 C 
BRANCH   7   8
ATOM      8  C   UNL A   1      32.590  20.131  24.278  1.00  0.00    -0.000 C 
ATOM      9  C   UNL A   1      33.584  18.964  24.426  1.00  0.00     0.004 C 
ENDBRANCH   7   8
ENDBRANCH   5   7
BRANCH   5  10
ATOM     10  N   UNL A   1      31.259  23.516  23.523  1.00  0.00    -0.322 N 
ATOM     11  C   UNL A   1      30.986  24.711  24.219  1.00  0.00     0.319 C 
ATOM     12  H   UNL A   1      30.399  23.071  23.348  1.00  0.00     0.166 HD
ATOM     13  O   UNL A   1      29.821  24.908  24.571  1.00  0.00    -0.249 OA
BRANCH  11  14
ATOM     14  N   UNL A   1      31.961  25.673  24.449  1.00  0.00    -0.309 N 
ATOM     15  C   UNL A   1      32.393  27.085  23.388  1.00  0.00     0.144 C 
ATOM     16  C   UNL A   1      32.329  25.857  25.939  1.00  0.00     0.118 C 
ATOM     17  C   UNL A   1      32.162  28.907  24.068  1.00  0.00     0.140 C 
ATOM     18  C   UNL A   1      31.488  27.615  26.856  1.00  0.00     0.247 C 
ATOM     19  C   UNL A   1      32.641  24.245  26.507  1.00  0.00     0.045 C 
ATOM     20  C   UNL A   1      34.151  25.563  25.582  1.00  0.00     0.045 C 
ATOM     21  N   UNL A   1      31.674  29.121  25.843  1.00  0.00    -0.342 N 
ATOM     22  O   UNL A   1      31.306  28.003  28.028  1.00  0.00    -0.272 OA
ATOM     23  C   UNL A   1      32.029  30.345  26.570  1.00  0.00     0.146 C 
ENDBRANCH  11  14
ENDBRANCH   5  10
ENDBRANCH   3   5
ENDBRANCH   2   3
ENDBRANCH   1   2
BRANCH   1  24
ATOM     24  C   UNL A   1      36.697  21.078  24.612  1.00  0.00     0.275 C 
BRANCH  24  25
ATOM     25  O   UNL A   1      38.524  20.963  25.395  1.00  0.00    -0.458 OA
BRANCH  25  26
ATOM     26  C   UNL A   1      39.683  21.157  26.251  1.00  0.00     0.338 C 
ATOM     27  O   UNL A   1      40.571  20.288  26.230  1.00  0.00    -0.246 OA
BRANCH  26  28
ATOM     28  C   UNL A   1      40.066  22.198  27.265  1.00  0.00     0.060 A 
ATOM     29  C   UNL A   1      39.606  23.440  26.865  1.00  0.00     0.016 A 
ATOM     30  C   UNL A   1      41.253  22.227  28.001  1.00  0.00     0.016 A 
ATOM     31  C   UNL A   1      40.235  24.653  27.071  1.00  0.00     0.010 A 
ATOM     32  C   UNL A   1      41.861  23.473  28.352  1.00  0.00     0.010 A 
ATOM     33  C   UNL A   1      41.356  24.699  27.871  1.00  0.00    -0.014 A 
BRANCH  33  34
ATOM     34  C   UNL A   1      41.940  26.051  28.070  1.00  0.00     0.031 A 
ATOM     35  C   UNL A   1      43.247  26.412  27.433  1.00  0.00     0.074 A 
ATOM     36  C   UNL A   1      41.189  27.012  28.651  1.00  0.00     0.049 A 
ATOM     37  N   UNL A   1      43.900  27.544  27.476  1.00  0.00    -0.248 NA
ATOM     38  C   UNL A   1      43.901  25.365  26.638  1.00  0.00     0.031 C 
ATOM     39  C   UNL A   1      39.831  26.811  29.170  1.00  0.00     0.029 A 
ATOM     40  N   UNL A   1      41.424  28.347  28.871  1.00  0.00    -0.354 N 
ATOM     41  C   UNL A   1      45.063  27.333  26.750  1.00  0.00     0.074 A 
ATOM     42  C   UNL A   1      45.033  25.960  26.293  1.00  0.00     0.031 C 
ATOM     43  C   UNL A   1      39.350  27.976  29.624  1.00  0.00     0.029 A 
ATOM     44  C   UNL A   1      40.394  28.983  29.522  1.00  0.00     0.049 A 
ATOM     45  H   UNL A   1      42.249  28.803  28.590  1.00  0.00     0.167 HD
ATOM     46  C   UNL A   1      46.063  28.212  26.504  1.00  0.00     0.037 A 
ATOM     47  C   UNL A   1      40.319  30.225  30.035  1.00  0.00     0.037 A 
ATOM     48  C   UNL A   1      46.069  29.571  26.979  1.00  0.00     0.049 A 
ATOM     49  C   UNL A   1      41.501  31.134  29.860  1.00  0.00     0.074 A 
ATOM     50  C   UNL A   1      47.042  30.538  26.807  1.00  0.00     0.029 A 
ATOM     51  N   UNL A   1      45.060  30.150  27.739  1.00  0.00    -0.354 N 
ATOM     52  N   UNL A   1      42.625  30.913  29.221  1.00  0.00    -0.248 NA
ATOM     53  C   UNL A   1      41.407  32.462  30.474  1.00  0.00     0.031 C 
ATOM     54  C   UNL A   1      46.677  31.659  27.557  1.00  0.00     0.029 A 
ATOM     55  C   UNL A   1      45.415  31.444  28.087  1.00  0.00     0.049 A 
ATOM     56  H   UNL A   1      44.218  29.707  27.992  1.00  0.00     0.167 HD
ATOM     57  C   UNL A   1      43.357  32.085  29.323  1.00  0.00     0.074 A 
ATOM     58  C   UNL A   1      42.535  33.019  30.067  1.00  0.00     0.031 C 
ATOM     59  C   UNL A   1      44.593  32.363  28.837  1.00  0.00     0.037 A 
BRANCH  46  60
ATOM     60  C   UNL A   1      47.274  27.695  25.783  1.00  0.00     0.064 A 
ATOM     61  C   UNL A   1      48.382  27.155  26.453  1.00  0.00     0.173 A 
ATOM     62  C   UNL A   1      47.323  27.754  24.381  1.00  0.00     0.173 A 
ATOM     63  F   UNL A   1      48.394  27.080  27.792  1.00  0.00    -0.203 F 
ATOM     64  C   UNL A   1      49.514  26.748  25.749  1.00  0.00     0.198 A 
ATOM     65  C   UNL A   1      48.430  27.293  23.678  1.00  0.00     0.198 A 
ATOM     66  F   UNL A   1      46.291  28.258  23.686  1.00  0.00    -0.203 F 
ATOM     67  F   UNL A   1      50.595  26.322  26.415  1.00  0.00    -0.200 F 
ATOM     68  C   UNL A   1      49.533  26.809  24.364  1.00  0.00     0.200 A 
ATOM     69  F   UNL A   1      48.434  27.330  22.339  1.00  0.00    -0.200 F 
ATOM     70  F   UNL A   1      50.619  26.411  23.689  1.00  0.00    -0.200 F 
ENDBRANCH  46  60
BRANCH  47  71
ATOM     71  C   UNL A   1      39.124  30.647  30.816  1.00  0.00     0.064 A 
ATOM     72  C   UNL A   1      39.038  30.439  32.199  1.00  0.00     0.173 A 
ATOM     73  C   UNL A   1      38.021  31.243  30.181  1.00  0.00     0.173 A 
ATOM     74  F   UNL A   1      40.052  29.855  32.854  1.00  0.00    -0.203 F 
ATOM     75  C   UNL A   1      37.886  30.779  32.908  1.00  0.00     0.198 A 
ATOM     76  C   UNL A   1      36.893  31.629  30.898  1.00  0.00     0.198 A 
ATOM     77  F   UNL A   1      38.043  31.461  28.858  1.00  0.00    -0.203 F 
ATOM     78  F   UNL A   1      37.802  30.498  34.215  1.00  0.00    -0.200 F 
ATOM     79  C   UNL A   1      36.819  31.382  32.259  1.00  0.00     0.200 A 
ATOM     80  F   UNL A   1      35.875  32.231  30.269  1.00  0.00    -0.200 F 
ATOM     81  F   UNL A   1      35.716  31.714  32.944  1.00  0.00    -0.200 F 
ENDBRANCH  47  71
BRANCH  59  82
ATOM     82  C   UNL A   1      45.100  33.765  29.030  1.00  0.00     0.064 A 
ATOM     83  C   UNL A   1      45.872  34.139  30.140  1.00  0.00     0.173 A 
ATOM     84  C   UNL A   1      44.782  34.761  28.090  1.00  0.00     0.173 A 
ATOM     85  F   UNL A   1      46.215  33.230  31.065  1.00  0.00    -0.203 F 
ATOM     86  C   UNL A   1      46.223  35.470  30.349  1.00  0.00     0.198 A 
ATOM     87  C   UNL A   1      45.198  36.075  28.267  1.00  0.00     0.198 A 
ATOM     88  F   UNL A   1      44.068  34.459  26.995  1.00  0.00    -0.203 F 
ATOM     89  F   UNL A   1      46.849  35.823  31.481  1.00  0.00    -0.200 F 
ATOM     90  C   UNL A   1      45.891  36.435  29.411  1.00  0.00     0.200 A 
ATOM     91  F   UNL A   1      44.910  36.996  27.337  1.00  0.00    -0.200 F 
ATOM     92  F   UNL A   1      46.223  37.715  29.618  1.00  0.00    -0.200 F 
ENDBRANCH  59  82
ENDBRANCH  33  34
ENDBRANCH  26  28
ENDBRANCH  25  26
ENDBRANCH  24  25
ENDBRANCH   1  24
TORSDOF 15
ENDMDL
MODEL 3
REMARK VINA RESULT:     -13.6      4.354      7.993
REMARK SMILES CCC[C@@](C)(NC(=O)N1CCN(C)C(=O)C1(C)C)C(=O)OCCOC(=O)c1ccc(-c2c3nc(c(-c4c(F)c(F)c(F)c(F)c4F)c4ccc([nH]4)c(-c4c(F)c(F)c(F)c(F)c4F)c4nc(c(-c5c(F)c(F)c(F)c(F)c5F)c5ccc2[nH]5)C=C4)C=C3)cc1
REMARK SMILES IDX 22 1 21 2 19 3 20 4 4 5 5 6 3 7 2 8 1 9 6 10 7 11 8 13 9 14
REMARK SMILES IDX 10 15 16 16 11 17 14 18 17 19 18 20 12 21 15 22 13 23 23 24
REMARK SMILES IDX 24 25 25 26 26 27 27 28 28 29 89 30 29 31 88 32 30 33 31 34
REMARK SMILES IDX 32 35 82 36 33 37 87 38 81 39 83 40 34 41 86 42 80 43 79 44
REMARK SMILES IDX 35 46 67 47 47 48 66 49 48 50 51 51 65 52 84 53 49 54 50 55
REMARK SMILES IDX 64 57 85 58 52 59 36 60 37 61 45 62 38 63 39 64 43 65 46 66
REMARK SMILES IDX 40 67 41 68 44 69 42 70 68 71 69 72 77 73 70 74 71 75 75 76
REMARK SMILES IDX 78 77 72 78 73 79 76 80 74 81 53 82 54 83 62 84 55 85 56 86
REMARK SMILES IDX 60 87 63 88 57 89 58 90 61 91 59 92
REMARK H PARENT 6 12 83 45 51 56
REMARK Flexibility Score: inf
ROOT
ATOM      1  C   UNL A   1      36.476  22.820  23.695  1.00  0.00     0.274 C 
ENDROOT
BRANCH   1   2
ATOM      2  O   UNL A   1      35.203  22.951  22.404  1.00  0.00    -0.460 OA
BRANCH   2   3
ATOM      3  C   UNL A   1      33.799  23.386  22.373  1.00  0.00     0.331 C 
ATOM      4  O   UNL A   1      33.424  24.253  21.586  1.00  0.00    -0.249 OA
BRANCH   3   5
ATOM      5  C   UNL A   1      32.509  22.576  22.926  1.00  0.00     0.136 C 
ATOM      6  C   UNL A   1      31.956  21.438  22.008  1.00  0.00     0.047 C 
BRANCH   5   7
ATOM      7  C   UNL A   1      33.016  21.647  24.159  1.00  0.00     0.040 C 
BRANCH   7   8
ATOM      8  C   UNL A   1      32.861  20.081  24.160  1.00  0.00    -0.000 C 
ATOM      9  C   UNL A   1      32.899  19.153  25.388  1.00  0.00     0.004 C 
ENDBRANCH   7   8
ENDBRANCH   5   7
BRANCH   5  10
ATOM     10  N   UNL A   1      31.306  23.502  23.597  1.00  0.00    -0.322 N 
ATOM     11  C   UNL A   1      31.021  24.696  24.290  1.00  0.00     0.319 C 
ATOM     12  H   UNL A   1      30.454  23.031  23.455  1.00  0.00     0.166 HD
ATOM     13  O   UNL A   1      29.863  24.863  24.680  1.00  0.00    -0.249 OA
BRANCH  11  14
ATOM     14  N   UNL A   1      31.975  25.688  24.479  1.00  0.00    -0.309 N 
ATOM     15  C   UNL A   1      32.318  27.110  23.398  1.00  0.00     0.144 C 
ATOM     16  C   UNL A   1      32.398  25.888  25.952  1.00  0.00     0.118 C 
ATOM     17  C   UNL A   1      32.060  28.926  24.085  1.00  0.00     0.140 C 
ATOM     18  C   UNL A   1      31.543  27.621  26.900  1.00  0.00     0.247 C 
ATOM     19  C   UNL A   1      32.783  24.287  26.508  1.00  0.00     0.045 C 
ATOM     20  C   UNL A   1      34.213  25.649  25.519  1.00  0.00     0.045 C 
ATOM     21  N   UNL A   1      31.641  29.130  25.878  1.00  0.00    -0.342 N 
ATOM     22  O   UNL A   1      31.398  28.007  28.078  1.00  0.00    -0.272 OA
ATOM     23  C   UNL A   1      31.987  30.366  26.587  1.00  0.00     0.146 C 
ENDBRANCH  11  14
ENDBRANCH   5  10
ENDBRANCH   3   5
ENDBRANCH   2   3
ENDBRANCH   1   2
BRANCH   1  24
ATOM     24  C   UNL A   1      36.690  21.083  24.586  1.00  0.00     0.275 C 
BRANCH  24  25
ATOM     25  O   UNL A   1      38.485  20.898  25.428  1.00  0.00    -0.458 OA
BRANCH  25  26
ATOM     26  C   UNL A   1      39.665  21.123  26.249  1.00  0.00     0.338 C 
ATOM     27  O   UNL A   1      40.582  20.289  26.185  1.00  0.00    -0.246 OA
BRANCH  26  28
ATOM     28  C   UNL A   1      40.043  22.165  27.264  1.00  0.00     0.060 A 
ATOM     29  C   UNL A   1      39.581  23.406  26.864  1.00  0.00     0.016 A 
ATOM     30  C   UNL A   1      41.228  22.196  28.002  1.00  0.00     0.016 A 
ATOM     31  C   UNL A   1      40.206  24.620  27.072  1.00  0.00     0.010 A 
ATOM     32  C   UNL A   1      41.833  23.444  28.355  1.00  0.00     0.010 A 
ATOM     33  C   UNL A   1      41.326  24.669  27.874  1.00  0.00    -0.014 A 
BRANCH  33  34
ATOM     34  C   UNL A   1      41.906  26.022  28.075  1.00  0.00     0.031 A 
ATOM     35  C   UNL A   1      43.209  26.390  27.434  1.00  0.00     0.074 A 
ATOM     36  C   UNL A   1      41.154  26.978  28.663  1.00  0.00     0.049 A 
ATOM     37  N   UNL A   1      43.859  27.523  27.478  1.00  0.00    -0.248 NA
ATOM     38  C   UNL A   1      43.864  25.348  26.633  1.00  0.00     0.031 C 
ATOM     39  C   UNL A   1      39.799  26.771  29.186  1.00  0.00     0.029 A 
ATOM     40  N   UNL A   1      41.386  28.313  28.886  1.00  0.00    -0.354 N 
ATOM     41  C   UNL A   1      45.019  27.319  26.747  1.00  0.00     0.074 A 
ATOM     42  C   UNL A   1      44.992  25.947  26.285  1.00  0.00     0.031 C 
ATOM     43  C   UNL A   1      39.315  27.933  29.646  1.00  0.00     0.029 A 
ATOM     44  C   UNL A   1      40.356  28.944  29.544  1.00  0.00     0.049 A 
ATOM     45  H   UNL A   1      42.208  28.774  28.603  1.00  0.00     0.167 HD
ATOM     46  C   UNL A   1      46.015  28.202  26.500  1.00  0.00     0.037 A 
ATOM     47  C   UNL A   1      40.279  30.184  30.060  1.00  0.00     0.037 A 
ATOM     48  C   UNL A   1      46.018  29.560  26.979  1.00  0.00     0.049 A 
ATOM     49  C   UNL A   1      41.457  31.097  29.884  1.00  0.00     0.074 A 
ATOM     50  C   UNL A   1      46.987  30.531  26.806  1.00  0.00     0.029 A 
ATOM     51  N   UNL A   1      45.011  30.133  27.745  1.00  0.00    -0.354 N 
ATOM     52  N   UNL A   1      42.579  30.882  29.240  1.00  0.00    -0.248 NA
ATOM     53  C   UNL A   1      41.361  32.423  30.503  1.00  0.00     0.031 C 
ATOM     54  C   UNL A   1      46.622  31.647  27.561  1.00  0.00     0.029 A 
ATOM     55  C   UNL A   1      45.363  31.426  28.095  1.00  0.00     0.049 A 
ATOM     56  H   UNL A   1      44.171  29.686  28.000  1.00  0.00     0.167 HD
ATOM     57  C   UNL A   1      43.308  32.057  29.342  1.00  0.00     0.074 A 
ATOM     58  C   UNL A   1      42.486  32.985  30.093  1.00  0.00     0.031 C 
ATOM     59  C   UNL A   1      44.541  32.340  28.852  1.00  0.00     0.037 A 
BRANCH  46  60
ATOM     60  C   UNL A   1      47.225  27.691  25.772  1.00  0.00     0.064 A 
ATOM     61  C   UNL A   1      48.340  27.159  26.435  1.00  0.00     0.173 A 
ATOM     62  C   UNL A   1      47.265  27.750  24.369  1.00  0.00     0.173 A 
ATOM     63  F   UNL A   1      48.360  27.084  27.775  1.00  0.00    -0.203 F 
ATOM     64  C   UNL A   1      49.470  26.757  25.725  1.00  0.00     0.198 A 
ATOM     65  C   UNL A   1      48.371  27.295  23.660  1.00  0.00     0.198 A 
ATOM     66  F   UNL A   1      46.227  28.248  23.680  1.00  0.00    -0.203 F 
ATOM     67  F   UNL A   1      50.557  26.337  26.385  1.00  0.00    -0.200 F 
ATOM     68  C   UNL A   1      49.480  26.818  24.340  1.00  0.00     0.200 A 
ATOM     69  F   UNL A   1      48.367  27.331  22.321  1.00  0.00    -0.200 F 
ATOM     70  F   UNL A   1      50.565  26.425  23.659  1.00  0.00    -0.200 F 
ENDBRANCH  46  60
BRANCH  47  71
ATOM     71  C   UNL A   1      39.086  30.599  30.848  1.00  0.00     0.064 A 
ATOM     72  C   UNL A   1      38.008  31.270  30.254  1.00  0.00     0.173 A 
ATOM     73  C   UNL A   1      39.016  30.359  32.231  1.00  0.00     0.173 A 
ATOM     74  F   UNL A   1      38.030  31.544  28.941  1.00  0.00    -0.203 F 
ATOM     75  C   UNL A   1      36.927  31.711  31.015  1.00  0.00     0.198 A 
ATOM     76  C   UNL A   1      37.913  30.755  32.981  1.00  0.00     0.198 A 
ATOM     77  F   UNL A   1      40.021  29.728  32.856  1.00  0.00    -0.203 F 
ATOM     78  F   UNL A   1      35.947  32.417  30.435  1.00  0.00    -0.200 F 
ATOM     79  C   UNL A   1      36.875  31.445  32.375  1.00  0.00     0.200 A 
ATOM     80  F   UNL A   1      37.860  30.474  34.289  1.00  0.00    -0.200 F 
ATOM     81  F   UNL A   1      35.832  31.864  33.105  1.00  0.00    -0.200 F 
ENDBRANCH  47  71
BRANCH  59  82
ATOM     82  C   UNL A   1      45.044  33.744  29.048  1.00  0.00     0.064 A 
ATOM     83  C   UNL A   1      44.781  34.771  28.129  1.00  0.00     0.173 A 
ATOM     84  C   UNL A   1      45.827  34.058  30.171  1.00  0.00     0.173 A 
ATOM     85  F   UNL A   1      44.030  34.533  27.043  1.00  0.00    -0.203 F 
ATOM     86  C   UNL A   1      45.360  36.028  28.279  1.00  0.00     0.198 A 
ATOM     87  C   UNL A   1      46.343  35.335  30.354  1.00  0.00     0.198 A 
ATOM     88  F   UNL A   1      46.092  33.124  31.098  1.00  0.00    -0.203 F 
ATOM     89  F   UNL A   1      45.199  36.953  27.322  1.00  0.00    -0.200 F 
ATOM     90  C   UNL A   1      46.136  36.310  29.392  1.00  0.00     0.200 A 
ATOM     91  F   UNL A   1      47.058  35.615  31.453  1.00  0.00    -0.200 F 
ATOM     92  F   UNL A   1      46.698  37.517  29.531  1.00  0.00    -0.200 F 
ENDBRANCH  59  82
ENDBRANCH  33  34
ENDBRANCH  26  28
ENDBRANCH  25  26
ENDBRANCH  24  25
ENDBRANCH   1  24
TORSDOF 15
ENDMDL
