MODEL 1
REMARK VINA RESULT:     -10.2      0.000      0.000
REMARK SMILES CCS(=O)(=O)N[C@H]1C=C[C@@H](C(=O)OCCOC(=O)c2ccc(-c3c4nc(c(-c5c(F)c(F)c(F)c(F)c5F)c5ccc([nH]5)c(-c5c(F)c(F)c(F)c(F)c5F)c5nc(c(-c6c(F)c(F)c(F)c(F)c6F)c6ccc3[nH]6)C=C5)C=C4)cc2)C1
REMARK SMILES IDX 14 1 13 2 11 3 12 4 10 5 7 6 8 7 82 8 9 9 6 10 3 12 4 13
REMARK SMILES IDX 5 14 2 15 1 16 15 17 16 18 17 19 18 20 19 21 20 22 81 23
REMARK SMILES IDX 21 24 80 25 22 26 23 27 24 28 74 29 25 30 79 31 73 32 75 33
REMARK SMILES IDX 26 34 78 35 72 36 71 37 27 39 59 40 39 41 58 42 40 43 43 44
REMARK SMILES IDX 57 45 76 46 41 47 42 48 56 50 77 51 44 52 28 53 29 54 37 55
REMARK SMILES IDX 30 56 31 57 35 58 38 59 32 60 33 61 36 62 34 63 60 64 61 65
REMARK SMILES IDX 69 66 62 67 63 68 67 69 70 70 64 71 65 72 68 73 66 74 45 75
REMARK SMILES IDX 46 76 54 77 47 78 48 79 52 80 55 81 49 82 50 83 53 84 51 85
REMARK H PARENT 6 11 75 38 43 49
REMARK Flexibility Score: inf
ROOT
ATOM      1  C   UNL A   1      34.065  35.363  28.689  1.00  0.00     0.274 C 
ENDROOT
BRANCH   1   2
ATOM      2  O   UNL A   1      34.201  33.991  29.107  1.00  0.00    -0.462 OA
BRANCH   2   3
ATOM      3  C   UNL A   1      34.888  33.158  28.292  1.00  0.00     0.312 C 
ATOM      4  O   UNL A   1      35.872  33.483  27.633  1.00  0.00    -0.252 OA
BRANCH   3   5
ATOM      5  C   UNL A   1      34.375  31.720  28.317  1.00  0.00     0.123 C 
ATOM      6  C   UNL A   1      33.703  29.898  26.859  1.00  0.00     0.093 C 
ATOM      7  C   UNL A   1      35.078  29.695  27.388  1.00  0.00    -0.011 C 
ATOM      8  C   UNL A   1      33.313  31.307  27.292  1.00  0.00     0.043 C 
ATOM      9  C   UNL A   1      35.466  30.710  28.164  1.00  0.00    -0.015 C 
BRANCH   6  10
ATOM     10  N   UNL A   1      33.652  29.593  25.443  1.00  0.00    -0.208 NA
ATOM     11  H   UNL A   1      33.831  30.488  24.987  1.00  0.00     0.141 HD
BRANCH  10  12
ATOM     12  S   UNL A   1      32.428  28.918  24.554  1.00  0.00     0.211 S 
ATOM     13  O   UNL A   1      32.780  28.852  23.155  1.00  0.00    -0.212 OA
ATOM     14  O   UNL A   1      31.263  29.675  24.966  1.00  0.00    -0.212 OA
BRANCH  12  15
ATOM     15  C   UNL A   1      32.202  27.262  25.192  1.00  0.00     0.150 C 
ATOM     16  C   UNL A   1      33.378  26.326  25.014  1.00  0.00     0.022 C 
ENDBRANCH  12  15
ENDBRANCH  10  12
ENDBRANCH   6  10
ENDBRANCH   3   5
ENDBRANCH   2   3
ENDBRANCH   1   2
BRANCH   1  17
ATOM     17  C   UNL A   1      32.915  36.033  29.449  1.00  0.00     0.275 C 
BRANCH  17  18
ATOM     18  O   UNL A   1      32.461  35.215  30.546  1.00  0.00    -0.458 OA
BRANCH  18  19
ATOM     19  C   UNL A   1      32.682  35.743  31.770  1.00  0.00     0.338 C 
ATOM     20  O   UNL A   1      32.034  36.600  32.346  1.00  0.00    -0.246 OA
BRANCH  19  21
ATOM     21  C   UNL A   1      33.794  35.054  32.433  1.00  0.00     0.060 A 
ATOM     22  C   UNL A   1      35.046  35.662  32.403  1.00  0.00     0.016 A 
ATOM     23  C   UNL A   1      33.653  33.753  32.908  1.00  0.00     0.016 A 
ATOM     24  C   UNL A   1      36.185  34.953  32.750  1.00  0.00     0.010 A 
ATOM     25  C   UNL A   1      34.790  33.067  33.347  1.00  0.00     0.010 A 
ATOM     26  C   UNL A   1      36.068  33.649  33.240  1.00  0.00    -0.014 A 
BRANCH  26  27
ATOM     27  C   UNL A   1      37.291  32.906  33.628  1.00  0.00     0.031 A 
ATOM     28  C   UNL A   1      37.943  33.163  34.955  1.00  0.00     0.074 A 
ATOM     29  C   UNL A   1      37.800  31.986  32.787  1.00  0.00     0.049 A 
ATOM     30  N   UNL A   1      39.068  32.694  35.431  1.00  0.00    -0.248 NA
ATOM     31  C   UNL A   1      37.240  34.079  35.867  1.00  0.00     0.031 C 
ATOM     32  C   UNL A   1      37.221  31.609  31.496  1.00  0.00     0.029 A 
ATOM     33  N   UNL A   1      38.916  31.197  32.892  1.00  0.00    -0.354 N 
ATOM     34  C   UNL A   1      39.231  33.291  36.674  1.00  0.00     0.074 A 
ATOM     35  C   UNL A   1      38.098  34.169  36.873  1.00  0.00     0.031 C 
ATOM     36  C   UNL A   1      37.968  30.643  30.943  1.00  0.00     0.029 A 
ATOM     37  C   UNL A   1      39.121  30.390  31.801  1.00  0.00     0.049 A 
ATOM     38  H   UNL A   1      39.513  31.208  33.676  1.00  0.00     0.167 HD
ATOM     39  C   UNL A   1      40.239  33.118  37.564  1.00  0.00     0.037 A 
ATOM     40  C   UNL A   1      40.142  29.566  31.506  1.00  0.00     0.037 A 
ATOM     41  C   UNL A   1      41.350  32.222  37.359  1.00  0.00     0.049 A 
ATOM     42  C   UNL A   1      41.284  29.453  32.476  1.00  0.00     0.074 A 
ATOM     43  C   UNL A   1      42.405  31.946  38.210  1.00  0.00     0.029 A 
ATOM     44  N   UNL A   1      41.551  31.463  36.214  1.00  0.00    -0.354 N 
ATOM     45  N   UNL A   1      41.432  30.017  33.650  1.00  0.00    -0.248 NA
ATOM     46  C   UNL A   1      42.406  28.596  32.072  1.00  0.00     0.031 C 
ATOM     47  C   UNL A   1      43.279  31.073  37.553  1.00  0.00     0.029 A 
ATOM     48  C   UNL A   1      42.735  30.748  36.321  1.00  0.00     0.049 A 
ATOM     49  H   UNL A   1      40.943  31.436  35.441  1.00  0.00     0.167 HD
ATOM     50  C   UNL A   1      42.648  29.560  34.141  1.00  0.00     0.074 A 
ATOM     51  C   UNL A   1      43.189  28.663  33.140  1.00  0.00     0.031 C 
ATOM     52  C   UNL A   1      43.258  29.855  35.316  1.00  0.00     0.037 A 
BRANCH  39  53
ATOM     53  C   UNL A   1      40.213  33.957  38.812  1.00  0.00     0.064 A 
ATOM     54  C   UNL A   1      39.582  33.531  39.991  1.00  0.00     0.173 A 
ATOM     55  C   UNL A   1      40.836  35.216  38.825  1.00  0.00     0.173 A 
ATOM     56  F   UNL A   1      38.962  32.342  40.033  1.00  0.00    -0.203 F 
ATOM     57  C   UNL A   1      39.536  34.350  41.117  1.00  0.00     0.198 A 
ATOM     58  C   UNL A   1      40.819  36.016  39.965  1.00  0.00     0.198 A 
ATOM     59  F   UNL A   1      41.462  35.673  37.730  1.00  0.00    -0.203 F 
ATOM     60  F   UNL A   1      38.867  33.949  42.207  1.00  0.00    -0.200 F 
ATOM     61  C   UNL A   1      40.158  35.589  41.105  1.00  0.00     0.200 A 
ATOM     62  F   UNL A   1      41.437  37.206  39.955  1.00  0.00    -0.200 F 
ATOM     63  F   UNL A   1      40.110  36.377  42.189  1.00  0.00    -0.200 F 
ENDBRANCH  39  53
BRANCH  40  64
ATOM     64  C   UNL A   1      40.129  28.793  30.238  1.00  0.00     0.064 A 
ATOM     65  C   UNL A   1      39.481  27.553  30.163  1.00  0.00     0.173 A 
ATOM     66  C   UNL A   1      40.745  29.278  29.074  1.00  0.00     0.173 A 
ATOM     67  F   UNL A   1      38.895  27.038  31.255  1.00  0.00    -0.203 F 
ATOM     68  C   UNL A   1      39.461  26.821  28.978  1.00  0.00     0.198 A 
ATOM     69  C   UNL A   1      40.697  28.560  27.881  1.00  0.00     0.198 A 
ATOM     70  F   UNL A   1      41.376  30.462  29.090  1.00  0.00    -0.203 F 
ATOM     71  F   UNL A   1      38.870  25.619  28.946  1.00  0.00    -0.200 F 
ATOM     72  C   UNL A   1      40.062  27.329  27.835  1.00  0.00     0.200 A 
ATOM     73  F   UNL A   1      41.263  29.064  26.776  1.00  0.00    -0.200 F 
ATOM     74  F   UNL A   1      40.033  26.630  26.694  1.00  0.00    -0.200 F 
ENDBRANCH  40  64
BRANCH  52  75
ATOM     75  C   UNL A   1      44.560  29.162  35.603  1.00  0.00     0.064 A 
ATOM     76  C   UNL A   1      45.794  29.727  35.248  1.00  0.00     0.173 A 
ATOM     77  C   UNL A   1      44.571  27.928  36.269  1.00  0.00     0.173 A 
ATOM     78  F   UNL A   1      45.838  30.898  34.594  1.00  0.00    -0.203 F 
ATOM     79  C   UNL A   1      46.988  29.067  35.525  1.00  0.00     0.198 A 
ATOM     80  C   UNL A   1      45.768  27.288  36.576  1.00  0.00     0.198 A 
ATOM     81  F   UNL A   1      43.419  27.345  36.635  1.00  0.00    -0.203 F 
ATOM     82  F   UNL A   1      48.153  29.598  35.125  1.00  0.00    -0.200 F 
ATOM     83  C   UNL A   1      46.975  27.853  36.195  1.00  0.00     0.200 A 
ATOM     84  F   UNL A   1      45.753  26.123  37.238  1.00  0.00    -0.200 F 
ATOM     85  F   UNL A   1      48.126  27.223  36.467  1.00  0.00    -0.200 F 
ENDBRANCH  52  75
ENDBRANCH  26  27
ENDBRANCH  19  21
ENDBRANCH  18  19
ENDBRANCH  17  18
ENDBRANCH   1  17
TORSDOF 14
ENDMDL
MODEL 2
REMARK VINA RESULT:     -10.2      2.745      8.926
REMARK SMILES CCS(=O)(=O)N[C@H]1C=C[C@@H](C(=O)OCCOC(=O)c2ccc(-c3c4nc(c(-c5c(F)c(F)c(F)c(F)c5F)c5ccc([nH]5)c(-c5c(F)c(F)c(F)c(F)c5F)c5nc(c(-c6c(F)c(F)c(F)c(F)c6F)c6ccc3[nH]6)C=C5)C=C4)cc2)C1
REMARK SMILES IDX 14 1 13 2 11 3 12 4 10 5 7 6 8 7 82 8 9 9 6 10 3 12 4 13
REMARK SMILES IDX 5 14 2 15 1 16 15 17 16 18 17 19 18 20 19 21 20 22 81 23
REMARK SMILES IDX 21 24 80 25 22 26 23 27 24 28 74 29 25 30 79 31 73 32 75 33
REMARK SMILES IDX 26 34 78 35 72 36 71 37 27 39 59 40 39 41 58 42 40 43 43 44
REMARK SMILES IDX 57 45 76 46 41 47 42 48 56 50 77 51 44 52 28 53 29 54 37 55
REMARK SMILES IDX 30 56 31 57 35 58 38 59 32 60 33 61 36 62 34 63 60 64 61 65
REMARK SMILES IDX 69 66 62 67 63 68 67 69 70 70 64 71 65 72 68 73 66 74 45 75
REMARK SMILES IDX 46 76 54 77 47 78 48 79 52 80 55 81 49 82 50 83 53 84 51 85
REMARK H PARENT 6 11 75 38 43 49
REMARK Flexibility Score: inf
ROOT
ATOM      1  C   UNL A   1      31.226  30.029  24.980  1.00  0.00     0.274 C 
ENDROOT
BRANCH   1   2
ATOM      2  O   UNL A   1      32.312  29.161  24.603  1.00  0.00    -0.462 OA
BRANCH   2   3
ATOM      3  C   UNL A   1      32.030  27.849  24.433  1.00  0.00     0.312 C 
ATOM      4  O   UNL A   1      30.913  27.403  24.183  1.00  0.00    -0.252 OA
BRANCH   3   5
ATOM      5  C   UNL A   1      33.259  26.946  24.505  1.00  0.00     0.123 C 
ATOM      6  C   UNL A   1      34.093  24.920  25.552  1.00  0.00     0.093 C 
ATOM      7  C   UNL A   1      33.668  24.674  24.149  1.00  0.00    -0.011 C 
ATOM      8  C   UNL A   1      33.644  26.344  25.861  1.00  0.00     0.043 C 
ATOM      9  C   UNL A   1      33.178  25.778  23.577  1.00  0.00    -0.015 C 
BRANCH   6  10
ATOM     10  N   UNL A   1      33.616  23.862  26.421  1.00  0.00    -0.208 NA
ATOM     11  H   UNL A   1      34.000  23.010  26.013  1.00  0.00     0.141 HD
BRANCH  10  12
ATOM     12  S   UNL A   1      32.063  23.456  26.832  1.00  0.00     0.211 S 
ATOM     13  O   UNL A   1      31.200  24.614  26.807  1.00  0.00    -0.212 OA
ATOM     14  O   UNL A   1      32.231  22.711  28.063  1.00  0.00    -0.212 OA
BRANCH  12  15
ATOM     15  C   UNL A   1      31.515  22.277  25.603  1.00  0.00     0.150 C 
ATOM     16  C   UNL A   1      32.548  21.264  25.161  1.00  0.00     0.022 C 
ENDBRANCH  12  15
ENDBRANCH  10  12
ENDBRANCH   6  10
ENDBRANCH   3   5
ENDBRANCH   2   3
ENDBRANCH   1   2
BRANCH   1  17
ATOM     17  C   UNL A   1      31.602  30.827  26.233  1.00  0.00     0.275 C 
BRANCH  17  18
ATOM     18  O   UNL A   1      32.988  30.639  26.582  1.00  0.00    -0.458 OA
BRANCH  18  19
ATOM     19  C   UNL A   1      33.541  31.665  27.266  1.00  0.00     0.338 C 
ATOM     20  O   UNL A   1      33.038  32.741  27.540  1.00  0.00    -0.246 OA
BRANCH  19  21
ATOM     21  C   UNL A   1      34.861  31.286  27.780  1.00  0.00     0.060 A 
ATOM     22  C   UNL A   1      35.036  29.977  28.219  1.00  0.00     0.016 A 
ATOM     23  C   UNL A   1      35.848  32.242  28.002  1.00  0.00     0.016 A 
ATOM     24  C   UNL A   1      36.146  29.626  28.971  1.00  0.00     0.010 A 
ATOM     25  C   UNL A   1      37.013  31.867  28.679  1.00  0.00     0.010 A 
ATOM     26  C   UNL A   1      37.156  30.565  29.197  1.00  0.00    -0.014 A 
BRANCH  26  27
ATOM     27  C   UNL A   1      38.350  30.174  29.985  1.00  0.00     0.031 A 
ATOM     28  C   UNL A   1      39.379  29.255  29.392  1.00  0.00     0.074 A 
ATOM     29  C   UNL A   1      38.511  30.663  31.228  1.00  0.00     0.049 A 
ATOM     30  N   UNL A   1      40.432  28.718  29.953  1.00  0.00    -0.248 NA
ATOM     31  C   UNL A   1      39.194  28.884  27.981  1.00  0.00     0.031 C 
ATOM     32  C   UNL A   1      37.608  31.607  31.888  1.00  0.00     0.029 A 
ATOM     33  N   UNL A   1      39.492  30.438  32.158  1.00  0.00    -0.354 N 
ATOM     34  C   UNL A   1      41.008  27.911  28.980  1.00  0.00     0.074 A 
ATOM     35  C   UNL A   1      40.179  28.016  27.799  1.00  0.00     0.031 C 
ATOM     36  C   UNL A   1      38.091  31.904  33.103  1.00  0.00     0.029 A 
ATOM     37  C   UNL A   1      39.292  31.110  33.338  1.00  0.00     0.049 A 
ATOM     38  H   UNL A   1      40.267  29.852  31.996  1.00  0.00     0.167 HD
ATOM     39  C   UNL A   1      42.127  27.151  29.073  1.00  0.00     0.037 A 
ATOM     40  C   UNL A   1      39.978  31.065  34.495  1.00  0.00     0.037 A 
ATOM     41  C   UNL A   1      42.954  27.076  30.251  1.00  0.00     0.049 A 
ATOM     42  C   UNL A   1      41.170  30.155  34.593  1.00  0.00     0.074 A 
ATOM     43  C   UNL A   1      44.127  26.366  30.440  1.00  0.00     0.029 A 
ATOM     44  N   UNL A   1      42.686  27.728  31.447  1.00  0.00    -0.354 N 
ATOM     45  N   UNL A   1      41.712  29.397  33.671  1.00  0.00    -0.248 NA
ATOM     46  C   UNL A   1      41.838  30.089  35.899  1.00  0.00     0.031 C 
ATOM     47  C   UNL A   1      44.531  26.534  31.768  1.00  0.00     0.029 A 
ATOM     48  C   UNL A   1      43.650  27.406  32.390  1.00  0.00     0.049 A 
ATOM     49  H   UNL A   1      41.924  28.331  31.603  1.00  0.00     0.167 HD
ATOM     50  C   UNL A   1      42.803  28.786  34.274  1.00  0.00     0.074 A 
ATOM     51  C   UNL A   1      42.851  29.274  35.637  1.00  0.00     0.031 C 
ATOM     52  C   UNL A   1      43.687  27.904  33.743  1.00  0.00     0.037 A 
BRANCH  39  53
ATOM     53  C   UNL A   1      42.487  26.301  27.886  1.00  0.00     0.064 A 
ATOM     54  C   UNL A   1      43.411  26.719  26.914  1.00  0.00     0.173 A 
ATOM     55  C   UNL A   1      41.894  25.039  27.719  1.00  0.00     0.173 A 
ATOM     56  F   UNL A   1      44.001  27.920  27.017  1.00  0.00    -0.203 F 
ATOM     57  C   UNL A   1      43.691  25.928  25.802  1.00  0.00     0.198 A 
ATOM     58  C   UNL A   1      42.204  24.236  26.625  1.00  0.00     0.198 A 
ATOM     59  F   UNL A   1      41.010  24.583  28.619  1.00  0.00    -0.203 F 
ATOM     60  F   UNL A   1      44.523  26.380  24.854  1.00  0.00    -0.200 F 
ATOM     61  C   UNL A   1      43.091  24.686  25.661  1.00  0.00     0.200 A 
ATOM     62  F   UNL A   1      41.635  23.029  26.501  1.00  0.00    -0.200 F 
ATOM     63  F   UNL A   1      43.359  23.928  24.588  1.00  0.00    -0.200 F 
ENDBRANCH  39  53
BRANCH  40  64
ATOM     64  C   UNL A   1      39.548  31.900  35.645  1.00  0.00     0.064 A 
ATOM     65  C   UNL A   1      40.103  33.169  35.854  1.00  0.00     0.173 A 
ATOM     66  C   UNL A   1      38.570  31.459  36.550  1.00  0.00     0.173 A 
ATOM     67  F   UNL A   1      41.056  33.626  35.028  1.00  0.00    -0.203 F 
ATOM     68  C   UNL A   1      39.705  33.961  36.929  1.00  0.00     0.198 A 
ATOM     69  C   UNL A   1      38.150  32.264  37.606  1.00  0.00     0.198 A 
ATOM     70  F   UNL A   1      38.005  30.252  36.394  1.00  0.00    -0.203 F 
ATOM     71  F   UNL A   1      40.281  35.154  37.128  1.00  0.00    -0.200 F 
ATOM     72  C   UNL A   1      38.723  33.512  37.799  1.00  0.00     0.200 A 
ATOM     73  F   UNL A   1      37.188  31.833  38.433  1.00  0.00    -0.200 F 
ATOM     74  F   UNL A   1      38.334  34.278  38.827  1.00  0.00    -0.200 F 
ENDBRANCH  40  64
BRANCH  52  75
ATOM     75  C   UNL A   1      44.811  27.446  34.629  1.00  0.00     0.064 A 
ATOM     76  C   UNL A   1      44.717  26.279  35.402  1.00  0.00     0.173 A 
ATOM     77  C   UNL A   1      46.010  28.172  34.681  1.00  0.00     0.173 A 
ATOM     78  F   UNL A   1      43.586  25.557  35.402  1.00  0.00    -0.203 F 
ATOM     79  C   UNL A   1      45.772  25.873  36.215  1.00  0.00     0.198 A 
ATOM     80  C   UNL A   1      47.074  27.745  35.468  1.00  0.00     0.198 A 
ATOM     81  F   UNL A   1      46.154  29.294  33.959  1.00  0.00    -0.203 F 
ATOM     82  F   UNL A   1      45.639  24.787  36.990  1.00  0.00    -0.200 F 
ATOM     83  C   UNL A   1      46.952  26.601  36.241  1.00  0.00     0.200 A 
ATOM     84  F   UNL A   1      48.220  28.441  35.479  1.00  0.00    -0.200 F 
ATOM     85  F   UNL A   1      47.969  26.205  37.020  1.00  0.00    -0.200 F 
ENDBRANCH  52  75
ENDBRANCH  26  27
ENDBRANCH  19  21
ENDBRANCH  18  19
ENDBRANCH  17  18
ENDBRANCH   1  17
TORSDOF 14
ENDMDL
MODEL 3
REMARK VINA RESULT:     -10.1      6.031      9.993
REMARK SMILES CCS(=O)(=O)N[C@H]1C=C[C@@H](C(=O)OCCOC(=O)c2ccc(-c3c4nc(c(-c5c(F)c(F)c(F)c(F)c5F)c5ccc([nH]5)c(-c5c(F)c(F)c(F)c(F)c5F)c5nc(c(-c6c(F)c(F)c(F)c(F)c6F)c6ccc3[nH]6)C=C5)C=C4)cc2)C1
REMARK SMILES IDX 14 1 13 2 11 3 12 4 10 5 7 6 8 7 82 8 9 9 6 10 3 12 4 13
REMARK SMILES IDX 5 14 2 15 1 16 15 17 16 18 17 19 18 20 19 21 20 22 81 23
REMARK SMILES IDX 21 24 80 25 22 26 23 27 24 28 74 29 25 30 79 31 73 32 75 33
REMARK SMILES IDX 26 34 78 35 72 36 71 37 27 39 59 40 39 41 58 42 40 43 43 44
REMARK SMILES IDX 57 45 76 46 41 47 42 48 56 50 77 51 44 52 28 53 29 54 37 55
REMARK SMILES IDX 30 56 31 57 35 58 38 59 32 60 33 61 36 62 34 63 60 64 61 65
REMARK SMILES IDX 69 66 62 67 63 68 67 69 70 70 64 71 65 72 68 73 66 74 45 75
REMARK SMILES IDX 46 76 54 77 47 78 48 79 52 80 55 81 49 82 50 83 53 84 51 85
REMARK H PARENT 6 11 75 38 43 49
REMARK Flexibility Score: inf
ROOT
ATOM      1  C   UNL A   1      35.862  20.210  24.997  1.00  0.00     0.274 C 
ENDROOT
BRANCH   1   2
ATOM      2  O   UNL A   1      34.805  21.167  24.798  1.00  0.00    -0.462 OA
BRANCH   2   3
ATOM      3  C   UNL A   1      34.248  21.717  25.902  1.00  0.00     0.312 C 
ATOM      4  O   UNL A   1      33.691  21.080  26.792  1.00  0.00    -0.252 OA
BRANCH   3   5
ATOM      5  C   UNL A   1      34.438  23.229  25.992  1.00  0.00     0.123 C 
ATOM      6  C   UNL A   1      34.364  25.255  24.654  1.00  0.00     0.093 C 
ATOM      7  C   UNL A   1      33.133  25.096  25.473  1.00  0.00    -0.011 C 
ATOM      8  C   UNL A   1      35.130  23.948  24.829  1.00  0.00     0.043 C 
ATOM      9  C   UNL A   1      33.153  23.967  26.187  1.00  0.00    -0.015 C 
BRANCH   6  10
ATOM     10  N   UNL A   1      34.028  25.662  23.304  1.00  0.00    -0.208 NA
ATOM     11  H   UNL A   1      33.677  26.614  23.409  1.00  0.00     0.141 HD
BRANCH  10  12
ATOM     12  S   UNL A   1      32.992  24.960  22.219  1.00  0.00     0.211 S 
ATOM     13  O   UNL A   1      33.279  25.395  20.872  1.00  0.00    -0.212 OA
ATOM     14  O   UNL A   1      31.687  25.217  22.794  1.00  0.00    -0.212 OA
BRANCH  12  15
ATOM     15  C   UNL A   1      33.257  23.195  22.346  1.00  0.00     0.150 C 
ATOM     16  C   UNL A   1      32.084  22.393  22.864  1.00  0.00     0.022 C 
ENDBRANCH  12  15
ENDBRANCH  10  12
ENDBRANCH   6  10
ENDBRANCH   3   5
ENDBRANCH   2   3
ENDBRANCH   1   2
BRANCH   1  17
ATOM     17  C   UNL A   1      37.218  20.848  24.675  1.00  0.00     0.275 C 
BRANCH  17  18
ATOM     18  O   UNL A   1      37.681  21.675  25.763  1.00  0.00    -0.458 OA
BRANCH  18  19
ATOM     19  C   UNL A   1      38.963  21.456  26.129  1.00  0.00     0.338 C 
ATOM     20  O   UNL A   1      39.634  20.454  25.952  1.00  0.00    -0.246 OA
BRANCH  19  21
ATOM     21  C   UNL A   1      39.547  22.674  26.701  1.00  0.00     0.060 A 
ATOM     22  C   UNL A   1      39.104  23.899  26.211  1.00  0.00     0.016 A 
ATOM     23  C   UNL A   1      40.639  22.612  27.562  1.00  0.00     0.016 A 
ATOM     24  C   UNL A   1      39.799  25.065  26.490  1.00  0.00     0.010 A 
ATOM     25  C   UNL A   1      41.286  23.800  27.920  1.00  0.00     0.010 A 
ATOM     26  C   UNL A   1      40.891  25.030  27.361  1.00  0.00    -0.014 A 
BRANCH  26  27
ATOM     27  C   UNL A   1      41.616  26.286  27.669  1.00  0.00     0.031 A 
ATOM     28  C   UNL A   1      40.958  27.356  28.492  1.00  0.00     0.074 A 
ATOM     29  C   UNL A   1      42.874  26.451  27.220  1.00  0.00     0.049 A 
ATOM     30  N   UNL A   1      41.383  28.559  28.781  1.00  0.00    -0.248 NA
ATOM     31  C   UNL A   1      39.640  27.033  29.059  1.00  0.00     0.031 C 
ATOM     32  C   UNL A   1      43.637  25.460  26.461  1.00  0.00     0.029 A 
ATOM     33  N   UNL A   1      43.736  27.511  27.340  1.00  0.00    -0.354 N 
ATOM     34  C   UNL A   1      40.369  29.152  29.522  1.00  0.00     0.074 A 
ATOM     35  C   UNL A   1      39.300  28.181  29.625  1.00  0.00     0.031 C 
ATOM     36  C   UNL A   1      44.861  25.944  26.208  1.00  0.00     0.029 A 
ATOM     37  C   UNL A   1      44.941  27.309  26.716  1.00  0.00     0.049 A 
ATOM     38  H   UNL A   1      43.512  28.337  27.827  1.00  0.00     0.167 HD
ATOM     39  C   UNL A   1      40.339  30.394  30.063  1.00  0.00     0.037 A 
ATOM     40  C   UNL A   1      45.983  28.143  26.540  1.00  0.00     0.037 A 
ATOM     41  C   UNL A   1      41.423  31.340  29.970  1.00  0.00     0.049 A 
ATOM     42  C   UNL A   1      45.890  29.540  27.084  1.00  0.00     0.074 A 
ATOM     43  C   UNL A   1      41.510  32.611  30.511  1.00  0.00     0.029 A 
ATOM     44  N   UNL A   1      42.608  31.118  29.280  1.00  0.00    -0.354 N 
ATOM     45  N   UNL A   1      44.931  30.094  27.785  1.00  0.00    -0.248 NA
ATOM     46  C   UNL A   1      47.022  30.431  26.801  1.00  0.00     0.031 C 
ATOM     47  C   UNL A   1      42.716  33.182  30.091  1.00  0.00     0.029 A 
ATOM     48  C   UNL A   1      43.414  32.244  29.348  1.00  0.00     0.049 A 
ATOM     49  H   UNL A   1      42.840  30.285  28.811  1.00  0.00     0.167 HD
ATOM     50  C   UNL A   1      45.355  31.388  28.055  1.00  0.00     0.074 A 
ATOM     51  C   UNL A   1      46.665  31.530  27.451  1.00  0.00     0.031 C 
ATOM     52  C   UNL A   1      44.718  32.367  28.745  1.00  0.00     0.037 A 
BRANCH  39  53
ATOM     53  C   UNL A   1      39.072  30.818  30.754  1.00  0.00     0.064 A 
ATOM     54  C   UNL A   1      37.994  31.391  30.061  1.00  0.00     0.173 A 
ATOM     55  C   UNL A   1      38.936  30.646  32.141  1.00  0.00     0.173 A 
ATOM     56  F   UNL A   1      38.072  31.589  28.736  1.00  0.00    -0.203 F 
ATOM     57  C   UNL A   1      36.851  31.815  30.735  1.00  0.00     0.198 A 
ATOM     58  C   UNL A   1      37.777  31.037  32.806  1.00  0.00     0.198 A 
ATOM     59  F   UNL A   1      39.931  30.097  32.856  1.00  0.00    -0.203 F 
ATOM     60  F   UNL A   1      35.865  32.422  30.061  1.00  0.00    -0.200 F 
ATOM     61  C   UNL A   1      36.742  31.634  32.105  1.00  0.00     0.200 A 
ATOM     62  F   UNL A   1      37.668  30.845  34.127  1.00  0.00    -0.200 F 
ATOM     63  F   UNL A   1      35.642  32.045  32.753  1.00  0.00    -0.200 F 
ENDBRANCH  39  53
BRANCH  40  64
ATOM     64  C   UNL A   1      47.191  27.677  25.813  1.00  0.00     0.064 A 
ATOM     65  C   UNL A   1      47.253  27.740  24.415  1.00  0.00     0.173 A 
ATOM     66  C   UNL A   1      48.310  27.173  26.493  1.00  0.00     0.173 A 
ATOM     67  F   UNL A   1      46.200  28.195  23.719  1.00  0.00    -0.203 F 
ATOM     68  C   UNL A   1      48.383  27.307  23.724  1.00  0.00     0.198 A 
ATOM     69  C   UNL A   1      49.451  26.771  25.804  1.00  0.00     0.198 A 
ATOM     70  F   UNL A   1      48.304  27.093  27.833  1.00  0.00    -0.203 F 
ATOM     71  F   UNL A   1      48.399  27.342  22.384  1.00  0.00    -0.200 F 
ATOM     72  C   UNL A   1      49.484  26.831  24.419  1.00  0.00     0.200 A 
ATOM     73  F   UNL A   1      50.520  26.328  26.480  1.00  0.00    -0.200 F 
ATOM     74  F   UNL A   1      50.573  26.424  23.754  1.00  0.00    -0.200 F 
ENDBRANCH  40  64
BRANCH  52  75
ATOM     75  C   UNL A   1      45.453  33.666  28.922  1.00  0.00     0.064 A 
ATOM     76  C   UNL A   1      45.305  34.731  28.021  1.00  0.00     0.173 A 
ATOM     77  C   UNL A   1      46.295  33.856  30.028  1.00  0.00     0.173 A 
ATOM     78  F   UNL A   1      44.525  34.596  26.938  1.00  0.00    -0.203 F 
ATOM     79  C   UNL A   1      45.995  35.926  28.206  1.00  0.00     0.198 A 
ATOM     80  C   UNL A   1      46.956  35.064  30.229  1.00  0.00     0.198 A 
ATOM     81  F   UNL A   1      46.470  32.871  30.923  1.00  0.00    -0.203 F 
ATOM     82  F   UNL A   1      45.884  36.909  27.301  1.00  0.00    -0.200 F 
ATOM     83  C   UNL A   1      46.813  36.094  29.313  1.00  0.00     0.200 A 
ATOM     84  F   UNL A   1      47.733  35.229  31.308  1.00  0.00    -0.200 F 
ATOM     85  F   UNL A   1      47.472  37.248  29.494  1.00  0.00    -0.200 F 
ENDBRANCH  52  75
ENDBRANCH  26  27
ENDBRANCH  19  21
ENDBRANCH  18  19
ENDBRANCH  17  18
ENDBRANCH   1  17
TORSDOF 14
ENDMDL
