MODEL 1
REMARK VINA RESULT:     -14.7      0.000      0.000
REMARK SMILES Cc1cc(C(=O)OCCOC(=O)c2ccc(-c3c4nc(c(-c5c(F)c(F)c(F)c(F)c5F)c5ccc([nH]5)c(-c5c(F)c(F)c(F)c(F)c5F)c5nc(c(-c6c(F)c(F)c(F)c(F)c6F)c6ccc3[nH]6)C=C5)C=C4)cc2)ccc1NS(=O)(=O)c1ccc2c(c1)CCC2
REMARK SMILES IDX 8 1 7 2 5 3 6 4 4 5 1 6 2 7 3 8 78 9 77 10 76 11 79 12 80 14
REMARK SMILES IDX 81 15 82 16 83 17 84 18 88 19 85 20 87 21 86 22 89 23 91 24
REMARK SMILES IDX 90 25 9 26 10 27 11 28 12 29 13 30 14 31 75 32 15 33 74 34
REMARK SMILES IDX 16 35 17 36 18 37 68 38 19 39 73 40 67 41 69 42 20 43 72 44
REMARK SMILES IDX 66 45 65 46 21 48 53 49 33 50 52 51 34 52 37 53 51 54 70 55
REMARK SMILES IDX 35 56 36 57 50 59 71 60 38 61 22 62 23 63 31 64 24 65 25 66
REMARK SMILES IDX 29 67 32 68 26 69 27 70 30 71 28 72 54 73 55 74 63 75 56 76
REMARK SMILES IDX 57 77 61 78 64 79 58 80 59 81 62 82 60 83 39 84 40 85 48 86
REMARK SMILES IDX 41 87 42 88 46 89 49 90 43 91 44 92 47 93 45 94
REMARK H PARENT 79 13 69 47 37 58
REMARK Flexibility Score: inf
ROOT
ATOM      1  C   UNL A   1      32.904  30.191  27.269  1.00  0.00     0.275 C 
ENDROOT
BRANCH   1   2
ATOM      2  O   UNL A   1      33.007  28.752  27.198  1.00  0.00    -0.458 OA
BRANCH   2   3
ATOM      3  C   UNL A   1      31.780  28.184  27.000  1.00  0.00     0.338 C 
ATOM      4  O   UNL A   1      31.036  27.854  27.920  1.00  0.00    -0.246 OA
BRANCH   3   5
ATOM      5  C   UNL A   1      31.348  27.944  25.588  1.00  0.00     0.060 A 
ATOM      6  C   UNL A   1      30.490  29.431  22.203  1.00  0.00     0.046 C 
ATOM      7  C   UNL A   1      31.031  28.454  23.220  1.00  0.00    -0.026 A 
ATOM      8  C   UNL A   1      31.231  28.888  24.561  1.00  0.00     0.021 A 
ATOM      9  C   UNL A   1      31.091  27.077  22.938  1.00  0.00     0.052 A 
ATOM     10  C   UNL A   1      30.907  26.176  23.971  1.00  0.00     0.028 A 
ATOM     11  C   UNL A   1      31.041  26.609  25.284  1.00  0.00     0.018 A 
BRANCH   9  12
ATOM     12  N   UNL A   1      31.435  26.523  21.657  1.00  0.00    -0.279 N 
ATOM     13  H   UNL A   1      30.783  26.543  20.920  1.00  0.00     0.180 HD
BRANCH  12  14
ATOM     14  S   UNL A   1      33.007  25.815  21.412  1.00  0.00     0.261 S 
ATOM     15  O   UNL A   1      32.935  25.233  20.085  1.00  0.00    -0.201 OA
ATOM     16  O   UNL A   1      33.972  26.857  21.693  1.00  0.00    -0.201 OA
BRANCH  14  17
ATOM     17  C   UNL A   1      33.347  24.472  22.548  1.00  0.00     0.088 A 
ATOM     18  C   UNL A   1      34.273  24.624  23.588  1.00  0.00     0.022 A 
ATOM     19  C   UNL A   1      32.713  23.232  22.376  1.00  0.00     0.026 A 
ATOM     20  C   UNL A   1      34.304  23.712  24.653  1.00  0.00     0.005 A 
ATOM     21  C   UNL A   1      32.862  22.275  23.370  1.00  0.00    -0.043 A 
ATOM     22  C   UNL A   1      33.533  22.572  24.558  1.00  0.00    -0.045 A 
ATOM     23  C   UNL A   1      32.433  20.841  23.389  1.00  0.00     0.036 C 
ATOM     24  C   UNL A   1      33.307  21.506  25.587  1.00  0.00     0.036 C 
ATOM     25  C   UNL A   1      32.247  20.628  24.895  1.00  0.00     0.010 C 
ENDBRANCH  14  17
ENDBRANCH  12  14
ENDBRANCH   9  12
ENDBRANCH   3   5
ENDBRANCH   2   3
ENDBRANCH   1   2
BRANCH   1  26
ATOM     26  C   UNL A   1      34.214  30.985  27.442  1.00  0.00     0.275 C 
BRANCH  26  27
ATOM     27  O   UNL A   1      35.501  30.339  27.624  1.00  0.00    -0.458 OA
BRANCH  27  28
ATOM     28  C   UNL A   1      36.467  30.788  28.449  1.00  0.00     0.338 C 
ATOM     29  O   UNL A   1      36.446  31.897  28.972  1.00  0.00    -0.246 OA
BRANCH  28  30
ATOM     30  C   UNL A   1      37.593  29.863  28.635  1.00  0.00     0.060 A 
ATOM     31  C   UNL A   1      37.537  28.934  29.689  1.00  0.00     0.016 A 
ATOM     32  C   UNL A   1      38.599  29.816  27.673  1.00  0.00     0.016 A 
ATOM     33  C   UNL A   1      38.468  27.911  29.752  1.00  0.00     0.010 A 
ATOM     34  C   UNL A   1      39.406  28.714  27.630  1.00  0.00     0.010 A 
ATOM     35  C   UNL A   1      39.389  27.821  28.712  1.00  0.00    -0.014 A 
BRANCH  35  36
ATOM     36  C   UNL A   1      40.649  27.122  28.847  1.00  0.00     0.031 A 
ATOM     37  C   UNL A   1      40.761  25.700  28.516  1.00  0.00     0.074 A 
ATOM     38  C   UNL A   1      41.634  28.019  29.087  1.00  0.00     0.049 A 
ATOM     39  N   UNL A   1      41.672  24.919  28.969  1.00  0.00    -0.248 NA
ATOM     40  C   UNL A   1      39.790  24.994  27.685  1.00  0.00     0.031 C 
ATOM     41  C   UNL A   1      43.074  27.952  28.972  1.00  0.00     0.029 A 
ATOM     42  N   UNL A   1      41.407  29.301  29.637  1.00  0.00    -0.354 N 
ATOM     43  C   UNL A   1      41.639  23.770  28.199  1.00  0.00     0.074 A 
ATOM     44  C   UNL A   1      40.338  23.776  27.589  1.00  0.00     0.031 C 
ATOM     45  C   UNL A   1      43.601  28.939  29.729  1.00  0.00     0.029 A 
ATOM     46  C   UNL A   1      42.502  29.580  30.449  1.00  0.00     0.049 A 
ATOM     47  H   UNL A   1      40.628  29.882  29.477  1.00  0.00     0.167 HD
ATOM     48  C   UNL A   1      42.815  23.099  28.002  1.00  0.00     0.037 A 
ATOM     49  C   UNL A   1      42.289  29.540  31.798  1.00  0.00     0.037 A 
ATOM     50  C   UNL A   1      43.868  23.795  28.744  1.00  0.00     0.049 A 
ATOM     51  C   UNL A   1      43.017  28.350  32.372  1.00  0.00     0.074 A 
ATOM     52  C   UNL A   1      44.772  24.766  28.347  1.00  0.00     0.029 A 
ATOM     53  N   UNL A   1      43.794  23.856  30.130  1.00  0.00    -0.354 N 
ATOM     54  N   UNL A   1      43.139  27.195  31.769  1.00  0.00    -0.248 NA
ATOM     55  C   UNL A   1      43.787  28.447  33.603  1.00  0.00     0.031 C 
ATOM     56  C   UNL A   1      45.164  25.485  29.510  1.00  0.00     0.029 A 
ATOM     57  C   UNL A   1      44.493  24.953  30.601  1.00  0.00     0.049 A 
ATOM     58  H   UNL A   1      43.314  23.211  30.697  1.00  0.00     0.167 HD
ATOM     59  C   UNL A   1      44.064  26.447  32.447  1.00  0.00     0.074 A 
ATOM     60  C   UNL A   1      44.420  27.263  33.597  1.00  0.00     0.031 C 
ATOM     61  C   UNL A   1      44.542  25.237  32.025  1.00  0.00     0.037 A 
BRANCH  48  62
ATOM     62  C   UNL A   1      43.131  22.058  26.939  1.00  0.00     0.064 A 
ATOM     63  C   UNL A   1      42.458  20.810  26.956  1.00  0.00     0.173 A 
ATOM     64  C   UNL A   1      44.085  22.181  25.909  1.00  0.00     0.173 A 
ATOM     65  F   UNL A   1      41.473  20.559  27.830  1.00  0.00    -0.203 F 
ATOM     66  C   UNL A   1      42.759  19.767  26.075  1.00  0.00     0.198 A 
ATOM     67  C   UNL A   1      44.394  21.131  25.032  1.00  0.00     0.198 A 
ATOM     68  F   UNL A   1      44.734  23.324  25.679  1.00  0.00    -0.203 F 
ATOM     69  F   UNL A   1      42.094  18.606  26.165  1.00  0.00    -0.200 F 
ATOM     70  C   UNL A   1      43.737  19.921  25.119  1.00  0.00     0.200 A 
ATOM     71  F   UNL A   1      45.336  21.306  24.093  1.00  0.00    -0.200 F 
ATOM     72  F   UNL A   1      44.034  18.922  24.277  1.00  0.00    -0.200 F 
ENDBRANCH  48  62
BRANCH  49  73
ATOM     73  C   UNL A   1      40.944  30.061  32.229  1.00  0.00     0.064 A 
ATOM     74  C   UNL A   1      40.595  31.389  31.878  1.00  0.00     0.173 A 
ATOM     75  C   UNL A   1      39.908  29.259  32.725  1.00  0.00     0.173 A 
ATOM     76  F   UNL A   1      41.535  32.226  31.409  1.00  0.00    -0.203 F 
ATOM     77  C   UNL A   1      39.276  31.849  31.907  1.00  0.00     0.198 A 
ATOM     78  C   UNL A   1      38.587  29.734  32.781  1.00  0.00     0.198 A 
ATOM     79  F   UNL A   1      40.140  27.990  33.082  1.00  0.00    -0.203 F 
ATOM     80  F   UNL A   1      38.982  33.072  31.444  1.00  0.00    -0.200 F 
ATOM     81  C   UNL A   1      38.270  31.014  32.350  1.00  0.00     0.200 A 
ATOM     82  F   UNL A   1      37.597  28.912  33.167  1.00  0.00    -0.200 F 
ATOM     83  F   UNL A   1      36.991  31.418  32.311  1.00  0.00    -0.200 F 
ENDBRANCH  49  73
BRANCH  61  84
ATOM     84  C   UNL A   1      45.207  24.237  32.933  1.00  0.00     0.064 A 
ATOM     85  C   UNL A   1      46.486  24.435  33.479  1.00  0.00     0.173 A 
ATOM     86  C   UNL A   1      44.496  23.118  33.431  1.00  0.00     0.173 A 
ATOM     87  F   UNL A   1      47.199  25.538  33.217  1.00  0.00    -0.203 F 
ATOM     88  C   UNL A   1      47.054  23.527  34.369  1.00  0.00     0.198 A 
ATOM     89  C   UNL A   1      45.033  22.265  34.391  1.00  0.00     0.198 A 
ATOM     90  F   UNL A   1      43.246  22.838  33.036  1.00  0.00    -0.203 F 
ATOM     91  F   UNL A   1      48.309  23.722  34.797  1.00  0.00    -0.200 F 
ATOM     92  C   UNL A   1      46.324  22.451  34.835  1.00  0.00     0.200 A 
ATOM     93  F   UNL A   1      44.281  21.278  34.894  1.00  0.00    -0.200 F 
ATOM     94  F   UNL A   1      46.856  21.611  35.731  1.00  0.00    -0.200 F 
ENDBRANCH  61  84
ENDBRANCH  35  36
ENDBRANCH  28  30
ENDBRANCH  27  28
ENDBRANCH  26  27
ENDBRANCH   1  26
TORSDOF 14
ENDMDL
MODEL 2
REMARK VINA RESULT:     -14.6      3.983     10.403
REMARK SMILES Cc1cc(C(=O)OCCOC(=O)c2ccc(-c3c4nc(c(-c5c(F)c(F)c(F)c(F)c5F)c5ccc([nH]5)c(-c5c(F)c(F)c(F)c(F)c5F)c5nc(c(-c6c(F)c(F)c(F)c(F)c6F)c6ccc3[nH]6)C=C5)C=C4)cc2)ccc1NS(=O)(=O)c1ccc2c(c1)CCC2
REMARK SMILES IDX 8 1 7 2 5 3 6 4 4 5 1 6 2 7 3 8 78 9 77 10 76 11 79 12 80 14
REMARK SMILES IDX 81 15 82 16 83 17 84 18 88 19 85 20 87 21 86 22 89 23 91 24
REMARK SMILES IDX 90 25 9 26 10 27 11 28 12 29 13 30 14 31 75 32 15 33 74 34
REMARK SMILES IDX 16 35 17 36 18 37 68 38 19 39 73 40 67 41 69 42 20 43 72 44
REMARK SMILES IDX 66 45 65 46 21 48 53 49 33 50 52 51 34 52 37 53 51 54 70 55
REMARK SMILES IDX 35 56 36 57 50 59 71 60 38 61 22 62 23 63 31 64 24 65 25 66
REMARK SMILES IDX 29 67 32 68 26 69 27 70 30 71 28 72 54 73 55 74 63 75 56 76
REMARK SMILES IDX 57 77 61 78 64 79 58 80 59 81 62 82 60 83 39 84 40 85 48 86
REMARK SMILES IDX 41 87 42 88 46 89 49 90 43 91 44 92 47 93 45 94
REMARK H PARENT 79 13 69 47 37 58
REMARK Flexibility Score: inf
ROOT
ATOM      1  C   UNL A   1      37.777  22.118  25.215  1.00  0.00     0.275 C 
ENDROOT
BRANCH   1   2
ATOM      2  O   UNL A   1      37.007  23.210  24.668  1.00  0.00    -0.458 OA
BRANCH   2   3
ATOM      3  C   UNL A   1      36.263  22.795  23.601  1.00  0.00     0.338 C 
ATOM      4  O   UNL A   1      36.687  22.786  22.448  1.00  0.00    -0.246 OA
BRANCH   3   5
ATOM      5  C   UNL A   1      34.858  22.351  23.866  1.00  0.00     0.060 A 
ATOM      6  C   UNL A   1      32.544  19.595  25.069  1.00  0.00     0.046 C 
ATOM      7  C   UNL A   1      33.083  20.987  24.842  1.00  0.00    -0.026 A 
ATOM      8  C   UNL A   1      34.442  21.150  24.452  1.00  0.00     0.021 A 
ATOM      9  C   UNL A   1      32.216  22.092  24.753  1.00  0.00     0.052 A 
ATOM     10  C   UNL A   1      32.553  23.139  23.916  1.00  0.00     0.028 A 
ATOM     11  C   UNL A   1      33.867  23.267  23.482  1.00  0.00     0.018 A 
BRANCH   9  12
ATOM     12  N   UNL A   1      31.034  22.266  25.552  1.00  0.00    -0.279 N 
ATOM     13  H   UNL A   1      30.238  21.712  25.384  1.00  0.00     0.180 HD
BRANCH  12  14
ATOM     14  S   UNL A   1      31.015  23.459  26.821  1.00  0.00     0.261 S 
ATOM     15  O   UNL A   1      29.646  23.446  27.304  1.00  0.00    -0.201 OA
ATOM     16  O   UNL A   1      32.101  23.122  27.716  1.00  0.00    -0.201 OA
BRANCH  14  17
ATOM     17  C   UNL A   1      31.334  25.116  26.218  1.00  0.00     0.088 A 
ATOM     18  C   UNL A   1      30.445  25.746  25.337  1.00  0.00     0.022 A 
ATOM     19  C   UNL A   1      32.509  25.784  26.593  1.00  0.00     0.026 A 
ATOM     20  C   UNL A   1      30.516  27.130  25.123  1.00  0.00     0.005 A 
ATOM     21  C   UNL A   1      32.640  27.124  26.254  1.00  0.00    -0.043 A 
ATOM     22  C   UNL A   1      31.589  27.817  25.651  1.00  0.00    -0.045 A 
ATOM     23  C   UNL A   1      33.821  28.034  26.389  1.00  0.00     0.036 C 
ATOM     24  C   UNL A   1      31.843  29.295  25.658  1.00  0.00     0.036 C 
ATOM     25  C   UNL A   1      33.114  29.386  26.524  1.00  0.00     0.010 C 
ENDBRANCH  14  17
ENDBRANCH  12  14
ENDBRANCH   9  12
ENDBRANCH   3   5
ENDBRANCH   2   3
ENDBRANCH   1   2
BRANCH   1  26
ATOM     26  C   UNL A   1      38.837  22.465  26.281  1.00  0.00     0.275 C 
BRANCH  26  27
ATOM     27  O   UNL A   1      38.968  23.794  26.848  1.00  0.00    -0.458 OA
BRANCH  27  28
ATOM     28  C   UNL A   1      40.098  24.279  27.396  1.00  0.00     0.338 C 
ATOM     29  O   UNL A   1      41.106  23.602  27.574  1.00  0.00    -0.246 OA
BRANCH  28  30
ATOM     30  C   UNL A   1      40.019  25.681  27.827  1.00  0.00     0.060 A 
ATOM     31  C   UNL A   1      40.221  26.693  26.873  1.00  0.00     0.016 A 
ATOM     32  C   UNL A   1      39.585  25.971  29.119  1.00  0.00     0.016 A 
ATOM     33  C   UNL A   1      39.933  28.008  27.196  1.00  0.00     0.010 A 
ATOM     34  C   UNL A   1      39.133  27.233  29.384  1.00  0.00     0.010 A 
ATOM     35  C   UNL A   1      39.389  28.252  28.455  1.00  0.00    -0.014 A 
BRANCH  35  36
ATOM     36  C   UNL A   1      39.449  29.551  29.090  1.00  0.00     0.031 A 
ATOM     37  C   UNL A   1      38.410  30.554  28.851  1.00  0.00     0.074 A 
ATOM     38  C   UNL A   1      40.427  29.547  30.025  1.00  0.00     0.049 A 
ATOM     39  N   UNL A   1      38.568  31.817  29.019  1.00  0.00    -0.248 NA
ATOM     40  C   UNL A   1      37.091  30.229  28.316  1.00  0.00     0.031 C 
ATOM     41  C   UNL A   1      40.709  30.402  31.157  1.00  0.00     0.029 A 
ATOM     42  N   UNL A   1      41.521  28.652  30.007  1.00  0.00    -0.354 N 
ATOM     43  C   UNL A   1      37.307  32.388  29.006  1.00  0.00     0.074 A 
ATOM     44  C   UNL A   1      36.473  31.416  28.353  1.00  0.00     0.031 C 
ATOM     45  C   UNL A   1      42.006  30.235  31.495  1.00  0.00     0.029 A 
ATOM     46  C   UNL A   1      42.616  29.360  30.495  1.00  0.00     0.049 A 
ATOM     47  H   UNL A   1      41.511  27.714  29.710  1.00  0.00     0.167 HD
ATOM     48  C   UNL A   1      37.104  33.505  29.768  1.00  0.00     0.037 A 
ATOM     49  C   UNL A   1      43.569  29.717  29.583  1.00  0.00     0.037 A 
ATOM     50  C   UNL A   1      38.372  33.857  30.410  1.00  0.00     0.049 A 
ATOM     51  C   UNL A   1      43.532  31.214  29.400  1.00  0.00     0.074 A 
ATOM     52  C   UNL A   1      38.882  33.537  31.657  1.00  0.00     0.029 A 
ATOM     53  N   UNL A   1      39.451  34.234  29.619  1.00  0.00    -0.354 N 
ATOM     54  N   UNL A   1      42.441  31.936  29.412  1.00  0.00    -0.248 NA
ATOM     55  C   UNL A   1      44.752  32.007  29.348  1.00  0.00     0.031 C 
ATOM     56  C   UNL A   1      40.299  33.626  31.575  1.00  0.00     0.029 A 
ATOM     57  C   UNL A   1      40.641  33.991  30.282  1.00  0.00     0.049 A 
ATOM     58  H   UNL A   1      39.380  34.618  28.716  1.00  0.00     0.167 HD
ATOM     59  C   UNL A   1      42.795  33.257  29.479  1.00  0.00     0.074 A 
ATOM     60  C   UNL A   1      44.248  33.248  29.412  1.00  0.00     0.031 C 
ATOM     61  C   UNL A   1      41.912  34.288  29.643  1.00  0.00     0.037 A 
BRANCH  48  62
ATOM     62  C   UNL A   1      35.780  34.102  30.218  1.00  0.00     0.064 A 
ATOM     63  C   UNL A   1      34.888  34.639  29.256  1.00  0.00     0.173 A 
ATOM     64  C   UNL A   1      35.327  34.220  31.548  1.00  0.00     0.173 A 
ATOM     65  F   UNL A   1      35.137  34.545  27.942  1.00  0.00    -0.203 F 
ATOM     66  C   UNL A   1      33.698  35.290  29.595  1.00  0.00     0.198 A 
ATOM     67  C   UNL A   1      34.139  34.882  31.889  1.00  0.00     0.198 A 
ATOM     68  F   UNL A   1      35.988  33.675  32.570  1.00  0.00    -0.203 F 
ATOM     69  F   UNL A   1      32.914  35.792  28.630  1.00  0.00    -0.200 F 
ATOM     70  C   UNL A   1      33.328  35.424  30.914  1.00  0.00     0.200 A 
ATOM     71  F   UNL A   1      33.784  34.985  33.178  1.00  0.00    -0.200 F 
ATOM     72  F   UNL A   1      32.191  36.053  31.245  1.00  0.00    -0.200 F 
ENDBRANCH  48  62
BRANCH  49  73
ATOM     73  C   UNL A   1      43.818  28.689  28.512  1.00  0.00     0.064 A 
ATOM     74  C   UNL A   1      44.230  27.393  28.908  1.00  0.00     0.173 A 
ATOM     75  C   UNL A   1      43.427  28.832  27.174  1.00  0.00     0.173 A 
ATOM     76  F   UNL A   1      44.634  27.176  30.171  1.00  0.00    -0.203 F 
ATOM     77  C   UNL A   1      44.147  26.288  28.058  1.00  0.00     0.198 A 
ATOM     78  C   UNL A   1      43.372  27.725  26.312  1.00  0.00     0.198 A 
ATOM     79  F   UNL A   1      43.020  30.019  26.706  1.00  0.00    -0.203 F 
ATOM     80  F   UNL A   1      44.429  25.062  28.522  1.00  0.00    -0.200 F 
ATOM     81  C   UNL A   1      43.705  26.454  26.760  1.00  0.00     0.200 A 
ATOM     82  F   UNL A   1      42.901  27.872  25.063  1.00  0.00    -0.200 F 
ATOM     83  F   UNL A   1      43.548  25.390  25.959  1.00  0.00    -0.200 F 
ENDBRANCH  49  73
BRANCH  61  84
ATOM     84  C   UNL A   1      42.223  35.720  29.298  1.00  0.00     0.064 A 
ATOM     85  C   UNL A   1      43.082  36.521  30.068  1.00  0.00     0.173 A 
ATOM     86  C   UNL A   1      41.804  36.282  28.067  1.00  0.00     0.173 A 
ATOM     87  F   UNL A   1      43.678  36.051  31.172  1.00  0.00    -0.203 F 
ATOM     88  C   UNL A   1      43.408  37.821  29.694  1.00  0.00     0.198 A 
ATOM     89  C   UNL A   1      42.208  37.547  27.654  1.00  0.00     0.198 A 
ATOM     90  F   UNL A   1      41.024  35.609  27.209  1.00  0.00    -0.203 F 
ATOM     91  F   UNL A   1      44.166  38.570  30.506  1.00  0.00    -0.200 F 
ATOM     92  C   UNL A   1      42.983  38.330  28.482  1.00  0.00     0.200 A 
ATOM     93  F   UNL A   1      41.857  37.991  26.440  1.00  0.00    -0.200 F 
ATOM     94  F   UNL A   1      43.343  39.561  28.103  1.00  0.00    -0.200 F 
ENDBRANCH  61  84
ENDBRANCH  35  36
ENDBRANCH  28  30
ENDBRANCH  27  28
ENDBRANCH  26  27
ENDBRANCH   1  26
TORSDOF 14
ENDMDL
MODEL 3
REMARK VINA RESULT:     -14.6      1.368      2.094
REMARK SMILES Cc1cc(C(=O)OCCOC(=O)c2ccc(-c3c4nc(c(-c5c(F)c(F)c(F)c(F)c5F)c5ccc([nH]5)c(-c5c(F)c(F)c(F)c(F)c5F)c5nc(c(-c6c(F)c(F)c(F)c(F)c6F)c6ccc3[nH]6)C=C5)C=C4)cc2)ccc1NS(=O)(=O)c1ccc2c(c1)CCC2
REMARK SMILES IDX 8 1 7 2 5 3 6 4 4 5 1 6 2 7 3 8 78 9 77 10 76 11 79 12 80 14
REMARK SMILES IDX 81 15 82 16 83 17 84 18 88 19 85 20 87 21 86 22 89 23 91 24
REMARK SMILES IDX 90 25 9 26 10 27 11 28 12 29 13 30 14 31 75 32 15 33 74 34
REMARK SMILES IDX 16 35 17 36 18 37 68 38 19 39 73 40 67 41 69 42 20 43 72 44
REMARK SMILES IDX 66 45 65 46 21 48 53 49 33 50 52 51 34 52 37 53 51 54 70 55
REMARK SMILES IDX 35 56 36 57 50 59 71 60 38 61 22 62 23 63 31 64 24 65 25 66
REMARK SMILES IDX 29 67 32 68 26 69 27 70 30 71 28 72 54 73 55 74 63 75 56 76
REMARK SMILES IDX 57 77 61 78 64 79 58 80 59 81 62 82 60 83 39 84 40 85 48 86
REMARK SMILES IDX 41 87 42 88 46 89 49 90 43 91 44 92 47 93 45 94
REMARK H PARENT 79 13 69 47 37 58
REMARK Flexibility Score: inf
ROOT
ATOM      1  C   UNL A   1      32.933  30.362  26.966  1.00  0.00     0.275 C 
ENDROOT
BRANCH   1   2
ATOM      2  O   UNL A   1      33.101  28.987  26.558  1.00  0.00    -0.458 OA
BRANCH   2   3
ATOM      3  C   UNL A   1      32.923  28.853  25.210  1.00  0.00     0.338 C 
ATOM      4  O   UNL A   1      33.278  29.703  24.397  1.00  0.00    -0.246 OA
BRANCH   3   5
ATOM      5  C   UNL A   1      32.244  27.613  24.721  1.00  0.00     0.060 A 
ATOM      6  C   UNL A   1      32.492  24.407  22.705  1.00  0.00     0.046 C 
ATOM      7  C   UNL A   1      32.084  25.352  23.810  1.00  0.00    -0.026 A 
ATOM      8  C   UNL A   1      32.813  26.561  23.994  1.00  0.00     0.021 A 
ATOM      9  C   UNL A   1      30.858  25.192  24.481  1.00  0.00     0.052 A 
ATOM     10  C   UNL A   1      30.190  26.317  24.929  1.00  0.00     0.028 A 
ATOM     11  C   UNL A   1      30.884  27.515  25.052  1.00  0.00     0.018 A 
BRANCH   9  12
ATOM     12  N   UNL A   1      30.281  23.923  24.832  1.00  0.00    -0.279 N 
ATOM     13  H   UNL A   1      29.491  23.589  24.349  1.00  0.00     0.180 HD
BRANCH  12  14
ATOM     14  S   UNL A   1      30.984  22.977  26.114  1.00  0.00     0.261 S 
ATOM     15  O   UNL A   1      31.011  23.879  27.251  1.00  0.00    -0.201 OA
ATOM     16  O   UNL A   1      30.220  21.749  26.183  1.00  0.00    -0.201 OA
BRANCH  14  17
ATOM     17  C   UNL A   1      32.683  22.514  25.782  1.00  0.00     0.088 A 
ATOM     18  C   UNL A   1      32.991  21.291  25.171  1.00  0.00     0.022 A 
ATOM     19  C   UNL A   1      33.729  23.363  26.174  1.00  0.00     0.026 A 
ATOM     20  C   UNL A   1      34.262  21.070  24.623  1.00  0.00     0.005 A 
ATOM     21  C   UNL A   1      35.015  23.061  25.746  1.00  0.00    -0.043 A 
ATOM     22  C   UNL A   1      35.248  22.005  24.862  1.00  0.00    -0.045 A 
ATOM     23  C   UNL A   1      36.321  23.688  26.124  1.00  0.00     0.036 C 
ATOM     24  C   UNL A   1      36.641  22.059  24.312  1.00  0.00     0.036 C 
ATOM     25  C   UNL A   1      37.135  23.413  24.855  1.00  0.00     0.010 C 
ENDBRANCH  14  17
ENDBRANCH  12  14
ENDBRANCH   9  12
ENDBRANCH   3   5
ENDBRANCH   2   3
ENDBRANCH   1   2
BRANCH   1  26
ATOM     26  C   UNL A   1      34.106  31.023  27.719  1.00  0.00     0.275 C 
BRANCH  26  27
ATOM     27  O   UNL A   1      35.308  30.296  28.085  1.00  0.00    -0.458 OA
BRANCH  27  28
ATOM     28  C   UNL A   1      36.497  30.875  28.340  1.00  0.00     0.338 C 
ATOM     29  O   UNL A   1      36.665  32.089  28.365  1.00  0.00    -0.246 OA
BRANCH  28  30
ATOM     30  C   UNL A   1      37.608  29.933  28.530  1.00  0.00     0.060 A 
ATOM     31  C   UNL A   1      37.517  28.980  29.559  1.00  0.00     0.016 A 
ATOM     32  C   UNL A   1      38.638  29.898  27.592  1.00  0.00     0.016 A 
ATOM     33  C   UNL A   1      38.436  27.946  29.620  1.00  0.00     0.010 A 
ATOM     34  C   UNL A   1      39.434  28.789  27.542  1.00  0.00     0.010 A 
ATOM     35  C   UNL A   1      39.381  27.870  28.601  1.00  0.00    -0.014 A 
BRANCH  35  36
ATOM     36  C   UNL A   1      40.630  27.154  28.749  1.00  0.00     0.031 A 
ATOM     37  C   UNL A   1      40.719  25.726  28.442  1.00  0.00     0.074 A 
ATOM     38  C   UNL A   1      41.628  28.039  28.975  1.00  0.00     0.049 A 
ATOM     39  N   UNL A   1      41.618  24.938  28.909  1.00  0.00    -0.248 NA
ATOM     40  C   UNL A   1      39.739  25.020  27.623  1.00  0.00     0.031 C 
ATOM     41  C   UNL A   1      43.067  27.948  28.862  1.00  0.00     0.029 A 
ATOM     42  N   UNL A   1      41.421  29.334  29.502  1.00  0.00    -0.354 N 
ATOM     43  C   UNL A   1      41.568  23.776  28.160  1.00  0.00     0.074 A 
ATOM     44  C   UNL A   1      40.267  23.792  27.548  1.00  0.00     0.031 C 
ATOM     45  C   UNL A   1      43.609  28.940  29.602  1.00  0.00     0.029 A 
ATOM     46  C   UNL A   1      42.519  29.610  30.310  1.00  0.00     0.049 A 
ATOM     47  H   UNL A   1      40.652  29.924  29.332  1.00  0.00     0.167 HD
ATOM     48  C   UNL A   1      42.733  23.084  27.975  1.00  0.00     0.037 A 
ATOM     49  C   UNL A   1      42.305  29.597  31.660  1.00  0.00     0.037 A 
ATOM     50  C   UNL A   1      43.797  23.776  28.706  1.00  0.00     0.049 A 
ATOM     51  C   UNL A   1      43.014  28.405  32.255  1.00  0.00     0.074 A 
ATOM     52  C   UNL A   1      44.716  24.726  28.294  1.00  0.00     0.029 A 
ATOM     53  N   UNL A   1      43.723  23.862  30.091  1.00  0.00    -0.354 N 
ATOM     54  N   UNL A   1      43.118  27.238  31.671  1.00  0.00    -0.248 NA
ATOM     55  C   UNL A   1      43.785  28.511  33.484  1.00  0.00     0.031 C 
ATOM     56  C   UNL A   1      45.118  25.459  29.445  1.00  0.00     0.029 A 
ATOM     57  C   UNL A   1      44.438  24.956  30.544  1.00  0.00     0.049 A 
ATOM     58  H   UNL A   1      43.232  23.235  30.668  1.00  0.00     0.167 HD
ATOM     59  C   UNL A   1      44.031  26.487  32.364  1.00  0.00     0.074 A 
ATOM     60  C   UNL A   1      44.399  27.318  33.499  1.00  0.00     0.031 C 
ATOM     61  C   UNL A   1      44.490  25.264  31.963  1.00  0.00     0.037 A 
BRANCH  48  62
ATOM     62  C   UNL A   1      43.034  22.020  26.930  1.00  0.00     0.064 A 
ATOM     63  C   UNL A   1      42.383  20.762  27.001  1.00  0.00     0.173 A 
ATOM     64  C   UNL A   1      43.953  22.131  25.868  1.00  0.00     0.173 A 
ATOM     65  F   UNL A   1      41.430  20.519  27.912  1.00  0.00    -0.203 F 
ATOM     66  C   UNL A   1      42.674  19.701  26.139  1.00  0.00     0.198 A 
ATOM     67  C   UNL A   1      44.252  21.063  25.009  1.00  0.00     0.198 A 
ATOM     68  F   UNL A   1      44.575  23.278  25.587  1.00  0.00    -0.203 F 
ATOM     69  F   UNL A   1      42.032  18.532  26.280  1.00  0.00    -0.200 F 
ATOM     70  C   UNL A   1      43.620  19.846  25.149  1.00  0.00     0.200 A 
ATOM     71  F   UNL A   1      45.162  21.228  24.037  1.00  0.00    -0.200 F 
ATOM     72  F   UNL A   1      43.907  18.829  24.324  1.00  0.00    -0.200 F 
ENDBRANCH  48  62
BRANCH  49  73
ATOM     73  C   UNL A   1      40.968  30.146  32.080  1.00  0.00     0.064 A 
ATOM     74  C   UNL A   1      40.633  31.468  31.694  1.00  0.00     0.173 A 
ATOM     75  C   UNL A   1      39.924  29.370  32.601  1.00  0.00     0.173 A 
ATOM     76  F   UNL A   1      41.582  32.280  31.199  1.00  0.00    -0.203 F 
ATOM     77  C   UNL A   1      39.321  31.944  31.715  1.00  0.00     0.198 A 
ATOM     78  C   UNL A   1      38.609  29.862  32.649  1.00  0.00     0.198 A 
ATOM     79  F   UNL A   1      40.142  28.109  32.993  1.00  0.00    -0.203 F 
ATOM     80  F   UNL A   1      39.040  33.158  31.219  1.00  0.00    -0.200 F 
ATOM     81  C   UNL A   1      38.306  31.134  32.183  1.00  0.00     0.200 A 
ATOM     82  F   UNL A   1      37.611  29.065  33.061  1.00  0.00    -0.200 F 
ATOM     83  F   UNL A   1      37.032  31.552  32.137  1.00  0.00    -0.200 F 
ENDBRANCH  49  73
BRANCH  61  84
ATOM     84  C   UNL A   1      45.139  24.269  32.888  1.00  0.00     0.064 A 
ATOM     85  C   UNL A   1      46.433  24.440  33.406  1.00  0.00     0.173 A 
ATOM     86  C   UNL A   1      44.402  23.188  33.431  1.00  0.00     0.173 A 
ATOM     87  F   UNL A   1      47.177  25.511  33.099  1.00  0.00    -0.203 F 
ATOM     88  C   UNL A   1      46.988  23.541  34.312  1.00  0.00     0.198 A 
ATOM     89  C   UNL A   1      44.928  22.347  34.406  1.00  0.00     0.198 A 
ATOM     90  F   UNL A   1      43.136  22.939  33.067  1.00  0.00    -0.203 F 
ATOM     91  F   UNL A   1      48.256  23.707  34.713  1.00  0.00    -0.200 F 
ATOM     92  C   UNL A   1      46.232  22.504  34.823  1.00  0.00     0.200 A 
ATOM     93  F   UNL A   1      44.154  21.400  34.952  1.00  0.00    -0.200 F 
ATOM     94  F   UNL A   1      46.753  21.673  35.734  1.00  0.00    -0.200 F 
ENDBRANCH  61  84
ENDBRANCH  35  36
ENDBRANCH  28  30
ENDBRANCH  27  28
ENDBRANCH  26  27
ENDBRANCH   1  26
TORSDOF 14
ENDMDL
