MODEL 1
REMARK VINA RESULT:     -12.3      0.000      0.000
REMARK SMILES CC(=O)O[C@H]1C[C@@H](C(=O)OCCOC(=O)c2ccc(-c3c4nc(c(-c5c(F)c(F)c(F)c(F)c5F)c5ccc([nH]5)c(-c5c(F)c(F)c(F)c(F)c5F)c5nc(c(-c6c(F)c(F)c(F)c(F)c6F)c6ccc3[nH]6)C=C5)C=C4)cc2)N(S(=O)(=O)c2ccc(F)cc2)C1
REMARK SMILES IDX 11 1 10 2 8 3 9 4 7 5 5 6 6 7 90 8 79 9 4 10 2 11 1 12 3 13
REMARK SMILES IDX 80 14 81 15 82 16 83 17 84 18 89 19 85 20 88 21 86 22 87 23
REMARK SMILES IDX 12 24 13 25 14 26 15 27 16 28 17 29 78 30 18 31 77 32 19 33
REMARK SMILES IDX 20 34 21 35 71 36 22 37 76 38 70 39 72 40 23 41 75 42 69 43
REMARK SMILES IDX 68 44 24 46 56 47 36 48 55 49 37 50 40 51 54 52 73 53 38 54
REMARK SMILES IDX 39 55 53 57 74 58 41 59 25 60 26 61 34 62 27 63 28 64 32 65
REMARK SMILES IDX 35 66 29 67 30 68 33 69 31 70 57 71 58 72 66 73 59 74 60 75
REMARK SMILES IDX 64 76 67 77 61 78 62 79 65 80 63 81 42 82 43 83 51 84 44 85
REMARK SMILES IDX 45 86 49 87 52 88 46 89 47 90 50 91 48 92
REMARK H PARENT 72 45 40 56
REMARK Flexibility Score: inf
ROOT
ATOM      1  C   UNL A   1      31.783  29.781  25.296  1.00  0.00     0.274 C 
ENDROOT
BRANCH   1   2
ATOM      2  O   UNL A   1      31.517  28.516  25.938  1.00  0.00    -0.461 OA
BRANCH   2   3
ATOM      3  C   UNL A   1      32.480  27.548  25.864  1.00  0.00     0.324 C 
ATOM      4  O   UNL A   1      33.651  27.749  25.573  1.00  0.00    -0.250 OA
BRANCH   3   5
ATOM      5  C   UNL A   1      31.890  26.199  26.220  1.00  0.00     0.187 C 
ATOM      6  C   UNL A   1      32.028  23.782  26.262  1.00  0.00     0.194 C 
ATOM      7  C   UNL A   1      32.890  25.037  26.289  1.00  0.00     0.079 C 
ATOM      8  C   UNL A   1      30.616  24.264  25.888  1.00  0.00     0.148 C 
ATOM      9  N   UNL A   1      30.778  25.665  25.370  1.00  0.00    -0.180 NA
BRANCH   6  10
ATOM     10  O   UNL A   1      32.507  22.892  25.251  1.00  0.00    -0.461 OA
BRANCH  10  11
ATOM     11  C   UNL A   1      32.525  21.593  25.654  1.00  0.00     0.302 C 
ATOM     12  C   UNL A   1      33.723  21.336  26.515  1.00  0.00     0.139 C 
ATOM     13  O   UNL A   1      31.778  20.724  25.229  1.00  0.00    -0.253 OA
ENDBRANCH  10  11
ENDBRANCH   6  10
BRANCH   9  14
ATOM     14  S   UNL A   1      30.958  25.727  23.662  1.00  0.00     0.243 S 
ATOM     15  O   UNL A   1      32.342  25.973  23.359  1.00  0.00    -0.207 OA
ATOM     16  O   UNL A   1      30.280  24.558  23.124  1.00  0.00    -0.207 OA
BRANCH  14  17
ATOM     17  C   UNL A   1      30.012  27.136  23.137  1.00  0.00     0.082 A 
ATOM     18  C   UNL A   1      30.640  28.152  22.407  1.00  0.00     0.025 A 
ATOM     19  C   UNL A   1      28.671  27.264  23.527  1.00  0.00     0.025 A 
ATOM     20  C   UNL A   1      29.906  29.276  22.026  1.00  0.00     0.040 A 
ATOM     21  C   UNL A   1      27.940  28.384  23.127  1.00  0.00     0.040 A 
ATOM     22  C   UNL A   1      28.563  29.377  22.377  1.00  0.00     0.123 A 
ATOM     23  F   UNL A   1      27.853  30.439  21.976  1.00  0.00    -0.207 F 
ENDBRANCH  14  17
ENDBRANCH   9  14
ENDBRANCH   3   5
ENDBRANCH   2   3
ENDBRANCH   1   2
BRANCH   1  24
ATOM     24  C   UNL A   1      31.753  30.959  26.273  1.00  0.00     0.275 C 
BRANCH  24  25
ATOM     25  O   UNL A   1      32.723  30.793  27.323  1.00  0.00    -0.458 OA
BRANCH  25  26
ATOM     26  C   UNL A   1      33.489  31.884  27.530  1.00  0.00     0.338 C 
ATOM     27  O   UNL A   1      33.113  33.042  27.626  1.00  0.00    -0.246 OA
BRANCH  26  28
ATOM     28  C   UNL A   1      34.872  31.503  27.845  1.00  0.00     0.060 A 
ATOM     29  C   UNL A   1      35.069  30.153  28.126  1.00  0.00     0.016 A 
ATOM     30  C   UNL A   1      35.903  32.419  28.027  1.00  0.00     0.016 A 
ATOM     31  C   UNL A   1      36.246  29.703  28.689  1.00  0.00     0.010 A 
ATOM     32  C   UNL A   1      37.108  31.968  28.580  1.00  0.00     0.010 A 
ATOM     33  C   UNL A   1      37.258  30.621  28.968  1.00  0.00    -0.014 A 
BRANCH  33  34
ATOM     34  C   UNL A   1      38.359  30.188  29.854  1.00  0.00     0.031 A 
ATOM     35  C   UNL A   1      39.414  29.278  29.290  1.00  0.00     0.074 A 
ATOM     36  C   UNL A   1      38.477  30.689  31.096  1.00  0.00     0.049 A 
ATOM     37  N   UNL A   1      40.411  28.683  29.890  1.00  0.00    -0.248 NA
ATOM     38  C   UNL A   1      39.333  29.000  27.845  1.00  0.00     0.031 C 
ATOM     39  C   UNL A   1      37.578  31.674  31.698  1.00  0.00     0.029 A 
ATOM     40  N   UNL A   1      39.413  30.451  32.068  1.00  0.00    -0.354 N 
ATOM     41  C   UNL A   1      41.036  27.918  28.914  1.00  0.00     0.074 A 
ATOM     42  C   UNL A   1      40.307  28.119  27.681  1.00  0.00     0.031 C 
ATOM     43  C   UNL A   1      38.010  31.959  32.937  1.00  0.00     0.029 A 
ATOM     44  C   UNL A   1      39.173  31.129  33.236  1.00  0.00     0.049 A 
ATOM     45  H   UNL A   1      40.183  29.850  31.940  1.00  0.00     0.167 HD
ATOM     46  C   UNL A   1      42.121  27.120  29.042  1.00  0.00     0.037 A 
ATOM     47  C   UNL A   1      39.802  31.052  34.422  1.00  0.00     0.037 A 
ATOM     48  C   UNL A   1      42.859  26.974  30.268  1.00  0.00     0.049 A 
ATOM     49  C   UNL A   1      40.971  30.113  34.556  1.00  0.00     0.074 A 
ATOM     50  C   UNL A   1      43.969  26.190  30.523  1.00  0.00     0.029 A 
ATOM     51  N   UNL A   1      42.561  27.645  31.448  1.00  0.00    -0.354 N 
ATOM     52  N   UNL A   1      41.522  29.339  33.650  1.00  0.00    -0.248 NA
ATOM     53  C   UNL A   1      41.603  30.031  35.879  1.00  0.00     0.031 C 
ATOM     54  C   UNL A   1      44.313  26.350  31.871  1.00  0.00     0.029 A 
ATOM     55  C   UNL A   1      43.457  27.281  32.438  1.00  0.00     0.049 A 
ATOM     56  H   UNL A   1      41.821  28.284  31.563  1.00  0.00     0.167 HD
ATOM     57  C   UNL A   1      42.583  28.705  34.282  1.00  0.00     0.074 A 
ATOM     58  C   UNL A   1      42.605  29.196  35.646  1.00  0.00     0.031 C 
ATOM     59  C   UNL A   1      43.463  27.801  33.783  1.00  0.00     0.037 A 
BRANCH  46  60
ATOM     60  C   UNL A   1      42.532  26.306  27.848  1.00  0.00     0.064 A 
ATOM     61  C   UNL A   1      43.538  26.725  26.964  1.00  0.00     0.173 A 
ATOM     62  C   UNL A   1      41.903  25.079  27.588  1.00  0.00     0.173 A 
ATOM     63  F   UNL A   1      44.157  27.900  27.151  1.00  0.00    -0.203 F 
ATOM     64  C   UNL A   1      43.876  25.960  25.849  1.00  0.00     0.198 A 
ATOM     65  C   UNL A   1      42.266  24.301  26.491  1.00  0.00     0.198 A 
ATOM     66  F   UNL A   1      40.933  24.631  28.399  1.00  0.00    -0.203 F 
ATOM     67  F   UNL A   1      44.798  26.409  24.985  1.00  0.00    -0.200 F 
ATOM     68  C   UNL A   1      43.246  24.747  25.617  1.00  0.00     0.200 A 
ATOM     69  F   UNL A   1      41.662  23.125  26.277  1.00  0.00    -0.200 F 
ATOM     70  F   UNL A   1      43.572  24.012  24.546  1.00  0.00    -0.200 F 
ENDBRANCH  46  60
BRANCH  47  71
ATOM     71  C   UNL A   1      39.323  31.858  35.575  1.00  0.00     0.064 A 
ATOM     72  C   UNL A   1      38.414  31.328  36.503  1.00  0.00     0.173 A 
ATOM     73  C   UNL A   1      39.753  33.180  35.769  1.00  0.00     0.173 A 
ATOM     74  F   UNL A   1      37.953  30.078  36.347  1.00  0.00    -0.203 F 
ATOM     75  C   UNL A   1      37.943  32.094  37.567  1.00  0.00     0.198 A 
ATOM     76  C   UNL A   1      39.306  33.933  36.853  1.00  0.00     0.198 A 
ATOM     77  F   UNL A   1      40.620  33.737  34.912  1.00  0.00    -0.203 F 
ATOM     78  F   UNL A   1      37.036  31.580  38.409  1.00  0.00    -0.200 F 
ATOM     79  C   UNL A   1      38.394  33.392  37.745  1.00  0.00     0.200 A 
ATOM     80  F   UNL A   1      39.757  35.182  37.028  1.00  0.00    -0.200 F 
ATOM     81  F   UNL A   1      37.943  34.127  38.771  1.00  0.00    -0.200 F 
ENDBRANCH  47  71
BRANCH  59  82
ATOM     82  C   UNL A   1      44.556  27.337  34.700  1.00  0.00     0.064 A 
ATOM     83  C   UNL A   1      45.774  28.024  34.811  1.00  0.00     0.173 A 
ATOM     84  C   UNL A   1      44.367  26.199  35.499  1.00  0.00     0.173 A 
ATOM     85  F   UNL A   1      46.007  29.110  34.058  1.00  0.00    -0.203 F 
ATOM     86  C   UNL A   1      46.777  27.567  35.661  1.00  0.00     0.198 A 
ATOM     87  C   UNL A   1      45.358  25.765  36.374  1.00  0.00     0.198 A 
ATOM     88  F   UNL A   1      43.216  25.512  35.438  1.00  0.00    -0.203 F 
ATOM     89  F   UNL A   1      47.955  28.202  35.706  1.00  0.00    -0.200 F 
ATOM     90  C   UNL A   1      46.566  26.441  36.445  1.00  0.00     0.200 A 
ATOM     91  F   UNL A   1      45.146  24.688  37.143  1.00  0.00    -0.200 F 
ATOM     92  F   UNL A   1      47.533  26.005  37.265  1.00  0.00    -0.200 F 
ENDBRANCH  59  82
ENDBRANCH  33  34
ENDBRANCH  26  28
ENDBRANCH  25  26
ENDBRANCH  24  25
ENDBRANCH   1  24
TORSDOF 15
ENDMDL
MODEL 2
REMARK VINA RESULT:     -12.3      1.767      3.000
REMARK SMILES CC(=O)O[C@H]1C[C@@H](C(=O)OCCOC(=O)c2ccc(-c3c4nc(c(-c5c(F)c(F)c(F)c(F)c5F)c5ccc([nH]5)c(-c5c(F)c(F)c(F)c(F)c5F)c5nc(c(-c6c(F)c(F)c(F)c(F)c6F)c6ccc3[nH]6)C=C5)C=C4)cc2)N(S(=O)(=O)c2ccc(F)cc2)C1
REMARK SMILES IDX 11 1 10 2 8 3 9 4 7 5 5 6 6 7 90 8 79 9 4 10 2 11 1 12 3 13
REMARK SMILES IDX 80 14 81 15 82 16 83 17 84 18 89 19 85 20 88 21 86 22 87 23
REMARK SMILES IDX 12 24 13 25 14 26 15 27 16 28 17 29 78 30 18 31 77 32 19 33
REMARK SMILES IDX 20 34 21 35 71 36 22 37 76 38 70 39 72 40 23 41 75 42 69 43
REMARK SMILES IDX 68 44 24 46 56 47 36 48 55 49 37 50 40 51 54 52 73 53 38 54
REMARK SMILES IDX 39 55 53 57 74 58 41 59 25 60 26 61 34 62 27 63 28 64 32 65
REMARK SMILES IDX 35 66 29 67 30 68 33 69 31 70 57 71 58 72 66 73 59 74 60 75
REMARK SMILES IDX 64 76 67 77 61 78 62 79 65 80 63 81 42 82 43 83 51 84 44 85
REMARK SMILES IDX 45 86 49 87 52 88 46 89 47 90 50 91 48 92
REMARK H PARENT 72 45 40 56
REMARK Flexibility Score: inf
ROOT
ATOM      1  C   UNL A   1      32.069  29.731  25.139  1.00  0.00     0.274 C 
ENDROOT
BRANCH   1   2
ATOM      2  O   UNL A   1      30.943  28.875  24.848  1.00  0.00    -0.461 OA
BRANCH   2   3
ATOM      3  C   UNL A   1      30.973  28.156  23.685  1.00  0.00     0.324 C 
ATOM      4  O   UNL A   1      31.171  28.630  22.575  1.00  0.00    -0.250 OA
BRANCH   3   5
ATOM      5  C   UNL A   1      30.752  26.686  23.978  1.00  0.00     0.187 C 
ATOM      6  C   UNL A   1      30.471  24.869  25.554  1.00  0.00     0.194 C 
ATOM      7  C   UNL A   1      30.231  26.364  25.385  1.00  0.00     0.079 C 
ATOM      8  C   UNL A   1      31.372  24.464  24.375  1.00  0.00     0.148 C 
ATOM      9  N   UNL A   1      31.904  25.745  23.799  1.00  0.00    -0.180 NA
BRANCH   6  10
ATOM     10  O   UNL A   1      31.163  24.630  26.783  1.00  0.00    -0.461 OA
BRANCH  10  11
ATOM     11  C   UNL A   1      31.162  23.319  27.144  1.00  0.00     0.302 C 
ATOM     12  C   UNL A   1      29.772  22.766  27.078  1.00  0.00     0.139 C 
ATOM     13  O   UNL A   1      32.119  22.731  27.626  1.00  0.00    -0.253 OA
ENDBRANCH  10  11
ENDBRANCH   6  10
BRANCH   9  14
ATOM     14  S   UNL A   1      33.427  26.190  24.459  1.00  0.00     0.243 S 
ATOM     15  O   UNL A   1      34.085  27.072  23.533  1.00  0.00    -0.207 OA
ATOM     16  O   UNL A   1      33.188  26.606  25.832  1.00  0.00    -0.207 OA
BRANCH  14  17
ATOM     17  C   UNL A   1      34.361  24.681  24.552  1.00  0.00     0.082 A 
ATOM     18  C   UNL A   1      34.770  24.201  25.801  1.00  0.00     0.025 A 
ATOM     19  C   UNL A   1      34.755  24.028  23.375  1.00  0.00     0.025 A 
ATOM     20  C   UNL A   1      35.534  23.036  25.872  1.00  0.00     0.040 A 
ATOM     21  C   UNL A   1      35.505  22.854  23.455  1.00  0.00     0.040 A 
ATOM     22  C   UNL A   1      35.884  22.366  24.703  1.00  0.00     0.123 A 
ATOM     23  F   UNL A   1      36.584  21.228  24.778  1.00  0.00    -0.207 F 
ENDBRANCH  14  17
ENDBRANCH   9  14
ENDBRANCH   3   5
ENDBRANCH   2   3
ENDBRANCH   1   2
BRANCH   1  24
ATOM     24  C   UNL A   1      31.771  30.745  26.247  1.00  0.00     0.275 C 
BRANCH  24  25
ATOM     25  O   UNL A   1      32.724  30.642  27.320  1.00  0.00    -0.458 OA
BRANCH  25  26
ATOM     26  C   UNL A   1      33.450  31.762  27.509  1.00  0.00     0.338 C 
ATOM     27  O   UNL A   1      33.032  32.907  27.598  1.00  0.00    -0.246 OA
BRANCH  26  28
ATOM     28  C   UNL A   1      34.850  31.437  27.810  1.00  0.00     0.060 A 
ATOM     29  C   UNL A   1      35.112  30.088  28.042  1.00  0.00     0.016 A 
ATOM     30  C   UNL A   1      35.836  32.394  28.027  1.00  0.00     0.016 A 
ATOM     31  C   UNL A   1      36.309  29.674  28.589  1.00  0.00     0.010 A 
ATOM     32  C   UNL A   1      37.062  31.981  28.565  1.00  0.00     0.010 A 
ATOM     33  C   UNL A   1      37.276  30.628  28.903  1.00  0.00    -0.014 A 
BRANCH  33  34
ATOM     34  C   UNL A   1      38.397  30.216  29.774  1.00  0.00     0.031 A 
ATOM     35  C   UNL A   1      39.447  29.304  29.204  1.00  0.00     0.074 A 
ATOM     36  C   UNL A   1      38.537  30.739  31.005  1.00  0.00     0.049 A 
ATOM     37  N   UNL A   1      40.458  28.723  29.794  1.00  0.00    -0.248 NA
ATOM     38  C   UNL A   1      39.339  29.001  27.766  1.00  0.00     0.031 C 
ATOM     39  C   UNL A   1      37.644  31.728  31.609  1.00  0.00     0.029 A 
ATOM     40  N   UNL A   1      39.494  30.521  31.962  1.00  0.00    -0.354 N 
ATOM     41  C   UNL A   1      41.069  27.947  28.817  1.00  0.00     0.074 A 
ATOM     42  C   UNL A   1      40.314  28.124  27.597  1.00  0.00     0.031 C 
ATOM     43  C   UNL A   1      38.100  32.035  32.834  1.00  0.00     0.029 A 
ATOM     44  C   UNL A   1      39.273  31.217  33.123  1.00  0.00     0.049 A 
ATOM     45  H   UNL A   1      40.264  29.923  31.828  1.00  0.00     0.167 HD
ATOM     46  C   UNL A   1      42.161  27.157  28.937  1.00  0.00     0.037 A 
ATOM     47  C   UNL A   1      39.926  31.163  34.297  1.00  0.00     0.037 A 
ATOM     48  C   UNL A   1      42.924  27.035  30.150  1.00  0.00     0.049 A 
ATOM     49  C   UNL A   1      41.103  30.232  34.424  1.00  0.00     0.074 A 
ATOM     50  C   UNL A   1      44.043  26.262  30.396  1.00  0.00     0.029 A 
ATOM     51  N   UNL A   1      42.645  27.723  31.324  1.00  0.00    -0.354 N 
ATOM     52  N   UNL A   1      41.640  29.447  33.520  1.00  0.00    -0.248 NA
ATOM     53  C   UNL A   1      41.761  30.175  35.735  1.00  0.00     0.031 C 
ATOM     54  C   UNL A   1      44.413  26.445  31.734  1.00  0.00     0.029 A 
ATOM     55  C   UNL A   1      43.563  27.380  32.302  1.00  0.00     0.049 A 
ATOM     56  H   UNL A   1      41.904  28.360  31.444  1.00  0.00     0.167 HD
ATOM     57  C   UNL A   1      42.717  28.830  34.140  1.00  0.00     0.074 A 
ATOM     58  C   UNL A   1      42.763  29.342  35.496  1.00  0.00     0.031 C 
ATOM     59  C   UNL A   1      43.592  27.922  33.638  1.00  0.00     0.037 A 
BRANCH  46  60
ATOM     60  C   UNL A   1      42.553  26.326  27.748  1.00  0.00     0.064 A 
ATOM     61  C   UNL A   1      43.542  26.734  26.840  1.00  0.00     0.173 A 
ATOM     62  C   UNL A   1      41.923  25.094  27.518  1.00  0.00     0.173 A 
ATOM     63  F   UNL A   1      44.161  27.912  26.999  1.00  0.00    -0.203 F 
ATOM     64  C   UNL A   1      43.862  25.953  25.731  1.00  0.00     0.198 A 
ATOM     65  C   UNL A   1      42.268  24.300  26.426  1.00  0.00     0.198 A 
ATOM     66  F   UNL A   1      40.967  24.656  28.352  1.00  0.00    -0.203 F 
ATOM     67  F   UNL A   1      44.767  26.390  24.844  1.00  0.00    -0.200 F 
ATOM     68  C   UNL A   1      43.231  24.734  25.529  1.00  0.00     0.200 A 
ATOM     69  F   UNL A   1      41.663  23.119  26.241  1.00  0.00    -0.200 F 
ATOM     70  F   UNL A   1      43.541  23.984  24.463  1.00  0.00    -0.200 F 
ENDBRANCH  46  60
BRANCH  47  71
ATOM     71  C   UNL A   1      39.464  31.984  35.447  1.00  0.00     0.064 A 
ATOM     72  C   UNL A   1      39.942  33.287  35.647  1.00  0.00     0.173 A 
ATOM     73  C   UNL A   1      38.543  31.480  36.379  1.00  0.00     0.173 A 
ATOM     74  F   UNL A   1      40.843  33.806  34.799  1.00  0.00    -0.203 F 
ATOM     75  C   UNL A   1      39.531  34.046  36.740  1.00  0.00     0.198 A 
ATOM     76  C   UNL A   1      38.108  32.252  37.454  1.00  0.00     0.198 A 
ATOM     77  F   UNL A   1      38.055  30.240  36.238  1.00  0.00    -0.203 F 
ATOM     78  F   UNL A   1      40.042  35.269  36.935  1.00  0.00    -0.200 F 
ATOM     79  C   UNL A   1      38.609  33.531  37.639  1.00  0.00     0.200 A 
ATOM     80  F   UNL A   1      37.206  31.755  38.311  1.00  0.00    -0.200 F 
ATOM     81  F   UNL A   1      38.212  34.262  38.689  1.00  0.00    -0.200 F 
ENDBRANCH  47  71
BRANCH  59  82
ATOM     82  C   UNL A   1      44.706  27.480  34.541  1.00  0.00     0.064 A 
ATOM     83  C   UNL A   1      45.924  28.171  34.611  1.00  0.00     0.173 A 
ATOM     84  C   UNL A   1      44.537  26.358  35.367  1.00  0.00     0.173 A 
ATOM     85  F   UNL A   1      46.138  29.242  33.832  1.00  0.00    -0.203 F 
ATOM     86  C   UNL A   1      46.946  27.733  35.448  1.00  0.00     0.198 A 
ATOM     87  C   UNL A   1      45.548  25.943  36.229  1.00  0.00     0.198 A 
ATOM     88  F   UNL A   1      43.386  25.668  35.346  1.00  0.00    -0.203 F 
ATOM     89  F   UNL A   1      48.124  28.371  35.454  1.00  0.00    -0.200 F 
ATOM     90  C   UNL A   1      46.755  26.624  36.260  1.00  0.00     0.200 A 
ATOM     91  F   UNL A   1      45.355  24.882  37.025  1.00  0.00    -0.200 F 
ATOM     92  F   UNL A   1      47.741  26.206  37.067  1.00  0.00    -0.200 F 
ENDBRANCH  59  82
ENDBRANCH  33  34
ENDBRANCH  26  28
ENDBRANCH  25  26
ENDBRANCH  24  25
ENDBRANCH   1  24
TORSDOF 15
ENDMDL
MODEL 3
REMARK VINA RESULT:     -12.2      4.564     10.106
REMARK SMILES CC(=O)O[C@H]1C[C@@H](C(=O)OCCOC(=O)c2ccc(-c3c4nc(c(-c5c(F)c(F)c(F)c(F)c5F)c5ccc([nH]5)c(-c5c(F)c(F)c(F)c(F)c5F)c5nc(c(-c6c(F)c(F)c(F)c(F)c6F)c6ccc3[nH]6)C=C5)C=C4)cc2)N(S(=O)(=O)c2ccc(F)cc2)C1
REMARK SMILES IDX 11 1 10 2 8 3 9 4 7 5 5 6 6 7 90 8 79 9 4 10 2 11 1 12 3 13
REMARK SMILES IDX 80 14 81 15 82 16 83 17 84 18 89 19 85 20 88 21 86 22 87 23
REMARK SMILES IDX 12 24 13 25 14 26 15 27 16 28 17 29 78 30 18 31 77 32 19 33
REMARK SMILES IDX 20 34 21 35 71 36 22 37 76 38 70 39 72 40 23 41 75 42 69 43
REMARK SMILES IDX 68 44 24 46 56 47 36 48 55 49 37 50 40 51 54 52 73 53 38 54
REMARK SMILES IDX 39 55 53 57 74 58 41 59 25 60 26 61 34 62 27 63 28 64 32 65
REMARK SMILES IDX 35 66 29 67 30 68 33 69 31 70 57 71 58 72 66 73 59 74 60 75
REMARK SMILES IDX 64 76 67 77 61 78 62 79 65 80 63 81 42 82 43 83 51 84 44 85
REMARK SMILES IDX 45 86 49 87 52 88 46 89 47 90 50 91 48 92
REMARK H PARENT 72 45 40 56
REMARK Flexibility Score: inf
ROOT
ATOM      1  C   UNL A   1      36.168  20.645  25.168  1.00  0.00     0.274 C 
ENDROOT
BRANCH   1   2
ATOM      2  O   UNL A   1      35.639  21.737  24.386  1.00  0.00    -0.461 OA
BRANCH   2   3
ATOM      3  C   UNL A   1      35.192  22.842  25.057  1.00  0.00     0.324 C 
ATOM      4  O   UNL A   1      35.724  23.319  26.050  1.00  0.00    -0.250 OA
BRANCH   3   5
ATOM      5  C   UNL A   1      33.961  23.401  24.374  1.00  0.00     0.187 C 
ATOM      6  C   UNL A   1      31.936  24.727  24.433  1.00  0.00     0.194 C 
ATOM      7  C   UNL A   1      33.320  24.616  25.057  1.00  0.00     0.079 C 
ATOM      8  C   UNL A   1      31.736  23.419  23.648  1.00  0.00     0.148 C 
ATOM      9  N   UNL A   1      32.807  22.480  24.125  1.00  0.00    -0.180 NA
BRANCH   6  10
ATOM     10  O   UNL A   1      30.949  24.814  25.465  1.00  0.00    -0.461 OA
BRANCH  10  11
ATOM     11  C   UNL A   1      30.625  26.096  25.780  1.00  0.00     0.302 C 
ATOM     12  C   UNL A   1      30.322  26.873  24.536  1.00  0.00     0.139 C 
ATOM     13  O   UNL A   1      30.741  26.588  26.893  1.00  0.00    -0.253 OA
ENDBRANCH  10  11
ENDBRANCH   6  10
BRANCH   9  14
ATOM     14  S   UNL A   1      32.281  21.470  25.413  1.00  0.00     0.243 S 
ATOM     15  O   UNL A   1      33.105  21.732  26.562  1.00  0.00    -0.207 OA
ATOM     16  O   UNL A   1      30.836  21.606  25.493  1.00  0.00    -0.207 OA
BRANCH  14  17
ATOM     17  C   UNL A   1      32.595  19.808  24.869  1.00  0.00     0.082 A 
ATOM     18  C   UNL A   1      32.483  19.496  23.509  1.00  0.00     0.025 A 
ATOM     19  C   UNL A   1      32.868  18.804  25.809  1.00  0.00     0.025 A 
ATOM     20  C   UNL A   1      32.694  18.183  23.086  1.00  0.00     0.040 A 
ATOM     21  C   UNL A   1      33.094  17.496  25.376  1.00  0.00     0.040 A 
ATOM     22  C   UNL A   1      33.009  17.199  24.019  1.00  0.00     0.123 A 
ATOM     23  F   UNL A   1      33.248  15.949  23.604  1.00  0.00    -0.207 F 
ENDBRANCH  14  17
ENDBRANCH   9  14
ENDBRANCH   3   5
ENDBRANCH   2   3
ENDBRANCH   1   2
BRANCH   1  24
ATOM     24  C   UNL A   1      37.652  20.385  24.895  1.00  0.00     0.275 C 
BRANCH  24  25
ATOM     25  O   UNL A   1      38.458  21.519  25.263  1.00  0.00    -0.458 OA
BRANCH  25  26
ATOM     26  C   UNL A   1      39.459  21.219  26.115  1.00  0.00     0.338 C 
ATOM     27  O   UNL A   1      40.077  20.167  26.186  1.00  0.00    -0.246 OA
BRANCH  26  28
ATOM     28  C   UNL A   1      39.891  22.409  26.859  1.00  0.00     0.060 A 
ATOM     29  C   UNL A   1      39.310  23.608  26.455  1.00  0.00     0.016 A 
ATOM     30  C   UNL A   1      40.928  22.405  27.787  1.00  0.00     0.016 A 
ATOM     31  C   UNL A   1      39.809  24.825  26.875  1.00  0.00     0.010 A 
ATOM     32  C   UNL A   1      41.428  23.634  28.234  1.00  0.00     0.010 A 
ATOM     33  C   UNL A   1      40.909  24.845  27.732  1.00  0.00    -0.014 A 
BRANCH  33  34
ATOM     34  C   UNL A   1      41.624  26.127  27.908  1.00  0.00     0.031 A 
ATOM     35  C   UNL A   1      40.964  27.206  28.721  1.00  0.00     0.074 A 
ATOM     36  C   UNL A   1      42.880  26.279  27.455  1.00  0.00     0.049 A 
ATOM     37  N   UNL A   1      41.338  28.441  28.928  1.00  0.00    -0.248 NA
ATOM     38  C   UNL A   1      39.704  26.842  29.392  1.00  0.00     0.031 C 
ATOM     39  C   UNL A   1      43.659  25.252  26.763  1.00  0.00     0.029 A 
ATOM     40  N   UNL A   1      43.727  27.355  27.524  1.00  0.00    -0.354 N 
ATOM     41  C   UNL A   1      40.336  29.013  29.701  1.00  0.00     0.074 A 
ATOM     42  C   UNL A   1      39.334  27.995  29.924  1.00  0.00     0.031 C 
ATOM     43  C   UNL A   1      44.874  25.747  26.476  1.00  0.00     0.029 A 
ATOM     44  C   UNL A   1      44.931  27.141  26.902  1.00  0.00     0.049 A 
ATOM     45  H   UNL A   1      43.494  28.198  27.975  1.00  0.00     0.167 HD
ATOM     46  C   UNL A   1      40.264  30.278  30.176  1.00  0.00     0.037 A 
ATOM     47  C   UNL A   1      45.945  27.994  26.672  1.00  0.00     0.037 A 
ATOM     48  C   UNL A   1      41.297  31.260  29.982  1.00  0.00     0.049 A 
ATOM     49  C   UNL A   1      45.817  29.412  27.160  1.00  0.00     0.074 A 
ATOM     50  C   UNL A   1      41.336  32.574  30.409  1.00  0.00     0.029 A 
ATOM     51  N   UNL A   1      42.488  31.022  29.308  1.00  0.00    -0.354 N 
ATOM     52  N   UNL A   1      44.840  29.972  27.833  1.00  0.00    -0.248 NA
ATOM     53  C   UNL A   1      46.929  30.319  26.852  1.00  0.00     0.031 C 
ATOM     54  C   UNL A   1      42.529  33.145  29.951  1.00  0.00     0.029 A 
ATOM     55  C   UNL A   1      43.262  32.170  29.294  1.00  0.00     0.049 A 
ATOM     56  H   UNL A   1      42.745  30.164  28.899  1.00  0.00     0.167 HD
ATOM     57  C   UNL A   1      45.232  31.285  28.059  1.00  0.00     0.074 A 
ATOM     58  C   UNL A   1      46.544  31.432  27.459  1.00  0.00     0.031 C 
ATOM     59  C   UNL A   1      44.573  32.279  28.703  1.00  0.00     0.037 A 
BRANCH  46  60
ATOM     60  C   UNL A   1      39.009  30.681  30.896  1.00  0.00     0.064 A 
ATOM     61  C   UNL A   1      38.882  30.594  32.291  1.00  0.00     0.173 A 
ATOM     62  C   UNL A   1      37.911  31.167  30.169  1.00  0.00     0.173 A 
ATOM     63  F   UNL A   1      39.891  30.117  33.033  1.00  0.00    -0.203 F 
ATOM     64  C   UNL A   1      37.692  30.949  32.925  1.00  0.00     0.198 A 
ATOM     65  C   UNL A   1      36.736  31.552  30.810  1.00  0.00     0.198 A 
ATOM     66  F   UNL A   1      37.976  31.268  28.833  1.00  0.00    -0.203 F 
ATOM     67  F   UNL A   1      37.573  30.801  34.253  1.00  0.00    -0.200 F 
ATOM     68  C   UNL A   1      36.624  31.434  32.186  1.00  0.00     0.200 A 
ATOM     69  F   UNL A   1      35.709  32.029  30.092  1.00  0.00    -0.200 F 
ATOM     70  F   UNL A   1      35.482  31.776  32.798  1.00  0.00    -0.200 F 
ENDBRANCH  46  60
BRANCH  47  71
ATOM     71  C   UNL A   1      47.146  27.542  25.921  1.00  0.00     0.064 A 
ATOM     72  C   UNL A   1      48.253  26.993  26.584  1.00  0.00     0.173 A 
ATOM     73  C   UNL A   1      47.218  27.658  24.523  1.00  0.00     0.173 A 
ATOM     74  F   UNL A   1      48.245  26.884  27.921  1.00  0.00    -0.203 F 
ATOM     75  C   UNL A   1      49.389  26.596  25.882  1.00  0.00     0.198 A 
ATOM     76  C   UNL A   1      48.341  27.230  23.820  1.00  0.00     0.198 A 
ATOM     77  F   UNL A   1      46.188  28.177  23.838  1.00  0.00    -0.203 F 
ATOM     78  F   UNL A   1      50.452  26.123  26.545  1.00  0.00    -0.200 F 
ATOM     79  C   UNL A   1      49.430  26.708  24.500  1.00  0.00     0.200 A 
ATOM     80  F   UNL A   1      48.369  27.327  22.484  1.00  0.00    -0.200 F 
ATOM     81  F   UNL A   1      50.522  26.323  23.826  1.00  0.00    -0.200 F 
ENDBRANCH  47  71
BRANCH  59  82
ATOM     82  C   UNL A   1      45.289  33.590  28.846  1.00  0.00     0.064 A 
ATOM     83  C   UNL A   1      46.141  33.857  29.928  1.00  0.00     0.173 A 
ATOM     84  C   UNL A   1      45.137  34.585  27.867  1.00  0.00     0.173 A 
ATOM     85  F   UNL A   1      46.309  32.943  30.896  1.00  0.00    -0.203 F 
ATOM     86  C   UNL A   1      46.785  35.085  30.043  1.00  0.00     0.198 A 
ATOM     87  C   UNL A   1      45.810  35.798  27.968  1.00  0.00     0.198 A 
ATOM     88  F   UNL A   1      44.342  34.375  26.807  1.00  0.00    -0.203 F 
ATOM     89  F   UNL A   1      47.545  35.342  31.116  1.00  0.00    -0.200 F 
ATOM     90  C   UNL A   1      46.623  36.052  29.061  1.00  0.00     0.200 A 
ATOM     91  F   UNL A   1      45.667  36.723  27.008  1.00  0.00    -0.200 F 
ATOM     92  F   UNL A   1      47.247  37.233  29.173  1.00  0.00    -0.200 F 
ENDBRANCH  59  82
ENDBRANCH  33  34
ENDBRANCH  26  28
ENDBRANCH  25  26
ENDBRANCH  24  25
ENDBRANCH   1  24
TORSDOF 15
ENDMDL
