MODEL 1
REMARK VINA RESULT:     -12.6      0.000      0.000
REMARK SMILES O=C(OCCOC(=O)c1ccccc1Sc1ccc(S(=O)(=O)N2CCCC2)cc1[N+](=O)[O-])c1ccc(-c2c3nc(c(-c4c(F)c(F)c(F)c(F)c4F)c4ccc([nH]4)c(-c4c(F)c(F)c(F)c(F)c4F)c4nc(c(-c5c(F)c(F)c(F)c(F)c5F)c5ccc2[nH]5)C=C4)C=C3)cc1
REMARK SMILES IDX 5 1 4 2 3 3 2 4 1 5 33 6 34 7 95 8 35 9 94 10 36 11 37 12
REMARK SMILES IDX 38 13 88 14 39 15 93 16 87 17 89 18 40 19 92 20 86 21 85 22
REMARK SMILES IDX 41 24 73 25 53 26 72 27 54 28 57 29 71 30 90 31 55 32 56 33
REMARK SMILES IDX 70 35 91 36 58 37 42 38 43 39 51 40 44 41 45 42 49 43 52 44
REMARK SMILES IDX 46 45 47 46 50 47 48 48 74 49 75 50 83 51 76 52 77 53 81 54
REMARK SMILES IDX 84 55 78 56 79 57 82 58 80 59 59 60 60 61 68 62 61 63 62 64
REMARK SMILES IDX 66 65 69 66 63 67 64 68 67 69 65 70 6 71 7 72 8 73 9 74
REMARK SMILES IDX 10 75 14 76 11 77 13 78 12 79 15 80 16 81 17 82 29 83 18 84
REMARK SMILES IDX 28 85 19 86 30 87 31 88 32 89 20 90 21 91 22 92 23 93 24 94
REMARK SMILES IDX 27 95 25 96 26 97
REMARK H PARENT 89 23 57 34
REMARK Flexibility Score: inf
ROOT
ATOM      1  C   UNL A   1      37.675  21.405  25.141  1.00  0.00     0.275 C 
ENDROOT
BRANCH   1   2
ATOM      2  C   UNL A   1      38.443  20.156  25.568  1.00  0.00     0.275 C 
BRANCH   2   3
ATOM      3  O   UNL A   1      39.838  20.402  25.737  1.00  0.00    -0.458 OA
BRANCH   3   4
ATOM      4  C   UNL A   1      40.475  20.816  26.851  1.00  0.00     0.338 C 
ATOM      5  O   UNL A   1      40.767  19.965  27.691  1.00  0.00    -0.246 OA
BRANCH   4   6
ATOM      6  C   UNL A   1      40.844  22.245  27.145  1.00  0.00     0.060 A 
ATOM      7  C   UNL A   1      40.401  23.386  26.465  1.00  0.00     0.016 A 
ATOM      8  C   UNL A   1      41.671  22.441  28.268  1.00  0.00     0.016 A 
ATOM      9  C   UNL A   1      40.685  24.662  26.921  1.00  0.00     0.010 A 
ATOM     10  C   UNL A   1      42.005  23.721  28.710  1.00  0.00     0.010 A 
ATOM     11  C   UNL A   1      41.505  24.830  28.031  1.00  0.00    -0.014 A 
BRANCH  11  12
ATOM     12  C   UNL A   1      41.982  26.194  28.287  1.00  0.00     0.031 A 
ATOM     13  C   UNL A   1      43.314  26.549  27.733  1.00  0.00     0.074 A 
ATOM     14  C   UNL A   1      41.153  27.116  28.799  1.00  0.00     0.049 A 
ATOM     15  N   UNL A   1      43.932  27.693  27.765  1.00  0.00    -0.248 NA
ATOM     16  C   UNL A   1      44.025  25.486  26.997  1.00  0.00     0.031 C 
ATOM     17  C   UNL A   1      39.775  26.841  29.162  1.00  0.00     0.029 A 
ATOM     18  N   UNL A   1      41.299  28.447  29.065  1.00  0.00    -0.354 N 
ATOM     19  C   UNL A   1      45.099  27.492  27.051  1.00  0.00     0.074 A 
ATOM     20  C   UNL A   1      45.113  26.122  26.598  1.00  0.00     0.031 C 
ATOM     21  C   UNL A   1      39.189  27.954  29.626  1.00  0.00     0.029 A 
ATOM     22  C   UNL A   1      40.179  29.017  29.628  1.00  0.00     0.049 A 
ATOM     23  H   UNL A   1      42.124  28.949  28.875  1.00  0.00     0.167 HD
ATOM     24  C   UNL A   1      46.071  28.397  26.814  1.00  0.00     0.037 A 
ATOM     25  C   UNL A   1      40.003  30.258  30.114  1.00  0.00     0.037 A 
ATOM     26  C   UNL A   1      46.028  29.732  27.338  1.00  0.00     0.049 A 
ATOM     27  C   UNL A   1      41.171  31.195  29.978  1.00  0.00     0.074 A 
ATOM     28  C   UNL A   1      47.000  30.709  27.303  1.00  0.00     0.029 A 
ATOM     29  N   UNL A   1      44.935  30.269  28.014  1.00  0.00    -0.354 N 
ATOM     30  N   UNL A   1      42.325  30.983  29.387  1.00  0.00    -0.248 NA
ATOM     31  C   UNL A   1      41.031  32.527  30.568  1.00  0.00     0.031 C 
ATOM     32  C   UNL A   1      46.514  31.821  28.001  1.00  0.00     0.029 A 
ATOM     33  C   UNL A   1      45.215  31.561  28.417  1.00  0.00     0.049 A 
ATOM     34  H   UNL A   1      44.086  29.799  28.179  1.00  0.00     0.167 HD
ATOM     35  C   UNL A   1      43.046  32.154  29.521  1.00  0.00     0.074 A 
ATOM     36  C   UNL A   1      42.179  33.088  30.219  1.00  0.00     0.031 C 
ATOM     37  C   UNL A   1      44.310  32.439  29.120  1.00  0.00     0.037 A 
BRANCH  24  38
ATOM     38  C   UNL A   1      47.266  27.907  26.059  1.00  0.00     0.064 A 
ATOM     39  C   UNL A   1      47.272  27.819  24.659  1.00  0.00     0.173 A 
ATOM     40  C   UNL A   1      48.390  27.441  26.755  1.00  0.00     0.173 A 
ATOM     41  F   UNL A   1      46.197  28.198  23.953  1.00  0.00    -0.203 F 
ATOM     42  C   UNL A   1      48.358  27.266  23.984  1.00  0.00     0.198 A 
ATOM     43  C   UNL A   1      49.483  26.912  26.076  1.00  0.00     0.198 A 
ATOM     44  F   UNL A   1      48.414  27.471  28.096  1.00  0.00    -0.203 F 
ATOM     45  F   UNL A   1      48.319  27.131  22.651  1.00  0.00    -0.200 F 
ATOM     46  C   UNL A   1      49.464  26.818  24.693  1.00  0.00     0.200 A 
ATOM     47  F   UNL A   1      50.545  26.471  26.764  1.00  0.00    -0.200 F 
ATOM     48  F   UNL A   1      50.504  26.277  24.043  1.00  0.00    -0.200 F 
ENDBRANCH  24  38
BRANCH  25  49
ATOM     49  C   UNL A   1      38.744  30.651  30.810  1.00  0.00     0.064 A 
ATOM     50  C   UNL A   1      37.631  31.135  30.108  1.00  0.00     0.173 A 
ATOM     51  C   UNL A   1      38.644  30.597  32.211  1.00  0.00     0.173 A 
ATOM     52  F   UNL A   1      37.669  31.221  28.770  1.00  0.00    -0.203 F 
ATOM     53  C   UNL A   1      36.491  31.586  30.777  1.00  0.00     0.198 A 
ATOM     54  C   UNL A   1      37.492  31.015  32.876  1.00  0.00     0.198 A 
ATOM     55  F   UNL A   1      39.671  30.141  32.943  1.00  0.00    -0.203 F 
ATOM     56  F   UNL A   1      35.472  32.108  30.080  1.00  0.00    -0.200 F 
ATOM     57  C   UNL A   1      36.422  31.524  32.160  1.00  0.00     0.200 A 
ATOM     58  F   UNL A   1      37.427  30.935  34.212  1.00  0.00    -0.200 F 
ATOM     59  F   UNL A   1      35.333  31.969  32.802  1.00  0.00    -0.200 F 
ENDBRANCH  25  49
BRANCH  37  60
ATOM     60  C   UNL A   1      44.796  33.823  29.420  1.00  0.00     0.064 A 
ATOM     61  C   UNL A   1      45.488  34.116  30.604  1.00  0.00     0.173 A 
ATOM     62  C   UNL A   1      44.576  34.860  28.503  1.00  0.00     0.173 A 
ATOM     63  F   UNL A   1      45.702  33.157  31.517  1.00  0.00    -0.203 F 
ATOM     64  C   UNL A   1      45.907  35.412  30.878  1.00  0.00     0.198 A 
ATOM     65  C   UNL A   1      45.032  36.146  28.762  1.00  0.00     0.198 A 
ATOM     66  F   UNL A   1      43.924  34.621  27.355  1.00  0.00    -0.203 F 
ATOM     67  F   UNL A   1      46.505  35.688  32.045  1.00  0.00    -0.200 F 
ATOM     68  C   UNL A   1      45.686  36.424  29.953  1.00  0.00     0.200 A 
ATOM     69  F   UNL A   1      44.832  37.119  27.863  1.00  0.00    -0.200 F 
ATOM     70  F   UNL A   1      46.093  37.672  30.218  1.00  0.00    -0.200 F 
ENDBRANCH  37  60
ENDBRANCH  11  12
ENDBRANCH   4   6
ENDBRANCH   3   4
ENDBRANCH   2   3
ENDBRANCH   1   2
BRANCH   1  71
ATOM     71  O   UNL A   1      36.376  21.171  24.585  1.00  0.00    -0.458 OA
BRANCH  71  72
ATOM     72  C   UNL A   1      35.383  20.905  25.469  1.00  0.00     0.339 C 
ATOM     73  O   UNL A   1      35.138  21.499  26.494  1.00  0.00    -0.246 OA
BRANCH  72  74
ATOM     74  C   UNL A   1      34.534  19.838  24.926  1.00  0.00     0.074 A 
ATOM     75  C   UNL A   1      35.259  18.704  24.494  1.00  0.00     0.017 A 
ATOM     76  C   UNL A   1      33.139  19.895  24.798  1.00  0.00     0.027 A 
ATOM     77  C   UNL A   1      34.604  17.593  23.969  1.00  0.00     0.001 A 
ATOM     78  C   UNL A   1      32.520  18.776  24.189  1.00  0.00     0.016 A 
ATOM     79  C   UNL A   1      33.230  17.630  23.814  1.00  0.00     0.001 A 
BRANCH  76  80
ATOM     80  S   UNL A   1      31.939  21.125  25.326  1.00  0.00    -0.082 SA
BRANCH  80  81
ATOM     81  C   UNL A   1      32.286  22.697  24.592  1.00  0.00     0.090 A 
ATOM     82  C   UNL A   1      32.919  22.705  23.331  1.00  0.00     0.024 A 
ATOM     83  C   UNL A   1      32.029  23.937  25.191  1.00  0.00     0.284 A 
ATOM     84  C   UNL A   1      33.130  23.906  22.629  1.00  0.00     0.023 A 
ATOM     85  C   UNL A   1      32.237  25.140  24.495  1.00  0.00     0.108 A 
ATOM     86  C   UNL A   1      32.710  25.121  23.187  1.00  0.00     0.089 A 
BRANCH  83  87
ATOM     87  N   UNL A   1      31.507  24.046  26.553  1.00  0.00     0.063 N 
ATOM     88  O   UNL A   1      32.166  23.506  27.451  1.00  0.00    -0.258 OA
ATOM     89  O   UNL A   1      30.413  24.598  26.717  1.00  0.00    -0.258 OA
ENDBRANCH  83  87
BRANCH  86  90
ATOM     90  S   UNL A   1      32.598  26.581  22.144  1.00  0.00     0.243 S 
ATOM     91  O   UNL A   1      33.821  26.616  21.379  1.00  0.00    -0.207 OA
ATOM     92  O   UNL A   1      31.294  26.505  21.512  1.00  0.00    -0.207 OA
BRANCH  90  93
ATOM     93  N   UNL A   1      32.563  27.899  23.164  1.00  0.00    -0.198 NA
ATOM     94  C   UNL A   1      33.700  28.420  23.915  1.00  0.00     0.102 C 
ATOM     95  C   UNL A   1      31.371  28.635  23.580  1.00  0.00     0.102 C 
ATOM     96  C   UNL A   1      33.100  28.669  25.295  1.00  0.00     0.018 C 
ATOM     97  C   UNL A   1      31.633  29.003  25.042  1.00  0.00     0.018 C 
ENDBRANCH  90  93
ENDBRANCH  86  90
ENDBRANCH  80  81
ENDBRANCH  76  80
ENDBRANCH  72  74
ENDBRANCH  71  72
ENDBRANCH   1  71
TORSDOF 16
ENDMDL
MODEL 2
REMARK VINA RESULT:     -12.2      4.809      9.237
REMARK SMILES O=C(OCCOC(=O)c1ccccc1Sc1ccc(S(=O)(=O)N2CCCC2)cc1[N+](=O)[O-])c1ccc(-c2c3nc(c(-c4c(F)c(F)c(F)c(F)c4F)c4ccc([nH]4)c(-c4c(F)c(F)c(F)c(F)c4F)c4nc(c(-c5c(F)c(F)c(F)c(F)c5F)c5ccc2[nH]5)C=C4)C=C3)cc1
REMARK SMILES IDX 5 1 4 2 3 3 2 4 1 5 33 6 34 7 95 8 35 9 94 10 36 11 37 12
REMARK SMILES IDX 38 13 88 14 39 15 93 16 87 17 89 18 40 19 92 20 86 21 85 22
REMARK SMILES IDX 41 24 73 25 53 26 72 27 54 28 57 29 71 30 90 31 55 32 56 33
REMARK SMILES IDX 70 35 91 36 58 37 42 38 43 39 51 40 44 41 45 42 49 43 52 44
REMARK SMILES IDX 46 45 47 46 50 47 48 48 74 49 75 50 83 51 76 52 77 53 81 54
REMARK SMILES IDX 84 55 78 56 79 57 82 58 80 59 59 60 60 61 68 62 61 63 62 64
REMARK SMILES IDX 66 65 69 66 63 67 64 68 67 69 65 70 6 71 7 72 8 73 9 74
REMARK SMILES IDX 10 75 14 76 11 77 13 78 12 79 15 80 16 81 17 82 29 83 18 84
REMARK SMILES IDX 28 85 19 86 30 87 31 88 32 89 20 90 21 91 22 92 23 93 24 94
REMARK SMILES IDX 27 95 25 96 26 97
REMARK H PARENT 89 23 57 34
REMARK Flexibility Score: inf
ROOT
ATOM      1  C   UNL A   1      31.551  32.668  26.475  1.00  0.00     0.275 C 
ENDROOT
BRANCH   1   2
ATOM      2  C   UNL A   1      32.552  33.002  27.579  1.00  0.00     0.275 C 
BRANCH   2   3
ATOM      3  O   UNL A   1      32.460  34.358  28.009  1.00  0.00    -0.458 OA
BRANCH   3   4
ATOM      4  C   UNL A   1      33.284  35.017  28.851  1.00  0.00     0.338 C 
ATOM      5  O   UNL A   1      33.069  36.213  29.040  1.00  0.00    -0.246 OA
BRANCH   4   6
ATOM      6  C   UNL A   1      34.453  34.394  29.566  1.00  0.00     0.060 A 
ATOM      7  C   UNL A   1      35.791  34.396  29.152  1.00  0.00     0.016 A 
ATOM      8  C   UNL A   1      34.161  33.809  30.813  1.00  0.00     0.016 A 
ATOM      9  C   UNL A   1      36.805  33.924  29.968  1.00  0.00     0.010 A 
ATOM     10  C   UNL A   1      35.169  33.286  31.624  1.00  0.00     0.010 A 
ATOM     11  C   UNL A   1      36.493  33.350  31.194  1.00  0.00    -0.014 A 
BRANCH  11  12
ATOM     12  C   UNL A   1      37.579  32.631  31.872  1.00  0.00     0.031 A 
ATOM     13  C   UNL A   1      38.209  31.515  31.121  1.00  0.00     0.074 A 
ATOM     14  C   UNL A   1      38.104  33.114  33.008  1.00  0.00     0.049 A 
ATOM     15  N   UNL A   1      39.216  30.768  31.465  1.00  0.00    -0.248 NA
ATOM     16  C   UNL A   1      37.665  31.235  29.779  1.00  0.00     0.031 C 
ATOM     17  C   UNL A   1      37.633  34.324  33.657  1.00  0.00     0.029 A 
ATOM     18  N   UNL A   1      39.142  32.707  33.795  1.00  0.00    -0.354 N 
ATOM     19  C   UNL A   1      39.433  29.935  30.383  1.00  0.00     0.074 A 
ATOM     20  C   UNL A   1      38.457  30.259  29.370  1.00  0.00     0.031 C 
ATOM     21  C   UNL A   1      38.357  34.568  34.758  1.00  0.00     0.029 A 
ATOM     22  C   UNL A   1      39.323  33.494  34.910  1.00  0.00     0.049 A 
ATOM     23  H   UNL A   1      39.704  31.926  33.586  1.00  0.00     0.167 HD
ATOM     24  C   UNL A   1      40.376  28.977  30.273  1.00  0.00     0.037 A 
ATOM     25  C   UNL A   1      40.164  33.330  35.946  1.00  0.00     0.037 A 
ATOM     26  C   UNL A   1      41.286  28.662  31.337  1.00  0.00     0.049 A 
ATOM     27  C   UNL A   1      41.093  32.151  35.864  1.00  0.00     0.074 A 
ATOM     28  C   UNL A   1      42.194  27.628  31.424  1.00  0.00     0.029 A 
ATOM     29  N   UNL A   1      41.384  29.392  32.519  1.00  0.00    -0.354 N 
ATOM     30  N   UNL A   1      41.240  31.292  34.881  1.00  0.00    -0.248 NA
ATOM     31  C   UNL A   1      41.965  31.907  37.014  1.00  0.00     0.031 C 
ATOM     32  C   UNL A   1      42.808  27.704  32.681  1.00  0.00     0.029 A 
ATOM     33  C   UNL A   1      42.328  28.821  33.352  1.00  0.00     0.049 A 
ATOM     34  H   UNL A   1      40.861  30.198  32.731  1.00  0.00     0.167 HD
ATOM     35  C   UNL A   1      42.226  30.411  35.285  1.00  0.00     0.074 A 
ATOM     36  C   UNL A   1      42.669  30.867  36.591  1.00  0.00     0.031 C 
ATOM     37  C   UNL A   1      42.719  29.319  34.649  1.00  0.00     0.037 A 
BRANCH  24  38
ATOM     38  C   UNL A   1      40.360  28.171  29.013  1.00  0.00     0.064 A 
ATOM     39  C   UNL A   1      39.685  26.944  28.926  1.00  0.00     0.173 A 
ATOM     40  C   UNL A   1      41.103  28.595  27.902  1.00  0.00     0.173 A 
ATOM     41  F   UNL A   1      39.009  26.469  29.983  1.00  0.00    -0.203 F 
ATOM     42  C   UNL A   1      39.768  26.164  27.775  1.00  0.00     0.198 A 
ATOM     43  C   UNL A   1      41.163  27.824  26.746  1.00  0.00     0.198 A 
ATOM     44  F   UNL A   1      41.794  29.743  27.951  1.00  0.00    -0.203 F 
ATOM     45  F   UNL A   1      39.169  24.965  27.735  1.00  0.00    -0.200 F 
ATOM     46  C   UNL A   1      40.502  26.607  26.685  1.00  0.00     0.200 A 
ATOM     47  F   UNL A   1      41.881  28.251  25.697  1.00  0.00    -0.200 F 
ATOM     48  F   UNL A   1      40.589  25.851  25.582  1.00  0.00    -0.200 F 
ENDBRANCH  24  38
BRANCH  25  49
ATOM     49  C   UNL A   1      40.121  34.228  37.135  1.00  0.00     0.064 A 
ATOM     50  C   UNL A   1      39.244  33.999  38.205  1.00  0.00     0.173 A 
ATOM     51  C   UNL A   1      40.928  35.377  37.204  1.00  0.00     0.173 A 
ATOM     52  F   UNL A   1      38.440  32.925  38.192  1.00  0.00    -0.203 F 
ATOM     53  C   UNL A   1      39.147  34.897  39.270  1.00  0.00     0.198 A 
ATOM     54  C   UNL A   1      40.856  36.255  38.285  1.00  0.00     0.198 A 
ATOM     55  F   UNL A   1      41.791  35.654  36.216  1.00  0.00    -0.203 F 
ATOM     56  F   UNL A   1      38.249  34.683  40.241  1.00  0.00    -0.200 F 
ATOM     57  C   UNL A   1      39.954  36.023  39.310  1.00  0.00     0.200 A 
ATOM     58  F   UNL A   1      41.652  37.332  38.324  1.00  0.00    -0.200 F 
ATOM     59  F   UNL A   1      39.851  36.891  40.325  1.00  0.00    -0.200 F 
ENDBRANCH  25  49
BRANCH  37  60
ATOM     60  C   UNL A   1      43.800  28.575  35.369  1.00  0.00     0.064 A 
ATOM     61  C   UNL A   1      45.155  28.864  35.157  1.00  0.00     0.173 A 
ATOM     62  C   UNL A   1      43.470  27.572  36.291  1.00  0.00     0.173 A 
ATOM     63  F   UNL A   1      45.516  29.804  34.269  1.00  0.00    -0.203 F 
ATOM     64  C   UNL A   1      46.146  28.144  35.815  1.00  0.00     0.198 A 
ATOM     65  C   UNL A   1      44.461  26.882  36.976  1.00  0.00     0.198 A 
ATOM     66  F   UNL A   1      42.185  27.268  36.529  1.00  0.00    -0.203 F 
ATOM     67  F   UNL A   1      47.436  28.387  35.548  1.00  0.00    -0.200 F 
ATOM     68  C   UNL A   1      45.797  27.159  36.729  1.00  0.00     0.200 A 
ATOM     69  F   UNL A   1      44.125  25.942  37.870  1.00  0.00    -0.200 F 
ATOM     70  F   UNL A   1      46.753  26.468  37.364  1.00  0.00    -0.200 F 
ENDBRANCH  37  60
ENDBRANCH  11  12
ENDBRANCH   4   6
ENDBRANCH   3   4
ENDBRANCH   2   3
ENDBRANCH   1   2
BRANCH   1  71
ATOM     71  O   UNL A   1      31.045  31.327  26.486  1.00  0.00    -0.458 OA
BRANCH  71  72
ATOM     72  C   UNL A   1      31.812  30.391  25.875  1.00  0.00     0.339 C 
ATOM     73  O   UNL A   1      32.794  29.844  26.321  1.00  0.00    -0.246 OA
BRANCH  72  74
ATOM     74  C   UNL A   1      31.187  30.024  24.598  1.00  0.00     0.074 A 
ATOM     75  C   UNL A   1      29.931  30.636  24.386  1.00  0.00     0.017 A 
ATOM     76  C   UNL A   1      31.725  29.135  23.656  1.00  0.00     0.027 A 
ATOM     77  C   UNL A   1      29.211  30.409  23.216  1.00  0.00     0.001 A 
ATOM     78  C   UNL A   1      30.927  28.872  22.516  1.00  0.00     0.016 A 
ATOM     79  C   UNL A   1      29.710  29.522  22.278  1.00  0.00     0.001 A 
BRANCH  76  80
ATOM     80  S   UNL A   1      33.307  28.283  23.582  1.00  0.00    -0.082 SA
BRANCH  80  81
ATOM     81  C   UNL A   1      33.167  26.644  24.234  1.00  0.00     0.090 A 
ATOM     82  C   UNL A   1      33.450  26.457  25.603  1.00  0.00     0.024 A 
ATOM     83  C   UNL A   1      32.850  25.505  23.482  1.00  0.00     0.284 A 
ATOM     84  C   UNL A   1      33.256  25.210  26.224  1.00  0.00     0.023 A 
ATOM     85  C   UNL A   1      32.655  24.257  24.096  1.00  0.00     0.108 A 
ATOM     86  C   UNL A   1      32.779  24.126  25.475  1.00  0.00     0.089 A 
BRANCH  83  87
ATOM     87  N   UNL A   1      32.678  25.560  22.030  1.00  0.00     0.063 N 
ATOM     88  O   UNL A   1      33.707  25.564  21.342  1.00  0.00    -0.258 OA
ATOM     89  O   UNL A   1      31.530  25.674  21.582  1.00  0.00    -0.258 OA
ENDBRANCH  83  87
BRANCH  86  90
ATOM     90  S   UNL A   1      32.144  22.675  26.325  1.00  0.00     0.243 S 
ATOM     91  O   UNL A   1      32.071  23.034  27.721  1.00  0.00    -0.207 OA
ATOM     92  O   UNL A   1      30.975  22.265  25.571  1.00  0.00    -0.207 OA
BRANCH  90  93
ATOM     93  N   UNL A   1      33.285  21.472  26.138  1.00  0.00    -0.198 NA
ATOM     94  C   UNL A   1      34.711  21.606  26.413  1.00  0.00     0.102 C 
ATOM     95  C   UNL A   1      33.062  20.161  25.531  1.00  0.00     0.102 C 
ATOM     96  C   UNL A   1      35.347  20.937  25.199  1.00  0.00     0.018 C 
ATOM     97  C   UNL A   1      34.351  19.868  24.761  1.00  0.00     0.018 C 
ENDBRANCH  90  93
ENDBRANCH  86  90
ENDBRANCH  80  81
ENDBRANCH  76  80
ENDBRANCH  72  74
ENDBRANCH  71  72
ENDBRANCH   1  71
TORSDOF 16
ENDMDL
MODEL 3
REMARK VINA RESULT:     -12.2      4.587     10.501
REMARK SMILES O=C(OCCOC(=O)c1ccccc1Sc1ccc(S(=O)(=O)N2CCCC2)cc1[N+](=O)[O-])c1ccc(-c2c3nc(c(-c4c(F)c(F)c(F)c(F)c4F)c4ccc([nH]4)c(-c4c(F)c(F)c(F)c(F)c4F)c4nc(c(-c5c(F)c(F)c(F)c(F)c5F)c5ccc2[nH]5)C=C4)C=C3)cc1
REMARK SMILES IDX 5 1 4 2 3 3 2 4 1 5 33 6 34 7 95 8 35 9 94 10 36 11 37 12
REMARK SMILES IDX 38 13 88 14 39 15 93 16 87 17 89 18 40 19 92 20 86 21 85 22
REMARK SMILES IDX 41 24 73 25 53 26 72 27 54 28 57 29 71 30 90 31 55 32 56 33
REMARK SMILES IDX 70 35 91 36 58 37 42 38 43 39 51 40 44 41 45 42 49 43 52 44
REMARK SMILES IDX 46 45 47 46 50 47 48 48 74 49 75 50 83 51 76 52 77 53 81 54
REMARK SMILES IDX 84 55 78 56 79 57 82 58 80 59 59 60 60 61 68 62 61 63 62 64
REMARK SMILES IDX 66 65 69 66 63 67 64 68 67 69 65 70 6 71 7 72 8 73 9 74
REMARK SMILES IDX 10 75 14 76 11 77 13 78 12 79 15 80 16 81 17 82 29 83 18 84
REMARK SMILES IDX 28 85 19 86 30 87 31 88 32 89 20 90 21 91 22 92 23 93 24 94
REMARK SMILES IDX 27 95 25 96 26 97
REMARK H PARENT 89 23 57 34
REMARK Flexibility Score: inf
ROOT
ATOM      1  C   UNL A   1      31.211  32.111  26.132  1.00  0.00     0.275 C 
ENDROOT
BRANCH   1   2
ATOM      2  C   UNL A   1      32.295  32.493  27.137  1.00  0.00     0.275 C 
BRANCH   2   3
ATOM      3  O   UNL A   1      32.153  33.830  27.613  1.00  0.00    -0.458 OA
BRANCH   3   4
ATOM      4  C   UNL A   1      32.966  34.498  28.458  1.00  0.00     0.338 C 
ATOM      5  O   UNL A   1      32.658  35.652  28.754  1.00  0.00    -0.246 OA
BRANCH   4   6
ATOM      6  C   UNL A   1      34.228  33.935  29.055  1.00  0.00     0.060 A 
ATOM      7  C   UNL A   1      35.543  34.278  28.718  1.00  0.00     0.016 A 
ATOM      8  C   UNL A   1      34.046  33.018  30.107  1.00  0.00     0.016 A 
ATOM      9  C   UNL A   1      36.626  33.807  29.442  1.00  0.00     0.010 A 
ATOM     10  C   UNL A   1      35.131  32.499  30.814  1.00  0.00     0.010 A 
ATOM     11  C   UNL A   1      36.422  32.901  30.476  1.00  0.00    -0.014 A 
BRANCH  11  12
ATOM     12  C   UNL A   1      37.620  32.242  31.010  1.00  0.00     0.031 A 
ATOM     13  C   UNL A   1      38.018  32.603  32.395  1.00  0.00     0.074 A 
ATOM     14  C   UNL A   1      38.176  31.213  30.353  1.00  0.00     0.049 A 
ATOM     15  N   UNL A   1      38.990  32.126  33.114  1.00  0.00    -0.248 NA
ATOM     16  C   UNL A   1      37.175  33.600  33.082  1.00  0.00     0.031 C 
ATOM     17  C   UNL A   1      37.677  30.708  29.087  1.00  0.00     0.029 A 
ATOM     18  N   UNL A   1      39.221  30.385  30.643  1.00  0.00    -0.354 N 
ATOM     19  C   UNL A   1      38.874  32.756  34.339  1.00  0.00     0.074 A 
ATOM     20  C   UNL A   1      37.745  33.653  34.274  1.00  0.00     0.031 C 
ATOM     21  C   UNL A   1      38.419  29.667  28.681  1.00  0.00     0.029 A 
ATOM     22  C   UNL A   1      39.477  29.461  29.654  1.00  0.00     0.049 A 
ATOM     23  H   UNL A   1      39.743  30.444  31.476  1.00  0.00     0.167 HD
ATOM     24  C   UNL A   1      39.668  32.588  35.417  1.00  0.00     0.037 A 
ATOM     25  C   UNL A   1      40.483  28.575  29.551  1.00  0.00     0.037 A 
ATOM     26  C   UNL A   1      40.812  31.721  35.406  1.00  0.00     0.049 A 
ATOM     27  C   UNL A   1      41.447  28.529  30.703  1.00  0.00     0.074 A 
ATOM     28  C   UNL A   1      41.787  31.559  36.368  1.00  0.00     0.029 A 
ATOM     29  N   UNL A   1      41.136  30.872  34.350  1.00  0.00    -0.354 N 
ATOM     30  N   UNL A   1      41.402  29.197  31.834  1.00  0.00    -0.248 NA
ATOM     31  C   UNL A   1      42.593  27.627  30.580  1.00  0.00     0.031 C 
ATOM     32  C   UNL A   1      42.727  30.647  35.873  1.00  0.00     0.029 A 
ATOM     33  C   UNL A   1      42.307  30.193  34.630  1.00  0.00     0.049 A 
ATOM     34  H   UNL A   1      40.607  30.768  33.526  1.00  0.00     0.167 HD
ATOM     35  C   UNL A   1      42.504  28.791  32.563  1.00  0.00     0.074 A 
ATOM     36  C   UNL A   1      43.177  27.786  31.758  1.00  0.00     0.031 C 
ATOM     37  C   UNL A   1      42.934  29.209  33.780  1.00  0.00     0.037 A 
BRANCH  24  38
ATOM     38  C   UNL A   1      39.362  33.438  36.608  1.00  0.00     0.064 A 
ATOM     39  C   UNL A   1      39.892  34.729  36.752  1.00  0.00     0.173 A 
ATOM     40  C   UNL A   1      38.593  32.920  37.659  1.00  0.00     0.173 A 
ATOM     41  F   UNL A   1      40.681  35.247  35.799  1.00  0.00    -0.203 F 
ATOM     42  C   UNL A   1      39.674  35.464  37.916  1.00  0.00     0.198 A 
ATOM     43  C   UNL A   1      38.357  33.667  38.809  1.00  0.00     0.198 A 
ATOM     44  F   UNL A   1      38.095  31.677  37.582  1.00  0.00    -0.203 F 
ATOM     45  F   UNL A   1      40.243  36.670  38.062  1.00  0.00    -0.200 F 
ATOM     46  C   UNL A   1      38.903  34.934  38.940  1.00  0.00     0.200 A 
ATOM     47  F   UNL A   1      37.620  33.148  39.801  1.00  0.00    -0.200 F 
ATOM     48  F   UNL A   1      38.703  35.639  40.063  1.00  0.00    -0.200 F 
ENDBRANCH  24  38
BRANCH  25  49
ATOM     49  C   UNL A   1      40.663  27.741  28.328  1.00  0.00     0.064 A 
ATOM     50  C   UNL A   1      40.121  26.452  28.224  1.00  0.00     0.173 A 
ATOM     51  C   UNL A   1      41.433  28.200  27.246  1.00  0.00     0.173 A 
ATOM     52  F   UNL A   1      39.386  25.953  29.230  1.00  0.00    -0.203 F 
ATOM     53  C   UNL A   1      40.373  25.645  27.113  1.00  0.00     0.198 A 
ATOM     54  C   UNL A   1      41.656  27.407  26.120  1.00  0.00     0.198 A 
ATOM     55  F   UNL A   1      41.978  29.425  27.278  1.00  0.00    -0.203 F 
ATOM     56  F   UNL A   1      39.898  24.393  27.077  1.00  0.00    -0.200 F 
ATOM     57  C   UNL A   1      41.139  26.124  26.062  1.00  0.00     0.200 A 
ATOM     58  F   UNL A   1      42.383  27.884  25.101  1.00  0.00    -0.200 F 
ATOM     59  F   UNL A   1      41.391  25.344  25.001  1.00  0.00    -0.200 F 
ENDBRANCH  25  49
BRANCH  37  60
ATOM     60  C   UNL A   1      44.177  28.554  34.295  1.00  0.00     0.064 A 
ATOM     61  C   UNL A   1      45.446  29.105  34.064  1.00  0.00     0.173 A 
ATOM     62  C   UNL A   1      44.091  27.370  35.041  1.00  0.00     0.173 A 
ATOM     63  F   UNL A   1      45.574  30.226  33.338  1.00  0.00    -0.203 F 
ATOM     64  C   UNL A   1      46.591  28.467  34.527  1.00  0.00     0.198 A 
ATOM     65  C   UNL A   1      45.235  26.758  35.536  1.00  0.00     0.198 A 
ATOM     66  F   UNL A   1      42.896  26.814  35.291  1.00  0.00    -0.203 F 
ATOM     67  F   UNL A   1      47.798  28.970  34.236  1.00  0.00    -0.200 F 
ATOM     68  C   UNL A   1      46.483  27.300  35.269  1.00  0.00     0.200 A 
ATOM     69  F   UNL A   1      45.130  25.640  36.267  1.00  0.00    -0.200 F 
ATOM     70  F   UNL A   1      47.588  26.688  35.717  1.00  0.00    -0.200 F 
ENDBRANCH  37  60
ENDBRANCH  11  12
ENDBRANCH   4   6
ENDBRANCH   3   4
ENDBRANCH   2   3
ENDBRANCH   1   2
BRANCH   1  71
ATOM     71  O   UNL A   1      30.973  30.706  25.985  1.00  0.00    -0.458 OA
BRANCH  71  72
ATOM     72  C   UNL A   1      31.282  30.166  24.781  1.00  0.00     0.339 C 
ATOM     73  O   UNL A   1      32.338  29.684  24.444  1.00  0.00    -0.246 OA
BRANCH  72  74
ATOM     74  C   UNL A   1      30.071  30.129  23.951  1.00  0.00     0.074 A 
ATOM     75  C   UNL A   1      29.174  31.189  24.213  1.00  0.00     0.017 A 
ATOM     76  C   UNL A   1      29.769  29.145  22.999  1.00  0.00     0.027 A 
ATOM     77  C   UNL A   1      27.984  31.313  23.500  1.00  0.00     0.001 A 
ATOM     78  C   UNL A   1      28.515  29.265  22.352  1.00  0.00     0.016 A 
ATOM     79  C   UNL A   1      27.653  30.346  22.567  1.00  0.00     0.001 A 
BRANCH  76  80
ATOM     80  S   UNL A   1      30.718  27.751  22.376  1.00  0.00    -0.082 SA
BRANCH  80  81
ATOM     81  C   UNL A   1      31.027  26.577  23.664  1.00  0.00     0.090 A 
ATOM     82  C   UNL A   1      30.006  26.363  24.614  1.00  0.00     0.024 A 
ATOM     83  C   UNL A   1      32.229  25.881  23.845  1.00  0.00     0.284 A 
ATOM     84  C   UNL A   1      30.126  25.370  25.602  1.00  0.00     0.023 A 
ATOM     85  C   UNL A   1      32.356  24.887  24.829  1.00  0.00     0.108 A 
ATOM     86  C   UNL A   1      31.280  24.575  25.653  1.00  0.00     0.089 A 
BRANCH  83  87
ATOM     87  N   UNL A   1      33.401  26.130  23.005  1.00  0.00     0.063 N 
ATOM     88  O   UNL A   1      34.029  27.176  23.213  1.00  0.00    -0.258 OA
ATOM     89  O   UNL A   1      33.650  25.328  22.096  1.00  0.00    -0.258 OA
ENDBRANCH  83  87
BRANCH  86  90
ATOM     90  S   UNL A   1      31.268  23.061  26.623  1.00  0.00     0.243 S 
ATOM     91  O   UNL A   1      31.913  23.385  27.872  1.00  0.00    -0.207 OA
ATOM     92  O   UNL A   1      29.902  22.575  26.562  1.00  0.00    -0.207 OA
BRANCH  90  93
ATOM     93  N   UNL A   1      32.210  21.957  25.801  1.00  0.00    -0.198 NA
ATOM     94  C   UNL A   1      33.591  21.616  26.123  1.00  0.00     0.102 C 
ATOM     95  C   UNL A   1      31.855  21.282  24.555  1.00  0.00     0.102 C 
ATOM     96  C   UNL A   1      34.260  21.615  24.753  1.00  0.00     0.018 C 
ATOM     97  C   UNL A   1      33.168  21.203  23.771  1.00  0.00     0.018 C 
ENDBRANCH  90  93
ENDBRANCH  86  90
ENDBRANCH  80  81
ENDBRANCH  76  80
ENDBRANCH  72  74
ENDBRANCH  71  72
ENDBRANCH   1  71
TORSDOF 16
ENDMDL
