MODEL 1
REMARK VINA RESULT:     -11.4      0.000      0.000
REMARK SMILES CC1(C)CC[N@@H+]([C@H](CC(=O)OCCOC(=O)c2ccc(-c3c4nc(c(-c5c(F)c(F)c(F)c(F)c5F)c5ccc([nH]5)c(-c5c(F)c(F)c(F)c(F)c5F)c5nc(c(-c6c(F)c(F)c(F)c(F)c6F)c6ccc3[nH]6)C=C5)C=C4)cc2)C(F)(F)F)C1
REMARK SMILES IDX 12 1 11 2 9 3 10 4 8 5 7 6 6 7 1 8 2 9 3 10 4 11 84 12 5 13
REMARK SMILES IDX 80 15 81 16 82 17 83 18 13 19 14 20 15 21 16 22 17 23 18 24
REMARK SMILES IDX 79 25 19 26 78 27 20 28 21 29 22 30 72 31 23 32 77 33 71 34
REMARK SMILES IDX 73 35 24 36 76 37 70 38 69 39 25 41 57 42 37 43 56 44 38 45
REMARK SMILES IDX 41 46 55 47 74 48 39 49 40 50 54 52 75 53 42 54 26 55 27 56
REMARK SMILES IDX 35 57 28 58 29 59 33 60 36 61 30 62 31 63 34 64 32 65 58 66
REMARK SMILES IDX 59 67 67 68 60 69 61 70 65 71 68 72 62 73 63 74 66 75 64 76
REMARK SMILES IDX 43 77 44 78 52 79 45 80 46 81 50 82 53 83 47 84 48 85 51 86
REMARK SMILES IDX 49 87
REMARK H PARENT 6 14 73 40 41 51
REMARK Flexibility Score: inf
ROOT
ATOM      1  C   UNL A   1      31.685  29.336  24.996  1.00  0.00     0.274 C 
ENDROOT
BRANCH   1   2
ATOM      2  O   UNL A   1      32.206  28.275  25.828  1.00  0.00    -0.462 OA
BRANCH   2   3
ATOM      3  C   UNL A   1      31.298  27.460  26.409  1.00  0.00     0.312 C 
ATOM      4  O   UNL A   1      31.095  27.406  27.617  1.00  0.00    -0.252 OA
BRANCH   3   5
ATOM      5  C   UNL A   1      30.701  26.451  25.455  1.00  0.00     0.197 C 
BRANCH   5   6
ATOM      6  C   UNL A   1      31.389  25.104  25.143  1.00  0.00     0.302 C 
BRANCH   6   7
ATOM      7  N   UNL A   1      32.812  25.159  24.737  1.00  0.00    -0.324 N 
ATOM      8  C   UNL A   1      34.288  22.511  25.736  1.00  0.00     0.017 C 
ATOM      9  C   UNL A   1      34.763  23.872  25.224  1.00  0.00     0.019 C 
ATOM     10  C   UNL A   1      36.225  24.051  25.640  1.00  0.00     0.017 C 
ATOM     11  C   UNL A   1      34.599  23.979  23.703  1.00  0.00     0.073 C 
ATOM     12  C   UNL A   1      33.852  24.989  25.743  1.00  0.00     0.269 C 
ATOM     13  C   UNL A   1      33.184  24.507  23.490  1.00  0.00     0.263 C 
ATOM     14  H   UNL A   1      32.796  26.162  24.555  1.00  0.00     0.348 HD
ENDBRANCH   6   7
BRANCH   6  15
ATOM     15  C   UNL A   1      31.031  24.010  26.184  1.00  0.00     0.441 C 
ATOM     16  F   UNL A   1      31.206  22.773  25.658  1.00  0.00    -0.165 F 
ATOM     17  F   UNL A   1      31.847  24.092  27.264  1.00  0.00    -0.165 F 
ATOM     18  F   UNL A   1      29.764  24.090  26.640  1.00  0.00    -0.165 F 
ENDBRANCH   6  15
ENDBRANCH   5   6
ENDBRANCH   3   5
ENDBRANCH   2   3
ENDBRANCH   1   2
BRANCH   1  19
ATOM     19  C   UNL A   1      31.521  30.657  25.743  1.00  0.00     0.275 C 
BRANCH  19  20
ATOM     20  O   UNL A   1      32.195  30.608  27.017  1.00  0.00    -0.458 OA
BRANCH  20  21
ATOM     21  C   UNL A   1      32.996  31.658  27.280  1.00  0.00     0.338 C 
ATOM     22  O   UNL A   1      32.679  32.843  27.296  1.00  0.00    -0.246 OA
BRANCH  21  23
ATOM     23  C   UNL A   1      34.383  31.247  27.540  1.00  0.00     0.060 A 
ATOM     24  C   UNL A   1      34.719  29.899  27.633  1.00  0.00     0.016 A 
ATOM     25  C   UNL A   1      35.292  32.227  27.953  1.00  0.00     0.016 A 
ATOM     26  C   UNL A   1      35.899  29.535  28.287  1.00  0.00     0.010 A 
ATOM     27  C   UNL A   1      36.506  31.858  28.536  1.00  0.00     0.010 A 
ATOM     28  C   UNL A   1      36.791  30.507  28.781  1.00  0.00    -0.014 A 
BRANCH  28  29
ATOM     29  C   UNL A   1      37.962  30.109  29.614  1.00  0.00     0.031 A 
ATOM     30  C   UNL A   1      39.095  29.294  29.030  1.00  0.00     0.074 A 
ATOM     31  C   UNL A   1      38.061  30.533  30.888  1.00  0.00     0.049 A 
ATOM     32  N   UNL A   1      40.140  28.781  29.635  1.00  0.00    -0.248 NA
ATOM     33  C   UNL A   1      39.050  29.017  27.585  1.00  0.00     0.031 C 
ATOM     34  C   UNL A   1      37.074  31.360  31.578  1.00  0.00     0.029 A 
ATOM     35  N   UNL A   1      39.060  30.362  31.815  1.00  0.00    -0.354 N 
ATOM     36  C   UNL A   1      40.841  28.077  28.662  1.00  0.00     0.074 A 
ATOM     37  C   UNL A   1      40.115  28.241  27.420  1.00  0.00     0.031 C 
ATOM     38  C   UNL A   1      37.553  31.699  32.784  1.00  0.00     0.029 A 
ATOM     39  C   UNL A   1      38.844  31.046  32.984  1.00  0.00     0.049 A 
ATOM     40  H   UNL A   1      39.854  29.802  31.656  1.00  0.00     0.167 HD
ATOM     41  C   UNL A   1      41.981  27.356  28.794  1.00  0.00     0.037 A 
ATOM     42  C   UNL A   1      39.589  31.133  34.102  1.00  0.00     0.037 A 
ATOM     43  C   UNL A   1      42.747  27.235  30.008  1.00  0.00     0.049 A 
ATOM     44  C   UNL A   1      40.855  30.340  34.220  1.00  0.00     0.074 A 
ATOM     45  C   UNL A   1      43.900  26.500  30.235  1.00  0.00     0.029 A 
ATOM     46  N   UNL A   1      42.457  27.893  31.191  1.00  0.00    -0.354 N 
ATOM     47  N   UNL A   1      41.434  29.575  33.329  1.00  0.00    -0.248 NA
ATOM     48  C   UNL A   1      41.548  30.389  35.515  1.00  0.00     0.031 C 
ATOM     49  C   UNL A   1      44.302  26.708  31.560  1.00  0.00     0.029 A 
ATOM     50  C   UNL A   1      43.409  27.586  32.150  1.00  0.00     0.049 A 
ATOM     51  H   UNL A   1      41.688  28.492  31.331  1.00  0.00     0.167 HD
ATOM     52  C   UNL A   1      42.536  29.022  33.964  1.00  0.00     0.074 A 
ATOM     53  C   UNL A   1      42.575  29.578  35.301  1.00  0.00     0.031 C 
ATOM     54  C   UNL A   1      43.420  28.115  33.486  1.00  0.00     0.037 A 
BRANCH  41  55
ATOM     55  C   UNL A   1      42.477  26.603  27.596  1.00  0.00     0.064 A 
ATOM     56  C   UNL A   1      43.439  27.146  26.735  1.00  0.00     0.173 A 
ATOM     57  C   UNL A   1      42.054  25.284  27.370  1.00  0.00     0.173 A 
ATOM     58  F   UNL A   1      43.868  28.404  26.910  1.00  0.00    -0.203 F 
ATOM     59  C   UNL A   1      43.962  26.391  25.686  1.00  0.00     0.198 A 
ATOM     60  C   UNL A   1      42.589  24.529  26.330  1.00  0.00     0.198 A 
ATOM     61  F   UNL A   1      41.140  24.720  28.174  1.00  0.00    -0.203 F 
ATOM     62  F   UNL A   1      44.877  26.929  24.868  1.00  0.00    -0.200 F 
ATOM     63  C   UNL A   1      43.544  25.083  25.490  1.00  0.00     0.200 A 
ATOM     64  F   UNL A   1      42.191  23.263  26.148  1.00  0.00    -0.200 F 
ATOM     65  F   UNL A   1      44.063  24.354  24.492  1.00  0.00    -0.200 F 
ENDBRANCH  41  55
BRANCH  42  66
ATOM     66  C   UNL A   1      39.125  31.996  35.214  1.00  0.00     0.064 A 
ATOM     67  C   UNL A   1      38.377  31.458  36.269  1.00  0.00     0.173 A 
ATOM     68  C   UNL A   1      39.460  33.355  35.267  1.00  0.00     0.173 A 
ATOM     69  F   UNL A   1      38.015  30.167  36.243  1.00  0.00    -0.203 F 
ATOM     70  C   UNL A   1      37.989  32.250  37.346  1.00  0.00     0.198 A 
ATOM     71  C   UNL A   1      39.090  34.140  36.356  1.00  0.00     0.198 A 
ATOM     72  F   UNL A   1      40.174  33.910  34.278  1.00  0.00    -0.203 F 
ATOM     73  F   UNL A   1      37.262  31.719  38.338  1.00  0.00    -0.200 F 
ATOM     74  C   UNL A   1      38.356  33.588  37.394  1.00  0.00     0.200 A 
ATOM     75  F   UNL A   1      39.456  35.428  36.404  1.00  0.00    -0.200 F 
ATOM     76  F   UNL A   1      37.999  34.345  38.440  1.00  0.00    -0.200 F 
ENDBRANCH  42  66
BRANCH  54  77
ATOM     77  C   UNL A   1      44.471  27.632  34.434  1.00  0.00     0.064 A 
ATOM     78  C   UNL A   1      45.691  28.312  34.559  1.00  0.00     0.173 A 
ATOM     79  C   UNL A   1      44.263  26.496  35.228  1.00  0.00     0.173 A 
ATOM     80  F   UNL A   1      45.938  29.396  33.808  1.00  0.00    -0.203 F 
ATOM     81  C   UNL A   1      46.675  27.861  35.434  1.00  0.00     0.198 A 
ATOM     82  C   UNL A   1      45.244  26.054  36.110  1.00  0.00     0.198 A 
ATOM     83  F   UNL A   1      43.112  25.813  35.140  1.00  0.00    -0.203 F 
ATOM     84  F   UNL A   1      47.846  28.507  35.514  1.00  0.00    -0.200 F 
ATOM     85  C   UNL A   1      46.450  26.734  36.210  1.00  0.00     0.200 A 
ATOM     86  F   UNL A   1      45.029  24.964  36.860  1.00  0.00    -0.200 F 
ATOM     87  F   UNL A   1      47.402  26.295  37.045  1.00  0.00    -0.200 F 
ENDBRANCH  54  77
ENDBRANCH  28  29
ENDBRANCH  21  23
ENDBRANCH  20  21
ENDBRANCH  19  20
ENDBRANCH   1  19
TORSDOF 14
ENDMDL
MODEL 2
REMARK VINA RESULT:     -11.2      3.627      5.876
REMARK SMILES CC1(C)CC[N@@H+]([C@H](CC(=O)OCCOC(=O)c2ccc(-c3c4nc(c(-c5c(F)c(F)c(F)c(F)c5F)c5ccc([nH]5)c(-c5c(F)c(F)c(F)c(F)c5F)c5nc(c(-c6c(F)c(F)c(F)c(F)c6F)c6ccc3[nH]6)C=C5)C=C4)cc2)C(F)(F)F)C1
REMARK SMILES IDX 12 1 11 2 9 3 10 4 8 5 7 6 6 7 1 8 2 9 3 10 4 11 84 12 5 13
REMARK SMILES IDX 80 15 81 16 82 17 83 18 13 19 14 20 15 21 16 22 17 23 18 24
REMARK SMILES IDX 79 25 19 26 78 27 20 28 21 29 22 30 72 31 23 32 77 33 71 34
REMARK SMILES IDX 73 35 24 36 76 37 70 38 69 39 25 41 57 42 37 43 56 44 38 45
REMARK SMILES IDX 41 46 55 47 74 48 39 49 40 50 54 52 75 53 42 54 26 55 27 56
REMARK SMILES IDX 35 57 28 58 29 59 33 60 36 61 30 62 31 63 34 64 32 65 58 66
REMARK SMILES IDX 59 67 67 68 60 69 61 70 65 71 68 72 62 73 63 74 66 75 64 76
REMARK SMILES IDX 43 77 44 78 52 79 45 80 46 81 50 82 53 83 47 84 48 85 51 86
REMARK SMILES IDX 49 87
REMARK H PARENT 6 14 73 40 41 51
REMARK Flexibility Score: inf
ROOT
ATOM      1  C   UNL A   1      33.306  35.102  28.894  1.00  0.00     0.274 C 
ENDROOT
BRANCH   1   2
ATOM      2  O   UNL A   1      32.584  34.983  30.141  1.00  0.00    -0.462 OA
BRANCH   2   3
ATOM      3  C   UNL A   1      33.061  35.694  31.187  1.00  0.00     0.312 C 
ATOM      4  O   UNL A   1      33.135  36.917  31.210  1.00  0.00    -0.252 OA
BRANCH   3   5
ATOM      5  C   UNL A   1      33.707  34.835  32.251  1.00  0.00     0.197 C 
BRANCH   5   6
ATOM      6  C   UNL A   1      35.165  34.340  32.137  1.00  0.00     0.302 C 
BRANCH   6   7
ATOM      7  N   UNL A   1      36.096  34.749  33.213  1.00  0.00    -0.324 N 
ATOM      8  C   UNL A   1      37.131  32.149  34.748  1.00  0.00     0.017 C 
ATOM      9  C   UNL A   1      37.151  33.648  35.050  1.00  0.00     0.019 C 
ATOM     10  C   UNL A   1      37.403  33.826  36.549  1.00  0.00     0.017 C 
ATOM     11  C   UNL A   1      38.218  34.367  34.215  1.00  0.00     0.073 C 
ATOM     12  C   UNL A   1      35.851  34.309  34.580  1.00  0.00     0.269 C 
ATOM     13  C   UNL A   1      37.520  34.743  32.912  1.00  0.00     0.263 C 
ATOM     14  H   UNL A   1      35.794  35.723  33.202  1.00  0.00     0.348 HD
ENDBRANCH   6   7
BRANCH   6  15
ATOM     15  C   UNL A   1      35.244  32.848  31.714  1.00  0.00     0.441 C 
ATOM     16  F   UNL A   1      34.151  32.496  30.994  1.00  0.00    -0.165 F 
ATOM     17  F   UNL A   1      36.320  32.634  30.917  1.00  0.00    -0.165 F 
ATOM     18  F   UNL A   1      35.347  31.996  32.754  1.00  0.00    -0.165 F 
ENDBRANCH   6  15
ENDBRANCH   5   6
ENDBRANCH   3   5
ENDBRANCH   2   3
ENDBRANCH   1   2
BRANCH   1  19
ATOM     19  C   UNL A   1      33.235  33.840  28.038  1.00  0.00     0.275 C 
BRANCH  19  20
ATOM     20  O   UNL A   1      34.445  33.066  28.170  1.00  0.00    -0.458 OA
BRANCH  20  21
ATOM     21  C   UNL A   1      34.325  31.762  27.861  1.00  0.00     0.338 C 
ATOM     22  O   UNL A   1      33.302  31.172  27.529  1.00  0.00    -0.246 OA
BRANCH  21  23
ATOM     23  C   UNL A   1      35.601  31.042  27.985  1.00  0.00     0.060 A 
ATOM     24  C   UNL A   1      35.626  29.705  28.376  1.00  0.00     0.016 A 
ATOM     25  C   UNL A   1      36.782  31.790  27.963  1.00  0.00     0.016 A 
ATOM     26  C   UNL A   1      36.809  29.171  28.895  1.00  0.00     0.010 A 
ATOM     27  C   UNL A   1      37.979  31.226  28.411  1.00  0.00     0.010 A 
ATOM     28  C   UNL A   1      37.991  29.934  28.955  1.00  0.00    -0.014 A 
BRANCH  28  29
ATOM     29  C   UNL A   1      39.199  29.408  29.655  1.00  0.00     0.031 A 
ATOM     30  C   UNL A   1      40.056  28.329  29.031  1.00  0.00     0.074 A 
ATOM     31  C   UNL A   1      39.585  29.940  30.831  1.00  0.00     0.049 A 
ATOM     32  N   UNL A   1      41.081  27.690  29.542  1.00  0.00    -0.248 NA
ATOM     33  C   UNL A   1      39.719  27.910  27.660  1.00  0.00     0.031 C 
ATOM     34  C   UNL A   1      38.888  31.014  31.536  1.00  0.00     0.029 A 
ATOM     35  N   UNL A   1      40.680  29.679  31.617  1.00  0.00    -0.354 N 
ATOM     36  C   UNL A   1      41.474  26.762  28.584  1.00  0.00     0.074 A 
ATOM     37  C   UNL A   1      40.588  26.928  27.451  1.00  0.00     0.031 C 
ATOM     38  C   UNL A   1      39.617  31.382  32.601  1.00  0.00     0.029 A 
ATOM     39  C   UNL A   1      40.788  30.515  32.699  1.00  0.00     0.049 A 
ATOM     40  H   UNL A   1      41.325  28.961  31.422  1.00  0.00     0.167 HD
ATOM     41  C   UNL A   1      42.475  25.851  28.646  1.00  0.00     0.037 A 
ATOM     42  C   UNL A   1      41.715  30.576  33.673  1.00  0.00     0.037 A 
ATOM     43  C   UNL A   1      43.402  25.716  29.741  1.00  0.00     0.049 A 
ATOM     44  C   UNL A   1      42.825  29.569  33.713  1.00  0.00     0.074 A 
ATOM     45  C   UNL A   1      44.430  24.799  29.897  1.00  0.00     0.029 A 
ATOM     46  N   UNL A   1      43.437  26.543  30.851  1.00  0.00    -0.354 N 
ATOM     47  N   UNL A   1      43.101  28.614  32.861  1.00  0.00    -0.248 NA
ATOM     48  C   UNL A   1      43.724  29.622  34.874  1.00  0.00     0.031 C 
ATOM     49  C   UNL A   1      45.081  25.067  31.107  1.00  0.00     0.029 A 
ATOM     50  C   UNL A   1      44.469  26.161  31.694  1.00  0.00     0.049 A 
ATOM     51  H   UNL A   1      42.819  27.292  31.017  1.00  0.00     0.167 HD
ATOM     52  C   UNL A   1      44.180  27.929  33.400  1.00  0.00     0.074 A 
ATOM     53  C   UNL A   1      44.542  28.608  34.627  1.00  0.00     0.031 C 
ATOM     54  C   UNL A   1      44.798  26.820  32.928  1.00  0.00     0.037 A 
BRANCH  41  55
ATOM     55  C   UNL A   1      42.622  24.890  27.505  1.00  0.00     0.064 A 
ATOM     56  C   UNL A   1      43.458  25.167  26.416  1.00  0.00     0.173 A 
ATOM     57  C   UNL A   1      41.992  23.637  27.555  1.00  0.00     0.173 A 
ATOM     58  F   UNL A   1      44.075  26.353  26.323  1.00  0.00    -0.203 F 
ATOM     59  C   UNL A   1      43.660  24.218  25.415  1.00  0.00     0.198 A 
ATOM     60  C   UNL A   1      42.207  22.687  26.561  1.00  0.00     0.198 A 
ATOM     61  F   UNL A   1      41.188  23.325  28.584  1.00  0.00    -0.203 F 
ATOM     62  F   UNL A   1      44.459  24.502  24.377  1.00  0.00    -0.200 F 
ATOM     63  C   UNL A   1      43.043  22.978  25.493  1.00  0.00     0.200 A 
ATOM     64  F   UNL A   1      41.618  21.487  26.643  1.00  0.00    -0.200 F 
ATOM     65  F   UNL A   1      43.254  22.062  24.537  1.00  0.00    -0.200 F 
ENDBRANCH  41  55
BRANCH  42  66
ATOM     66  C   UNL A   1      41.605  31.629  34.710  1.00  0.00     0.064 A 
ATOM     67  C   UNL A   1      42.286  32.845  34.564  1.00  0.00     0.173 A 
ATOM     68  C   UNL A   1      40.787  31.460  35.834  1.00  0.00     0.173 A 
ATOM     69  F   UNL A   1      43.099  33.036  33.516  1.00  0.00    -0.203 F 
ATOM     70  C   UNL A   1      42.140  33.861  35.505  1.00  0.00     0.198 A 
ATOM     71  C   UNL A   1      40.625  32.486  36.761  1.00  0.00     0.198 A 
ATOM     72  F   UNL A   1      40.119  30.311  36.012  1.00  0.00    -0.203 F 
ATOM     73  F   UNL A   1      42.811  35.011  35.354  1.00  0.00    -0.200 F 
ATOM     74  C   UNL A   1      41.302  33.685  36.597  1.00  0.00     0.200 A 
ATOM     75  F   UNL A   1      39.805  32.316  37.807  1.00  0.00    -0.200 F 
ATOM     76  F   UNL A   1      41.147  34.670  37.491  1.00  0.00    -0.200 F 
ENDBRANCH  42  66
BRANCH  54  77
ATOM     77  C   UNL A   1      45.894  26.247  33.770  1.00  0.00     0.064 A 
ATOM     78  C   UNL A   1      47.219  26.677  33.611  1.00  0.00     0.173 A 
ATOM     79  C   UNL A   1      45.625  25.276  34.743  1.00  0.00     0.173 A 
ATOM     80  F   UNL A   1      47.523  27.595  32.680  1.00  0.00    -0.203 F 
ATOM     81  C   UNL A   1      48.242  26.140  34.387  1.00  0.00     0.198 A 
ATOM     82  C   UNL A   1      46.649  24.750  35.526  1.00  0.00     0.198 A 
ATOM     83  F   UNL A   1      44.373  24.834  34.930  1.00  0.00    -0.203 F 
ATOM     84  F   UNL A   1      49.507  26.540  34.196  1.00  0.00    -0.200 F 
ATOM     85  C   UNL A   1      47.956  25.179  35.344  1.00  0.00     0.200 A 
ATOM     86  F   UNL A   1      46.374  23.820  36.451  1.00  0.00    -0.200 F 
ATOM     87  F   UNL A   1      48.943  24.656  36.085  1.00  0.00    -0.200 F 
ENDBRANCH  54  77
ENDBRANCH  28  29
ENDBRANCH  21  23
ENDBRANCH  20  21
ENDBRANCH  19  20
ENDBRANCH   1  19
TORSDOF 14
ENDMDL
MODEL 3
REMARK VINA RESULT:     -11.2      4.420      9.626
REMARK SMILES CC1(C)CC[N@@H+]([C@H](CC(=O)OCCOC(=O)c2ccc(-c3c4nc(c(-c5c(F)c(F)c(F)c(F)c5F)c5ccc([nH]5)c(-c5c(F)c(F)c(F)c(F)c5F)c5nc(c(-c6c(F)c(F)c(F)c(F)c6F)c6ccc3[nH]6)C=C5)C=C4)cc2)C(F)(F)F)C1
REMARK SMILES IDX 12 1 11 2 9 3 10 4 8 5 7 6 6 7 1 8 2 9 3 10 4 11 84 12 5 13
REMARK SMILES IDX 80 15 81 16 82 17 83 18 13 19 14 20 15 21 16 22 17 23 18 24
REMARK SMILES IDX 79 25 19 26 78 27 20 28 21 29 22 30 72 31 23 32 77 33 71 34
REMARK SMILES IDX 73 35 24 36 76 37 70 38 69 39 25 41 57 42 37 43 56 44 38 45
REMARK SMILES IDX 41 46 55 47 74 48 39 49 40 50 54 52 75 53 42 54 26 55 27 56
REMARK SMILES IDX 35 57 28 58 29 59 33 60 36 61 30 62 31 63 34 64 32 65 58 66
REMARK SMILES IDX 59 67 67 68 60 69 61 70 65 71 68 72 62 73 63 74 66 75 64 76
REMARK SMILES IDX 43 77 44 78 52 79 45 80 46 81 50 82 53 83 47 84 48 85 51 86
REMARK SMILES IDX 49 87
REMARK H PARENT 6 14 73 40 41 51
REMARK Flexibility Score: inf
ROOT
ATOM      1  C   UNL A   1      35.738  20.801  25.136  1.00  0.00     0.274 C 
ENDROOT
BRANCH   1   2
ATOM      2  O   UNL A   1      35.657  21.834  26.145  1.00  0.00    -0.462 OA
BRANCH   2   3
ATOM      3  C   UNL A   1      34.684  22.758  25.988  1.00  0.00     0.312 C 
ATOM      4  O   UNL A   1      34.024  23.226  26.910  1.00  0.00    -0.252 OA
BRANCH   3   5
ATOM      5  C   UNL A   1      34.322  23.010  24.542  1.00  0.00     0.197 C 
BRANCH   5   6
ATOM      6  C   UNL A   1      32.869  23.268  24.089  1.00  0.00     0.302 C 
BRANCH   6   7
ATOM      7  N   UNL A   1      32.492  24.673  23.818  1.00  0.00    -0.324 N 
ATOM      8  C   UNL A   1      33.881  26.566  25.981  1.00  0.00     0.017 C 
ATOM      9  C   UNL A   1      32.745  26.748  24.972  1.00  0.00     0.019 C 
ATOM     10  C   UNL A   1      31.933  27.976  25.390  1.00  0.00     0.017 C 
ATOM     11  C   UNL A   1      33.288  26.897  23.546  1.00  0.00     0.073 C 
ATOM     12  C   UNL A   1      31.898  25.474  24.881  1.00  0.00     0.269 C 
ATOM     13  C   UNL A   1      33.399  25.474  23.010  1.00  0.00     0.263 C 
ATOM     14  H   UNL A   1      31.704  24.422  23.220  1.00  0.00     0.348 HD
ENDBRANCH   6   7
BRANCH   6  15
ATOM     15  C   UNL A   1      32.393  22.231  23.035  1.00  0.00     0.441 C 
ATOM     16  F   UNL A   1      31.083  22.416  22.740  1.00  0.00    -0.165 F 
ATOM     17  F   UNL A   1      33.077  22.381  21.874  1.00  0.00    -0.165 F 
ATOM     18  F   UNL A   1      32.554  20.951  23.425  1.00  0.00    -0.165 F 
ENDBRANCH   6  15
ENDBRANCH   5   6
ENDBRANCH   3   5
ENDBRANCH   2   3
ENDBRANCH   1   2
BRANCH   1  19
ATOM     19  C   UNL A   1      37.142  20.222  24.984  1.00  0.00     0.275 C 
BRANCH  19  20
ATOM     20  O   UNL A   1      38.127  21.275  24.965  1.00  0.00    -0.458 OA
BRANCH  20  21
ATOM     21  C   UNL A   1      39.133  21.131  25.849  1.00  0.00     0.338 C 
ATOM     22  O   UNL A   1      39.771  20.110  26.083  1.00  0.00    -0.246 OA
BRANCH  21  23
ATOM     23  C   UNL A   1      39.410  22.375  26.581  1.00  0.00     0.060 A 
ATOM     24  C   UNL A   1      38.789  23.567  26.218  1.00  0.00     0.016 A 
ATOM     25  C   UNL A   1      40.496  22.390  27.463  1.00  0.00     0.016 A 
ATOM     26  C   UNL A   1      39.359  24.780  26.613  1.00  0.00     0.010 A 
ATOM     27  C   UNL A   1      41.014  23.605  27.919  1.00  0.00     0.010 A 
ATOM     28  C   UNL A   1      40.500  24.817  27.438  1.00  0.00    -0.014 A 
BRANCH  28  29
ATOM     29  C   UNL A   1      41.191  26.109  27.720  1.00  0.00     0.031 A 
ATOM     30  C   UNL A   1      40.554  27.157  28.605  1.00  0.00     0.074 A 
ATOM     31  C   UNL A   1      42.431  26.331  27.245  1.00  0.00     0.049 A 
ATOM     32  N   UNL A   1      40.969  28.372  28.877  1.00  0.00    -0.248 NA
ATOM     33  C   UNL A   1      39.289  26.801  29.268  1.00  0.00     0.031 C 
ATOM     34  C   UNL A   1      43.193  25.400  26.415  1.00  0.00     0.029 A 
ATOM     35  N   UNL A   1      43.284  27.392  27.427  1.00  0.00    -0.354 N 
ATOM     36  C   UNL A   1      39.995  28.940  29.690  1.00  0.00     0.074 A 
ATOM     37  C   UNL A   1      38.972  27.934  29.885  1.00  0.00     0.031 C 
ATOM     38  C   UNL A   1      44.429  25.887  26.234  1.00  0.00     0.029 A 
ATOM     39  C   UNL A   1      44.521  27.201  26.864  1.00  0.00     0.049 A 
ATOM     40  H   UNL A   1      43.032  28.210  27.913  1.00  0.00     0.167 HD
ATOM     41  C   UNL A   1      39.954  30.186  30.220  1.00  0.00     0.037 A 
ATOM     42  C   UNL A   1      45.607  27.996  26.842  1.00  0.00     0.037 A 
ATOM     43  C   UNL A   1      40.993  31.175  30.086  1.00  0.00     0.049 A 
ATOM     44  C   UNL A   1      45.545  29.364  27.450  1.00  0.00     0.074 A 
ATOM     45  C   UNL A   1      41.019  32.474  30.569  1.00  0.00     0.029 A 
ATOM     46  N   UNL A   1      42.205  30.964  29.452  1.00  0.00    -0.354 N 
ATOM     47  N   UNL A   1      44.563  29.932  28.104  1.00  0.00    -0.248 NA
ATOM     48  C   UNL A   1      46.729  30.218  27.276  1.00  0.00     0.031 C 
ATOM     49  C   UNL A   1      42.245  33.052  30.217  1.00  0.00     0.029 A 
ATOM     50  C   UNL A   1      42.988  32.105  29.532  1.00  0.00     0.049 A 
ATOM     51  H   UNL A   1      42.472  30.126  29.009  1.00  0.00     0.167 HD
ATOM     52  C   UNL A   1      44.993  31.219  28.388  1.00  0.00     0.074 A 
ATOM     53  C   UNL A   1      46.344  31.335  27.879  1.00  0.00     0.031 C 
ATOM     54  C   UNL A   1      44.315  32.222  28.994  1.00  0.00     0.037 A 
BRANCH  41  55
ATOM     55  C   UNL A   1      38.728  30.584  30.985  1.00  0.00     0.064 A 
ATOM     56  C   UNL A   1      38.681  30.515  32.383  1.00  0.00     0.173 A 
ATOM     57  C   UNL A   1      37.626  31.132  30.311  1.00  0.00     0.173 A 
ATOM     58  F   UNL A   1      39.708  29.993  33.069  1.00  0.00    -0.203 F 
ATOM     59  C   UNL A   1      37.570  30.984  33.082  1.00  0.00     0.198 A 
ATOM     60  C   UNL A   1      36.524  31.612  31.013  1.00  0.00     0.198 A 
ATOM     61  F   UNL A   1      37.630  31.225  28.973  1.00  0.00    -0.203 F 
ATOM     62  F   UNL A   1      37.539  30.905  34.419  1.00  0.00    -0.200 F 
ATOM     63  C   UNL A   1      36.498  31.540  32.398  1.00  0.00     0.200 A 
ATOM     64  F   UNL A   1      35.495  32.158  30.352  1.00  0.00    -0.200 F 
ATOM     65  F   UNL A   1      35.439  32.007  33.074  1.00  0.00    -0.200 F 
ENDBRANCH  41  55
BRANCH  42  66
ATOM     66  C   UNL A   1      46.845  27.508  26.189  1.00  0.00     0.064 A 
ATOM     67  C   UNL A   1      47.843  26.873  26.939  1.00  0.00     0.173 A 
ATOM     68  C   UNL A   1      47.031  27.623  24.805  1.00  0.00     0.173 A 
ATOM     69  F   UNL A   1      47.715  26.766  28.269  1.00  0.00    -0.203 F 
ATOM     70  C   UNL A   1      48.981  26.360  26.324  1.00  0.00     0.198 A 
ATOM     71  C   UNL A   1      48.160  27.089  24.189  1.00  0.00     0.198 A 
ATOM     72  F   UNL A   1      46.101  28.225  24.051  1.00  0.00    -0.203 F 
ATOM     73  F   UNL A   1      49.930  25.769  27.062  1.00  0.00    -0.200 F 
ATOM     74  C   UNL A   1      49.134  26.458  24.948  1.00  0.00     0.200 A 
ATOM     75  F   UNL A   1      48.297  27.176  22.859  1.00  0.00    -0.200 F 
ATOM     76  F   UNL A   1      50.220  25.947  24.354  1.00  0.00    -0.200 F 
ENDBRANCH  42  66
BRANCH  54  77
ATOM     77  C   UNL A   1      45.009  33.544  29.092  1.00  0.00     0.064 A 
ATOM     78  C   UNL A   1      44.851  34.512  28.090  1.00  0.00     0.173 A 
ATOM     79  C   UNL A   1      45.823  33.854  30.189  1.00  0.00     0.173 A 
ATOM     80  F   UNL A   1      44.092  34.251  27.015  1.00  0.00    -0.203 F 
ATOM     81  C   UNL A   1      45.501  35.740  28.174  1.00  0.00     0.198 A 
ATOM     82  C   UNL A   1      46.462  35.088  30.276  1.00  0.00     0.198 A 
ATOM     83  F   UNL A   1      46.004  32.958  31.171  1.00  0.00    -0.203 F 
ATOM     84  F   UNL A   1      45.364  36.638  27.189  1.00  0.00    -0.200 F 
ATOM     85  C   UNL A   1      46.304  36.027  29.267  1.00  0.00     0.200 A 
ATOM     86  F   UNL A   1      47.239  35.366  31.332  1.00  0.00    -0.200 F 
ATOM     87  F   UNL A   1      46.936  37.206  29.343  1.00  0.00    -0.200 F 
ENDBRANCH  54  77
ENDBRANCH  28  29
ENDBRANCH  21  23
ENDBRANCH  20  21
ENDBRANCH  19  20
ENDBRANCH   1  19
TORSDOF 14
ENDMDL
