MODEL 1
REMARK VINA RESULT:     -10.0      0.000      0.000
REMARK SMILES C[C@@H](Cc1ccco1)C(=O)OCCOC(=O)c1ccc(-c2c3nc(c(-c4c(F)c(F)c(F)c(F)c4F)c4ccc([nH]4)c(-c4c(F)c(F)c(F)c(F)c4F)c4nc(c(-c5c(F)c(F)c(F)c(F)c5F)c5ccc2[nH]5)C=C4)C=C3)cc1
REMARK SMILES IDX 12 1 11 2 9 3 10 4 2 5 1 6 3 7 4 8 5 9 8 10 6 11 7 12 13 13
REMARK SMILES IDX 14 14 15 15 16 16 17 17 18 18 79 19 19 20 78 21 20 22 21 23
REMARK SMILES IDX 22 24 72 25 23 26 77 27 71 28 73 29 24 30 76 31 70 32 69 33
REMARK SMILES IDX 25 35 57 36 37 37 56 38 38 39 41 40 55 41 74 42 39 43 40 44
REMARK SMILES IDX 54 46 75 47 42 48 26 49 27 50 35 51 28 52 29 53 33 54 36 55
REMARK SMILES IDX 30 56 31 57 34 58 32 59 58 60 59 61 67 62 60 63 61 64 65 65
REMARK SMILES IDX 68 66 62 67 63 68 66 69 64 70 43 71 44 72 52 73 45 74 46 75
REMARK SMILES IDX 50 76 53 77 47 78 48 79 51 80 49 81
REMARK H PARENT 73 34 41 45
REMARK Flexibility Score: inf
ROOT
ATOM      1  C   UNL A   1      33.267  35.141  28.952  1.00  0.00     0.274 C 
ENDROOT
BRANCH   1   2
ATOM      2  O   UNL A   1      33.012  34.783  30.325  1.00  0.00    -0.462 OA
BRANCH   2   3
ATOM      3  C   UNL A   1      32.896  35.801  31.214  1.00  0.00     0.309 C 
ATOM      4  O   UNL A   1      31.875  36.453  31.402  1.00  0.00    -0.252 OA
BRANCH   3   5
ATOM      5  C   UNL A   1      34.187  36.091  31.958  1.00  0.00     0.103 C 
ATOM      6  C   UNL A   1      34.022  36.753  33.323  1.00  0.00     0.020 C 
BRANCH   5   7
ATOM      7  C   UNL A   1      35.108  34.873  31.952  1.00  0.00     0.090 C 
BRANCH   7   8
ATOM      8  C   UNL A   1      35.767  34.497  33.234  1.00  0.00     0.104 A 
ATOM      9  C   UNL A   1      35.421  33.801  34.374  1.00  0.00     0.045 A 
ATOM     10  O   UNL A   1      37.052  34.949  33.355  1.00  0.00    -0.469 OA
ATOM     11  C   UNL A   1      36.549  33.830  35.230  1.00  0.00     0.042 A 
ATOM     12  C   UNL A   1      37.515  34.541  34.562  1.00  0.00     0.195 A 
ENDBRANCH   7   8
ENDBRANCH   5   7
ENDBRANCH   3   5
ENDBRANCH   2   3
ENDBRANCH   1   2
BRANCH   1  13
ATOM     13  C   UNL A   1      32.792  34.041  28.001  1.00  0.00     0.275 C 
BRANCH  13  14
ATOM     14  O   UNL A   1      33.912  33.345  27.424  1.00  0.00    -0.458 OA
BRANCH  14  15
ATOM     15  C   UNL A   1      33.843  31.996  27.495  1.00  0.00     0.338 C 
ATOM     16  O   UNL A   1      32.959  31.271  27.074  1.00  0.00    -0.246 OA
BRANCH  15  17
ATOM     17  C   UNL A   1      35.106  31.482  28.043  1.00  0.00     0.060 A 
ATOM     18  C   UNL A   1      35.125  30.167  28.517  1.00  0.00     0.016 A 
ATOM     19  C   UNL A   1      36.239  32.290  28.142  1.00  0.00     0.016 A 
ATOM     20  C   UNL A   1      36.276  29.652  29.100  1.00  0.00     0.010 A 
ATOM     21  C   UNL A   1      37.397  31.772  28.727  1.00  0.00     0.010 A 
ATOM     22  C   UNL A   1      37.417  30.454  29.216  1.00  0.00    -0.014 A 
BRANCH  22  23
ATOM     23  C   UNL A   1      38.616  29.913  29.893  1.00  0.00     0.031 A 
ATOM     24  C   UNL A   1      38.991  30.415  31.254  1.00  0.00     0.074 A 
ATOM     25  C   UNL A   1      39.338  28.949  29.296  1.00  0.00     0.049 A 
ATOM     26  N   UNL A   1      40.030  30.116  31.992  1.00  0.00    -0.248 NA
ATOM     27  C   UNL A   1      38.072  31.384  31.874  1.00  0.00     0.031 C 
ATOM     28  C   UNL A   1      39.037  28.352  27.995  1.00  0.00     0.029 A 
ATOM     29  N   UNL A   1      40.476  28.302  29.707  1.00  0.00    -0.354 N 
ATOM     30  C   UNL A   1      39.897  30.863  33.152  1.00  0.00     0.074 A 
ATOM     31  C   UNL A   1      38.686  31.645  33.018  1.00  0.00     0.031 C 
ATOM     32  C   UNL A   1      39.968  27.428  27.712  1.00  0.00     0.029 A 
ATOM     33  C   UNL A   1      40.951  27.397  28.791  1.00  0.00     0.049 A 
ATOM     34  H   UNL A   1      40.908  28.470  30.575  1.00  0.00     0.167 HD
ATOM     35  C   UNL A   1      40.713  30.888  34.233  1.00  0.00     0.037 A 
ATOM     36  C   UNL A   1      42.069  26.648  28.814  1.00  0.00     0.037 A 
ATOM     37  C   UNL A   1      41.912  30.102  34.361  1.00  0.00     0.049 A 
ATOM     38  C   UNL A   1      42.988  26.740  30.002  1.00  0.00     0.074 A 
ATOM     39  C   UNL A   1      42.811  30.061  35.413  1.00  0.00     0.029 A 
ATOM     40  N   UNL A   1      42.380  29.217  33.401  1.00  0.00    -0.354 N 
ATOM     41  N   UNL A   1      42.862  27.458  31.091  1.00  0.00    -0.248 NA
ATOM     42  C   UNL A   1      44.206  25.920  29.961  1.00  0.00     0.031 C 
ATOM     43  C   UNL A   1      43.840  29.176  35.075  1.00  0.00     0.029 A 
ATOM     44  C   UNL A   1      43.562  28.635  33.829  1.00  0.00     0.049 A 
ATOM     45  H   UNL A   1      41.937  29.030  32.542  1.00  0.00     0.167 HD
ATOM     46  C   UNL A   1      43.972  27.165  31.872  1.00  0.00     0.074 A 
ATOM     47  C   UNL A   1      44.751  26.189  31.140  1.00  0.00     0.031 C 
ATOM     48  C   UNL A   1      44.320  27.664  33.084  1.00  0.00     0.037 A 
BRANCH  35  49
ATOM     49  C   UNL A   1      40.348  31.813  35.354  1.00  0.00     0.064 A 
ATOM     50  C   UNL A   1      39.376  31.468  36.305  1.00  0.00     0.173 A 
ATOM     51  C   UNL A   1      41.007  33.042  35.503  1.00  0.00     0.173 A 
ATOM     52  F   UNL A   1      38.707  30.311  36.197  1.00  0.00    -0.203 F 
ATOM     53  C   UNL A   1      39.067  32.328  37.355  1.00  0.00     0.198 A 
ATOM     54  C   UNL A   1      40.711  33.889  36.567  1.00  0.00     0.198 A 
ATOM     55  F   UNL A   1      41.945  33.417  34.620  1.00  0.00    -0.203 F 
ATOM     56  F   UNL A   1      38.110  31.995  38.233  1.00  0.00    -0.200 F 
ATOM     57  C   UNL A   1      39.739  33.535  37.489  1.00  0.00     0.200 A 
ATOM     58  F   UNL A   1      41.368  35.051  36.699  1.00  0.00    -0.200 F 
ATOM     59  F   UNL A   1      39.445  34.358  38.506  1.00  0.00    -0.200 F 
ENDBRANCH  35  49
BRANCH  36  60
ATOM     60  C   UNL A   1      42.397  25.766  27.665  1.00  0.00     0.064 A 
ATOM     61  C   UNL A   1      41.849  24.481  27.559  1.00  0.00     0.173 A 
ATOM     62  C   UNL A   1      43.281  26.184  26.659  1.00  0.00     0.173 A 
ATOM     63  F   UNL A   1      41.019  24.028  28.510  1.00  0.00    -0.203 F 
ATOM     64  C   UNL A   1      42.187  23.640  26.501  1.00  0.00     0.198 A 
ATOM     65  C   UNL A   1      43.598  25.353  25.587  1.00  0.00     0.198 A 
ATOM     66  F   UNL A   1      43.837  27.403  26.716  1.00  0.00    -0.203 F 
ATOM     67  F   UNL A   1      41.686  22.399  26.449  1.00  0.00    -0.200 F 
ATOM     68  C   UNL A   1      43.057  24.078  25.513  1.00  0.00     0.200 A 
ATOM     69  F   UNL A   1      44.432  25.783  24.631  1.00  0.00    -0.200 F 
ATOM     70  F   UNL A   1      43.382  23.268  24.497  1.00  0.00    -0.200 F 
ENDBRANCH  36  60
BRANCH  48  71
ATOM     71  C   UNL A   1      45.584  27.142  33.696  1.00  0.00     0.064 A 
ATOM     72  C   UNL A   1      46.814  27.786  33.499  1.00  0.00     0.173 A 
ATOM     73  C   UNL A   1      45.561  25.998  34.509  1.00  0.00     0.173 A 
ATOM     74  F   UNL A   1      46.888  28.873  32.716  1.00  0.00    -0.203 F 
ATOM     75  C   UNL A   1      47.980  27.288  34.072  1.00  0.00     0.198 A 
ATOM     76  C   UNL A   1      46.725  25.519  35.101  1.00  0.00     0.198 A 
ATOM     77  F   UNL A   1      44.408  25.350  34.732  1.00  0.00    -0.203 F 
ATOM     78  F   UNL A   1      49.153  27.892  33.832  1.00  0.00    -0.200 F 
ATOM     79  C   UNL A   1      47.935  26.160  34.877  1.00  0.00     0.200 A 
ATOM     80  F   UNL A   1      46.678  24.434  35.886  1.00  0.00    -0.200 F 
ATOM     81  F   UNL A   1      49.059  25.683  35.429  1.00  0.00    -0.200 F 
ENDBRANCH  48  71
ENDBRANCH  22  23
ENDBRANCH  15  17
ENDBRANCH  14  15
ENDBRANCH  13  14
ENDBRANCH   1  13
TORSDOF 13
ENDMDL
MODEL 2
REMARK VINA RESULT:      -9.8      6.248      9.856
REMARK SMILES C[C@@H](Cc1ccco1)C(=O)OCCOC(=O)c1ccc(-c2c3nc(c(-c4c(F)c(F)c(F)c(F)c4F)c4ccc([nH]4)c(-c4c(F)c(F)c(F)c(F)c4F)c4nc(c(-c5c(F)c(F)c(F)c(F)c5F)c5ccc2[nH]5)C=C4)C=C3)cc1
REMARK SMILES IDX 12 1 11 2 9 3 10 4 2 5 1 6 3 7 4 8 5 9 8 10 6 11 7 12 13 13
REMARK SMILES IDX 14 14 15 15 16 16 17 17 18 18 79 19 19 20 78 21 20 22 21 23
REMARK SMILES IDX 22 24 72 25 23 26 77 27 71 28 73 29 24 30 76 31 70 32 69 33
REMARK SMILES IDX 25 35 57 36 37 37 56 38 38 39 41 40 55 41 74 42 39 43 40 44
REMARK SMILES IDX 54 46 75 47 42 48 26 49 27 50 35 51 28 52 29 53 33 54 36 55
REMARK SMILES IDX 30 56 31 57 34 58 32 59 58 60 59 61 67 62 60 63 61 64 65 65
REMARK SMILES IDX 68 66 62 67 63 68 66 69 64 70 43 71 44 72 52 73 45 74 46 75
REMARK SMILES IDX 50 76 53 77 47 78 48 79 51 80 49 81
REMARK H PARENT 73 34 41 45
REMARK Flexibility Score: inf
ROOT
ATOM      1  C   UNL A   1      35.709  20.554  25.199  1.00  0.00     0.274 C 
ENDROOT
BRANCH   1   2
ATOM      2  O   UNL A   1      35.153  21.863  24.961  1.00  0.00    -0.462 OA
BRANCH   2   3
ATOM      3  C   UNL A   1      34.010  21.921  24.233  1.00  0.00     0.309 C 
ATOM      4  O   UNL A   1      33.852  22.609  23.231  1.00  0.00    -0.252 OA
BRANCH   3   5
ATOM      5  C   UNL A   1      32.900  21.055  24.801  1.00  0.00     0.103 C 
ATOM      6  C   UNL A   1      31.765  21.810  25.488  1.00  0.00     0.020 C 
BRANCH   5   7
ATOM      7  C   UNL A   1      32.441  20.014  23.781  1.00  0.00     0.090 C 
BRANCH   7   8
ATOM      8  C   UNL A   1      32.763  18.587  24.056  1.00  0.00     0.104 A 
ATOM      9  C   UNL A   1      33.523  17.597  23.466  1.00  0.00     0.045 A 
ATOM     10  O   UNL A   1      32.162  18.084  25.176  1.00  0.00    -0.469 OA
ATOM     11  C   UNL A   1      33.377  16.437  24.264  1.00  0.00     0.042 A 
ATOM     12  C   UNL A   1      32.539  16.786  25.293  1.00  0.00     0.195 A 
ENDBRANCH   7   8
ENDBRANCH   5   7
ENDBRANCH   3   5
ENDBRANCH   2   3
ENDBRANCH   1   2
BRANCH   1  13
ATOM     13  C   UNL A   1      37.218  20.545  24.949  1.00  0.00     0.275 C 
BRANCH  13  14
ATOM     14  O   UNL A   1      37.864  21.604  25.679  1.00  0.00    -0.458 OA
BRANCH  14  15
ATOM     15  C   UNL A   1      39.083  21.293  26.174  1.00  0.00     0.338 C 
ATOM     16  O   UNL A   1      39.638  20.208  26.166  1.00  0.00    -0.246 OA
BRANCH  15  17
ATOM     17  C   UNL A   1      39.749  22.527  26.615  1.00  0.00     0.060 A 
ATOM     18  C   UNL A   1      39.306  23.737  26.075  1.00  0.00     0.016 A 
ATOM     19  C   UNL A   1      40.827  22.495  27.501  1.00  0.00     0.016 A 
ATOM     20  C   UNL A   1      39.940  24.926  26.412  1.00  0.00     0.010 A 
ATOM     21  C   UNL A   1      41.464  23.691  27.842  1.00  0.00     0.010 A 
ATOM     22  C   UNL A   1      41.029  24.910  27.291  1.00  0.00    -0.014 A 
BRANCH  22  23
ATOM     23  C   UNL A   1      41.734  26.174  27.594  1.00  0.00     0.031 A 
ATOM     24  C   UNL A   1      41.048  27.232  28.404  1.00  0.00     0.074 A 
ATOM     25  C   UNL A   1      42.999  26.348  27.173  1.00  0.00     0.049 A 
ATOM     26  N   UNL A   1      41.466  28.429  28.730  1.00  0.00    -0.248 NA
ATOM     27  C   UNL A   1      39.710  26.901  28.919  1.00  0.00     0.031 C 
ATOM     28  C   UNL A   1      43.780  25.365  26.421  1.00  0.00     0.029 A 
ATOM     29  N   UNL A   1      43.849  27.414  27.317  1.00  0.00    -0.354 N 
ATOM     30  C   UNL A   1      40.445  28.996  29.477  1.00  0.00     0.074 A 
ATOM     31  C   UNL A   1      39.376  28.021  29.543  1.00  0.00     0.031 C 
ATOM     32  C   UNL A   1      44.995  25.875  26.167  1.00  0.00     0.029 A 
ATOM     33  C   UNL A   1      45.063  27.232  26.701  1.00  0.00     0.049 A 
ATOM     34  H   UNL A   1      43.613  28.230  27.814  1.00  0.00     0.167 HD
ATOM     35  C   UNL A   1      40.407  30.219  30.056  1.00  0.00     0.037 A 
ATOM     36  C   UNL A   1      46.100  28.079  26.565  1.00  0.00     0.037 A 
ATOM     37  C   UNL A   1      41.477  31.180  29.991  1.00  0.00     0.049 A 
ATOM     38  C   UNL A   1      46.007  29.454  27.170  1.00  0.00     0.074 A 
ATOM     39  C   UNL A   1      41.534  32.450  30.539  1.00  0.00     0.029 A 
ATOM     40  N   UNL A   1      42.681  30.974  29.333  1.00  0.00    -0.354 N 
ATOM     41  N   UNL A   1      45.032  29.987  27.865  1.00  0.00    -0.248 NA
ATOM     42  C   UNL A   1      47.157  30.345  26.967  1.00  0.00     0.031 C 
ATOM     43  C   UNL A   1      42.759  33.025  30.185  1.00  0.00     0.029 A 
ATOM     44  C   UNL A   1      43.482  32.099  29.449  1.00  0.00     0.049 A 
ATOM     45  H   UNL A   1      42.929  30.151  28.855  1.00  0.00     0.167 HD
ATOM     46  C   UNL A   1      45.456  31.267  28.197  1.00  0.00     0.074 A 
ATOM     47  C   UNL A   1      46.785  31.423  27.643  1.00  0.00     0.031 C 
ATOM     48  C   UNL A   1      44.802  32.230  28.892  1.00  0.00     0.037 A 
BRANCH  35  49
ATOM     49  C   UNL A   1      39.158  30.597  30.794  1.00  0.00     0.064 A 
ATOM     50  C   UNL A   1      38.073  31.201  30.141  1.00  0.00     0.173 A 
ATOM     51  C   UNL A   1      39.029  30.315  32.162  1.00  0.00     0.173 A 
ATOM     52  F   UNL A   1      38.155  31.505  28.837  1.00  0.00    -0.203 F 
ATOM     53  C   UNL A   1      36.911  31.523  30.835  1.00  0.00     0.198 A 
ATOM     54  C   UNL A   1      37.856  30.618  32.848  1.00  0.00     0.198 A 
ATOM     55  F   UNL A   1      40.038  29.737  32.830  1.00  0.00    -0.203 F 
ATOM     56  F   UNL A   1      35.899  32.132  30.201  1.00  0.00    -0.200 F 
ATOM     57  C   UNL A   1      36.800  31.226  32.186  1.00  0.00     0.200 A 
ATOM     58  F   UNL A   1      37.749  30.322  34.151  1.00  0.00    -0.200 F 
ATOM     59  F   UNL A   1      35.677  31.529  32.851  1.00  0.00    -0.200 F 
ENDBRANCH  35  49
BRANCH  36  60
ATOM     60  C   UNL A   1      47.305  27.663  25.802  1.00  0.00     0.064 A 
ATOM     61  C   UNL A   1      47.340  27.748  24.404  1.00  0.00     0.173 A 
ATOM     62  C   UNL A   1      48.437  27.156  26.455  1.00  0.00     0.173 A 
ATOM     63  F   UNL A   1      46.272  28.202  23.733  1.00  0.00    -0.203 F 
ATOM     64  C   UNL A   1      48.456  27.322  23.686  1.00  0.00     0.198 A 
ATOM     65  C   UNL A   1      49.563  26.756  25.739  1.00  0.00     0.198 A 
ATOM     66  F   UNL A   1      48.452  27.051  27.792  1.00  0.00    -0.203 F 
ATOM     67  F   UNL A   1      48.446  27.368  22.348  1.00  0.00    -0.200 F 
ATOM     68  C   UNL A   1      49.569  26.831  24.354  1.00  0.00     0.200 A 
ATOM     69  F   UNL A   1      50.639  26.291  26.389  1.00  0.00    -0.200 F 
ATOM     70  F   UNL A   1      50.640  26.421  23.663  1.00  0.00    -0.200 F 
ENDBRANCH  36  60
BRANCH  48  71
ATOM     71  C   UNL A   1      45.529  33.523  29.108  1.00  0.00     0.064 A 
ATOM     72  C   UNL A   1      45.412  34.589  28.205  1.00  0.00     0.173 A 
ATOM     73  C   UNL A   1      46.331  33.707  30.245  1.00  0.00     0.173 A 
ATOM     74  F   UNL A   1      44.670  34.455  27.095  1.00  0.00    -0.203 F 
ATOM     75  C   UNL A   1      46.094  35.784  28.418  1.00  0.00     0.198 A 
ATOM     76  C   UNL A   1      46.991  34.911  30.468  1.00  0.00     0.198 A 
ATOM     77  F   UNL A   1      46.471  32.718  31.141  1.00  0.00    -0.203 F 
ATOM     78  F   UNL A   1      46.006  36.773  27.517  1.00  0.00    -0.200 F 
ATOM     79  C   UNL A   1      46.878  35.946  29.550  1.00  0.00     0.200 A 
ATOM     80  F   UNL A   1      47.740  35.070  31.567  1.00  0.00    -0.200 F 
ATOM     81  F   UNL A   1      47.532  37.097  29.754  1.00  0.00    -0.200 F 
ENDBRANCH  48  71
ENDBRANCH  22  23
ENDBRANCH  15  17
ENDBRANCH  14  15
ENDBRANCH  13  14
ENDBRANCH   1  13
TORSDOF 13
ENDMDL
MODEL 3
REMARK VINA RESULT:      -9.8      2.675      5.202
REMARK SMILES C[C@@H](Cc1ccco1)C(=O)OCCOC(=O)c1ccc(-c2c3nc(c(-c4c(F)c(F)c(F)c(F)c4F)c4ccc([nH]4)c(-c4c(F)c(F)c(F)c(F)c4F)c4nc(c(-c5c(F)c(F)c(F)c(F)c5F)c5ccc2[nH]5)C=C4)C=C3)cc1
REMARK SMILES IDX 12 1 11 2 9 3 10 4 2 5 1 6 3 7 4 8 5 9 8 10 6 11 7 12 13 13
REMARK SMILES IDX 14 14 15 15 16 16 17 17 18 18 79 19 19 20 78 21 20 22 21 23
REMARK SMILES IDX 22 24 72 25 23 26 77 27 71 28 73 29 24 30 76 31 70 32 69 33
REMARK SMILES IDX 25 35 57 36 37 37 56 38 38 39 41 40 55 41 74 42 39 43 40 44
REMARK SMILES IDX 54 46 75 47 42 48 26 49 27 50 35 51 28 52 29 53 33 54 36 55
REMARK SMILES IDX 30 56 31 57 34 58 32 59 58 60 59 61 67 62 60 63 61 64 65 65
REMARK SMILES IDX 68 66 62 67 63 68 66 69 64 70 43 71 44 72 52 73 45 74 46 75
REMARK SMILES IDX 50 76 53 77 47 78 48 79 51 80 49 81
REMARK H PARENT 73 34 41 45
REMARK Flexibility Score: inf
ROOT
ATOM      1  C   UNL A   1      31.788  28.713  26.847  1.00  0.00     0.274 C 
ENDROOT
BRANCH   1   2
ATOM      2  O   UNL A   1      31.653  28.155  25.525  1.00  0.00    -0.462 OA
BRANCH   2   3
ATOM      3  C   UNL A   1      30.754  27.151  25.371  1.00  0.00     0.309 C 
ATOM      4  O   UNL A   1      30.430  26.361  26.250  1.00  0.00    -0.252 OA
BRANCH   3   5
ATOM      5  C   UNL A   1      30.188  27.071  23.965  1.00  0.00     0.103 C 
ATOM      6  C   UNL A   1      28.692  26.780  23.876  1.00  0.00     0.020 C 
BRANCH   5   7
ATOM      7  C   UNL A   1      30.654  28.253  23.117  1.00  0.00     0.090 C 
BRANCH   7   8
ATOM      8  C   UNL A   1      29.680  29.351  22.866  1.00  0.00     0.104 A 
ATOM      9  C   UNL A   1      29.174  30.425  23.570  1.00  0.00     0.045 A 
ATOM     10  O   UNL A   1      29.110  29.319  21.624  1.00  0.00    -0.469 OA
ATOM     11  C   UNL A   1      28.251  31.076  22.716  1.00  0.00     0.042 A 
ATOM     12  C   UNL A   1      28.249  30.363  21.543  1.00  0.00     0.195 A 
ENDBRANCH   7   8
ENDBRANCH   5   7
ENDBRANCH   3   5
ENDBRANCH   2   3
ENDBRANCH   1   2
BRANCH   1  13
ATOM     13  C   UNL A   1      31.804  30.242  26.798  1.00  0.00     0.275 C 
BRANCH  13  14
ATOM     14  O   UNL A   1      33.117  30.730  26.466  1.00  0.00    -0.458 OA
BRANCH  14  15
ATOM     15  C   UNL A   1      33.572  31.725  27.262  1.00  0.00     0.338 C 
ATOM     16  O   UNL A   1      33.015  32.771  27.541  1.00  0.00    -0.246 OA
BRANCH  15  17
ATOM     17  C   UNL A   1      34.826  31.293  27.897  1.00  0.00     0.060 A 
ATOM     18  C   UNL A   1      34.904  29.977  28.358  1.00  0.00     0.016 A 
ATOM     19  C   UNL A   1      35.887  32.179  28.086  1.00  0.00     0.016 A 
ATOM     20  C   UNL A   1      36.044  29.536  29.019  1.00  0.00     0.010 A 
ATOM     21  C   UNL A   1      37.034  31.735  28.749  1.00  0.00     0.010 A 
ATOM     22  C   UNL A   1      37.114  30.415  29.226  1.00  0.00    -0.014 A 
BRANCH  22  23
ATOM     23  C   UNL A   1      38.296  29.951  29.984  1.00  0.00     0.031 A 
ATOM     24  C   UNL A   1      38.522  30.442  31.382  1.00  0.00     0.074 A 
ATOM     25  C   UNL A   1      39.137  29.064  29.426  1.00  0.00     0.049 A 
ATOM     26  N   UNL A   1      39.521  30.204  32.193  1.00  0.00    -0.248 NA
ATOM     27  C   UNL A   1      37.483  31.317  31.948  1.00  0.00     0.031 C 
ATOM     28  C   UNL A   1      38.987  28.483  28.091  1.00  0.00     0.029 A 
ATOM     29  N   UNL A   1      40.288  28.497  29.911  1.00  0.00    -0.354 N 
ATOM     30  C   UNL A   1      39.239  30.904  33.356  1.00  0.00     0.074 A 
ATOM     31  C   UNL A   1      37.983  31.593  33.143  1.00  0.00     0.031 C 
ATOM     32  C   UNL A   1      40.009  27.643  27.863  1.00  0.00     0.029 A 
ATOM     33  C   UNL A   1      40.904  27.658  29.016  1.00  0.00     0.049 A 
ATOM     34  H   UNL A   1      40.637  28.673  30.814  1.00  0.00     0.167 HD
ATOM     35  C   UNL A   1      39.964  30.963  34.498  1.00  0.00     0.037 A 
ATOM     36  C   UNL A   1      42.074  26.999  29.111  1.00  0.00     0.037 A 
ATOM     37  C   UNL A   1      41.209  30.270  34.704  1.00  0.00     0.049 A 
ATOM     38  C   UNL A   1      42.887  27.129  30.371  1.00  0.00     0.074 A 
ATOM     39  C   UNL A   1      42.024  30.269  35.823  1.00  0.00     0.029 A 
ATOM     40  N   UNL A   1      41.820  29.452  33.764  1.00  0.00    -0.354 N 
ATOM     41  N   UNL A   1      42.619  27.803  31.462  1.00  0.00    -0.248 NA
ATOM     42  C   UNL A   1      44.167  26.409  30.408  1.00  0.00     0.031 C 
ATOM     43  C   UNL A   1      43.144  29.478  35.548  1.00  0.00     0.029 A 
ATOM     44  C   UNL A   1      43.008  28.953  34.273  1.00  0.00     0.049 A 
ATOM     45  H   UNL A   1      41.461  29.256  32.869  1.00  0.00     0.167 HD
ATOM     46  C   UNL A   1      43.685  27.576  32.322  1.00  0.00     0.074 A 
ATOM     47  C   UNL A   1      44.595  26.685  31.632  1.00  0.00     0.031 C 
ATOM     48  C   UNL A   1      43.897  28.066  33.569  1.00  0.00     0.037 A 
BRANCH  35  49
ATOM     49  C   UNL A   1      39.440  31.824  35.608  1.00  0.00     0.064 A 
ATOM     50  C   UNL A   1      38.529  31.331  36.553  1.00  0.00     0.173 A 
ATOM     51  C   UNL A   1      39.885  33.146  35.750  1.00  0.00     0.173 A 
ATOM     52  F   UNL A   1      38.061  30.078  36.450  1.00  0.00    -0.203 F 
ATOM     53  C   UNL A   1      38.071  32.136  37.592  1.00  0.00     0.198 A 
ATOM     54  C   UNL A   1      39.443  33.941  36.803  1.00  0.00     0.198 A 
ATOM     55  F   UNL A   1      40.758  33.664  34.872  1.00  0.00    -0.203 F 
ATOM     56  F   UNL A   1      37.174  31.657  38.465  1.00  0.00    -0.200 F 
ATOM     57  C   UNL A   1      38.533  33.438  37.720  1.00  0.00     0.200 A 
ATOM     58  F   UNL A   1      39.897  35.197  36.930  1.00  0.00    -0.200 F 
ATOM     59  F   UNL A   1      38.097  34.209  38.726  1.00  0.00    -0.200 F 
ENDBRANCH  35  49
BRANCH  36  60
ATOM     60  C   UNL A   1      42.560  26.179  27.972  1.00  0.00     0.064 A 
ATOM     61  C   UNL A   1      43.402  26.726  26.995  1.00  0.00     0.173 A 
ATOM     62  C   UNL A   1      42.177  24.837  27.829  1.00  0.00     0.173 A 
ATOM     63  F   UNL A   1      43.773  28.011  27.075  1.00  0.00    -0.203 F 
ATOM     64  C   UNL A   1      43.827  25.967  25.907  1.00  0.00     0.198 A 
ATOM     65  C   UNL A   1      42.624  24.071  26.756  1.00  0.00     0.198 A 
ATOM     66  F   UNL A   1      41.369  24.268  28.736  1.00  0.00    -0.203 F 
ATOM     67  F   UNL A   1      44.592  26.527  24.960  1.00  0.00    -0.200 F 
ATOM     68  C   UNL A   1      43.443  24.639  25.790  1.00  0.00     0.200 A 
ATOM     69  F   UNL A   1      42.258  22.786  26.652  1.00  0.00    -0.200 F 
ATOM     70  F   UNL A   1      43.851  23.911  24.743  1.00  0.00    -0.200 F 
ENDBRANCH  36  60
BRANCH  48  71
ATOM     71  C   UNL A   1      45.148  27.627  34.268  1.00  0.00     0.064 A 
ATOM     72  C   UNL A   1      46.339  28.360  34.166  1.00  0.00     0.173 A 
ATOM     73  C   UNL A   1      45.148  26.474  35.068  1.00  0.00     0.173 A 
ATOM     74  F   UNL A   1      46.392  29.459  33.399  1.00  0.00    -0.203 F 
ATOM     75  C   UNL A   1      47.494  27.939  34.819  1.00  0.00     0.198 A 
ATOM     76  C   UNL A   1      46.298  26.071  35.740  1.00  0.00     0.198 A 
ATOM     77  F   UNL A   1      44.031  25.743  35.201  1.00  0.00    -0.203 F 
ATOM     78  F   UNL A   1      48.634  28.628  34.670  1.00  0.00    -0.200 F 
ATOM     79  C   UNL A   1      47.471  26.799  35.609  1.00  0.00     0.200 A 
ATOM     80  F   UNL A   1      46.272  24.976  36.512  1.00  0.00    -0.200 F 
ATOM     81  F   UNL A   1      48.584  26.397  36.239  1.00  0.00    -0.200 F 
ENDBRANCH  48  71
ENDBRANCH  22  23
ENDBRANCH  15  17
ENDBRANCH  14  15
ENDBRANCH  13  14
ENDBRANCH   1  13
TORSDOF 13
ENDMDL
