MODEL 1
REMARK VINA RESULT:     -12.1      0.000      0.000
REMARK SMILES O=C(OCCOC(=O)c1c(F)cccc1NC(=O)C1CCCCC1)c1ccc(-c2c3nc(c(-c4c(F)c(F)c(F)c(F)c4F)c4ccc([nH]4)c(-c4c(F)c(F)c(F)c(F)c4F)c4nc(c(-c5c(F)c(F)c(F)c(F)c5F)c5ccc2[nH]5)C=C4)C=C3)cc1
REMARK SMILES IDX 4 1 3 2 2 3 1 4 25 5 26 6 87 7 27 8 86 9 28 10 29 11 30 12
REMARK SMILES IDX 80 13 31 14 85 15 79 16 81 17 32 18 84 19 78 20 77 21 33 23
REMARK SMILES IDX 65 24 45 25 64 26 46 27 49 28 63 29 82 30 47 31 48 32 62 34
REMARK SMILES IDX 83 35 50 36 34 37 35 38 43 39 36 40 37 41 41 42 44 43 38 44
REMARK SMILES IDX 39 45 42 46 40 47 66 48 67 49 75 50 68 51 69 52 73 53 76 54
REMARK SMILES IDX 70 55 71 56 74 57 72 58 51 59 52 60 60 61 53 62 54 63 58 64
REMARK SMILES IDX 61 65 55 66 56 67 59 68 57 69 5 70 6 71 7 72 8 73 9 74 10 75
REMARK SMILES IDX 15 76 11 77 12 78 14 79 13 80 16 81 17 82 18 84 19 85 20 86
REMARK SMILES IDX 24 87 21 88 23 89 22 90
REMARK H PARENT 81 22 49 33 16 83
REMARK Flexibility Score: inf
ROOT
ATOM      1  C   UNL A   1      31.771  31.783  27.013  1.00  0.00     0.275 C 
ENDROOT
BRANCH   1   2
ATOM      2  O   UNL A   1      32.536  33.001  26.994  1.00  0.00    -0.458 OA
BRANCH   2   3
ATOM      3  C   UNL A   1      33.231  33.635  27.963  1.00  0.00     0.338 C 
ATOM      4  O   UNL A   1      32.831  34.731  28.350  1.00  0.00    -0.246 OA
BRANCH   3   5
ATOM      5  C   UNL A   1      34.524  33.144  28.538  1.00  0.00     0.060 A 
ATOM      6  C   UNL A   1      35.802  33.506  28.115  1.00  0.00     0.016 A 
ATOM      7  C   UNL A   1      34.426  32.207  29.586  1.00  0.00     0.016 A 
ATOM      8  C   UNL A   1      36.940  33.010  28.754  1.00  0.00     0.010 A 
ATOM      9  C   UNL A   1      35.561  31.727  30.247  1.00  0.00     0.010 A 
ATOM     10  C   UNL A   1      36.833  32.129  29.832  1.00  0.00    -0.014 A 
BRANCH  10  11
ATOM     11  C   UNL A   1      38.068  31.568  30.426  1.00  0.00     0.031 A 
ATOM     12  C   UNL A   1      38.464  31.990  31.808  1.00  0.00     0.074 A 
ATOM     13  C   UNL A   1      38.760  30.609  29.779  1.00  0.00     0.049 A 
ATOM     14  N   UNL A   1      39.409  31.510  32.572  1.00  0.00    -0.248 NA
ATOM     15  C   UNL A   1      37.671  33.063  32.431  1.00  0.00     0.031 C 
ATOM     16  C   UNL A   1      38.409  30.067  28.470  1.00  0.00     0.029 A 
ATOM     17  N   UNL A   1      39.884  29.905  30.131  1.00  0.00    -0.354 N 
ATOM     18  C   UNL A   1      39.284  32.178  33.780  1.00  0.00     0.074 A 
ATOM     19  C   UNL A   1      38.234  33.159  33.626  1.00  0.00     0.031 C 
ATOM     20  C   UNL A   1      39.312  29.143  28.108  1.00  0.00     0.029 A 
ATOM     21  C   UNL A   1      40.294  29.005  29.176  1.00  0.00     0.049 A 
ATOM     22  H   UNL A   1      40.353  30.033  30.989  1.00  0.00     0.167 HD
ATOM     23  C   UNL A   1      39.952  31.952  34.933  1.00  0.00     0.037 A 
ATOM     24  C   UNL A   1      41.331  28.145  29.174  1.00  0.00     0.037 A 
ATOM     25  C   UNL A   1      41.003  30.985  35.073  1.00  0.00     0.049 A 
ATOM     26  C   UNL A   1      42.152  28.019  30.428  1.00  0.00     0.074 A 
ATOM     27  C   UNL A   1      41.761  30.693  36.192  1.00  0.00     0.029 A 
ATOM     28  N   UNL A   1      41.451  30.156  34.055  1.00  0.00    -0.354 N 
ATOM     29  N   UNL A   1      41.992  28.625  31.579  1.00  0.00    -0.248 NA
ATOM     30  C   UNL A   1      43.270  27.066  30.400  1.00  0.00     0.031 C 
ATOM     31  C   UNL A   1      42.700  29.720  35.838  1.00  0.00     0.029 A 
ATOM     32  C   UNL A   1      42.496  29.372  34.511  1.00  0.00     0.049 A 
ATOM     33  H   UNL A   1      41.079  30.129  33.143  1.00  0.00     0.167 HD
ATOM     34  C   UNL A   1      42.958  28.100  32.424  1.00  0.00     0.074 A 
ATOM     35  C   UNL A   1      43.696  27.119  31.655  1.00  0.00     0.031 C 
ATOM     36  C   UNL A   1      43.209  28.398  33.723  1.00  0.00     0.037 A 
BRANCH  23  37
ATOM     37  C   UNL A   1      39.549  32.757  36.129  1.00  0.00     0.064 A 
ATOM     38  C   UNL A   1      40.174  33.978  36.415  1.00  0.00     0.173 A 
ATOM     39  C   UNL A   1      38.560  32.298  37.013  1.00  0.00     0.173 A 
ATOM     40  F   UNL A   1      41.119  34.461  35.596  1.00  0.00    -0.203 F 
ATOM     41  C   UNL A   1      39.832  34.706  37.552  1.00  0.00     0.198 A 
ATOM     42  C   UNL A   1      38.205  33.039  38.136  1.00  0.00     0.198 A 
ATOM     43  F   UNL A   1      37.917  31.145  36.768  1.00  0.00    -0.203 F 
ATOM     44  F   UNL A   1      40.455  35.862  37.816  1.00  0.00    -0.200 F 
ATOM     45  C   UNL A   1      38.846  34.237  38.409  1.00  0.00     0.200 A 
ATOM     46  F   UNL A   1      37.236  32.598  38.950  1.00  0.00    -0.200 F 
ATOM     47  F   UNL A   1      38.512  34.946  39.496  1.00  0.00    -0.200 F 
ENDBRANCH  23  37
BRANCH  24  48
ATOM     48  C   UNL A   1      41.620  27.314  27.973  1.00  0.00     0.064 A 
ATOM     49  C   UNL A   1      42.486  27.772  26.968  1.00  0.00     0.173 A 
ATOM     50  C   UNL A   1      41.056  26.041  27.811  1.00  0.00     0.173 A 
ATOM     51  F   UNL A   1      43.047  28.987  27.067  1.00  0.00    -0.203 F 
ATOM     52  C   UNL A   1      42.778  26.989  25.852  1.00  0.00     0.198 A 
ATOM     53  C   UNL A   1      41.366  25.249  26.706  1.00  0.00     0.198 A 
ATOM     54  F   UNL A   1      40.232  25.551  28.747  1.00  0.00    -0.203 F 
ATOM     55  F   UNL A   1      43.596  27.459  24.901  1.00  0.00    -0.200 F 
ATOM     56  C   UNL A   1      42.224  25.724  25.726  1.00  0.00     0.200 A 
ATOM     57  F   UNL A   1      40.846  24.018  26.600  1.00  0.00    -0.200 F 
ATOM     58  F   UNL A   1      42.522  24.962  24.664  1.00  0.00    -0.200 F 
ENDBRANCH  24  48
BRANCH  36  59
ATOM     59  C   UNL A   1      44.315  27.648  34.398  1.00  0.00     0.064 A 
ATOM     60  C   UNL A   1      44.055  26.439  35.060  1.00  0.00     0.173 A 
ATOM     61  C   UNL A   1      45.618  28.165  34.454  1.00  0.00     0.173 A 
ATOM     62  F   UNL A   1      42.822  25.909  35.041  1.00  0.00    -0.203 F 
ATOM     63  C   UNL A   1      45.055  25.782  35.768  1.00  0.00     0.198 A 
ATOM     64  C   UNL A   1      46.624  27.487  35.137  1.00  0.00     0.198 A 
ATOM     65  F   UNL A   1      45.917  29.310  33.824  1.00  0.00    -0.203 F 
ATOM     66  F   UNL A   1      44.775  24.648  36.424  1.00  0.00    -0.200 F 
ATOM     67  C   UNL A   1      46.340  26.304  35.802  1.00  0.00     0.200 A 
ATOM     68  F   UNL A   1      47.871  27.979  35.147  1.00  0.00    -0.200 F 
ATOM     69  F   UNL A   1      47.306  25.664  36.475  1.00  0.00    -0.200 F 
ENDBRANCH  36  59
ENDBRANCH  10  11
ENDBRANCH   3   5
ENDBRANCH   2   3
ENDBRANCH   1   2
BRANCH   1  70
ATOM     70  C   UNL A   1      32.607  30.509  26.903  1.00  0.00     0.275 C 
BRANCH  70  71
ATOM     71  O   UNL A   1      31.830  29.304  26.854  1.00  0.00    -0.458 OA
BRANCH  71  72
ATOM     72  C   UNL A   1      32.417  28.240  26.233  1.00  0.00     0.343 C 
ATOM     73  O   UNL A   1      33.372  27.604  26.616  1.00  0.00    -0.246 OA
BRANCH  72  74
ATOM     74  C   UNL A   1      31.598  27.876  25.063  1.00  0.00     0.119 A 
ATOM     75  C   UNL A   1      31.718  28.665  23.918  1.00  0.00     0.139 A 
ATOM     76  C   UNL A   1      30.705  26.785  25.087  1.00  0.00     0.058 A 
ATOM     77  F   UNL A   1      32.634  29.643  23.846  1.00  0.00    -0.206 F 
ATOM     78  C   UNL A   1      30.888  28.457  22.825  1.00  0.00     0.040 A 
ATOM     79  C   UNL A   1      29.759  26.722  24.064  1.00  0.00     0.027 A 
ATOM     80  C   UNL A   1      29.860  27.530  22.926  1.00  0.00     0.005 A 
BRANCH  76  81
ATOM     81  N   UNL A   1      30.785  25.827  26.123  1.00  0.00    -0.325 N 
ATOM     82  C   UNL A   1      31.399  24.630  26.317  1.00  0.00     0.227 C 
ATOM     83  H   UNL A   1      30.257  26.098  26.909  1.00  0.00     0.169 HD
ATOM     84  O   UNL A   1      31.155  24.084  27.405  1.00  0.00    -0.274 OA
BRANCH  82  85
ATOM     85  C   UNL A   1      32.315  23.868  25.352  1.00  0.00     0.079 C 
ATOM     86  C   UNL A   1      31.457  23.177  24.283  1.00  0.00     0.013 C 
ATOM     87  C   UNL A   1      33.617  24.545  24.896  1.00  0.00     0.013 C 
ATOM     88  C   UNL A   1      32.292  22.508  23.205  1.00  0.00     0.001 C 
ATOM     89  C   UNL A   1      34.200  24.082  23.554  1.00  0.00     0.001 C 
ATOM     90  C   UNL A   1      33.192  23.538  22.550  1.00  0.00     0.000 C 
ENDBRANCH  82  85
ENDBRANCH  76  81
ENDBRANCH  72  74
ENDBRANCH  71  72
ENDBRANCH  70  71
ENDBRANCH   1  70
TORSDOF 13
ENDMDL
MODEL 2
REMARK VINA RESULT:     -12.0      1.603      3.154
REMARK SMILES O=C(OCCOC(=O)c1c(F)cccc1NC(=O)C1CCCCC1)c1ccc(-c2c3nc(c(-c4c(F)c(F)c(F)c(F)c4F)c4ccc([nH]4)c(-c4c(F)c(F)c(F)c(F)c4F)c4nc(c(-c5c(F)c(F)c(F)c(F)c5F)c5ccc2[nH]5)C=C4)C=C3)cc1
REMARK SMILES IDX 4 1 3 2 2 3 1 4 25 5 26 6 87 7 27 8 86 9 28 10 29 11 30 12
REMARK SMILES IDX 80 13 31 14 85 15 79 16 81 17 32 18 84 19 78 20 77 21 33 23
REMARK SMILES IDX 65 24 45 25 64 26 46 27 49 28 63 29 82 30 47 31 48 32 62 34
REMARK SMILES IDX 83 35 50 36 34 37 35 38 43 39 36 40 37 41 41 42 44 43 38 44
REMARK SMILES IDX 39 45 42 46 40 47 66 48 67 49 75 50 68 51 69 52 73 53 76 54
REMARK SMILES IDX 70 55 71 56 74 57 72 58 51 59 52 60 60 61 53 62 54 63 58 64
REMARK SMILES IDX 61 65 55 66 56 67 59 68 57 69 5 70 6 71 7 72 8 73 9 74 10 75
REMARK SMILES IDX 15 76 11 77 12 78 14 79 13 80 16 81 17 82 18 84 19 85 20 86
REMARK SMILES IDX 24 87 21 88 23 89 22 90
REMARK H PARENT 81 22 49 33 16 83
REMARK Flexibility Score: inf
ROOT
ATOM      1  C   UNL A   1      31.683  30.334  26.659  1.00  0.00     0.275 C 
ENDROOT
BRANCH   1   2
ATOM      2  O   UNL A   1      32.937  31.026  26.522  1.00  0.00    -0.458 OA
BRANCH   2   3
ATOM      3  C   UNL A   1      33.666  31.739  27.408  1.00  0.00     0.338 C 
ATOM      4  O   UNL A   1      33.348  32.906  27.624  1.00  0.00    -0.246 OA
BRANCH   3   5
ATOM      5  C   UNL A   1      34.908  31.239  28.080  1.00  0.00     0.060 A 
ATOM      6  C   UNL A   1      35.098  29.967  28.616  1.00  0.00     0.016 A 
ATOM      7  C   UNL A   1      35.967  32.161  28.200  1.00  0.00     0.016 A 
ATOM      8  C   UNL A   1      36.318  29.601  29.188  1.00  0.00     0.010 A 
ATOM      9  C   UNL A   1      37.200  31.793  28.748  1.00  0.00     0.010 A 
ATOM     10  C   UNL A   1      37.384  30.502  29.248  1.00  0.00    -0.014 A 
BRANCH  10  11
ATOM     11  C   UNL A   1      38.631  30.094  29.935  1.00  0.00     0.031 A 
ATOM     12  C   UNL A   1      38.917  30.638  31.301  1.00  0.00     0.074 A 
ATOM     13  C   UNL A   1      39.437  29.163  29.387  1.00  0.00     0.049 A 
ATOM     14  N   UNL A   1      39.861  30.296  32.138  1.00  0.00    -0.248 NA
ATOM     15  C   UNL A   1      38.002  31.672  31.813  1.00  0.00     0.031 C 
ATOM     16  C   UNL A   1      39.202  28.509  28.104  1.00  0.00     0.029 A 
ATOM     17  N   UNL A   1      40.599  28.588  29.837  1.00  0.00    -0.354 N 
ATOM     18  C   UNL A   1      39.615  31.026  33.291  1.00  0.00     0.074 A 
ATOM     19  C   UNL A   1      38.493  31.895  33.023  1.00  0.00     0.031 C 
ATOM     20  C   UNL A   1      40.200  27.649  27.847  1.00  0.00     0.029 A 
ATOM     21  C   UNL A   1      41.135  27.670  28.964  1.00  0.00     0.049 A 
ATOM     22  H   UNL A   1      41.010  28.812  30.703  1.00  0.00     0.167 HD
ATOM     23  C   UNL A   1      40.241  30.935  34.485  1.00  0.00     0.037 A 
ATOM     24  C   UNL A   1      42.242  26.909  29.068  1.00  0.00     0.037 A 
ATOM     25  C   UNL A   1      41.365  30.079  34.739  1.00  0.00     0.049 A 
ATOM     26  C   UNL A   1      43.006  26.939  30.363  1.00  0.00     0.074 A 
ATOM     27  C   UNL A   1      42.087  29.929  35.908  1.00  0.00     0.029 A 
ATOM     28  N   UNL A   1      41.935  29.231  33.801  1.00  0.00    -0.354 N 
ATOM     29  N   UNL A   1      42.734  27.600  31.462  1.00  0.00    -0.248 NA
ATOM     30  C   UNL A   1      44.202  26.092  30.451  1.00  0.00     0.031 C 
ATOM     31  C   UNL A   1      43.124  29.025  35.664  1.00  0.00     0.029 A 
ATOM     32  C   UNL A   1      43.020  28.576  34.356  1.00  0.00     0.049 A 
ATOM     33  H   UNL A   1      41.614  29.112  32.877  1.00  0.00     0.167 HD
ATOM     34  C   UNL A   1      43.698  27.220  32.384  1.00  0.00     0.074 A 
ATOM     35  C   UNL A   1      44.557  26.263  31.717  1.00  0.00     0.031 C 
ATOM     36  C   UNL A   1      43.855  27.623  33.669  1.00  0.00     0.037 A 
BRANCH  23  37
ATOM     37  C   UNL A   1      39.708  31.775  35.605  1.00  0.00     0.064 A 
ATOM     38  C   UNL A   1      38.666  31.308  36.417  1.00  0.00     0.173 A 
ATOM     39  C   UNL A   1      40.212  33.061  35.851  1.00  0.00     0.173 A 
ATOM     40  F   UNL A   1      38.156  30.083  36.225  1.00  0.00    -0.203 F 
ATOM     41  C   UNL A   1      38.139  32.106  37.430  1.00  0.00     0.198 A 
ATOM     42  C   UNL A   1      39.699  33.846  36.878  1.00  0.00     0.198 A 
ATOM     43  F   UNL A   1      41.226  33.541  35.114  1.00  0.00    -0.203 F 
ATOM     44  F   UNL A   1      37.130  31.648  38.183  1.00  0.00    -0.200 F 
ATOM     45  C   UNL A   1      38.657  33.372  37.661  1.00  0.00     0.200 A 
ATOM     46  F   UNL A   1      40.217  35.060  37.117  1.00  0.00    -0.200 F 
ATOM     47  F   UNL A   1      38.155  34.132  38.644  1.00  0.00    -0.200 F 
ENDBRANCH  23  37
BRANCH  24  48
ATOM     48  C   UNL A   1      42.664  26.033  27.941  1.00  0.00     0.064 A 
ATOM     49  C   UNL A   1      42.179  24.721  27.824  1.00  0.00     0.173 A 
ATOM     50  C   UNL A   1      43.542  26.489  26.948  1.00  0.00     0.173 A 
ATOM     51  F   UNL A   1      41.343  24.229  28.751  1.00  0.00    -0.203 F 
ATOM     52  C   UNL A   1      42.554  23.904  26.759  1.00  0.00     0.198 A 
ATOM     53  C   UNL A   1      43.898  25.679  25.870  1.00  0.00     0.198 A 
ATOM     54  F   UNL A   1      44.024  27.739  27.006  1.00  0.00    -0.203 F 
ATOM     55  F   UNL A   1      42.086  22.650  26.682  1.00  0.00    -0.200 F 
ATOM     56  C   UNL A   1      43.406  24.386  25.778  1.00  0.00     0.200 A 
ATOM     57  F   UNL A   1      44.705  26.158  24.913  1.00  0.00    -0.200 F 
ATOM     58  F   UNL A   1      43.748  23.608  24.742  1.00  0.00    -0.200 F 
ENDBRANCH  24  48
BRANCH  36  59
ATOM     59  C   UNL A   1      44.987  27.021  34.444  1.00  0.00     0.064 A 
ATOM     60  C   UNL A   1      44.797  25.843  35.182  1.00  0.00     0.173 A 
ATOM     61  C   UNL A   1      46.237  27.652  34.515  1.00  0.00     0.173 A 
ATOM     62  F   UNL A   1      43.616  25.208  35.150  1.00  0.00    -0.203 F 
ATOM     63  C   UNL A   1      45.815  25.327  35.978  1.00  0.00     0.198 A 
ATOM     64  C   UNL A   1      47.263  27.114  35.288  1.00  0.00     0.198 A 
ATOM     65  F   UNL A   1      46.469  28.771  33.815  1.00  0.00    -0.203 F 
ATOM     66  F   UNL A   1      45.600  24.222  36.703  1.00  0.00    -0.200 F 
ATOM     67  C   UNL A   1      47.048  25.960  36.026  1.00  0.00     0.200 A 
ATOM     68  F   UNL A   1      48.462  27.712  35.313  1.00  0.00    -0.200 F 
ATOM     69  F   UNL A   1      48.031  25.455  36.784  1.00  0.00    -0.200 F 
ENDBRANCH  36  59
ENDBRANCH  10  11
ENDBRANCH   3   5
ENDBRANCH   2   3
ENDBRANCH   1   2
BRANCH   1  70
ATOM     70  C   UNL A   1      31.810  28.879  27.109  1.00  0.00     0.275 C 
BRANCH  70  71
ATOM     71  O   UNL A   1      32.269  27.989  26.081  1.00  0.00    -0.458 OA
BRANCH  71  72
ATOM     72  C   UNL A   1      31.723  26.739  26.085  1.00  0.00     0.343 C 
ATOM     73  O   UNL A   1      30.924  26.292  26.875  1.00  0.00    -0.246 OA
BRANCH  72  74
ATOM     74  C   UNL A   1      32.149  26.041  24.859  1.00  0.00     0.119 A 
ATOM     75  C   UNL A   1      33.502  25.721  24.733  1.00  0.00     0.139 A 
ATOM     76  C   UNL A   1      31.242  25.718  23.829  1.00  0.00     0.058 A 
ATOM     77  F   UNL A   1      34.359  25.932  25.745  1.00  0.00    -0.206 F 
ATOM     78  C   UNL A   1      33.995  25.178  23.555  1.00  0.00     0.040 A 
ATOM     79  C   UNL A   1      31.789  25.358  22.597  1.00  0.00     0.027 A 
ATOM     80  C   UNL A   1      33.149  25.063  22.461  1.00  0.00     0.005 A 
BRANCH  76  81
ATOM     81  N   UNL A   1      29.850  25.781  24.066  1.00  0.00    -0.325 N 
ATOM     82  C   UNL A   1      28.849  26.676  23.847  1.00  0.00     0.227 C 
ATOM     83  H   UNL A   1      29.520  24.965  24.505  1.00  0.00     0.169 HD
ATOM     84  O   UNL A   1      27.735  26.330  24.270  1.00  0.00    -0.274 OA
BRANCH  82  85
ATOM     85  C   UNL A   1      28.940  28.055  23.183  1.00  0.00     0.079 C 
ATOM     86  C   UNL A   1      27.540  28.680  23.126  1.00  0.00     0.013 C 
ATOM     87  C   UNL A   1      30.117  28.967  23.560  1.00  0.00     0.013 C 
ATOM     88  C   UNL A   1      27.557  30.107  22.603  1.00  0.00     0.001 C 
ATOM     89  C   UNL A   1      29.903  30.476  23.376  1.00  0.00     0.001 C 
ATOM     90  C   UNL A   1      28.461  30.955  23.477  1.00  0.00     0.000 C 
ENDBRANCH  82  85
ENDBRANCH  76  81
ENDBRANCH  72  74
ENDBRANCH  71  72
ENDBRANCH  70  71
ENDBRANCH   1  70
TORSDOF 13
ENDMDL
MODEL 3
REMARK VINA RESULT:     -12.0      3.709      6.440
REMARK SMILES O=C(OCCOC(=O)c1c(F)cccc1NC(=O)C1CCCCC1)c1ccc(-c2c3nc(c(-c4c(F)c(F)c(F)c(F)c4F)c4ccc([nH]4)c(-c4c(F)c(F)c(F)c(F)c4F)c4nc(c(-c5c(F)c(F)c(F)c(F)c5F)c5ccc2[nH]5)C=C4)C=C3)cc1
REMARK SMILES IDX 4 1 3 2 2 3 1 4 25 5 26 6 87 7 27 8 86 9 28 10 29 11 30 12
REMARK SMILES IDX 80 13 31 14 85 15 79 16 81 17 32 18 84 19 78 20 77 21 33 23
REMARK SMILES IDX 65 24 45 25 64 26 46 27 49 28 63 29 82 30 47 31 48 32 62 34
REMARK SMILES IDX 83 35 50 36 34 37 35 38 43 39 36 40 37 41 41 42 44 43 38 44
REMARK SMILES IDX 39 45 42 46 40 47 66 48 67 49 75 50 68 51 69 52 73 53 76 54
REMARK SMILES IDX 70 55 71 56 74 57 72 58 51 59 52 60 60 61 53 62 54 63 58 64
REMARK SMILES IDX 61 65 55 66 56 67 59 68 57 69 5 70 6 71 7 72 8 73 9 74 10 75
REMARK SMILES IDX 15 76 11 77 12 78 14 79 13 80 16 81 17 82 18 84 19 85 20 86
REMARK SMILES IDX 24 87 21 88 23 89 22 90
REMARK H PARENT 81 22 49 33 16 83
REMARK Flexibility Score: inf
ROOT
ATOM      1  C   UNL A   1      34.028  32.735  27.950  1.00  0.00     0.275 C 
ENDROOT
BRANCH   1   2
ATOM      2  O   UNL A   1      33.659  31.345  27.975  1.00  0.00    -0.458 OA
BRANCH   2   3
ATOM      3  C   UNL A   1      34.326  30.236  27.588  1.00  0.00     0.338 C 
ATOM      4  O   UNL A   1      33.729  29.396  26.918  1.00  0.00    -0.246 OA
BRANCH   3   5
ATOM      5  C   UNL A   1      35.725  29.901  28.004  1.00  0.00     0.060 A 
ATOM      6  C   UNL A   1      36.875  30.077  27.236  1.00  0.00     0.016 A 
ATOM      7  C   UNL A   1      35.877  29.328  29.282  1.00  0.00     0.016 A 
ATOM      8  C   UNL A   1      38.137  29.761  27.745  1.00  0.00     0.010 A 
ATOM      9  C   UNL A   1      37.140  29.033  29.807  1.00  0.00     0.010 A 
ATOM     10  C   UNL A   1      38.284  29.251  29.037  1.00  0.00    -0.014 A 
BRANCH  10  11
ATOM     11  C   UNL A   1      39.633  28.857  29.504  1.00  0.00     0.031 A 
ATOM     12  C   UNL A   1      40.276  29.639  30.607  1.00  0.00     0.074 A 
ATOM     13  C   UNL A   1      40.223  27.745  29.021  1.00  0.00     0.049 A 
ATOM     14  N   UNL A   1      41.371  29.375  31.269  1.00  0.00    -0.248 NA
ATOM     15  C   UNL A   1      39.579  30.857  31.056  1.00  0.00     0.031 C 
ATOM     16  C   UNL A   1      39.643  26.866  28.010  1.00  0.00     0.029 A 
ATOM     17  N   UNL A   1      41.421  27.147  29.322  1.00  0.00    -0.354 N 
ATOM     18  C   UNL A   1      41.459  30.355  32.246  1.00  0.00     0.074 A 
ATOM     19  C   UNL A   1      40.361  31.271  32.041  1.00  0.00     0.031 C 
ATOM     20  C   UNL A   1      40.493  25.863  27.744  1.00  0.00     0.029 A 
ATOM     21  C   UNL A   1      41.671  26.010  28.589  1.00  0.00     0.049 A 
ATOM     22  H   UNL A   1      42.043  27.500  29.999  1.00  0.00     0.167 HD
ATOM     23  C   UNL A   1      42.348  30.446  33.259  1.00  0.00     0.037 A 
ATOM     24  C   UNL A   1      42.721  25.167  28.617  1.00  0.00     0.037 A 
ATOM     25  C   UNL A   1      43.445  29.539  33.448  1.00  0.00     0.049 A 
ATOM     26  C   UNL A   1      43.776  25.380  29.667  1.00  0.00     0.074 A 
ATOM     27  C   UNL A   1      44.418  29.557  34.429  1.00  0.00     0.029 A 
ATOM     28  N   UNL A   1      43.716  28.452  32.629  1.00  0.00    -0.354 N 
ATOM     29  N   UNL A   1      43.821  26.285  30.615  1.00  0.00    -0.248 NA
ATOM     30  C   UNL A   1      44.904  24.438  29.680  1.00  0.00     0.031 C 
ATOM     31  C   UNL A   1      45.307  28.508  34.176  1.00  0.00     0.029 A 
ATOM     32  C   UNL A   1      44.861  27.808  33.066  1.00  0.00     0.049 A 
ATOM     33  H   UNL A   1      43.174  28.180  31.854  1.00  0.00     0.167 HD
ATOM     34  C   UNL A   1      44.954  26.000  31.361  1.00  0.00     0.074 A 
ATOM     35  C   UNL A   1      45.565  24.831  30.760  1.00  0.00     0.031 C 
ATOM     36  C   UNL A   1      45.443  26.643  32.450  1.00  0.00     0.037 A 
BRANCH  23  37
ATOM     37  C   UNL A   1      42.157  31.558  34.243  1.00  0.00     0.064 A 
ATOM     38  C   UNL A   1      41.294  31.406  35.337  1.00  0.00     0.173 A 
ATOM     39  C   UNL A   1      42.807  32.791  34.081  1.00  0.00     0.173 A 
ATOM     40  F   UNL A   1      40.655  30.244  35.538  1.00  0.00    -0.203 F 
ATOM     41  C   UNL A   1      41.080  32.455  36.228  1.00  0.00     0.198 A 
ATOM     42  C   UNL A   1      42.608  33.829  34.986  1.00  0.00     0.198 A 
ATOM     43  F   UNL A   1      43.661  32.975  33.062  1.00  0.00    -0.203 F 
ATOM     44  F   UNL A   1      40.236  32.295  37.256  1.00  0.00    -0.200 F 
ATOM     45  C   UNL A   1      41.738  33.664  36.053  1.00  0.00     0.200 A 
ATOM     46  F   UNL A   1      43.264  34.988  34.830  1.00  0.00    -0.200 F 
ATOM     47  F   UNL A   1      41.539  34.667  36.918  1.00  0.00    -0.200 F 
ENDBRANCH  23  37
BRANCH  24  48
ATOM     48  C   UNL A   1      42.801  24.030  27.659  1.00  0.00     0.064 A 
ATOM     49  C   UNL A   1      43.315  24.210  26.365  1.00  0.00     0.173 A 
ATOM     50  C   UNL A   1      42.386  22.740  28.017  1.00  0.00     0.173 A 
ATOM     51  F   UNL A   1      43.717  25.425  25.965  1.00  0.00    -0.203 F 
ATOM     52  C   UNL A   1      43.413  23.144  25.472  1.00  0.00     0.198 A 
ATOM     53  C   UNL A   1      42.506  21.670  27.131  1.00  0.00     0.198 A 
ATOM     54  F   UNL A   1      41.900  22.512  29.246  1.00  0.00    -0.203 F 
ATOM     55  F   UNL A   1      43.893  23.349  24.238  1.00  0.00    -0.200 F 
ATOM     56  C   UNL A   1      43.016  21.874  25.858  1.00  0.00     0.200 A 
ATOM     57  F   UNL A   1      42.143  20.439  27.517  1.00  0.00    -0.200 F 
ATOM     58  F   UNL A   1      43.132  20.845  25.007  1.00  0.00    -0.200 F 
ENDBRANCH  24  48
BRANCH  36  59
ATOM     59  C   UNL A   1      46.690  26.091  33.071  1.00  0.00     0.064 A 
ATOM     60  C   UNL A   1      47.952  26.531  32.644  1.00  0.00     0.173 A 
ATOM     61  C   UNL A   1      46.635  25.074  34.035  1.00  0.00     0.173 A 
ATOM     62  F   UNL A   1      48.055  27.497  31.718  1.00  0.00    -0.203 F 
ATOM     63  C   UNL A   1      49.116  25.959  33.148  1.00  0.00     0.198 A 
ATOM     64  C   UNL A   1      47.802  24.528  34.560  1.00  0.00     0.198 A 
ATOM     65  F   UNL A   1      45.451  24.633  34.484  1.00  0.00    -0.203 F 
ATOM     66  F   UNL A   1      50.310  26.368  32.699  1.00  0.00    -0.200 F 
ATOM     67  C   UNL A   1      49.040  24.962  34.109  1.00  0.00     0.200 A 
ATOM     68  F   UNL A   1      47.728  23.583  35.508  1.00  0.00    -0.200 F 
ATOM     69  F   UNL A   1      50.162  24.420  34.604  1.00  0.00    -0.200 F 
ENDBRANCH  36  59
ENDBRANCH  10  11
ENDBRANCH   3   5
ENDBRANCH   2   3
ENDBRANCH   1   2
BRANCH   1  70
ATOM     70  C   UNL A   1      32.847  33.704  28.001  1.00  0.00     0.275 C 
BRANCH  70  71
ATOM     71  O   UNL A   1      32.778  34.476  29.209  1.00  0.00    -0.458 OA
BRANCH  71  72
ATOM     72  C   UNL A   1      33.738  35.433  29.361  1.00  0.00     0.343 C 
ATOM     73  O   UNL A   1      34.412  35.940  28.493  1.00  0.00    -0.246 OA
BRANCH  72  74
ATOM     74  C   UNL A   1      33.732  35.879  30.765  1.00  0.00     0.119 A 
ATOM     75  C   UNL A   1      33.368  37.202  31.023  1.00  0.00     0.139 A 
ATOM     76  C   UNL A   1      34.097  35.022  31.823  1.00  0.00     0.058 A 
ATOM     77  F   UNL A   1      32.923  38.000  30.040  1.00  0.00    -0.206 F 
ATOM     78  C   UNL A   1      33.461  37.725  32.304  1.00  0.00     0.040 A 
ATOM     79  C   UNL A   1      34.366  35.619  33.055  1.00  0.00     0.027 A 
ATOM     80  C   UNL A   1      34.028  36.952  33.308  1.00  0.00     0.005 A 
BRANCH  76  81
ATOM     81  N   UNL A   1      34.189  33.629  31.606  1.00  0.00    -0.325 N 
ATOM     82  C   UNL A   1      35.173  32.736  31.312  1.00  0.00     0.227 C 
ATOM     83  H   UNL A   1      33.312  33.190  31.688  1.00  0.00     0.169 HD
ATOM     84  O   UNL A   1      34.791  31.565  31.159  1.00  0.00    -0.274 OA
BRANCH  82  85
ATOM     85  C   UNL A   1      36.669  33.008  31.113  1.00  0.00     0.079 C 
ATOM     86  C   UNL A   1      36.930  33.339  29.637  1.00  0.00     0.013 C 
ATOM     87  C   UNL A   1      37.404  33.842  32.174  1.00  0.00     0.013 C 
ATOM     88  C   UNL A   1      38.368  33.754  29.376  1.00  0.00     0.001 C 
ATOM     89  C   UNL A   1      38.668  34.582  31.714  1.00  0.00     0.001 C 
ATOM     90  C   UNL A   1      38.713  34.954  30.238  1.00  0.00     0.000 C 
ENDBRANCH  82  85
ENDBRANCH  76  81
ENDBRANCH  72  74
ENDBRANCH  71  72
ENDBRANCH  70  71
ENDBRANCH   1  70
TORSDOF 13
ENDMDL
