MODEL 1
REMARK VINA RESULT:     -13.3      0.000      0.000
REMARK SMILES Cc1[nH]c2ccccc2c1/N=N\c1ccccc1C(=O)OCCOC(=O)c1ccc(-c2c3nc(c(-c4c(F)c(F)c(F)c(F)c4F)c4ccc([nH]4)c(-c4c(F)c(F)c(F)c(F)c4F)c4nc(c(-c5c(F)c(F)c(F)c(F)c5F)c5ccc2[nH]5)C=C4)C=C3)cc1
REMARK SMILES IDX 22 1 21 2 19 3 20 4 18 5 13 6 14 7 15 8 17 9 16 10 12 11
REMARK SMILES IDX 11 12 10 13 1 14 2 15 3 16 4 17 9 19 5 20 8 21 6 22 7 23
REMARK SMILES IDX 23 24 24 25 25 26 26 27 27 28 28 29 89 30 29 31 88 32 30 33
REMARK SMILES IDX 31 34 32 35 82 36 33 37 87 38 81 39 83 40 34 41 86 42 80 43
REMARK SMILES IDX 79 44 35 46 67 47 47 48 66 49 48 50 51 51 65 52 84 53 49 54
REMARK SMILES IDX 50 55 64 57 85 58 52 59 36 60 37 61 45 62 38 63 39 64 43 65
REMARK SMILES IDX 46 66 40 67 41 68 44 69 42 70 68 71 69 72 77 73 70 74 71 75
REMARK SMILES IDX 75 76 78 77 72 78 73 79 76 80 74 81 53 82 54 83 62 84 55 85
REMARK SMILES IDX 56 86 60 87 63 88 57 89 58 90 61 91 59 92
REMARK H PARENT 3 18 83 45 51 56
REMARK Flexibility Score: inf
ROOT
ATOM      1  C   UNL A   1      31.679  28.268  27.212  1.00  0.00     0.275 C 
ENDROOT
BRANCH   1   2
ATOM      2  O   UNL A   1      31.135  27.717  25.997  1.00  0.00    -0.458 OA
BRANCH   2   3
ATOM      3  C   UNL A   1      30.965  26.377  26.037  1.00  0.00     0.340 C 
ATOM      4  O   UNL A   1      30.020  25.782  26.525  1.00  0.00    -0.246 OA
BRANCH   3   5
ATOM      5  C   UNL A   1      32.081  25.655  25.408  1.00  0.00     0.087 A 
ATOM      6  C   UNL A   1      31.973  25.282  24.064  1.00  0.00     0.100 A 
ATOM      7  C   UNL A   1      33.125  24.797  23.420  1.00  0.00     0.031 A 
ATOM      8  C   UNL A   1      34.363  24.768  24.077  1.00  0.00     0.002 A 
ATOM      9  C   UNL A   1      33.314  25.592  26.077  1.00  0.00     0.018 A 
ATOM     10  C   UNL A   1      34.460  25.171  25.405  1.00  0.00     0.001 A 
BRANCH   6  11
ATOM     11  N   UNL A   1      30.753  25.446  23.362  1.00  0.00    -0.150 NA
ATOM     12  N   UNL A   1      30.855  26.232  22.386  1.00  0.00    -0.148 NA
BRANCH  12  13
ATOM     13  C   UNL A   1      30.777  27.600  22.719  1.00  0.00     0.114 A 
ATOM     14  C   UNL A   1      33.330  28.174  22.820  1.00  0.00     0.067 C 
ATOM     15  C   UNL A   1      31.872  28.425  22.880  1.00  0.00     0.041 A 
ATOM     16  N   UNL A   1      31.385  29.658  23.232  1.00  0.00    -0.357 N 
ATOM     17  C   UNL A   1      30.009  29.660  23.233  1.00  0.00     0.048 A 
ATOM     18  H   UNL A   1      31.945  30.437  23.457  1.00  0.00     0.166 HD
ATOM     19  C   UNL A   1      29.590  28.362  22.930  1.00  0.00     0.027 A 
ATOM     20  C   UNL A   1      29.124  30.713  23.493  1.00  0.00     0.027 A 
ATOM     21  C   UNL A   1      28.202  28.103  22.912  1.00  0.00     0.012 A 
ATOM     22  C   UNL A   1      27.757  30.437  23.441  1.00  0.00     0.002 A 
ATOM     23  C   UNL A   1      27.301  29.150  23.163  1.00  0.00     0.001 A 
ENDBRANCH  12  13
ENDBRANCH   6  11
ENDBRANCH   3   5
ENDBRANCH   2   3
ENDBRANCH   1   2
BRANCH   1  24
ATOM     24  C   UNL A   1      31.739  29.797  27.182  1.00  0.00     0.275 C 
BRANCH  24  25
ATOM     25  O   UNL A   1      32.956  30.288  26.582  1.00  0.00    -0.458 OA
BRANCH  25  26
ATOM     26  C   UNL A   1      33.537  31.312  27.244  1.00  0.00     0.338 C 
ATOM     27  O   UNL A   1      33.012  32.350  27.618  1.00  0.00    -0.246 OA
BRANCH  26  28
ATOM     28  C   UNL A   1      34.949  31.034  27.538  1.00  0.00     0.060 A 
ATOM     29  C   UNL A   1      35.345  29.713  27.738  1.00  0.00     0.016 A 
ATOM     30  C   UNL A   1      35.794  32.078  27.902  1.00  0.00     0.016 A 
ATOM     31  C   UNL A   1      36.510  29.422  28.428  1.00  0.00     0.010 A 
ATOM     32  C   UNL A   1      37.022  31.783  28.501  1.00  0.00     0.010 A 
ATOM     33  C   UNL A   1      37.361  30.455  28.820  1.00  0.00    -0.014 A 
BRANCH  33  34
ATOM     34  C   UNL A   1      38.551  30.143  29.647  1.00  0.00     0.031 A 
ATOM     35  C   UNL A   1      39.631  29.266  29.081  1.00  0.00     0.074 A 
ATOM     36  C   UNL A   1      38.680  30.677  30.876  1.00  0.00     0.049 A 
ATOM     37  N   UNL A   1      40.643  28.701  29.685  1.00  0.00    -0.248 NA
ATOM     38  C   UNL A   1      39.550  28.971  27.641  1.00  0.00     0.031 C 
ATOM     39  C   UNL A   1      37.746  31.618  31.496  1.00  0.00     0.029 A 
ATOM     40  N   UNL A   1      39.653  30.502  31.826  1.00  0.00    -0.354 N 
ATOM     41  C   UNL A   1      41.279  27.934  28.717  1.00  0.00     0.074 A 
ATOM     42  C   UNL A   1      40.533  28.097  27.488  1.00  0.00     0.031 C 
ATOM     43  C   UNL A   1      38.201  31.955  32.711  1.00  0.00     0.029 A 
ATOM     44  C   UNL A   1      39.400  31.176  32.995  1.00  0.00     0.049 A 
ATOM     45  H   UNL A   1      40.454  29.947  31.684  1.00  0.00     0.167 HD
ATOM     46  C   UNL A   1      42.384  27.162  28.852  1.00  0.00     0.037 A 
ATOM     47  C   UNL A   1      40.030  31.126  34.181  1.00  0.00     0.037 A 
ATOM     48  C   UNL A   1      43.132  27.049  30.079  1.00  0.00     0.049 A 
ATOM     49  C   UNL A   1      41.211  30.208  34.327  1.00  0.00     0.074 A 
ATOM     50  C   UNL A   1      44.265  26.298  30.336  1.00  0.00     0.029 A 
ATOM     51  N   UNL A   1      42.821  27.720  31.255  1.00  0.00    -0.354 N 
ATOM     52  N   UNL A   1      41.773  29.432  33.432  1.00  0.00    -0.248 NA
ATOM     53  C   UNL A   1      41.837  30.150  35.654  1.00  0.00     0.031 C 
ATOM     54  C   UNL A   1      44.607  26.474  31.681  1.00  0.00     0.029 A 
ATOM     55  C   UNL A   1      43.729  27.388  32.245  1.00  0.00     0.049 A 
ATOM     56  H   UNL A   1      42.065  28.340  31.367  1.00  0.00     0.167 HD
ATOM     57  C   UNL A   1      42.837  28.817  34.075  1.00  0.00     0.074 A 
ATOM     58  C   UNL A   1      42.848  29.322  35.434  1.00  0.00     0.031 C 
ATOM     59  C   UNL A   1      43.727  27.916  33.587  1.00  0.00     0.037 A 
BRANCH  46  60
ATOM     60  C   UNL A   1      42.811  26.346  27.663  1.00  0.00     0.064 A 
ATOM     61  C   UNL A   1      42.285  25.073  27.399  1.00  0.00     0.173 A 
ATOM     62  C   UNL A   1      43.771  26.852  26.771  1.00  0.00     0.173 A 
ATOM     63  F   UNL A   1      41.376  24.534  28.225  1.00  0.00    -0.203 F 
ATOM     64  C   UNL A   1      42.732  24.321  26.313  1.00  0.00     0.198 A 
ATOM     65  C   UNL A   1      44.189  26.114  25.666  1.00  0.00     0.198 A 
ATOM     66  F   UNL A   1      44.307  28.066  26.969  1.00  0.00    -0.203 F 
ATOM     67  F   UNL A   1      42.263  23.080  26.122  1.00  0.00    -0.200 F 
ATOM     68  C   UNL A   1      43.677  24.845  25.445  1.00  0.00     0.200 A 
ATOM     69  F   UNL A   1      45.091  26.629  24.820  1.00  0.00    -0.200 F 
ATOM     70  F   UNL A   1      44.106  24.121  24.402  1.00  0.00    -0.200 F 
ENDBRANCH  46  60
BRANCH  47  71
ATOM     71  C   UNL A   1      39.534  31.940  35.321  1.00  0.00     0.064 A 
ATOM     72  C   UNL A   1      39.952  33.266  35.491  1.00  0.00     0.173 A 
ATOM     73  C   UNL A   1      38.625  31.418  36.255  1.00  0.00     0.173 A 
ATOM     74  F   UNL A   1      40.833  33.805  34.637  1.00  0.00    -0.203 F 
ATOM     75  C   UNL A   1      39.491  34.035  36.560  1.00  0.00     0.198 A 
ATOM     76  C   UNL A   1      38.138  32.198  37.301  1.00  0.00     0.198 A 
ATOM     77  F   UNL A   1      38.189  30.155  36.135  1.00  0.00    -0.203 F 
ATOM     78  F   UNL A   1      39.939  35.286  36.723  1.00  0.00    -0.200 F 
ATOM     79  C   UNL A   1      38.578  33.503  37.457  1.00  0.00     0.200 A 
ATOM     80  F   UNL A   1      37.240  31.685  38.154  1.00  0.00    -0.200 F 
ATOM     81  F   UNL A   1      38.126  34.246  38.477  1.00  0.00    -0.200 F 
ENDBRANCH  47  71
BRANCH  59  82
ATOM     82  C   UNL A   1      44.825  27.474  34.511  1.00  0.00     0.064 A 
ATOM     83  C   UNL A   1      44.702  26.335  35.319  1.00  0.00     0.173 A 
ATOM     84  C   UNL A   1      46.027  28.195  34.569  1.00  0.00     0.173 A 
ATOM     85  F   UNL A   1      43.566  25.621  35.315  1.00  0.00    -0.203 F 
ATOM     86  C   UNL A   1      45.732  25.953  36.175  1.00  0.00     0.198 A 
ATOM     87  C   UNL A   1      47.069  27.788  35.397  1.00  0.00     0.198 A 
ATOM     88  F   UNL A   1      46.197  29.289  33.811  1.00  0.00    -0.203 F 
ATOM     89  F   UNL A   1      45.570  24.896  36.983  1.00  0.00    -0.200 F 
ATOM     90  C   UNL A   1      46.916  26.675  36.208  1.00  0.00     0.200 A 
ATOM     91  F   UNL A   1      48.217  28.479  35.414  1.00  0.00    -0.200 F 
ATOM     92  F   UNL A   1      47.907  26.301  37.028  1.00  0.00    -0.200 F 
ENDBRANCH  59  82
ENDBRANCH  33  34
ENDBRANCH  26  28
ENDBRANCH  25  26
ENDBRANCH  24  25
ENDBRANCH   1  24
TORSDOF 13
ENDMDL
MODEL 2
REMARK VINA RESULT:     -13.2      4.771      9.934
REMARK SMILES Cc1[nH]c2ccccc2c1/N=N\c1ccccc1C(=O)OCCOC(=O)c1ccc(-c2c3nc(c(-c4c(F)c(F)c(F)c(F)c4F)c4ccc([nH]4)c(-c4c(F)c(F)c(F)c(F)c4F)c4nc(c(-c5c(F)c(F)c(F)c(F)c5F)c5ccc2[nH]5)C=C4)C=C3)cc1
REMARK SMILES IDX 22 1 21 2 19 3 20 4 18 5 13 6 14 7 15 8 17 9 16 10 12 11
REMARK SMILES IDX 11 12 10 13 1 14 2 15 3 16 4 17 9 19 5 20 8 21 6 22 7 23
REMARK SMILES IDX 23 24 24 25 25 26 26 27 27 28 28 29 89 30 29 31 88 32 30 33
REMARK SMILES IDX 31 34 32 35 82 36 33 37 87 38 81 39 83 40 34 41 86 42 80 43
REMARK SMILES IDX 79 44 35 46 67 47 47 48 66 49 48 50 51 51 65 52 84 53 49 54
REMARK SMILES IDX 50 55 64 57 85 58 52 59 36 60 37 61 45 62 38 63 39 64 43 65
REMARK SMILES IDX 46 66 40 67 41 68 44 69 42 70 68 71 69 72 77 73 70 74 71 75
REMARK SMILES IDX 75 76 78 77 72 78 73 79 76 80 74 81 53 82 54 83 62 84 55 85
REMARK SMILES IDX 56 86 60 87 63 88 57 89 58 90 61 91 59 92
REMARK H PARENT 3 18 83 45 51 56
REMARK Flexibility Score: inf
ROOT
ATOM      1  C   UNL A   1      36.488  22.624  23.753  1.00  0.00     0.275 C 
ENDROOT
BRANCH   1   2
ATOM      2  O   UNL A   1      35.071  22.410  23.897  1.00  0.00    -0.458 OA
BRANCH   2   3
ATOM      3  C   UNL A   1      34.315  23.291  23.205  1.00  0.00     0.340 C 
ATOM      4  O   UNL A   1      34.175  23.328  21.994  1.00  0.00    -0.246 OA
BRANCH   3   5
ATOM      5  C   UNL A   1      33.641  24.258  24.083  1.00  0.00     0.087 A 
ATOM      6  C   UNL A   1      32.325  24.004  24.484  1.00  0.00     0.100 A 
ATOM      7  C   UNL A   1      31.777  24.814  25.494  1.00  0.00     0.031 A 
ATOM      8  C   UNL A   1      32.549  25.789  26.139  1.00  0.00     0.002 A 
ATOM      9  C   UNL A   1      34.404  25.260  24.705  1.00  0.00     0.018 A 
ATOM     10  C   UNL A   1      33.866  26.009  25.749  1.00  0.00     0.001 A 
BRANCH   6  11
ATOM     11  N   UNL A   1      31.594  22.924  23.929  1.00  0.00    -0.150 NA
ATOM     12  N   UNL A   1      31.288  22.054  24.783  1.00  0.00    -0.148 NA
BRANCH  12  13
ATOM     13  C   UNL A   1      32.310  21.129  25.077  1.00  0.00     0.114 A 
ATOM     14  C   UNL A   1      33.310  22.248  27.225  1.00  0.00     0.067 C 
ATOM     15  C   UNL A   1      33.161  21.230  26.160  1.00  0.00     0.041 A 
ATOM     16  N   UNL A   1      34.029  20.170  26.076  1.00  0.00    -0.357 N 
ATOM     17  C   UNL A   1      33.711  19.360  25.011  1.00  0.00     0.048 A 
ATOM     18  H   UNL A   1      34.779  20.011  26.694  1.00  0.00     0.166 HD
ATOM     19  C   UNL A   1      32.636  19.951  24.342  1.00  0.00     0.027 A 
ATOM     20  C   UNL A   1      34.311  18.164  24.595  1.00  0.00     0.027 A 
ATOM     21  C   UNL A   1      32.153  19.318  23.177  1.00  0.00     0.012 A 
ATOM     22  C   UNL A   1      33.796  17.544  23.457  1.00  0.00     0.002 A 
ATOM     23  C   UNL A   1      32.738  18.114  22.751  1.00  0.00     0.001 A 
ENDBRANCH  12  13
ENDBRANCH   6  11
ENDBRANCH   3   5
ENDBRANCH   2   3
ENDBRANCH   1   2
BRANCH   1  24
ATOM     24  C   UNL A   1      37.314  21.475  24.337  1.00  0.00     0.275 C 
BRANCH  24  25
ATOM     25  O   UNL A   1      37.604  21.663  25.738  1.00  0.00    -0.458 OA
BRANCH  25  26
ATOM     26  C   UNL A   1      38.913  21.584  26.058  1.00  0.00     0.338 C 
ATOM     27  O   UNL A   1      39.703  20.701  25.753  1.00  0.00    -0.246 OA
BRANCH  26  28
ATOM     28  C   UNL A   1      39.355  22.758  26.820  1.00  0.00     0.060 A 
ATOM     29  C   UNL A   1      38.822  24.006  26.502  1.00  0.00     0.016 A 
ATOM     30  C   UNL A   1      40.487  22.669  27.626  1.00  0.00     0.016 A 
ATOM     31  C   UNL A   1      39.486  25.168  26.854  1.00  0.00     0.010 A 
ATOM     32  C   UNL A   1      41.098  23.844  28.075  1.00  0.00     0.010 A 
ATOM     33  C   UNL A   1      40.633  25.101  27.643  1.00  0.00    -0.014 A 
BRANCH  33  34
ATOM     34  C   UNL A   1      41.394  26.340  27.930  1.00  0.00     0.031 A 
ATOM     35  C   UNL A   1      40.749  27.430  28.737  1.00  0.00     0.074 A 
ATOM     36  C   UNL A   1      42.666  26.467  27.505  1.00  0.00     0.049 A 
ATOM     37  N   UNL A   1      41.140  28.662  28.929  1.00  0.00    -0.248 NA
ATOM     38  C   UNL A   1      39.481  27.091  29.402  1.00  0.00     0.031 C 
ATOM     39  C   UNL A   1      43.432  25.440  26.798  1.00  0.00     0.029 A 
ATOM     40  N   UNL A   1      43.539  27.518  27.610  1.00  0.00    -0.354 N 
ATOM     41  C   UNL A   1      40.138  29.262  29.682  1.00  0.00     0.074 A 
ATOM     42  C   UNL A   1      39.115  28.262  29.901  1.00  0.00     0.031 C 
ATOM     43  C   UNL A   1      44.666  25.901  26.551  1.00  0.00     0.029 A 
ATOM     44  C   UNL A   1      44.743  27.289  26.990  1.00  0.00     0.049 A 
ATOM     45  H   UNL A   1      43.325  28.355  28.082  1.00  0.00     0.167 HD
ATOM     46  C   UNL A   1      40.082  30.535  30.141  1.00  0.00     0.037 A 
ATOM     47  C   UNL A   1      45.770  28.123  26.751  1.00  0.00     0.037 A 
ATOM     48  C   UNL A   1      41.134  31.500  29.941  1.00  0.00     0.049 A 
ATOM     49  C   UNL A   1      45.655  29.551  27.206  1.00  0.00     0.074 A 
ATOM     50  C   UNL A   1      41.190  32.819  30.357  1.00  0.00     0.029 A 
ATOM     51  N   UNL A   1      42.324  31.240  29.274  1.00  0.00    -0.354 N 
ATOM     52  N   UNL A   1      44.680  30.137  27.859  1.00  0.00    -0.248 NA
ATOM     53  C   UNL A   1      46.780  30.436  26.880  1.00  0.00     0.031 C 
ATOM     54  C   UNL A   1      42.390  33.370  29.895  1.00  0.00     0.029 A 
ATOM     55  C   UNL A   1      43.114  32.378  29.251  1.00  0.00     0.049 A 
ATOM     56  H   UNL A   1      42.570  30.375  28.875  1.00  0.00     0.167 HD
ATOM     57  C   UNL A   1      45.084  31.450  28.050  1.00  0.00     0.074 A 
ATOM     58  C   UNL A   1      46.401  31.569  27.454  1.00  0.00     0.031 C 
ATOM     59  C   UNL A   1      44.428  32.466  28.664  1.00  0.00     0.037 A 
BRANCH  46  60
ATOM     60  C   UNL A   1      38.827  30.965  30.849  1.00  0.00     0.064 A 
ATOM     61  C   UNL A   1      38.706  30.932  32.247  1.00  0.00     0.173 A 
ATOM     62  C   UNL A   1      37.722  31.418  30.111  1.00  0.00     0.173 A 
ATOM     63  F   UNL A   1      39.725  30.494  33.002  1.00  0.00    -0.203 F 
ATOM     64  C   UNL A   1      37.516  31.295  32.874  1.00  0.00     0.198 A 
ATOM     65  C   UNL A   1      36.547  31.817  30.742  1.00  0.00     0.198 A 
ATOM     66  F   UNL A   1      37.781  31.477  28.772  1.00  0.00    -0.203 F 
ATOM     67  F   UNL A   1      37.403  31.189  34.205  1.00  0.00    -0.200 F 
ATOM     68  C   UNL A   1      36.440  31.743  32.122  1.00  0.00     0.200 A 
ATOM     69  F   UNL A   1      35.515  32.263  30.014  1.00  0.00    -0.200 F 
ATOM     70  F   UNL A   1      35.297  32.092  32.727  1.00  0.00    -0.200 F 
ENDBRANCH  46  60
BRANCH  47  71
ATOM     71  C   UNL A   1      46.967  27.636  26.019  1.00  0.00     0.064 A 
ATOM     72  C   UNL A   1      48.057  27.089  26.709  1.00  0.00     0.173 A 
ATOM     73  C   UNL A   1      47.046  27.693  24.618  1.00  0.00     0.173 A 
ATOM     74  F   UNL A   1      48.039  27.030  28.049  1.00  0.00    -0.203 F 
ATOM     75  C   UNL A   1      49.185  26.632  26.029  1.00  0.00     0.198 A 
ATOM     76  C   UNL A   1      48.158  27.203  23.938  1.00  0.00     0.198 A 
ATOM     77  F   UNL A   1      46.028  28.202  23.908  1.00  0.00    -0.203 F 
ATOM     78  F   UNL A   1      50.230  26.153  26.716  1.00  0.00    -0.200 F 
ATOM     79  C   UNL A   1      49.229  26.680  24.643  1.00  0.00     0.200 A 
ATOM     80  F   UNL A   1      48.187  27.233  22.598  1.00  0.00    -0.200 F 
ATOM     81  F   UNL A   1      50.309  26.229  23.989  1.00  0.00    -0.200 F 
ENDBRANCH  47  71
BRANCH  59  82
ATOM     82  C   UNL A   1      45.156  33.775  28.779  1.00  0.00     0.064 A 
ATOM     83  C   UNL A   1      46.007  34.059  29.856  1.00  0.00     0.173 A 
ATOM     84  C   UNL A   1      45.013  34.748  27.779  1.00  0.00     0.173 A 
ATOM     85  F   UNL A   1      46.164  33.169  30.848  1.00  0.00    -0.203 F 
ATOM     86  C   UNL A   1      46.663  35.284  29.944  1.00  0.00     0.198 A 
ATOM     87  C   UNL A   1      45.699  35.957  27.851  1.00  0.00     0.198 A 
ATOM     88  F   UNL A   1      44.214  34.523  26.724  1.00  0.00    -0.203 F 
ATOM     89  F   UNL A   1      47.424  35.559  31.012  1.00  0.00    -0.200 F 
ATOM     90  C   UNL A   1      46.514  36.228  28.938  1.00  0.00     0.200 A 
ATOM     91  F   UNL A   1      45.566  36.859  26.869  1.00  0.00    -0.200 F 
ATOM     92  F   UNL A   1      47.151  37.404  29.022  1.00  0.00    -0.200 F 
ENDBRANCH  59  82
ENDBRANCH  33  34
ENDBRANCH  26  28
ENDBRANCH  25  26
ENDBRANCH  24  25
ENDBRANCH   1  24
TORSDOF 13
ENDMDL
MODEL 3
REMARK VINA RESULT:     -12.9      1.792      3.629
REMARK SMILES Cc1[nH]c2ccccc2c1/N=N\c1ccccc1C(=O)OCCOC(=O)c1ccc(-c2c3nc(c(-c4c(F)c(F)c(F)c(F)c4F)c4ccc([nH]4)c(-c4c(F)c(F)c(F)c(F)c4F)c4nc(c(-c5c(F)c(F)c(F)c(F)c5F)c5ccc2[nH]5)C=C4)C=C3)cc1
REMARK SMILES IDX 22 1 21 2 19 3 20 4 18 5 13 6 14 7 15 8 17 9 16 10 12 11
REMARK SMILES IDX 11 12 10 13 1 14 2 15 3 16 4 17 9 19 5 20 8 21 6 22 7 23
REMARK SMILES IDX 23 24 24 25 25 26 26 27 27 28 28 29 89 30 29 31 88 32 30 33
REMARK SMILES IDX 31 34 32 35 82 36 33 37 87 38 81 39 83 40 34 41 86 42 80 43
REMARK SMILES IDX 79 44 35 46 67 47 47 48 66 49 48 50 51 51 65 52 84 53 49 54
REMARK SMILES IDX 50 55 64 57 85 58 52 59 36 60 37 61 45 62 38 63 39 64 43 65
REMARK SMILES IDX 46 66 40 67 41 68 44 69 42 70 68 71 69 72 77 73 70 74 71 75
REMARK SMILES IDX 75 76 78 77 72 78 73 79 76 80 74 81 53 82 54 83 62 84 55 85
REMARK SMILES IDX 56 86 60 87 63 88 57 89 58 90 61 91 59 92
REMARK H PARENT 3 18 83 45 51 56
REMARK Flexibility Score: inf
ROOT
ATOM      1  C   UNL A   1      32.814  29.338  24.702  1.00  0.00     0.275 C 
ENDROOT
BRANCH   1   2
ATOM      2  O   UNL A   1      33.500  28.125  25.066  1.00  0.00    -0.458 OA
BRANCH   2   3
ATOM      3  C   UNL A   1      33.239  27.085  24.242  1.00  0.00     0.340 C 
ATOM      4  O   UNL A   1      33.502  27.022  23.054  1.00  0.00    -0.246 OA
BRANCH   3   5
ATOM      5  C   UNL A   1      32.572  25.976  24.939  1.00  0.00     0.087 A 
ATOM      6  C   UNL A   1      33.356  24.979  25.529  1.00  0.00     0.100 A 
ATOM      7  C   UNL A   1      32.719  24.055  26.376  1.00  0.00     0.031 A 
ATOM      8  C   UNL A   1      31.358  24.178  26.687  1.00  0.00     0.002 A 
ATOM      9  C   UNL A   1      31.200  26.077  25.223  1.00  0.00     0.018 A 
ATOM     10  C   UNL A   1      30.598  25.193  26.115  1.00  0.00     0.001 A 
BRANCH   6  11
ATOM     11  N   UNL A   1      34.758  24.943  25.324  1.00  0.00    -0.150 NA
ATOM     12  N   UNL A   1      35.090  24.199  24.367  1.00  0.00    -0.148 NA
BRANCH  12  13
ATOM     13  C   UNL A   1      35.163  22.827  24.682  1.00  0.00     0.114 A 
ATOM     14  C   UNL A   1      37.434  22.797  25.988  1.00  0.00     0.067 C 
ATOM     15  C   UNL A   1      36.186  22.250  25.408  1.00  0.00     0.041 A 
ATOM     16  N   UNL A   1      35.914  20.906  25.468  1.00  0.00    -0.357 N 
ATOM     17  C   UNL A   1      34.713  20.621  24.861  1.00  0.00     0.048 A 
ATOM     18  H   UNL A   1      36.501  20.235  25.887  1.00  0.00     0.166 HD
ATOM     19  C   UNL A   1      34.219  21.817  24.332  1.00  0.00     0.027 A 
ATOM     20  C   UNL A   1      34.051  19.394  24.735  1.00  0.00     0.027 A 
ATOM     21  C   UNL A   1      33.003  21.771  23.618  1.00  0.00     0.012 A 
ATOM     22  C   UNL A   1      32.837  19.381  24.049  1.00  0.00     0.002 A 
ATOM     23  C   UNL A   1      32.322  20.549  23.490  1.00  0.00     0.001 A 
ENDBRANCH  12  13
ENDBRANCH   6  11
ENDBRANCH   3   5
ENDBRANCH   2   3
ENDBRANCH   1   2
BRANCH   1  24
ATOM     24  C   UNL A   1      31.905  29.852  25.823  1.00  0.00     0.275 C 
BRANCH  24  25
ATOM     25  O   UNL A   1      32.595  29.955  27.086  1.00  0.00    -0.458 OA
BRANCH  25  26
ATOM     26  C   UNL A   1      33.259  31.117  27.271  1.00  0.00     0.338 C 
ATOM     27  O   UNL A   1      32.798  32.249  27.255  1.00  0.00    -0.246 OA
BRANCH  26  28
ATOM     28  C   UNL A   1      34.680  30.887  27.561  1.00  0.00     0.060 A 
ATOM     29  C   UNL A   1      35.126  29.579  27.743  1.00  0.00     0.016 A 
ATOM     30  C   UNL A   1      35.487  31.957  27.937  1.00  0.00     0.016 A 
ATOM     31  C   UNL A   1      36.301  29.323  28.428  1.00  0.00     0.010 A 
ATOM     32  C   UNL A   1      36.725  31.700  28.532  1.00  0.00     0.010 A 
ATOM     33  C   UNL A   1      37.114  30.381  28.833  1.00  0.00    -0.014 A 
BRANCH  33  34
ATOM     34  C   UNL A   1      38.316  30.103  29.654  1.00  0.00     0.031 A 
ATOM     35  C   UNL A   1      39.400  29.225  29.099  1.00  0.00     0.074 A 
ATOM     36  C   UNL A   1      38.451  30.668  30.869  1.00  0.00     0.049 A 
ATOM     37  N   UNL A   1      40.424  28.686  29.706  1.00  0.00    -0.248 NA
ATOM     38  C   UNL A   1      39.308  28.894  27.668  1.00  0.00     0.031 C 
ATOM     39  C   UNL A   1      37.513  31.614  31.476  1.00  0.00     0.029 A 
ATOM     40  N   UNL A   1      39.435  30.527  31.812  1.00  0.00    -0.354 N 
ATOM     41  C   UNL A   1      41.059  27.902  28.750  1.00  0.00     0.074 A 
ATOM     42  C   UNL A   1      40.299  28.027  27.525  1.00  0.00     0.031 C 
ATOM     43  C   UNL A   1      37.976  31.986  32.678  1.00  0.00     0.029 A 
ATOM     44  C   UNL A   1      39.187  31.227  32.967  1.00  0.00     0.049 A 
ATOM     45  H   UNL A   1      40.241  29.978  31.676  1.00  0.00     0.167 HD
ATOM     46  C   UNL A   1      42.174  27.147  28.892  1.00  0.00     0.037 A 
ATOM     47  C   UNL A   1      39.830  31.213  34.148  1.00  0.00     0.037 A 
ATOM     48  C   UNL A   1      42.935  27.071  30.113  1.00  0.00     0.049 A 
ATOM     49  C   UNL A   1      41.022  30.312  34.304  1.00  0.00     0.074 A 
ATOM     50  C   UNL A   1      44.080  26.340  30.377  1.00  0.00     0.029 A 
ATOM     51  N   UNL A   1      42.629  27.767  31.276  1.00  0.00    -0.354 N 
ATOM     52  N   UNL A   1      41.584  29.520  33.422  1.00  0.00    -0.248 NA
ATOM     53  C   UNL A   1      41.663  30.293  35.625  1.00  0.00     0.031 C 
ATOM     54  C   UNL A   1      44.434  26.552  31.714  1.00  0.00     0.029 A 
ATOM     55  C   UNL A   1      43.551  27.470  32.264  1.00  0.00     0.049 A 
ATOM     56  H   UNL A   1      41.867  28.382  31.381  1.00  0.00     0.167 HD
ATOM     57  C   UNL A   1      42.662  28.933  34.068  1.00  0.00     0.074 A 
ATOM     58  C   UNL A   1      42.681  29.471  35.414  1.00  0.00     0.031 C 
ATOM     59  C   UNL A   1      43.557  28.031  33.593  1.00  0.00     0.037 A 
BRANCH  46  60
ATOM     60  C   UNL A   1      42.599  26.307  27.719  1.00  0.00     0.064 A 
ATOM     61  C   UNL A   1      43.579  26.730  26.809  1.00  0.00     0.173 A 
ATOM     62  C   UNL A   1      42.009  25.051  27.502  1.00  0.00     0.173 A 
ATOM     63  F   UNL A   1      44.166  27.927  26.957  1.00  0.00    -0.203 F 
ATOM     64  C   UNL A   1      43.922  25.949  25.706  1.00  0.00     0.198 A 
ATOM     65  C   UNL A   1      42.380  24.256  26.421  1.00  0.00     0.198 A 
ATOM     66  F   UNL A   1      41.069  24.591  28.342  1.00  0.00    -0.203 F 
ATOM     67  F   UNL A   1      44.811  26.407  24.814  1.00  0.00    -0.200 F 
ATOM     68  C   UNL A   1      43.327  24.711  25.517  1.00  0.00     0.200 A 
ATOM     69  F   UNL A   1      41.815  23.054  26.249  1.00  0.00    -0.200 F 
ATOM     70  F   UNL A   1      43.658  23.962  24.456  1.00  0.00    -0.200 F 
ENDBRANCH  46  60
BRANCH  47  71
ATOM     71  C   UNL A   1      39.336  32.049  35.272  1.00  0.00     0.064 A 
ATOM     72  C   UNL A   1      39.666  33.408  35.356  1.00  0.00     0.173 A 
ATOM     73  C   UNL A   1      38.516  31.515  36.280  1.00  0.00     0.173 A 
ATOM     74  F   UNL A   1      40.462  33.961  34.429  1.00  0.00    -0.203 F 
ATOM     75  C   UNL A   1      39.207  34.197  36.410  1.00  0.00     0.198 A 
ATOM     76  C   UNL A   1      38.030  32.312  37.312  1.00  0.00     0.198 A 
ATOM     77  F   UNL A   1      38.166  30.220  36.245  1.00  0.00    -0.203 F 
ATOM     78  F   UNL A   1      39.573  35.483  36.488  1.00  0.00    -0.200 F 
ATOM     79  C   UNL A   1      38.382  33.650  37.381  1.00  0.00     0.200 A 
ATOM     80  F   UNL A   1      37.215  31.784  38.236  1.00  0.00    -0.200 F 
ATOM     81  F   UNL A   1      37.932  34.413  38.387  1.00  0.00    -0.200 F 
ENDBRANCH  47  71
BRANCH  59  82
ATOM     82  C   UNL A   1      44.669  27.624  34.516  1.00  0.00     0.064 A 
ATOM     83  C   UNL A   1      44.567  26.503  35.353  1.00  0.00     0.173 A 
ATOM     84  C   UNL A   1      45.864  28.359  34.543  1.00  0.00     0.173 A 
ATOM     85  F   UNL A   1      43.439  25.777  35.379  1.00  0.00    -0.203 F 
ATOM     86  C   UNL A   1      45.610  26.153  36.208  1.00  0.00     0.198 A 
ATOM     87  C   UNL A   1      46.918  27.984  35.370  1.00  0.00     0.198 A 
ATOM     88  F   UNL A   1      46.014  29.436  33.757  1.00  0.00    -0.203 F 
ATOM     89  F   UNL A   1      45.468  25.115  37.043  1.00  0.00    -0.200 F 
ATOM     90  C   UNL A   1      46.786  26.889  36.209  1.00  0.00     0.200 A 
ATOM     91  F   UNL A   1      48.059  28.687  35.358  1.00  0.00    -0.200 F 
ATOM     92  F   UNL A   1      47.790  26.547  37.028  1.00  0.00    -0.200 F 
ENDBRANCH  59  82
ENDBRANCH  33  34
ENDBRANCH  26  28
ENDBRANCH  25  26
ENDBRANCH  24  25
ENDBRANCH   1  24
TORSDOF 13
ENDMDL
