MODEL 1
REMARK VINA RESULT:     -10.5      0.000      0.000
REMARK SMILES C[C@H](c1ccoc1)[NH+]1CC[NH+]([C@@H](C)C(=O)OCCOC(=O)c2ccc(-c3c4nc(c(-c5c(F)c(F)c(F)c(F)c5F)c5ccc([nH]5)c(-c5c(F)c(F)c(F)c(F)c5F)c5nc(c(-c6c(F)c(F)c(F)c(F)c6F)c6ccc3[nH]6)C=C5)C=C4)cc2)CC1
REMARK SMILES IDX 17 1 16 2 14 3 15 4 12 5 13 6 11 7 8 8 9 9 86 10 10 12 85 13
REMARK SMILES IDX 2 15 1 16 3 17 4 18 7 19 5 20 6 21 18 22 19 23 20 24 21 25
REMARK SMILES IDX 22 26 23 27 84 28 24 29 83 30 25 31 26 32 27 33 77 34 28 35
REMARK SMILES IDX 82 36 76 37 78 38 29 39 81 40 75 41 74 42 30 44 62 45 42 46
REMARK SMILES IDX 61 47 43 48 46 49 60 50 79 51 44 52 45 53 59 55 80 56 47 57
REMARK SMILES IDX 31 58 32 59 40 60 33 61 34 62 38 63 41 64 35 65 36 66 39 67
REMARK SMILES IDX 37 68 63 69 64 70 72 71 65 72 66 73 70 74 73 75 67 76 68 77
REMARK SMILES IDX 71 78 69 79 48 80 49 81 57 82 50 83 51 84 55 85 58 86 52 87
REMARK SMILES IDX 53 88 56 89 54 90
REMARK H PARENT 8 11 11 14 78 43 46 54
REMARK Flexibility Score: inf
ROOT
ATOM      1  C   UNL A   1      40.966  19.704  26.645  1.00  0.00     0.274 C 
ENDROOT
BRANCH   1   2
ATOM      2  O   UNL A   1      41.734  19.751  25.429  1.00  0.00    -0.458 OA
BRANCH   2   3
ATOM      3  C   UNL A   1      42.976  19.201  25.454  1.00  0.00     0.364 C 
ATOM      4  O   UNL A   1      43.250  18.150  26.027  1.00  0.00    -0.245 OA
BRANCH   3   5
ATOM      5  C   UNL A   1      44.047  20.067  24.755  1.00  0.00     0.292 C 
ATOM      6  C   UNL A   1      44.714  19.232  23.668  1.00  0.00     0.088 C 
BRANCH   5   7
ATOM      7  N   UNL A   1      44.899  20.825  25.705  1.00  0.00    -0.314 N 
ATOM      8  N   UNL A   1      45.479  23.742  25.134  1.00  0.00    -0.320 N 
ATOM      9  C   UNL A   1      46.210  22.650  24.487  1.00  0.00     0.325 C 
ATOM     10  C   UNL A   1      44.201  23.298  25.703  1.00  0.00     0.325 C 
ATOM     11  H   UNL A   1      45.192  24.387  24.399  1.00  0.00     0.348 HD
ATOM     12  C   UNL A   1      46.208  21.303  25.237  1.00  0.00     0.325 C 
ATOM     13  C   UNL A   1      44.202  21.918  26.404  1.00  0.00     0.325 C 
ATOM     14  H   UNL A   1      45.113  20.073  26.360  1.00  0.00     0.349 HD
BRANCH   8  15
ATOM     15  C   UNL A   1      46.311  24.633  25.950  1.00  0.00     0.215 C 
ATOM     16  C   UNL A   1      46.038  24.657  27.455  1.00  0.00     0.081 C 
BRANCH  15  17
ATOM     17  C   UNL A   1      46.245  26.003  25.318  1.00  0.00     0.047 A 
ATOM     18  C   UNL A   1      47.277  26.750  24.675  1.00  0.00     0.052 A 
ATOM     19  C   UNL A   1      45.131  26.820  25.264  1.00  0.00     0.204 A 
ATOM     20  C   UNL A   1      46.721  27.949  24.297  1.00  0.00     0.195 A 
ATOM     21  O   UNL A   1      45.411  27.994  24.646  1.00  0.00    -0.472 OA
ENDBRANCH  15  17
ENDBRANCH   8  15
ENDBRANCH   5   7
ENDBRANCH   3   5
ENDBRANCH   2   3
ENDBRANCH   1   2
BRANCH   1  22
ATOM     22  C   UNL A   1      40.754  21.110  27.213  1.00  0.00     0.275 C 
BRANCH  22  23
ATOM     23  O   UNL A   1      40.506  22.051  26.152  1.00  0.00    -0.458 OA
BRANCH  23  24
ATOM     24  C   UNL A   1      39.336  22.724  26.234  1.00  0.00     0.338 C 
ATOM     25  O   UNL A   1      38.220  22.307  25.966  1.00  0.00    -0.246 OA
BRANCH  24  26
ATOM     26  C   UNL A   1      39.576  24.048  26.835  1.00  0.00     0.060 A 
ATOM     27  C   UNL A   1      40.198  25.019  26.046  1.00  0.00     0.016 A 
ATOM     28  C   UNL A   1      39.241  24.324  28.164  1.00  0.00     0.016 A 
ATOM     29  C   UNL A   1      40.491  26.272  26.581  1.00  0.00     0.010 A 
ATOM     30  C   UNL A   1      39.548  25.578  28.706  1.00  0.00     0.010 A 
ATOM     31  C   UNL A   1      40.186  26.553  27.921  1.00  0.00    -0.014 A 
BRANCH  31  32
ATOM     32  C   UNL A   1      40.618  27.849  28.500  1.00  0.00     0.031 A 
ATOM     33  C   UNL A   1      42.079  28.110  28.729  1.00  0.00     0.074 A 
ATOM     34  C   UNL A   1      39.713  28.809  28.757  1.00  0.00     0.049 A 
ATOM     35  N   UNL A   1      42.670  29.195  29.163  1.00  0.00    -0.248 NA
ATOM     36  C   UNL A   1      42.998  27.003  28.425  1.00  0.00     0.031 C 
ATOM     37  C   UNL A   1      38.271  28.683  28.557  1.00  0.00     0.029 A 
ATOM     38  N   UNL A   1      39.879  30.087  29.231  1.00  0.00    -0.354 N 
ATOM     39  C   UNL A   1      44.026  28.903  29.184  1.00  0.00     0.074 A 
ATOM     40  C   UNL A   1      44.171  27.531  28.746  1.00  0.00     0.031 C 
ATOM     41  C   UNL A   1      37.682  29.844  28.893  1.00  0.00     0.029 A 
ATOM     42  C   UNL A   1      38.704  30.786  29.347  1.00  0.00     0.049 A 
ATOM     43  H   UNL A   1      40.757  30.466  29.464  1.00  0.00     0.167 HD
ATOM     44  C   UNL A   1      45.060  29.710  29.528  1.00  0.00     0.037 A 
ATOM     45  C   UNL A   1      38.478  32.044  29.771  1.00  0.00     0.037 A 
ATOM     46  C   UNL A   1      44.919  31.075  29.965  1.00  0.00     0.049 A 
ATOM     47  C   UNL A   1      39.643  32.911  30.172  1.00  0.00     0.074 A 
ATOM     48  C   UNL A   1      45.909  31.969  30.337  1.00  0.00     0.029 A 
ATOM     49  N   UNL A   1      43.711  31.742  30.090  1.00  0.00    -0.354 N 
ATOM     50  N   UNL A   1      40.924  32.634  30.167  1.00  0.00    -0.248 NA
ATOM     51  C   UNL A   1      39.327  34.272  30.631  1.00  0.00     0.031 C 
ATOM     52  C   UNL A   1      45.295  33.168  30.719  1.00  0.00     0.029 A 
ATOM     53  C   UNL A   1      43.928  33.033  30.546  1.00  0.00     0.049 A 
ATOM     54  H   UNL A   1      42.828  31.356  29.886  1.00  0.00     0.167 HD
ATOM     55  C   UNL A   1      41.567  33.787  30.595  1.00  0.00     0.074 A 
ATOM     56  C   UNL A   1      40.536  34.775  30.838  1.00  0.00     0.031 C 
ATOM     57  C   UNL A   1      42.892  34.007  30.775  1.00  0.00     0.037 A 
BRANCH  44  58
ATOM     58  C   UNL A   1      46.439  29.125  29.461  1.00  0.00     0.064 A 
ATOM     59  C   UNL A   1      47.035  28.525  30.579  1.00  0.00     0.173 A 
ATOM     60  C   UNL A   1      47.160  29.144  28.259  1.00  0.00     0.173 A 
ATOM     61  F   UNL A   1      46.390  28.496  31.755  1.00  0.00    -0.203 F 
ATOM     62  C   UNL A   1      48.315  27.981  30.501  1.00  0.00     0.198 A 
ATOM     63  C   UNL A   1      48.430  28.578  28.178  1.00  0.00     0.198 A 
ATOM     64  F   UNL A   1      46.632  29.705  27.160  1.00  0.00    -0.203 F 
ATOM     65  F   UNL A   1      48.882  27.447  31.591  1.00  0.00    -0.200 F 
ATOM     66  C   UNL A   1      49.008  28.004  29.299  1.00  0.00     0.200 A 
ATOM     67  F   UNL A   1      49.096  28.593  27.015  1.00  0.00    -0.200 F 
ATOM     68  F   UNL A   1      50.239  27.477  29.225  1.00  0.00    -0.200 F 
ENDBRANCH  44  58
BRANCH  45  69
ATOM     69  C   UNL A   1      37.091  32.571  29.820  1.00  0.00     0.064 A 
ATOM     70  C   UNL A   1      36.542  33.260  28.731  1.00  0.00     0.173 A 
ATOM     71  C   UNL A   1      36.294  32.409  30.962  1.00  0.00     0.173 A 
ATOM     72  F   UNL A   1      37.277  33.464  27.628  1.00  0.00    -0.203 F 
ATOM     73  C   UNL A   1      35.251  33.780  28.787  1.00  0.00     0.198 A 
ATOM     74  C   UNL A   1      34.994  32.907  31.008  1.00  0.00     0.198 A 
ATOM     75  F   UNL A   1      36.777  31.760  32.031  1.00  0.00    -0.203 F 
ATOM     76  F   UNL A   1      34.764  34.473  27.748  1.00  0.00    -0.200 F 
ATOM     77  C   UNL A   1      34.476  33.598  29.923  1.00  0.00     0.200 A 
ATOM     78  F   UNL A   1      34.246  32.723  32.105  1.00  0.00    -0.200 F 
ATOM     79  F   UNL A   1      33.234  34.098  29.976  1.00  0.00    -0.200 F 
ENDBRANCH  45  69
BRANCH  57  80
ATOM     80  C   UNL A   1      43.304  35.378  31.225  1.00  0.00     0.064 A 
ATOM     81  C   UNL A   1      43.670  36.374  30.307  1.00  0.00     0.173 A 
ATOM     82  C   UNL A   1      43.312  35.706  32.589  1.00  0.00     0.173 A 
ATOM     83  F   UNL A   1      43.694  36.104  28.994  1.00  0.00    -0.203 F 
ATOM     84  C   UNL A   1      44.058  37.639  30.741  1.00  0.00     0.198 A 
ATOM     85  C   UNL A   1      43.674  36.980  33.018  1.00  0.00     0.198 A 
ATOM     86  F   UNL A   1      42.963  34.792  33.507  1.00  0.00    -0.203 F 
ATOM     87  F   UNL A   1      44.450  38.560  29.850  1.00  0.00    -0.200 F 
ATOM     88  C   UNL A   1      44.054  37.942  32.094  1.00  0.00     0.200 A 
ATOM     89  F   UNL A   1      43.663  37.275  34.325  1.00  0.00    -0.200 F 
ATOM     90  F   UNL A   1      44.428  39.161  32.510  1.00  0.00    -0.200 F 
ENDBRANCH  57  80
ENDBRANCH  31  32
ENDBRANCH  24  26
ENDBRANCH  23  24
ENDBRANCH  22  23
ENDBRANCH   1  22
TORSDOF 14
ENDMDL
MODEL 2
REMARK VINA RESULT:     -10.5      4.845     11.968
REMARK SMILES C[C@H](c1ccoc1)[NH+]1CC[NH+]([C@@H](C)C(=O)OCCOC(=O)c2ccc(-c3c4nc(c(-c5c(F)c(F)c(F)c(F)c5F)c5ccc([nH]5)c(-c5c(F)c(F)c(F)c(F)c5F)c5nc(c(-c6c(F)c(F)c(F)c(F)c6F)c6ccc3[nH]6)C=C5)C=C4)cc2)CC1
REMARK SMILES IDX 17 1 16 2 14 3 15 4 12 5 13 6 11 7 8 8 9 9 86 10 10 12 85 13
REMARK SMILES IDX 2 15 1 16 3 17 4 18 7 19 5 20 6 21 18 22 19 23 20 24 21 25
REMARK SMILES IDX 22 26 23 27 84 28 24 29 83 30 25 31 26 32 27 33 77 34 28 35
REMARK SMILES IDX 82 36 76 37 78 38 29 39 81 40 75 41 74 42 30 44 62 45 42 46
REMARK SMILES IDX 61 47 43 48 46 49 60 50 79 51 44 52 45 53 59 55 80 56 47 57
REMARK SMILES IDX 31 58 32 59 40 60 33 61 34 62 38 63 41 64 35 65 36 66 39 67
REMARK SMILES IDX 37 68 63 69 64 70 72 71 65 72 66 73 70 74 73 75 67 76 68 77
REMARK SMILES IDX 71 78 69 79 48 80 49 81 57 82 50 83 51 84 55 85 58 86 52 87
REMARK SMILES IDX 53 88 56 89 54 90
REMARK H PARENT 8 11 11 14 78 43 46 54
REMARK Flexibility Score: inf
ROOT
ATOM      1  C   UNL A   1      33.776  34.222  28.001  1.00  0.00     0.274 C 
ENDROOT
BRANCH   1   2
ATOM      2  O   UNL A   1      32.992  34.224  29.208  1.00  0.00    -0.458 OA
BRANCH   2   3
ATOM      3  C   UNL A   1      32.888  35.401  29.881  1.00  0.00     0.364 C 
ATOM      4  O   UNL A   1      32.668  36.483  29.344  1.00  0.00    -0.245 OA
BRANCH   3   5
ATOM      5  C   UNL A   1      33.153  35.268  31.396  1.00  0.00     0.292 C 
ATOM      6  C   UNL A   1      32.009  35.934  32.151  1.00  0.00     0.088 C 
BRANCH   5   7
ATOM      7  N   UNL A   1      34.551  35.590  31.778  1.00  0.00    -0.314 N 
ATOM      8  N   UNL A   1      35.940  33.853  33.833  1.00  0.00    -0.320 N 
ATOM      9  C   UNL A   1      35.007  34.921  34.201  1.00  0.00     0.325 C 
ATOM     10  C   UNL A   1      35.784  33.434  32.436  1.00  0.00     0.325 C 
ATOM     11  H   UNL A   1      35.665  33.022  34.355  1.00  0.00     0.348 HD
ATOM     12  C   UNL A   1      34.812  36.035  33.154  1.00  0.00     0.325 C 
ATOM     13  C   UNL A   1      35.534  34.559  31.402  1.00  0.00     0.325 C 
ATOM     14  H   UNL A   1      34.683  36.423  31.203  1.00  0.00     0.349 HD
BRANCH   8  15
ATOM     15  C   UNL A   1      37.305  34.036  34.338  1.00  0.00     0.215 C 
ATOM     16  C   UNL A   1      38.411  34.236  33.300  1.00  0.00     0.081 C 
BRANCH  15  17
ATOM     17  C   UNL A   1      37.585  32.893  35.283  1.00  0.00     0.047 A 
ATOM     18  C   UNL A   1      37.957  31.548  34.986  1.00  0.00     0.052 A 
ATOM     19  C   UNL A   1      37.510  32.942  36.663  1.00  0.00     0.204 A 
ATOM     20  C   UNL A   1      38.066  30.892  36.190  1.00  0.00     0.195 A 
ATOM     21  O   UNL A   1      37.803  31.739  37.215  1.00  0.00    -0.472 OA
ENDBRANCH  15  17
ENDBRANCH   8  15
ENDBRANCH   5   7
ENDBRANCH   3   5
ENDBRANCH   2   3
ENDBRANCH   1   2
BRANCH   1  22
ATOM     22  C   UNL A   1      34.816  33.100  28.026  1.00  0.00     0.275 C 
BRANCH  22  23
ATOM     23  O   UNL A   1      34.239  31.888  28.545  1.00  0.00    -0.458 OA
BRANCH  23  24
ATOM     24  C   UNL A   1      34.480  30.772  27.819  1.00  0.00     0.338 C 
ATOM     25  O   UNL A   1      33.797  30.312  26.917  1.00  0.00    -0.246 OA
BRANCH  24  26
ATOM     26  C   UNL A   1      35.798  30.226  28.187  1.00  0.00     0.060 A 
ATOM     27  C   UNL A   1      35.959  29.729  29.483  1.00  0.00     0.016 A 
ATOM     28  C   UNL A   1      36.875  30.241  27.296  1.00  0.00     0.016 A 
ATOM     29  C   UNL A   1      37.198  29.244  29.896  1.00  0.00     0.010 A 
ATOM     30  C   UNL A   1      38.123  29.767  27.716  1.00  0.00     0.010 A 
ATOM     31  C   UNL A   1      38.295  29.279  29.022  1.00  0.00    -0.014 A 
BRANCH  31  32
ATOM     32  C   UNL A   1      39.629  28.872  29.527  1.00  0.00     0.031 A 
ATOM     33  C   UNL A   1      40.261  29.635  30.655  1.00  0.00     0.074 A 
ATOM     34  C   UNL A   1      40.240  27.787  29.020  1.00  0.00     0.049 A 
ATOM     35  N   UNL A   1      41.387  29.406  31.283  1.00  0.00    -0.248 NA
ATOM     36  C   UNL A   1      39.526  30.811  31.144  1.00  0.00     0.031 C 
ATOM     37  C   UNL A   1      39.718  26.953  27.940  1.00  0.00     0.029 A 
ATOM     38  N   UNL A   1      41.430  27.194  29.361  1.00  0.00    -0.354 N 
ATOM     39  C   UNL A   1      41.496  30.405  32.239  1.00  0.00     0.074 A 
ATOM     40  C   UNL A   1      40.336  31.260  32.093  1.00  0.00     0.031 C 
ATOM     41  C   UNL A   1      40.578  25.945  27.714  1.00  0.00     0.029 A 
ATOM     42  C   UNL A   1      41.717  26.074  28.621  1.00  0.00     0.049 A 
ATOM     43  H   UNL A   1      42.022  27.538  30.069  1.00  0.00     0.167 HD
ATOM     44  C   UNL A   1      42.469  30.589  33.164  1.00  0.00     0.037 A 
ATOM     45  C   UNL A   1      42.778  25.246  28.672  1.00  0.00     0.037 A 
ATOM     46  C   UNL A   1      43.624  29.741  33.313  1.00  0.00     0.049 A 
ATOM     47  C   UNL A   1      43.859  25.488  29.693  1.00  0.00     0.074 A 
ATOM     48  C   UNL A   1      44.665  29.851  34.220  1.00  0.00     0.029 A 
ATOM     49  N   UNL A   1      43.891  28.628  32.531  1.00  0.00    -0.354 N 
ATOM     50  N   UNL A   1      43.941  26.422  30.608  1.00  0.00    -0.248 NA
ATOM     51  C   UNL A   1      44.992  24.551  29.691  1.00  0.00     0.031 C 
ATOM     52  C   UNL A   1      45.578  28.820  33.964  1.00  0.00     0.029 A 
ATOM     53  C   UNL A   1      45.086  28.048  32.926  1.00  0.00     0.049 A 
ATOM     54  H   UNL A   1      43.316  28.299  31.802  1.00  0.00     0.167 HD
ATOM     55  C   UNL A   1      45.116  26.173  31.304  1.00  0.00     0.074 A 
ATOM     56  C   UNL A   1      45.708  24.990  30.716  1.00  0.00     0.031 C 
ATOM     57  C   UNL A   1      45.658  26.865  32.336  1.00  0.00     0.037 A 
BRANCH  44  58
ATOM     58  C   UNL A   1      42.333  31.768  34.080  1.00  0.00     0.064 A 
ATOM     59  C   UNL A   1      42.823  33.033  33.725  1.00  0.00     0.173 A 
ATOM     60  C   UNL A   1      41.682  31.636  35.315  1.00  0.00     0.173 A 
ATOM     61  F   UNL A   1      43.465  33.205  32.560  1.00  0.00    -0.203 F 
ATOM     62  C   UNL A   1      42.685  34.120  34.583  1.00  0.00     0.198 A 
ATOM     63  C   UNL A   1      41.524  32.731  36.161  1.00  0.00     0.198 A 
ATOM     64  F   UNL A   1      41.193  30.447  35.700  1.00  0.00    -0.203 F 
ATOM     65  F   UNL A   1      43.195  35.311  34.241  1.00  0.00    -0.200 F 
ATOM     66  C   UNL A   1      42.031  33.970  35.798  1.00  0.00     0.200 A 
ATOM     67  F   UNL A   1      40.885  32.587  37.331  1.00  0.00    -0.200 F 
ATOM     68  F   UNL A   1      41.895  35.018  36.621  1.00  0.00    -0.200 F 
ENDBRANCH  44  58
BRANCH  45  69
ATOM     69  C   UNL A   1      42.863  24.095  27.739  1.00  0.00     0.064 A 
ATOM     70  C   UNL A   1      42.449  22.815  28.131  1.00  0.00     0.173 A 
ATOM     71  C   UNL A   1      43.374  24.249  26.442  1.00  0.00     0.173 A 
ATOM     72  F   UNL A   1      41.979  22.614  29.371  1.00  0.00    -0.203 F 
ATOM     73  C   UNL A   1      42.556  21.729  27.265  1.00  0.00     0.198 A 
ATOM     74  C   UNL A   1      43.458  23.167  25.569  1.00  0.00     0.198 A 
ATOM     75  F   UNL A   1      43.787  25.453  26.022  1.00  0.00    -0.203 F 
ATOM     76  F   UNL A   1      42.193  20.507  27.680  1.00  0.00    -0.200 F 
ATOM     77  C   UNL A   1      43.055  21.907  25.984  1.00  0.00     0.200 A 
ATOM     78  F   UNL A   1      43.933  23.344  24.328  1.00  0.00    -0.200 F 
ATOM     79  F   UNL A   1      43.156  20.861  25.151  1.00  0.00    -0.200 F 
ENDBRANCH  45  69
BRANCH  57  80
ATOM     80  C   UNL A   1      46.939  26.340  32.916  1.00  0.00     0.064 A 
ATOM     81  C   UNL A   1      46.943  25.384  33.942  1.00  0.00     0.173 A 
ATOM     82  C   UNL A   1      48.176  26.782  32.423  1.00  0.00     0.173 A 
ATOM     83  F   UNL A   1      45.786  24.942  34.456  1.00  0.00    -0.203 F 
ATOM     84  C   UNL A   1      48.140  24.912  34.475  1.00  0.00     0.198 A 
ATOM     85  C   UNL A   1      49.370  26.289  32.941  1.00  0.00     0.198 A 
ATOM     86  F   UNL A   1      48.226  27.690  31.437  1.00  0.00    -0.203 F 
ATOM     87  F   UNL A   1      48.120  24.035  35.488  1.00  0.00    -0.200 F 
ATOM     88  C   UNL A   1      49.351  25.360  33.971  1.00  0.00     0.200 A 
ATOM     89  F   UNL A   1      50.541  26.716  32.447  1.00  0.00    -0.200 F 
ATOM     90  F   UNL A   1      50.503  24.905  34.485  1.00  0.00    -0.200 F 
ENDBRANCH  57  80
ENDBRANCH  31  32
ENDBRANCH  24  26
ENDBRANCH  23  24
ENDBRANCH  22  23
ENDBRANCH   1  22
TORSDOF 14
ENDMDL
MODEL 3
REMARK VINA RESULT:     -10.4      5.404     10.976
REMARK SMILES C[C@H](c1ccoc1)[NH+]1CC[NH+]([C@@H](C)C(=O)OCCOC(=O)c2ccc(-c3c4nc(c(-c5c(F)c(F)c(F)c(F)c5F)c5ccc([nH]5)c(-c5c(F)c(F)c(F)c(F)c5F)c5nc(c(-c6c(F)c(F)c(F)c(F)c6F)c6ccc3[nH]6)C=C5)C=C4)cc2)CC1
REMARK SMILES IDX 17 1 16 2 14 3 15 4 12 5 13 6 11 7 8 8 9 9 86 10 10 12 85 13
REMARK SMILES IDX 2 15 1 16 3 17 4 18 7 19 5 20 6 21 18 22 19 23 20 24 21 25
REMARK SMILES IDX 22 26 23 27 84 28 24 29 83 30 25 31 26 32 27 33 77 34 28 35
REMARK SMILES IDX 82 36 76 37 78 38 29 39 81 40 75 41 74 42 30 44 62 45 42 46
REMARK SMILES IDX 61 47 43 48 46 49 60 50 79 51 44 52 45 53 59 55 80 56 47 57
REMARK SMILES IDX 31 58 32 59 40 60 33 61 34 62 38 63 41 64 35 65 36 66 39 67
REMARK SMILES IDX 37 68 63 69 64 70 72 71 65 72 66 73 70 74 73 75 67 76 68 77
REMARK SMILES IDX 71 78 69 79 48 80 49 81 57 82 50 83 51 84 55 85 58 86 52 87
REMARK SMILES IDX 53 88 56 89 54 90
REMARK H PARENT 8 11 11 14 78 43 46 54
REMARK Flexibility Score: inf
ROOT
ATOM      1  C   UNL A   1      31.411  29.266  25.225  1.00  0.00     0.274 C 
ENDROOT
BRANCH   1   2
ATOM      2  O   UNL A   1      32.148  28.122  25.691  1.00  0.00    -0.458 OA
BRANCH   2   3
ATOM      3  C   UNL A   1      31.504  27.262  26.524  1.00  0.00     0.364 C 
ATOM      4  O   UNL A   1      31.147  27.547  27.664  1.00  0.00    -0.245 OA
BRANCH   3   5
ATOM      5  C   UNL A   1      31.328  25.847  25.931  1.00  0.00     0.292 C 
ATOM      6  C   UNL A   1      29.841  25.587  25.724  1.00  0.00     0.088 C 
BRANCH   5   7
ATOM      7  N   UNL A   1      32.150  24.818  26.616  1.00  0.00    -0.314 N 
ATOM      8  N   UNL A   1      32.741  22.223  25.170  1.00  0.00    -0.320 N 
ATOM      9  C   UNL A   1      31.474  22.471  25.864  1.00  0.00     0.325 C 
ATOM     10  C   UNL A   1      33.465  23.465  24.873  1.00  0.00     0.325 C 
ATOM     11  H   UNL A   1      32.510  21.864  24.245  1.00  0.00     0.348 HD
ATOM     12  C   UNL A   1      31.513  23.542  26.972  1.00  0.00     0.325 C 
ATOM     13  C   UNL A   1      33.448  24.553  25.973  1.00  0.00     0.325 C 
ATOM     14  H   UNL A   1      32.293  25.297  27.506  1.00  0.00     0.349 HD
BRANCH   8  15
ATOM     15  C   UNL A   1      33.515  21.096  25.700  1.00  0.00     0.215 C 
ATOM     16  C   UNL A   1      35.040  21.212  25.645  1.00  0.00     0.081 C 
BRANCH  15  17
ATOM     17  C   UNL A   1      32.996  19.847  25.029  1.00  0.00     0.047 A 
ATOM     18  C   UNL A   1      32.843  18.534  25.565  1.00  0.00     0.052 A 
ATOM     19  C   UNL A   1      32.575  19.745  23.716  1.00  0.00     0.204 A 
ATOM     20  C   UNL A   1      32.360  17.745  24.547  1.00  0.00     0.195 A 
ATOM     21  O   UNL A   1      32.187  18.480  23.421  1.00  0.00    -0.472 OA
ENDBRANCH  15  17
ENDBRANCH   8  15
ENDBRANCH   5   7
ENDBRANCH   3   5
ENDBRANCH   2   3
ENDBRANCH   1   2
BRANCH   1  22
ATOM     22  C   UNL A   1      31.780  30.518  26.024  1.00  0.00     0.275 C 
BRANCH  22  23
ATOM     23  O   UNL A   1      33.166  30.480  26.410  1.00  0.00    -0.458 OA
BRANCH  23  24
ATOM     24  C   UNL A   1      33.567  31.472  27.238  1.00  0.00     0.338 C 
ATOM     25  O   UNL A   1      32.927  32.454  27.583  1.00  0.00    -0.246 OA
BRANCH  24  26
ATOM     26  C   UNL A   1      34.889  31.139  27.795  1.00  0.00     0.060 A 
ATOM     27  C   UNL A   1      35.118  29.818  28.187  1.00  0.00     0.016 A 
ATOM     28  C   UNL A   1      35.877  32.112  27.975  1.00  0.00     0.016 A 
ATOM     29  C   UNL A   1      36.335  29.460  28.764  1.00  0.00     0.010 A 
ATOM     30  C   UNL A   1      37.095  31.756  28.567  1.00  0.00     0.010 A 
ATOM     31  C   UNL A   1      37.325  30.431  28.977  1.00  0.00    -0.014 A 
BRANCH  31  32
ATOM     32  C   UNL A   1      38.561  30.050  29.703  1.00  0.00     0.031 A 
ATOM     33  C   UNL A   1      38.785  30.549  31.101  1.00  0.00     0.074 A 
ATOM     34  C   UNL A   1      39.445  29.211  29.136  1.00  0.00     0.049 A 
ATOM     35  N   UNL A   1      39.763  30.283  31.931  1.00  0.00    -0.248 NA
ATOM     36  C   UNL A   1      37.770  31.467  31.640  1.00  0.00     0.031 C 
ATOM     37  C   UNL A   1      39.328  28.643  27.795  1.00  0.00     0.029 A 
ATOM     38  N   UNL A   1      40.611  28.679  29.629  1.00  0.00    -0.354 N 
ATOM     39  C   UNL A   1      39.482  30.998  33.086  1.00  0.00     0.074 A 
ATOM     40  C   UNL A   1      38.257  31.732  32.844  1.00  0.00     0.031 C 
ATOM     41  C   UNL A   1      40.375  27.830  27.574  1.00  0.00     0.029 A 
ATOM     42  C   UNL A   1      41.243  27.834  28.751  1.00  0.00     0.049 A 
ATOM     43  H   UNL A   1      40.961  28.884  30.526  1.00  0.00     0.167 HD
ATOM     44  C   UNL A   1      40.178  31.032  34.249  1.00  0.00     0.037 A 
ATOM     45  C   UNL A   1      42.390  27.141  28.884  1.00  0.00     0.037 A 
ATOM     46  C   UNL A   1      41.396  30.304  34.493  1.00  0.00     0.049 A 
ATOM     47  C   UNL A   1      43.156  27.217  30.178  1.00  0.00     0.074 A 
ATOM     48  C   UNL A   1      42.172  30.279  35.639  1.00  0.00     0.029 A 
ATOM     49  N   UNL A   1      42.017  29.475  33.573  1.00  0.00    -0.354 N 
ATOM     50  N   UNL A   1      42.871  27.878  31.273  1.00  0.00    -0.248 NA
ATOM     51  C   UNL A   1      44.403  26.441  30.254  1.00  0.00     0.031 C 
ATOM     52  C   UNL A   1      43.281  29.458  35.400  1.00  0.00     0.029 A 
ATOM     53  C   UNL A   1      43.173  28.941  34.120  1.00  0.00     0.049 A 
ATOM     54  H   UNL A   1      41.685  29.291  32.663  1.00  0.00     0.167 HD
ATOM     55  C   UNL A   1      43.885  27.580  32.174  1.00  0.00     0.074 A 
ATOM     56  C   UNL A   1      44.785  26.666  31.504  1.00  0.00     0.031 C 
ATOM     57  C   UNL A   1      44.055  28.027  33.442  1.00  0.00     0.037 A 
BRANCH  44  58
ATOM     58  C   UNL A   1      39.641  31.903  35.344  1.00  0.00     0.064 A 
ATOM     59  C   UNL A   1      40.044  33.240  35.483  1.00  0.00     0.173 A 
ATOM     60  C   UNL A   1      38.694  31.404  36.250  1.00  0.00     0.173 A 
ATOM     61  F   UNL A   1      40.958  33.758  34.649  1.00  0.00    -0.203 F 
ATOM     62  C   UNL A   1      39.533  34.039  36.501  1.00  0.00     0.198 A 
ATOM     63  C   UNL A   1      38.167  32.213  37.254  1.00  0.00     0.198 A 
ATOM     64  F   UNL A   1      38.274  30.133  36.158  1.00  0.00    -0.203 F 
ATOM     65  F   UNL A   1      39.961  35.301  36.640  1.00  0.00    -0.200 F 
ATOM     66  C   UNL A   1      38.591  33.526  37.382  1.00  0.00     0.200 A 
ATOM     67  F   UNL A   1      37.252  31.719  38.099  1.00  0.00    -0.200 F 
ATOM     68  F   UNL A   1      38.098  34.298  38.361  1.00  0.00    -0.200 F 
ENDBRANCH  44  58
BRANCH  45  69
ATOM     69  C   UNL A   1      42.877  26.296  27.765  1.00  0.00     0.064 A 
ATOM     70  C   UNL A   1      42.487  24.954  27.651  1.00  0.00     0.173 A 
ATOM     71  C   UNL A   1      43.753  26.808  26.797  1.00  0.00     0.173 A 
ATOM     72  F   UNL A   1      41.672  24.414  28.569  1.00  0.00    -0.203 F 
ATOM     73  C   UNL A   1      42.966  24.152  26.617  1.00  0.00     0.198 A 
ATOM     74  C   UNL A   1      44.212  26.012  25.750  1.00  0.00     0.198 A 
ATOM     75  F   UNL A   1      44.157  28.084  26.866  1.00  0.00    -0.203 F 
ATOM     76  F   UNL A   1      42.612  22.861  26.556  1.00  0.00    -0.200 F 
ATOM     77  C   UNL A   1      43.824  24.683  25.665  1.00  0.00     0.200 A 
ATOM     78  F   UNL A   1      45.034  26.530  24.827  1.00  0.00    -0.200 F 
ATOM     79  F   UNL A   1      44.284  23.911  24.671  1.00  0.00    -0.200 F 
ENDBRANCH  45  69
BRANCH  57  80
ATOM     80  C   UNL A   1      45.243  27.506  34.198  1.00  0.00     0.064 A 
ATOM     81  C   UNL A   1      46.491  28.143  34.134  1.00  0.00     0.173 A 
ATOM     82  C   UNL A   1      45.125  26.369  35.012  1.00  0.00     0.173 A 
ATOM     83  F   UNL A   1      46.657  29.224  33.358  1.00  0.00    -0.203 F 
ATOM     84  C   UNL A   1      47.586  27.643  34.835  1.00  0.00     0.198 A 
ATOM     85  C   UNL A   1      46.215  25.887  35.731  1.00  0.00     0.198 A 
ATOM     86  F   UNL A   1      43.951  25.728  35.112  1.00  0.00    -0.203 F 
ATOM     87  F   UNL A   1      48.781  28.239  34.722  1.00  0.00    -0.200 F 
ATOM     88  C   UNL A   1      47.446  26.520  35.636  1.00  0.00     0.200 A 
ATOM     89  F   UNL A   1      46.077  24.807  36.512  1.00  0.00    -0.200 F 
ATOM     90  F   UNL A   1      48.500  26.040  36.310  1.00  0.00    -0.200 F 
ENDBRANCH  57  80
ENDBRANCH  31  32
ENDBRANCH  24  26
ENDBRANCH  23  24
ENDBRANCH  22  23
ENDBRANCH   1  22
TORSDOF 14
ENDMDL
