MODEL 1
REMARK VINA RESULT:     -12.1      0.000      0.000
REMARK SMILES COc1ccc(CCN2/C(=[NH+]/C(=O)CCC(=O)OCCOC(=O)c3ccc(-c4c5nc(c(-c6c(F)c(F)c(F)c(F)c6F)c6ccc([nH]6)c(-c6c(F)c(F)c(F)c(F)c6F)c6nc(c(-c7c(F)c(F)c(F)c(F)c7F)c7ccc4[nH]7)C=C6)C=C5)cc3)S[C@@H]3CS(=O)(=O)C[C@@H]32)cc1
REMARK SMILES IDX 16 1 17 2 15 3 14 4 12 5 9 6 10 7 94 8 11 9 87 10 88 11
REMARK SMILES IDX 93 12 89 14 90 15 13 16 91 17 92 18 8 19 7 20 6 21 3 22 4 23
REMARK SMILES IDX 96 24 5 25 95 26 2 27 1 28 18 29 19 30 20 31 21 32 22 33
REMARK SMILES IDX 23 34 24 35 25 36 86 37 26 38 85 39 27 40 28 41 29 42 79 43
REMARK SMILES IDX 30 44 84 45 78 46 80 47 31 48 83 49 77 50 76 51 32 53 64 54
REMARK SMILES IDX 44 55 63 56 45 57 48 58 62 59 81 60 46 61 47 62 61 64 82 65
REMARK SMILES IDX 49 66 33 67 34 68 42 69 35 70 36 71 40 72 43 73 37 74 38 75
REMARK SMILES IDX 41 76 39 77 65 78 66 79 74 80 67 81 68 82 72 83 75 84 69 85
REMARK SMILES IDX 70 86 73 87 71 88 50 89 51 90 59 91 52 92 53 93 57 94 60 95
REMARK SMILES IDX 54 96 55 97 58 98 56 99
REMARK H PARENT 11 13 80 52 48 63
REMARK Flexibility Score: inf
ROOT
ATOM      1  C   UNL A   1      35.904  22.908  23.497  1.00  0.00     0.306 C 
ATOM      2  O   UNL A   1      36.547  22.953  22.457  1.00  0.00    -0.252 OA
ENDROOT
BRANCH   1   3
ATOM      3  C   UNL A   1      34.537  23.525  23.655  1.00  0.00     0.135 C 
BRANCH   3   4
ATOM      4  C   UNL A   1      33.762  23.537  22.347  1.00  0.00     0.139 C 
BRANCH   4   5
ATOM      5  C   UNL A   1      33.121  24.876  22.035  1.00  0.00     0.308 C 
ATOM      6  N   UNL A   1      31.385  27.113  24.315  1.00  0.00    -0.251 N 
ATOM      7  C   UNL A   1      32.223  26.598  23.321  1.00  0.00     0.314 C 
ATOM      8  C   UNL A   1      31.530  28.554  24.584  1.00  0.00     0.206 C 
ATOM      9  N   UNL A   1      32.290  25.344  23.020  1.00  0.00    -0.205 N 
ATOM     10  S   UNL A   1      33.186  27.882  22.598  1.00  0.00    -0.030 SA
ATOM     11  C   UNL A   1      32.889  28.986  23.987  1.00  0.00     0.120 C 
ATOM     12  C   UNL A   1      31.530  28.967  26.054  1.00  0.00     0.187 C 
ATOM     13  H   UNL A   1      31.727  24.704  23.513  1.00  0.00     0.316 HD
ATOM     14  C   UNL A   1      33.963  28.769  25.036  1.00  0.00     0.156 C 
ATOM     15  S   UNL A   1      33.197  29.375  26.503  1.00  0.00     0.155 S 
ATOM     16  O   UNL A   1      33.276  25.386  20.929  1.00  0.00    -0.247 OA
ATOM     17  O   UNL A   1      33.599  28.548  27.623  1.00  0.00    -0.229 OA
ATOM     18  O   UNL A   1      33.325  30.815  26.518  1.00  0.00    -0.229 OA
BRANCH   6  19
ATOM     19  C   UNL A   1      30.248  26.261  24.725  1.00  0.00     0.242 C 
BRANCH  19  20
ATOM     20  C   UNL A   1      30.297  25.371  25.971  1.00  0.00     0.081 C 
BRANCH  20  21
ATOM     21  C   UNL A   1      31.146  24.122  25.979  1.00  0.00    -0.044 A 
ATOM     22  C   UNL A   1      32.724  21.796  26.207  1.00  0.00     0.118 A 
ATOM     23  C   UNL A   1      31.704  21.872  25.261  1.00  0.00     0.046 A 
ATOM     24  C   UNL A   1      33.000  22.900  27.007  1.00  0.00     0.046 A 
ATOM     25  C   UNL A   1      30.930  23.029  25.138  1.00  0.00     0.007 A 
ATOM     26  C   UNL A   1      32.205  24.047  26.904  1.00  0.00     0.007 A 
BRANCH  22  27
ATOM     27  O   UNL A   1      33.423  20.622  26.229  1.00  0.00    -0.497 OA
ATOM     28  C   UNL A   1      32.906  19.603  25.377  1.00  0.00     0.278 C 
ENDBRANCH  22  27
ENDBRANCH  20  21
ENDBRANCH  19  20
ENDBRANCH   6  19
ENDBRANCH   4   5
ENDBRANCH   3   4
ENDBRANCH   1   3
BRANCH   1  29
ATOM     29  O   UNL A   1      36.302  22.301  24.641  1.00  0.00    -0.462 OA
BRANCH  29  30
ATOM     30  C   UNL A   1      36.383  20.864  24.626  1.00  0.00     0.274 C 
BRANCH  30  31
ATOM     31  C   UNL A   1      37.792  20.400  25.002  1.00  0.00     0.275 C 
BRANCH  31  32
ATOM     32  O   UNL A   1      38.251  21.118  26.158  1.00  0.00    -0.458 OA
BRANCH  32  33
ATOM     33  C   UNL A   1      39.581  21.101  26.376  1.00  0.00     0.338 C 
ATOM     34  O   UNL A   1      40.366  20.185  26.179  1.00  0.00    -0.246 OA
BRANCH  33  35
ATOM     35  C   UNL A   1      39.991  22.429  26.835  1.00  0.00     0.060 A 
ATOM     36  C   UNL A   1      39.340  23.554  26.318  1.00  0.00     0.016 A 
ATOM     37  C   UNL A   1      41.059  22.559  27.722  1.00  0.00     0.016 A 
ATOM     38  C   UNL A   1      39.775  24.826  26.674  1.00  0.00     0.010 A 
ATOM     39  C   UNL A   1      41.487  23.835  28.087  1.00  0.00     0.010 A 
ATOM     40  C   UNL A   1      40.864  24.973  27.545  1.00  0.00    -0.014 A 
BRANCH  40  41
ATOM     41  C   UNL A   1      41.420  26.319  27.806  1.00  0.00     0.031 A 
ATOM     42  C   UNL A   1      42.802  26.643  27.318  1.00  0.00     0.074 A 
ATOM     43  C   UNL A   1      40.688  27.239  28.458  1.00  0.00     0.049 A 
ATOM     44  N   UNL A   1      43.509  27.730  27.486  1.00  0.00    -0.248 NA
ATOM     45  C   UNL A   1      43.483  25.596  26.539  1.00  0.00     0.031 C 
ATOM     46  C   UNL A   1      39.324  27.043  28.945  1.00  0.00     0.029 A 
ATOM     47  N   UNL A   1      40.997  28.524  28.826  1.00  0.00    -0.354 N 
ATOM     48  C   UNL A   1      44.723  27.491  26.855  1.00  0.00     0.074 A 
ATOM     49  C   UNL A   1      44.667  26.149  26.319  1.00  0.00     0.031 C 
ATOM     50  C   UNL A   1      38.910  28.171  29.547  1.00  0.00     0.029 A 
ATOM     51  C   UNL A   1      39.993  29.151  29.519  1.00  0.00     0.049 A 
ATOM     52  H   UNL A   1      41.856  28.954  28.613  1.00  0.00     0.167 HD
ATOM     53  C   UNL A   1      45.785  28.323  26.730  1.00  0.00     0.037 A 
ATOM     54  C   UNL A   1      39.963  30.375  30.079  1.00  0.00     0.037 A 
ATOM     55  C   UNL A   1      45.824  29.664  27.252  1.00  0.00     0.049 A 
ATOM     56  C   UNL A   1      41.171  31.266  29.953  1.00  0.00     0.074 A 
ATOM     57  C   UNL A   1      46.845  30.594  27.171  1.00  0.00     0.029 A 
ATOM     58  N   UNL A   1      44.789  30.266  27.953  1.00  0.00    -0.354 N 
ATOM     59  N   UNL A   1      42.310  31.038  29.345  1.00  0.00    -0.248 NA
ATOM     60  C   UNL A   1      41.084  32.589  30.588  1.00  0.00     0.031 C 
ATOM     61  C   UNL A   1      46.442  31.746  27.856  1.00  0.00     0.029 A 
ATOM     62  C   UNL A   1      45.151  31.551  28.321  1.00  0.00     0.049 A 
ATOM     63  H   UNL A   1      43.924  29.842  28.159  1.00  0.00     0.167 HD
ATOM     64  C   UNL A   1      43.059  32.199  29.491  1.00  0.00     0.074 A 
ATOM     65  C   UNL A   1      42.240  33.132  30.238  1.00  0.00     0.031 C 
ATOM     66  C   UNL A   1      44.311  32.470  29.045  1.00  0.00     0.037 A 
BRANCH  53  67
ATOM     67  C   UNL A   1      46.998  27.795  26.025  1.00  0.00     0.064 A 
ATOM     68  C   UNL A   1      47.092  27.778  24.625  1.00  0.00     0.173 A 
ATOM     69  C   UNL A   1      48.093  27.319  26.762  1.00  0.00     0.173 A 
ATOM     70  F   UNL A   1      46.066  28.206  23.875  1.00  0.00    -0.203 F 
ATOM     71  C   UNL A   1      48.228  27.283  23.990  1.00  0.00     0.198 A 
ATOM     72  C   UNL A   1      49.238  26.851  26.124  1.00  0.00     0.198 A 
ATOM     73  F   UNL A   1      48.055  27.313  28.103  1.00  0.00    -0.203 F 
ATOM     74  F   UNL A   1      48.278  27.235  22.651  1.00  0.00    -0.200 F 
ATOM     75  C   UNL A   1      49.302  26.827  24.739  1.00  0.00     0.200 A 
ATOM     76  F   UNL A   1      50.280  26.419  26.849  1.00  0.00    -0.200 F 
ATOM     77  F   UNL A   1      50.397  26.356  24.126  1.00  0.00    -0.200 F 
ENDBRANCH  53  67
BRANCH  54  78
ATOM     78  C   UNL A   1      38.749  30.836  30.803  1.00  0.00     0.064 A 
ATOM     79  C   UNL A   1      37.694  31.455  30.118  1.00  0.00     0.173 A 
ATOM     80  C   UNL A   1      38.630  30.691  32.193  1.00  0.00     0.173 A 
ATOM     81  F   UNL A   1      37.773  31.639  28.792  1.00  0.00    -0.203 F 
ATOM     82  C   UNL A   1      36.577  31.933  30.799  1.00  0.00     0.198 A 
ATOM     83  C   UNL A   1      37.499  31.144  32.869  1.00  0.00     0.198 A 
ATOM     84  F   UNL A   1      39.612  30.107  32.895  1.00  0.00    -0.203 F 
ATOM     85  F   UNL A   1      35.607  32.568  30.127  1.00  0.00    -0.200 F 
ATOM     86  C   UNL A   1      36.478  31.774  32.173  1.00  0.00     0.200 A 
ATOM     87  F   UNL A   1      37.403  30.979  34.195  1.00  0.00    -0.200 F 
ATOM     88  F   UNL A   1      35.404  32.236  32.828  1.00  0.00    -0.200 F 
ENDBRANCH  54  78
BRANCH  66  89
ATOM     89  C   UNL A   1      44.844  33.849  29.301  1.00  0.00     0.064 A 
ATOM     90  C   UNL A   1      45.593  34.153  30.447  1.00  0.00     0.173 A 
ATOM     91  C   UNL A   1      44.620  34.876  28.370  1.00  0.00     0.173 A 
ATOM     92  F   UNL A   1      45.823  33.210  31.374  1.00  0.00    -0.203 F 
ATOM     93  C   UNL A   1      46.070  35.443  30.668  1.00  0.00     0.198 A 
ATOM     94  C   UNL A   1      45.125  36.155  28.580  1.00  0.00     0.198 A 
ATOM     95  F   UNL A   1      43.917  34.634  27.254  1.00  0.00    -0.203 F 
ATOM     96  F   UNL A   1      46.736  35.723  31.797  1.00  0.00    -0.200 F 
ATOM     97  C   UNL A   1      45.841  36.440  29.733  1.00  0.00     0.200 A 
ATOM     98  F   UNL A   1      44.914  37.115  27.667  1.00  0.00    -0.200 F 
ATOM     99  F   UNL A   1      46.302  37.680  29.946  1.00  0.00    -0.200 F 
ENDBRANCH  66  89
ENDBRANCH  40  41
ENDBRANCH  33  35
ENDBRANCH  32  33
ENDBRANCH  31  32
ENDBRANCH  30  31
ENDBRANCH  29  30
ENDBRANCH   1  29
TORSDOF 17
ENDMDL
MODEL 2
REMARK VINA RESULT:     -12.1      4.094      7.165
REMARK SMILES COc1ccc(CCN2/C(=[NH+]/C(=O)CCC(=O)OCCOC(=O)c3ccc(-c4c5nc(c(-c6c(F)c(F)c(F)c(F)c6F)c6ccc([nH]6)c(-c6c(F)c(F)c(F)c(F)c6F)c6nc(c(-c7c(F)c(F)c(F)c(F)c7F)c7ccc4[nH]7)C=C6)C=C5)cc3)S[C@@H]3CS(=O)(=O)C[C@@H]32)cc1
REMARK SMILES IDX 16 1 17 2 15 3 14 4 12 5 9 6 10 7 94 8 11 9 87 10 88 11
REMARK SMILES IDX 93 12 89 14 90 15 13 16 91 17 92 18 8 19 7 20 6 21 3 22 4 23
REMARK SMILES IDX 96 24 5 25 95 26 2 27 1 28 18 29 19 30 20 31 21 32 22 33
REMARK SMILES IDX 23 34 24 35 25 36 86 37 26 38 85 39 27 40 28 41 29 42 79 43
REMARK SMILES IDX 30 44 84 45 78 46 80 47 31 48 83 49 77 50 76 51 32 53 64 54
REMARK SMILES IDX 44 55 63 56 45 57 48 58 62 59 81 60 46 61 47 62 61 64 82 65
REMARK SMILES IDX 49 66 33 67 34 68 42 69 35 70 36 71 40 72 43 73 37 74 38 75
REMARK SMILES IDX 41 76 39 77 65 78 66 79 74 80 67 81 68 82 72 83 75 84 69 85
REMARK SMILES IDX 70 86 73 87 71 88 50 89 51 90 59 91 52 92 53 93 57 94 60 95
REMARK SMILES IDX 54 96 55 97 58 98 56 99
REMARK H PARENT 11 13 80 52 48 63
REMARK Flexibility Score: inf
ROOT
ATOM      1  C   UNL A   1      32.282  26.717  25.641  1.00  0.00     0.306 C 
ATOM      2  O   UNL A   1      33.383  26.260  25.914  1.00  0.00    -0.252 OA
ENDROOT
BRANCH   1   3
ATOM      3  C   UNL A   1      31.236  25.956  24.867  1.00  0.00     0.135 C 
BRANCH   3   4
ATOM      4  C   UNL A   1      30.291  25.194  25.782  1.00  0.00     0.139 C 
BRANCH   4   5
ATOM      5  C   UNL A   1      30.821  23.837  26.208  1.00  0.00     0.308 C 
ATOM      6  N   UNL A   1      33.466  21.882  24.660  1.00  0.00    -0.251 N 
ATOM      7  C   UNL A   1      32.647  22.529  25.591  1.00  0.00     0.314 C 
ATOM      8  C   UNL A   1      34.667  21.234  25.216  1.00  0.00     0.206 C 
ATOM      9  N   UNL A   1      31.605  23.220  25.267  1.00  0.00    -0.205 N 
ATOM     10  S   UNL A   1      33.267  22.306  27.223  1.00  0.00    -0.030 SA
ATOM     11  C   UNL A   1      34.897  21.843  26.618  1.00  0.00     0.120 C 
ATOM     12  C   UNL A   1      35.959  21.421  24.425  1.00  0.00     0.187 C 
ATOM     13  H   UNL A   1      31.366  23.307  24.316  1.00  0.00     0.316 HD
ATOM     14  C   UNL A   1      35.746  23.090  26.464  1.00  0.00     0.156 C 
ATOM     15  S   UNL A   1      36.971  22.583  25.304  1.00  0.00     0.155 S 
ATOM     16  O   UNL A   1      30.446  23.338  27.265  1.00  0.00    -0.247 OA
ATOM     17  O   UNL A   1      37.283  23.695  24.428  1.00  0.00    -0.229 OA
ATOM     18  O   UNL A   1      37.992  21.849  26.018  1.00  0.00    -0.229 OA
BRANCH   6  19
ATOM     19  C   UNL A   1      32.880  21.631  23.327  1.00  0.00     0.242 C 
BRANCH  19  20
ATOM     20  C   UNL A   1      32.051  20.380  23.017  1.00  0.00     0.081 C 
BRANCH  20  21
ATOM     21  C   UNL A   1      32.459  19.040  23.578  1.00  0.00    -0.044 A 
ATOM     22  C   UNL A   1      33.396  16.545  24.505  1.00  0.00     0.118 A 
ATOM     23  C   UNL A   1      32.847  17.472  25.389  1.00  0.00     0.046 A 
ATOM     24  C   UNL A   1      33.430  16.836  23.144  1.00  0.00     0.046 A 
ATOM     25  C   UNL A   1      32.370  18.702  24.930  1.00  0.00     0.007 A 
ATOM     26  C   UNL A   1      32.980  18.080  22.689  1.00  0.00     0.007 A 
BRANCH  22  27
ATOM     27  O   UNL A   1      33.817  15.372  25.063  1.00  0.00    -0.497 OA
ATOM     28  C   UNL A   1      32.782  14.579  25.639  1.00  0.00     0.278 C 
ENDBRANCH  22  27
ENDBRANCH  20  21
ENDBRANCH  19  20
ENDBRANCH   6  19
ENDBRANCH   4   5
ENDBRANCH   3   4
ENDBRANCH   1   3
BRANCH   1  29
ATOM     29  O   UNL A   1      31.832  27.946  25.993  1.00  0.00    -0.462 OA
BRANCH  29  30
ATOM     30  C   UNL A   1      31.988  29.001  25.026  1.00  0.00     0.274 C 
BRANCH  30  31
ATOM     31  C   UNL A   1      31.783  30.367  25.682  1.00  0.00     0.275 C 
BRANCH  31  32
ATOM     32  O   UNL A   1      32.462  30.409  26.948  1.00  0.00    -0.458 OA
BRANCH  32  33
ATOM     33  C   UNL A   1      33.111  31.555  27.234  1.00  0.00     0.338 C 
ATOM     34  O   UNL A   1      32.708  32.702  27.107  1.00  0.00    -0.246 OA
BRANCH  33  35
ATOM     35  C   UNL A   1      34.409  31.218  27.820  1.00  0.00     0.060 A 
ATOM     36  C   UNL A   1      34.697  29.879  28.102  1.00  0.00     0.016 A 
ATOM     37  C   UNL A   1      35.308  32.232  28.149  1.00  0.00     0.016 A 
ATOM     38  C   UNL A   1      35.887  29.549  28.740  1.00  0.00     0.010 A 
ATOM     39  C   UNL A   1      36.507  31.899  28.779  1.00  0.00     0.010 A 
ATOM     40  C   UNL A   1      36.789  30.559  29.100  1.00  0.00    -0.014 A 
BRANCH  40  41
ATOM     41  C   UNL A   1      37.982  30.226  29.909  1.00  0.00     0.031 A 
ATOM     42  C   UNL A   1      39.020  29.308  29.333  1.00  0.00     0.074 A 
ATOM     43  C   UNL A   1      38.135  30.752  31.137  1.00  0.00     0.049 A 
ATOM     44  N   UNL A   1      40.107  28.833  29.883  1.00  0.00    -0.248 NA
ATOM     45  C   UNL A   1      38.800  28.857  27.949  1.00  0.00     0.031 C 
ATOM     46  C   UNL A   1      37.207  31.680  31.780  1.00  0.00     0.029 A 
ATOM     47  N   UNL A   1      39.131  30.573  32.064  1.00  0.00    -0.354 N 
ATOM     48  C   UNL A   1      40.688  28.014  28.924  1.00  0.00     0.074 A 
ATOM     49  C   UNL A   1      39.823  28.037  27.764  1.00  0.00     0.031 C 
ATOM     50  C   UNL A   1      37.679  31.993  32.999  1.00  0.00     0.029 A 
ATOM     51  C   UNL A   1      38.920  31.259  33.233  1.00  0.00     0.049 A 
ATOM     52  H   UNL A   1      39.920  30.007  31.905  1.00  0.00     0.167 HD
ATOM     53  C   UNL A   1      41.843  27.312  29.005  1.00  0.00     0.037 A 
ATOM     54  C   UNL A   1      39.645  31.277  34.368  1.00  0.00     0.037 A 
ATOM     55  C   UNL A   1      42.707  27.310  30.157  1.00  0.00     0.049 A 
ATOM     56  C   UNL A   1      40.908  30.460  34.440  1.00  0.00     0.074 A 
ATOM     57  C   UNL A   1      43.905  26.643  30.338  1.00  0.00     0.029 A 
ATOM     58  N   UNL A   1      42.460  28.014  31.326  1.00  0.00    -0.354 N 
ATOM     59  N   UNL A   1      41.457  29.697  33.526  1.00  0.00    -0.248 NA
ATOM     60  C   UNL A   1      41.656  30.513  35.705  1.00  0.00     0.031 C 
ATOM     61  C   UNL A   1      44.365  26.914  31.632  1.00  0.00     0.029 A 
ATOM     62  C   UNL A   1      43.478  27.789  32.238  1.00  0.00     0.049 A 
ATOM     63  H   UNL A   1      41.676  28.590  31.485  1.00  0.00     0.167 HD
ATOM     64  C   UNL A   1      42.630  29.211  34.088  1.00  0.00     0.074 A 
ATOM     65  C   UNL A   1      42.717  29.773  35.421  1.00  0.00     0.031 C 
ATOM     66  C   UNL A   1      43.554  28.376  33.551  1.00  0.00     0.037 A 
BRANCH  53  67
ATOM     67  C   UNL A   1      42.225  26.469  27.825  1.00  0.00     0.064 A 
ATOM     68  C   UNL A   1      43.151  26.910  26.867  1.00  0.00     0.173 A 
ATOM     69  C   UNL A   1      41.672  25.190  27.661  1.00  0.00     0.173 A 
ATOM     70  F   UNL A   1      43.694  28.132  26.968  1.00  0.00    -0.203 F 
ATOM     71  C   UNL A   1      43.491  26.112  25.778  1.00  0.00     0.198 A 
ATOM     72  C   UNL A   1      42.035  24.383  26.587  1.00  0.00     0.198 A 
ATOM     73  F   UNL A   1      40.782  24.718  28.548  1.00  0.00    -0.203 F 
ATOM     74  F   UNL A   1      44.343  26.573  24.852  1.00  0.00    -0.200 F 
ATOM     75  C   UNL A   1      42.938  24.847  25.643  1.00  0.00     0.200 A 
ATOM     76  F   UNL A   1      41.509  23.157  26.462  1.00  0.00    -0.200 F 
ATOM     77  F   UNL A   1      43.272  24.077  24.597  1.00  0.00    -0.200 F 
ENDBRANCH  53  67
BRANCH  54  78
ATOM     78  C   UNL A   1      39.202  32.098  35.524  1.00  0.00     0.064 A 
ATOM     79  C   UNL A   1      39.600  33.436  35.653  1.00  0.00     0.173 A 
ATOM     80  C   UNL A   1      38.394  31.558  36.536  1.00  0.00     0.173 A 
ATOM     81  F   UNL A   1      40.393  33.990  34.723  1.00  0.00    -0.203 F 
ATOM     82  C   UNL A   1      39.228  34.195  36.760  1.00  0.00     0.198 A 
ATOM     83  C   UNL A   1      37.999  32.327  37.629  1.00  0.00     0.198 A 
ATOM     84  F   UNL A   1      37.986  30.282  36.461  1.00  0.00    -0.203 F 
ATOM     85  F   UNL A   1      39.667  35.454  36.883  1.00  0.00    -0.200 F 
ATOM     86  C   UNL A   1      38.425  33.642  37.745  1.00  0.00     0.200 A 
ATOM     87  F   UNL A   1      37.214  31.791  38.573  1.00  0.00    -0.200 F 
ATOM     88  F   UNL A   1      38.069  34.371  38.811  1.00  0.00    -0.200 F 
ENDBRANCH  54  78
BRANCH  66  89
ATOM     89  C   UNL A   1      44.766  28.072  34.382  1.00  0.00     0.064 A 
ATOM     90  C   UNL A   1      44.817  26.964  35.239  1.00  0.00     0.173 A 
ATOM     91  C   UNL A   1      45.903  28.891  34.297  1.00  0.00     0.173 A 
ATOM     92  F   UNL A   1      43.751  26.158  35.367  1.00  0.00    -0.203 F 
ATOM     93  C   UNL A   1      45.949  26.706  36.009  1.00  0.00     0.198 A 
ATOM     94  C   UNL A   1      47.043  28.612  35.043  1.00  0.00     0.198 A 
ATOM     95  F   UNL A   1      45.908  29.958  33.484  1.00  0.00    -0.203 F 
ATOM     96  F   UNL A   1      45.955  25.673  36.863  1.00  0.00    -0.200 F 
ATOM     97  C   UNL A   1      47.062  27.526  35.905  1.00  0.00     0.200 A 
ATOM     98  F   UNL A   1      48.124  29.399  34.932  1.00  0.00    -0.200 F 
ATOM     99  F   UNL A   1      48.151  27.276  36.644  1.00  0.00    -0.200 F 
ENDBRANCH  66  89
ENDBRANCH  40  41
ENDBRANCH  33  35
ENDBRANCH  32  33
ENDBRANCH  31  32
ENDBRANCH  30  31
ENDBRANCH  29  30
ENDBRANCH   1  29
TORSDOF 17
ENDMDL
MODEL 3
REMARK VINA RESULT:     -11.9      4.094      9.616
REMARK SMILES COc1ccc(CCN2/C(=[NH+]/C(=O)CCC(=O)OCCOC(=O)c3ccc(-c4c5nc(c(-c6c(F)c(F)c(F)c(F)c6F)c6ccc([nH]6)c(-c6c(F)c(F)c(F)c(F)c6F)c6nc(c(-c7c(F)c(F)c(F)c(F)c7F)c7ccc4[nH]7)C=C6)C=C5)cc3)S[C@@H]3CS(=O)(=O)C[C@@H]32)cc1
REMARK SMILES IDX 16 1 17 2 15 3 14 4 12 5 9 6 10 7 94 8 11 9 87 10 88 11
REMARK SMILES IDX 93 12 89 14 90 15 13 16 91 17 92 18 8 19 7 20 6 21 3 22 4 23
REMARK SMILES IDX 96 24 5 25 95 26 2 27 1 28 18 29 19 30 20 31 21 32 22 33
REMARK SMILES IDX 23 34 24 35 25 36 86 37 26 38 85 39 27 40 28 41 29 42 79 43
REMARK SMILES IDX 30 44 84 45 78 46 80 47 31 48 83 49 77 50 76 51 32 53 64 54
REMARK SMILES IDX 44 55 63 56 45 57 48 58 62 59 81 60 46 61 47 62 61 64 82 65
REMARK SMILES IDX 49 66 33 67 34 68 42 69 35 70 36 71 40 72 43 73 37 74 38 75
REMARK SMILES IDX 41 76 39 77 65 78 66 79 74 80 67 81 68 82 72 83 75 84 69 85
REMARK SMILES IDX 70 86 73 87 71 88 50 89 51 90 59 91 52 92 53 93 57 94 60 95
REMARK SMILES IDX 54 96 55 97 58 98 56 99
REMARK H PARENT 11 13 80 52 48 63
REMARK Flexibility Score: inf
ROOT
ATOM      1  C   UNL A   1      31.864  26.843  26.052  1.00  0.00     0.306 C 
ATOM      2  O   UNL A   1      32.886  26.450  26.596  1.00  0.00    -0.252 OA
ENDROOT
BRANCH   1   3
ATOM      3  C   UNL A   1      30.926  25.938  25.293  1.00  0.00     0.135 C 
BRANCH   3   4
ATOM      4  C   UNL A   1      30.052  25.114  26.224  1.00  0.00     0.139 C 
BRANCH   4   5
ATOM      5  C   UNL A   1      30.595  23.723  26.492  1.00  0.00     0.308 C 
ATOM      6  N   UNL A   1      33.176  21.935  24.660  1.00  0.00    -0.251 N 
ATOM      7  C   UNL A   1      32.393  22.485  25.680  1.00  0.00     0.314 C 
ATOM      8  C   UNL A   1      34.395  21.237  25.103  1.00  0.00     0.206 C 
ATOM      9  N   UNL A   1      31.342  23.204  25.466  1.00  0.00    -0.205 N 
ATOM     10  S   UNL A   1      33.073  22.101  27.257  1.00  0.00    -0.030 SA
ATOM     11  C   UNL A   1      34.678  21.703  26.550  1.00  0.00     0.120 C 
ATOM     12  C   UNL A   1      35.658  21.504  24.287  1.00  0.00     0.187 C 
ATOM     13  H   UNL A   1      31.068  23.384  24.538  1.00  0.00     0.316 HD
ATOM     14  C   UNL A   1      35.523  22.961  26.490  1.00  0.00     0.156 C 
ATOM     15  S   UNL A   1      36.704  22.573  25.240  1.00  0.00     0.155 S 
ATOM     16  O   UNL A   1      30.258  23.119  27.507  1.00  0.00    -0.247 OA
ATOM     17  O   UNL A   1      36.986  23.768  24.469  1.00  0.00    -0.229 OA
ATOM     18  O   UNL A   1      37.749  21.773  25.839  1.00  0.00    -0.229 OA
BRANCH   6  19
ATOM     19  C   UNL A   1      32.540  21.818  23.331  1.00  0.00     0.242 C 
BRANCH  19  20
ATOM     20  C   UNL A   1      32.908  22.736  22.161  1.00  0.00     0.081 C 
BRANCH  20  21
ATOM     21  C   UNL A   1      32.912  24.235  22.344  1.00  0.00    -0.044 A 
ATOM     22  C   UNL A   1      33.129  27.030  22.653  1.00  0.00     0.118 A 
ATOM     23  C   UNL A   1      32.086  26.476  21.914  1.00  0.00     0.046 A 
ATOM     24  C   UNL A   1      34.039  26.191  23.288  1.00  0.00     0.046 A 
ATOM     25  C   UNL A   1      31.969  25.090  21.771  1.00  0.00     0.007 A 
ATOM     26  C   UNL A   1      33.939  24.805  23.120  1.00  0.00     0.007 A 
BRANCH  22  27
ATOM     27  O   UNL A   1      33.136  28.394  22.735  1.00  0.00    -0.497 OA
ATOM     28  C   UNL A   1      31.846  29.000  22.717  1.00  0.00     0.278 C 
ENDBRANCH  22  27
ENDBRANCH  20  21
ENDBRANCH  19  20
ENDBRANCH   6  19
ENDBRANCH   4   5
ENDBRANCH   3   4
ENDBRANCH   1   3
BRANCH   1  29
ATOM     29  O   UNL A   1      31.415  28.122  26.054  1.00  0.00    -0.462 OA
BRANCH  29  30
ATOM     30  C   UNL A   1      31.777  28.941  27.181  1.00  0.00     0.274 C 
BRANCH  30  31
ATOM     31  C   UNL A   1      31.832  30.415  26.779  1.00  0.00     0.275 C 
BRANCH  31  32
ATOM     32  O   UNL A   1      33.191  30.798  26.510  1.00  0.00    -0.458 OA
BRANCH  32  33
ATOM     33  C   UNL A   1      33.711  31.743  27.318  1.00  0.00     0.338 C 
ATOM     34  O   UNL A   1      33.224  32.820  27.632  1.00  0.00    -0.246 OA
BRANCH  33  35
ATOM     35  C   UNL A   1      34.976  31.243  27.859  1.00  0.00     0.060 A 
ATOM     36  C   UNL A   1      35.097  29.879  28.145  1.00  0.00     0.016 A 
ATOM     37  C   UNL A   1      36.011  32.133  28.143  1.00  0.00     0.016 A 
ATOM     38  C   UNL A   1      36.258  29.401  28.742  1.00  0.00     0.010 A 
ATOM     39  C   UNL A   1      37.179  31.650  28.731  1.00  0.00     0.010 A 
ATOM     40  C   UNL A   1      37.298  30.287  29.056  1.00  0.00    -0.014 A 
BRANCH  40  41
ATOM     41  C   UNL A   1      38.467  29.806  29.824  1.00  0.00     0.031 A 
ATOM     42  C   UNL A   1      38.675  30.306  31.224  1.00  0.00     0.074 A 
ATOM     43  C   UNL A   1      39.320  28.923  29.276  1.00  0.00     0.049 A 
ATOM     44  N   UNL A   1      39.658  30.069  32.054  1.00  0.00    -0.248 NA
ATOM     45  C   UNL A   1      37.637  31.201  31.760  1.00  0.00     0.031 C 
ATOM     46  C   UNL A   1      39.195  28.347  27.938  1.00  0.00     0.029 A 
ATOM     47  N   UNL A   1      40.465  28.362  29.780  1.00  0.00    -0.354 N 
ATOM     48  C   UNL A   1      39.368  30.799  33.199  1.00  0.00     0.074 A 
ATOM     49  C   UNL A   1      38.131  31.507  32.951  1.00  0.00     0.031 C 
ATOM     50  C   UNL A   1      40.224  27.508  27.727  1.00  0.00     0.029 A 
ATOM     51  C   UNL A   1      41.095  27.519  28.900  1.00  0.00     0.049 A 
ATOM     52  H   UNL A   1      40.802  28.545  30.687  1.00  0.00     0.167 HD
ATOM     53  C   UNL A   1      40.071  30.867  34.354  1.00  0.00     0.037 A 
ATOM     54  C   UNL A   1      42.255  26.846  29.026  1.00  0.00     0.037 A 
ATOM     55  C   UNL A   1      41.293  30.145  34.597  1.00  0.00     0.049 A 
ATOM     56  C   UNL A   1      43.032  26.966  30.310  1.00  0.00     0.074 A 
ATOM     57  C   UNL A   1      42.078  30.133  35.736  1.00  0.00     0.029 A 
ATOM     58  N   UNL A   1      41.905  29.303  33.680  1.00  0.00    -0.354 N 
ATOM     59  N   UNL A   1      42.747  27.649  31.393  1.00  0.00    -0.248 NA
ATOM     60  C   UNL A   1      44.293  26.214  30.391  1.00  0.00     0.031 C 
ATOM     61  C   UNL A   1      43.186  29.314  35.495  1.00  0.00     0.029 A 
ATOM     62  C   UNL A   1      43.065  28.775  34.224  1.00  0.00     0.049 A 
ATOM     63  H   UNL A   1      41.565  29.108  32.777  1.00  0.00     0.167 HD
ATOM     64  C   UNL A   1      43.769  27.381  32.294  1.00  0.00     0.074 A 
ATOM     65  C   UNL A   1      44.677  26.465  31.633  1.00  0.00     0.031 C 
ATOM     66  C   UNL A   1      43.941  27.848  33.556  1.00  0.00     0.037 A 
BRANCH  53  67
ATOM     67  C   UNL A   1      39.549  31.771  35.430  1.00  0.00     0.064 A 
ATOM     68  C   UNL A   1      38.599  31.336  36.367  1.00  0.00     0.173 A 
ATOM     69  C   UNL A   1      40.024  33.087  35.540  1.00  0.00     0.173 A 
ATOM     70  F   UNL A   1      38.100  30.094  36.294  1.00  0.00    -0.203 F 
ATOM     71  C   UNL A   1      38.126  32.192  37.358  1.00  0.00     0.198 A 
ATOM     72  C   UNL A   1      39.571  33.931  36.550  1.00  0.00     0.198 A 
ATOM     73  F   UNL A   1      40.934  33.553  34.671  1.00  0.00    -0.203 F 
ATOM     74  F   UNL A   1      37.185  31.770  38.213  1.00  0.00    -0.200 F 
ATOM     75  C   UNL A   1      38.618  33.486  37.453  1.00  0.00     0.200 A 
ATOM     76  F   UNL A   1      40.054  35.178  36.647  1.00  0.00    -0.200 F 
ATOM     77  F   UNL A   1      38.167  34.307  38.412  1.00  0.00    -0.200 F 
ENDBRANCH  53  67
BRANCH  54  78
ATOM     78  C   UNL A   1      42.749  25.994  27.914  1.00  0.00     0.064 A 
ATOM     79  C   UNL A   1      42.384  24.644  27.823  1.00  0.00     0.173 A 
ATOM     80  C   UNL A   1      43.616  26.503  26.935  1.00  0.00     0.173 A 
ATOM     81  F   UNL A   1      41.578  24.106  28.749  1.00  0.00    -0.203 F 
ATOM     82  C   UNL A   1      42.884  23.829  26.810  1.00  0.00     0.198 A 
ATOM     83  C   UNL A   1      44.093  25.694  25.905  1.00  0.00     0.198 A 
ATOM     84  F   UNL A   1      43.997  27.788  26.977  1.00  0.00    -0.203 F 
ATOM     85  F   UNL A   1      42.561  22.530  26.778  1.00  0.00    -0.200 F 
ATOM     86  C   UNL A   1      43.735  24.355  25.850  1.00  0.00     0.200 A 
ATOM     87  F   UNL A   1      44.907  26.209  24.974  1.00  0.00    -0.200 F 
ATOM     88  F   UNL A   1      44.218  23.570  24.877  1.00  0.00    -0.200 F 
ENDBRANCH  54  78
BRANCH  66  89
ATOM     89  C   UNL A   1      45.122  27.328  34.322  1.00  0.00     0.064 A 
ATOM     90  C   UNL A   1      46.361  27.983  34.309  1.00  0.00     0.173 A 
ATOM     91  C   UNL A   1      44.999  26.167  35.103  1.00  0.00     0.173 A 
ATOM     92  F   UNL A   1      46.533  29.088  33.567  1.00  0.00    -0.203 F 
ATOM     93  C   UNL A   1      47.446  27.476  35.021  1.00  0.00     0.198 A 
ATOM     94  C   UNL A   1      46.076  25.681  35.837  1.00  0.00     0.198 A 
ATOM     95  F   UNL A   1      43.832  25.509  35.156  1.00  0.00    -0.203 F 
ATOM     96  F   UNL A   1      48.636  28.088  34.949  1.00  0.00    -0.200 F 
ATOM     97  C   UNL A   1      47.301  26.330  35.789  1.00  0.00     0.200 A 
ATOM     98  F   UNL A   1      45.930  24.581  36.590  1.00  0.00    -0.200 F 
ATOM     99  F   UNL A   1      48.344  25.845  36.474  1.00  0.00    -0.200 F 
ENDBRANCH  66  89
ENDBRANCH  40  41
ENDBRANCH  33  35
ENDBRANCH  32  33
ENDBRANCH  31  32
ENDBRANCH  30  31
ENDBRANCH  29  30
ENDBRANCH   1  29
TORSDOF 17
ENDMDL
