MODEL 1
REMARK VINA RESULT:      -9.9      0.000      0.000
REMARK SMILES O=C(OCCOC(=O)C1(C/C=C/c2ccccc2)CCCCC1)c1ccc(-c2c3nc(c(-c4c(F)c(F)c(F)c(F)c4F)c4ccc([nH]4)c(-c4c(F)c(F)c(F)c(F)c4F)c4nc(c(-c5c(F)c(F)c(F)c(F)c5F)c5ccc2[nH]5)C=C4)C=C3)cc1
REMARK SMILES IDX 5 1 4 2 3 3 2 4 1 5 24 6 25 7 86 8 26 9 85 10 27 11 28 12
REMARK SMILES IDX 29 13 79 14 30 15 84 16 78 17 80 18 31 19 83 20 77 21 76 22
REMARK SMILES IDX 32 24 64 25 44 26 63 27 45 28 48 29 62 30 81 31 46 32 47 33
REMARK SMILES IDX 61 35 82 36 49 37 33 38 34 39 42 40 35 41 36 42 40 43 43 44
REMARK SMILES IDX 37 45 38 46 41 47 39 48 65 49 66 50 74 51 67 52 68 53 72 54
REMARK SMILES IDX 75 55 69 56 70 57 73 58 71 59 50 60 51 61 59 62 52 63 53 64
REMARK SMILES IDX 57 65 60 66 54 67 55 68 58 69 56 70 6 71 7 72 8 73 9 74
REMARK SMILES IDX 19 75 23 76 20 77 22 78 21 79 10 80 11 81 12 82 13 83 14 84
REMARK SMILES IDX 18 85 15 86 17 87 16 88
REMARK H PARENT 80 23 48 34
REMARK Flexibility Score: inf
ROOT
ATOM      1  C   UNL A   1      33.847  34.167  29.199  1.00  0.00     0.274 C 
ENDROOT
BRANCH   1   2
ATOM      2  C   UNL A   1      34.486  33.182  28.225  1.00  0.00     0.275 C 
BRANCH   2   3
ATOM      3  O   UNL A   1      33.975  31.844  28.337  1.00  0.00    -0.458 OA
BRANCH   3   4
ATOM      4  C   UNL A   1      34.434  30.672  27.845  1.00  0.00     0.338 C 
ATOM      5  O   UNL A   1      33.630  29.950  27.253  1.00  0.00    -0.246 OA
BRANCH   4   6
ATOM      6  C   UNL A   1      35.828  30.134  28.025  1.00  0.00     0.060 A 
ATOM      7  C   UNL A   1      36.879  30.158  27.100  1.00  0.00     0.016 A 
ATOM      8  C   UNL A   1      36.104  29.589  29.293  1.00  0.00     0.016 A 
ATOM      9  C   UNL A   1      38.191  29.788  27.465  1.00  0.00     0.010 A 
ATOM     10  C   UNL A   1      37.404  29.232  29.664  1.00  0.00     0.010 A 
ATOM     11  C   UNL A   1      38.475  29.372  28.765  1.00  0.00    -0.014 A 
BRANCH  11  12
ATOM     12  C   UNL A   1      39.822  28.892  29.170  1.00  0.00     0.031 A 
ATOM     13  C   UNL A   1      40.646  29.855  29.954  1.00  0.00     0.074 A 
ATOM     14  C   UNL A   1      40.351  27.715  28.783  1.00  0.00     0.049 A 
ATOM     15  N   UNL A   1      41.914  29.811  30.255  1.00  0.00    -0.248 NA
ATOM     16  C   UNL A   1      39.949  31.073  30.397  1.00  0.00     0.031 C 
ATOM     17  C   UNL A   1      39.660  26.708  27.999  1.00  0.00     0.029 A 
ATOM     18  N   UNL A   1      41.602  27.170  28.955  1.00  0.00    -0.354 N 
ATOM     19  C   UNL A   1      42.168  31.012  30.890  1.00  0.00     0.074 A 
ATOM     20  C   UNL A   1      40.959  31.801  30.832  1.00  0.00     0.031 C 
ATOM     21  C   UNL A   1      40.479  25.681  27.725  1.00  0.00     0.029 A 
ATOM     22  C   UNL A   1      41.781  25.965  28.307  1.00  0.00     0.049 A 
ATOM     23  H   UNL A   1      42.306  27.601  29.492  1.00  0.00     0.167 HD
ATOM     24  C   UNL A   1      43.299  31.405  31.515  1.00  0.00     0.037 A 
ATOM     25  C   UNL A   1      42.877  25.190  28.180  1.00  0.00     0.037 A 
ATOM     26  C   UNL A   1      44.484  30.601  31.574  1.00  0.00     0.049 A 
ATOM     27  C   UNL A   1      44.141  25.645  28.860  1.00  0.00     0.074 A 
ATOM     28  C   UNL A   1      45.681  30.869  32.202  1.00  0.00     0.029 A 
ATOM     29  N   UNL A   1      44.609  29.355  30.968  1.00  0.00    -0.354 N 
ATOM     30  N   UNL A   1      44.358  26.754  29.524  1.00  0.00    -0.248 NA
ATOM     31  C   UNL A   1      45.301  24.748  28.792  1.00  0.00     0.031 C 
ATOM     32  C   UNL A   1      46.545  29.798  31.951  1.00  0.00     0.029 A 
ATOM     33  C   UNL A   1      45.870  28.841  31.206  1.00  0.00     0.049 A 
ATOM     34  H   UNL A   1      43.904  28.906  30.448  1.00  0.00     0.167 HD
ATOM     35  C   UNL A   1      45.660  26.672  29.993  1.00  0.00     0.074 A 
ATOM     36  C   UNL A   1      46.190  25.406  29.525  1.00  0.00     0.031 C 
ATOM     37  C   UNL A   1      46.348  27.558  30.751  1.00  0.00     0.037 A 
BRANCH  24  38
ATOM     38  C   UNL A   1      43.250  32.763  32.143  1.00  0.00     0.064 A 
ATOM     39  C   UNL A   1      42.772  32.939  33.455  1.00  0.00     0.173 A 
ATOM     40  C   UNL A   1      43.511  33.905  31.377  1.00  0.00     0.173 A 
ATOM     41  F   UNL A   1      42.469  31.872  34.212  1.00  0.00    -0.203 F 
ATOM     42  C   UNL A   1      42.470  34.207  33.939  1.00  0.00     0.198 A 
ATOM     43  C   UNL A   1      43.249  35.175  31.884  1.00  0.00     0.198 A 
ATOM     44  F   UNL A   1      43.964  33.790  30.120  1.00  0.00    -0.203 F 
ATOM     45  F   UNL A   1      41.884  34.341  35.138  1.00  0.00    -0.200 F 
ATOM     46  C   UNL A   1      42.704  35.323  33.151  1.00  0.00     0.200 A 
ATOM     47  F   UNL A   1      43.476  36.255  31.125  1.00  0.00    -0.200 F 
ATOM     48  F   UNL A   1      42.372  36.541  33.601  1.00  0.00    -0.200 F 
ENDBRANCH  24  38
BRANCH  25  49
ATOM     49  C   UNL A   1      42.827  23.913  27.413  1.00  0.00     0.064 A 
ATOM     50  C   UNL A   1      42.445  22.713  28.030  1.00  0.00     0.173 A 
ATOM     51  C   UNL A   1      43.162  23.859  26.052  1.00  0.00     0.173 A 
ATOM     52  F   UNL A   1      42.133  22.701  29.335  1.00  0.00    -0.203 F 
ATOM     53  C   UNL A   1      42.420  21.509  27.324  1.00  0.00     0.198 A 
ATOM     54  C   UNL A   1      43.116  22.659  25.340  1.00  0.00     0.198 A 
ATOM     55  F   UNL A   1      43.530  24.975  25.406  1.00  0.00    -0.203 F 
ATOM     56  F   UNL A   1      42.090  20.372  27.952  1.00  0.00    -0.200 F 
ATOM     57  C   UNL A   1      42.753  21.483  25.978  1.00  0.00     0.200 A 
ATOM     58  F   UNL A   1      43.430  22.640  24.037  1.00  0.00    -0.200 F 
ATOM     59  F   UNL A   1      42.728  20.327  25.301  1.00  0.00    -0.200 F 
ENDBRANCH  25  49
BRANCH  37  60
ATOM     60  C   UNL A   1      47.723  27.168  31.193  1.00  0.00     0.064 A 
ATOM     61  C   UNL A   1      47.934  26.339  32.301  1.00  0.00     0.173 A 
ATOM     62  C   UNL A   1      48.831  27.530  30.412  1.00  0.00     0.173 A 
ATOM     63  F   UNL A   1      46.906  25.984  33.086  1.00  0.00    -0.203 F 
ATOM     64  C   UNL A   1      49.210  25.874  32.606  1.00  0.00     0.198 A 
ATOM     65  C   UNL A   1      50.099  27.041  30.703  1.00  0.00     0.198 A 
ATOM     66  F   UNL A   1      48.672  28.322  29.340  1.00  0.00    -0.203 F 
ATOM     67  F   UNL A   1      49.397  25.089  33.676  1.00  0.00    -0.200 F 
ATOM     68  C   UNL A   1      50.287  26.212  31.798  1.00  0.00     0.200 A 
ATOM     69  F   UNL A   1      51.134  27.356  29.912  1.00  0.00    -0.200 F 
ATOM     70  F   UNL A   1      51.508  25.733  32.073  1.00  0.00    -0.200 F 
ENDBRANCH  37  60
ENDBRANCH  11  12
ENDBRANCH   4   6
ENDBRANCH   3   4
ENDBRANCH   2   3
ENDBRANCH   1   2
BRANCH   1  71
ATOM     71  O   UNL A   1      34.773  34.626  30.194  1.00  0.00    -0.462 OA
BRANCH  71  72
ATOM     72  C   UNL A   1      34.464  34.320  31.495  1.00  0.00     0.312 C 
ATOM     73  O   UNL A   1      33.387  34.544  32.016  1.00  0.00    -0.252 OA
BRANCH  72  74
ATOM     74  C   UNL A   1      35.692  33.778  32.258  1.00  0.00     0.071 C 
ATOM     75  C   UNL A   1      36.939  33.964  31.343  1.00  0.00     0.019 C 
ATOM     76  C   UNL A   1      35.953  34.608  33.524  1.00  0.00     0.019 C 
ATOM     77  C   UNL A   1      38.307  33.835  32.028  1.00  0.00     0.001 C 
ATOM     78  C   UNL A   1      37.292  34.366  34.215  1.00  0.00     0.001 C 
ATOM     79  C   UNL A   1      38.426  34.702  33.273  1.00  0.00     0.000 C 
BRANCH  74  80
ATOM     80  C   UNL A   1      35.382  32.274  32.559  1.00  0.00     0.046 C 
BRANCH  80  81
ATOM     81  C   UNL A   1      36.576  31.328  32.524  1.00  0.00    -0.025 C 
ATOM     82  C   UNL A   1      37.296  30.872  33.562  1.00  0.00     0.004 C 
BRANCH  82  83
ATOM     83  C   UNL A   1      38.371  29.862  33.408  1.00  0.00    -0.026 A 
ATOM     84  C   UNL A   1      38.079  28.653  32.765  1.00  0.00     0.008 A 
ATOM     85  C   UNL A   1      39.681  30.060  33.871  1.00  0.00     0.008 A 
ATOM     86  C   UNL A   1      39.076  27.692  32.549  1.00  0.00     0.001 A 
ATOM     87  C   UNL A   1      40.683  29.107  33.645  1.00  0.00     0.001 A 
ATOM     88  C   UNL A   1      40.380  27.924  32.978  1.00  0.00     0.000 A 
ENDBRANCH  82  83
ENDBRANCH  80  81
ENDBRANCH  74  80
ENDBRANCH  72  74
ENDBRANCH  71  72
ENDBRANCH   1  71
TORSDOF 14
ENDMDL
MODEL 2
REMARK VINA RESULT:      -9.8      3.742     10.560
REMARK SMILES O=C(OCCOC(=O)C1(C/C=C/c2ccccc2)CCCCC1)c1ccc(-c2c3nc(c(-c4c(F)c(F)c(F)c(F)c4F)c4ccc([nH]4)c(-c4c(F)c(F)c(F)c(F)c4F)c4nc(c(-c5c(F)c(F)c(F)c(F)c5F)c5ccc2[nH]5)C=C4)C=C3)cc1
REMARK SMILES IDX 5 1 4 2 3 3 2 4 1 5 24 6 25 7 86 8 26 9 85 10 27 11 28 12
REMARK SMILES IDX 29 13 79 14 30 15 84 16 78 17 80 18 31 19 83 20 77 21 76 22
REMARK SMILES IDX 32 24 64 25 44 26 63 27 45 28 48 29 62 30 81 31 46 32 47 33
REMARK SMILES IDX 61 35 82 36 49 37 33 38 34 39 42 40 35 41 36 42 40 43 43 44
REMARK SMILES IDX 37 45 38 46 41 47 39 48 65 49 66 50 74 51 67 52 68 53 72 54
REMARK SMILES IDX 75 55 69 56 70 57 73 58 71 59 50 60 51 61 59 62 52 63 53 64
REMARK SMILES IDX 57 65 60 66 54 67 55 68 58 69 56 70 6 71 7 72 8 73 9 74
REMARK SMILES IDX 19 75 23 76 20 77 22 78 21 79 10 80 11 81 12 82 13 83 14 84
REMARK SMILES IDX 18 85 15 86 17 87 16 88
REMARK H PARENT 80 23 48 34
REMARK Flexibility Score: inf
ROOT
ATOM      1  C   UNL A   1      41.441  19.921  26.075  1.00  0.00     0.274 C 
ENDROOT
BRANCH   1   2
ATOM      2  C   UNL A   1      40.267  20.702  26.656  1.00  0.00     0.275 C 
BRANCH   2   3
ATOM      3  O   UNL A   1      40.108  22.013  26.090  1.00  0.00    -0.458 OA
BRANCH   3   4
ATOM      4  C   UNL A   1      39.155  22.953  26.275  1.00  0.00     0.338 C 
ATOM      5  O   UNL A   1      38.067  22.776  25.724  1.00  0.00    -0.246 OA
BRANCH   4   6
ATOM      6  C   UNL A   1      39.333  24.240  27.035  1.00  0.00     0.060 A 
ATOM      7  C   UNL A   1      39.002  24.496  28.372  1.00  0.00     0.016 A 
ATOM      8  C   UNL A   1      39.947  25.284  26.317  1.00  0.00     0.016 A 
ATOM      9  C   UNL A   1      39.394  25.690  29.014  1.00  0.00     0.010 A 
ATOM     10  C   UNL A   1      40.349  26.464  26.951  1.00  0.00     0.010 A 
ATOM     11  C   UNL A   1      40.118  26.661  28.323  1.00  0.00    -0.014 A 
BRANCH  11  12
ATOM     12  C   UNL A   1      40.477  27.968  28.933  1.00  0.00     0.031 A 
ATOM     13  C   UNL A   1      41.854  28.066  29.494  1.00  0.00     0.074 A 
ATOM     14  C   UNL A   1      39.613  28.990  29.090  1.00  0.00     0.049 A 
ATOM     15  N   UNL A   1      42.373  28.979  30.267  1.00  0.00    -0.248 NA
ATOM     16  C   UNL A   1      42.743  26.932  29.196  1.00  0.00     0.031 C 
ATOM     17  C   UNL A   1      38.243  29.005  28.612  1.00  0.00     0.029 A 
ATOM     18  N   UNL A   1      39.732  30.203  29.729  1.00  0.00    -0.354 N 
ATOM     19  C   UNL A   1      43.636  28.507  30.572  1.00  0.00     0.074 A 
ATOM     20  C   UNL A   1      43.759  27.188  29.997  1.00  0.00     0.031 C 
ATOM     21  C   UNL A   1      37.627  30.137  28.983  1.00  0.00     0.029 A 
ATOM     22  C   UNL A   1      38.565  30.938  29.754  1.00  0.00     0.049 A 
ATOM     23  H   UNL A   1      40.573  30.516  30.132  1.00  0.00     0.167 HD
ATOM     24  C   UNL A   1      44.628  29.141  31.234  1.00  0.00     0.037 A 
ATOM     25  C   UNL A   1      38.279  32.112  30.350  1.00  0.00     0.037 A 
ATOM     26  C   UNL A   1      44.490  30.456  31.785  1.00  0.00     0.049 A 
ATOM     27  C   UNL A   1      39.383  32.803  31.105  1.00  0.00     0.074 A 
ATOM     28  C   UNL A   1      45.428  31.220  32.447  1.00  0.00     0.029 A 
ATOM     29  N   UNL A   1      43.318  31.202  31.731  1.00  0.00    -0.354 N 
ATOM     30  N   UNL A   1      40.605  32.384  31.332  1.00  0.00    -0.248 NA
ATOM     31  C   UNL A   1      39.087  34.125  31.671  1.00  0.00     0.031 C 
ATOM     32  C   UNL A   1      44.814  32.419  32.823  1.00  0.00     0.029 A 
ATOM     33  C   UNL A   1      43.508  32.422  32.354  1.00  0.00     0.049 A 
ATOM     34  H   UNL A   1      42.477  30.906  31.312  1.00  0.00     0.167 HD
ATOM     35  C   UNL A   1      41.238  33.404  32.025  1.00  0.00     0.074 A 
ATOM     36  C   UNL A   1      40.259  34.460  32.193  1.00  0.00     0.031 C 
ATOM     37  C   UNL A   1      42.516  33.464  32.469  1.00  0.00     0.037 A 
BRANCH  24  38
ATOM     38  C   UNL A   1      45.904  28.369  31.375  1.00  0.00     0.064 A 
ATOM     39  C   UNL A   1      46.917  28.458  30.403  1.00  0.00     0.173 A 
ATOM     40  C   UNL A   1      46.040  27.409  32.384  1.00  0.00     0.173 A 
ATOM     41  F   UNL A   1      46.808  29.337  29.393  1.00  0.00    -0.203 F 
ATOM     42  C   UNL A   1      47.970  27.551  30.386  1.00  0.00     0.198 A 
ATOM     43  C   UNL A   1      47.121  26.532  32.389  1.00  0.00     0.198 A 
ATOM     44  F   UNL A   1      45.099  27.282  33.331  1.00  0.00    -0.203 F 
ATOM     45  F   UNL A   1      48.847  27.565  29.372  1.00  0.00    -0.200 F 
ATOM     46  C   UNL A   1      48.068  26.585  31.375  1.00  0.00     0.200 A 
ATOM     47  F   UNL A   1      47.218  25.599  33.345  1.00  0.00    -0.200 F 
ATOM     48  F   UNL A   1      49.059  25.684  31.335  1.00  0.00    -0.200 F 
ENDBRANCH  24  38
BRANCH  25  49
ATOM     49  C   UNL A   1      36.921  32.718  30.240  1.00  0.00     0.064 A 
ATOM     50  C   UNL A   1      36.530  33.414  29.088  1.00  0.00     0.173 A 
ATOM     51  C   UNL A   1      35.986  32.619  31.282  1.00  0.00     0.173 A 
ATOM     52  F   UNL A   1      37.390  33.557  28.068  1.00  0.00    -0.203 F 
ATOM     53  C   UNL A   1      35.269  34.004  28.988  1.00  0.00     0.198 A 
ATOM     54  C   UNL A   1      34.717  33.190  31.173  1.00  0.00     0.198 A 
ATOM     55  F   UNL A   1      36.300  31.960  32.406  1.00  0.00    -0.203 F 
ATOM     56  F   UNL A   1      34.940  34.697  27.890  1.00  0.00    -0.200 F 
ATOM     57  C   UNL A   1      34.362  33.888  30.030  1.00  0.00     0.200 A 
ATOM     58  F   UNL A   1      33.839  33.069  32.179  1.00  0.00    -0.200 F 
ATOM     59  F   UNL A   1      33.151  34.455  29.934  1.00  0.00    -0.200 F 
ENDBRANCH  25  49
BRANCH  37  60
ATOM     60  C   UNL A   1      42.964  34.737  33.115  1.00  0.00     0.064 A 
ATOM     61  C   UNL A   1      43.481  35.801  32.366  1.00  0.00     0.173 A 
ATOM     62  C   UNL A   1      42.747  34.933  34.487  1.00  0.00     0.173 A 
ATOM     63  F   UNL A   1      43.722  35.651  31.054  1.00  0.00    -0.203 F 
ATOM     64  C   UNL A   1      43.756  37.024  32.969  1.00  0.00     0.198 A 
ATOM     65  C   UNL A   1      42.997  36.165  35.080  1.00  0.00     0.198 A 
ATOM     66  F   UNL A   1      42.251  33.939  35.241  1.00  0.00    -0.203 F 
ATOM     67  F   UNL A   1      44.261  38.029  32.240  1.00  0.00    -0.200 F 
ATOM     68  C   UNL A   1      43.498  37.210  34.320  1.00  0.00     0.200 A 
ATOM     69  F   UNL A   1      42.731  36.345  36.381  1.00  0.00    -0.200 F 
ATOM     70  F   UNL A   1      43.729  38.400  34.890  1.00  0.00    -0.200 F 
ENDBRANCH  37  60
ENDBRANCH  11  12
ENDBRANCH   4   6
ENDBRANCH   3   4
ENDBRANCH   2   3
ENDBRANCH   1   2
BRANCH   1  71
ATOM     71  O   UNL A   1      42.706  20.407  26.548  1.00  0.00    -0.462 OA
BRANCH  71  72
ATOM     72  C   UNL A   1      43.463  21.102  25.641  1.00  0.00     0.312 C 
ATOM     73  O   UNL A   1      43.836  20.657  24.571  1.00  0.00    -0.252 OA
BRANCH  72  74
ATOM     74  C   UNL A   1      43.901  22.474  26.200  1.00  0.00     0.071 C 
ATOM     75  C   UNL A   1      43.258  22.638  27.609  1.00  0.00     0.019 C 
ATOM     76  C   UNL A   1      45.422  22.515  26.406  1.00  0.00     0.019 C 
ATOM     77  C   UNL A   1      43.843  23.749  28.493  1.00  0.00     0.001 C 
ATOM     78  C   UNL A   1      45.953  23.697  27.214  1.00  0.00     0.001 C 
ATOM     79  C   UNL A   1      45.359  23.678  28.604  1.00  0.00     0.000 C 
BRANCH  74  80
ATOM     80  C   UNL A   1      43.388  23.539  25.173  1.00  0.00     0.046 C 
BRANCH  80  81
ATOM     81  C   UNL A   1      43.329  24.976  25.678  1.00  0.00    -0.025 C 
ATOM     82  C   UNL A   1      44.060  26.024  25.265  1.00  0.00     0.004 C 
BRANCH  82  83
ATOM     83  C   UNL A   1      43.831  27.404  25.759  1.00  0.00    -0.026 A 
ATOM     84  C   UNL A   1      42.596  28.016  25.513  1.00  0.00     0.008 A 
ATOM     85  C   UNL A   1      44.794  28.132  26.474  1.00  0.00     0.008 A 
ATOM     86  C   UNL A   1      42.315  29.297  26.008  1.00  0.00     0.001 A 
ATOM     87  C   UNL A   1      44.512  29.407  26.981  1.00  0.00     0.001 A 
ATOM     88  C   UNL A   1      43.268  29.987  26.751  1.00  0.00     0.000 A 
ENDBRANCH  82  83
ENDBRANCH  80  81
ENDBRANCH  74  80
ENDBRANCH  72  74
ENDBRANCH  71  72
ENDBRANCH   1  71
TORSDOF 14
ENDMDL
MODEL 3
REMARK VINA RESULT:      -9.7      4.014     10.386
REMARK SMILES O=C(OCCOC(=O)C1(C/C=C/c2ccccc2)CCCCC1)c1ccc(-c2c3nc(c(-c4c(F)c(F)c(F)c(F)c4F)c4ccc([nH]4)c(-c4c(F)c(F)c(F)c(F)c4F)c4nc(c(-c5c(F)c(F)c(F)c(F)c5F)c5ccc2[nH]5)C=C4)C=C3)cc1
REMARK SMILES IDX 5 1 4 2 3 3 2 4 1 5 24 6 25 7 86 8 26 9 85 10 27 11 28 12
REMARK SMILES IDX 29 13 79 14 30 15 84 16 78 17 80 18 31 19 83 20 77 21 76 22
REMARK SMILES IDX 32 24 64 25 44 26 63 27 45 28 48 29 62 30 81 31 46 32 47 33
REMARK SMILES IDX 61 35 82 36 49 37 33 38 34 39 42 40 35 41 36 42 40 43 43 44
REMARK SMILES IDX 37 45 38 46 41 47 39 48 65 49 66 50 74 51 67 52 68 53 72 54
REMARK SMILES IDX 75 55 69 56 70 57 73 58 71 59 50 60 51 61 59 62 52 63 53 64
REMARK SMILES IDX 57 65 60 66 54 67 55 68 58 69 56 70 6 71 7 72 8 73 9 74
REMARK SMILES IDX 19 75 23 76 20 77 22 78 21 79 10 80 11 81 12 82 13 83 14 84
REMARK SMILES IDX 18 85 15 86 17 87 16 88
REMARK H PARENT 80 23 48 34
REMARK Flexibility Score: inf
ROOT
ATOM      1  C   UNL A   1      41.481  19.573  26.190  1.00  0.00     0.274 C 
ENDROOT
BRANCH   1   2
ATOM      2  C   UNL A   1      40.090  20.197  26.159  1.00  0.00     0.275 C 
BRANCH   2   3
ATOM      3  O   UNL A   1      40.101  21.628  26.031  1.00  0.00    -0.458 OA
BRANCH   3   4
ATOM      4  C   UNL A   1      39.173  22.558  26.349  1.00  0.00     0.338 C 
ATOM      5  O   UNL A   1      37.993  22.282  26.127  1.00  0.00    -0.246 OA
BRANCH   4   6
ATOM      6  C   UNL A   1      39.462  23.936  26.881  1.00  0.00     0.060 A 
ATOM      7  C   UNL A   1      39.338  24.386  28.201  1.00  0.00     0.016 A 
ATOM      8  C   UNL A   1      39.959  24.854  25.936  1.00  0.00     0.016 A 
ATOM      9  C   UNL A   1      39.822  25.651  28.598  1.00  0.00     0.010 A 
ATOM     10  C   UNL A   1      40.451  26.104  26.325  1.00  0.00     0.010 A 
ATOM     11  C   UNL A   1      40.431  26.498  27.674  1.00  0.00    -0.014 A 
BRANCH  11  12
ATOM     12  C   UNL A   1      40.877  27.871  28.028  1.00  0.00     0.031 A 
ATOM     13  C   UNL A   1      42.347  28.112  27.970  1.00  0.00     0.074 A 
ATOM     14  C   UNL A   1      40.056  28.837  28.486  1.00  0.00     0.049 A 
ATOM     15  N   UNL A   1      43.042  29.117  28.423  1.00  0.00    -0.248 NA
ATOM     16  C   UNL A   1      43.144  27.027  27.378  1.00  0.00     0.031 C 
ATOM     17  C   UNL A   1      38.615  28.715  28.613  1.00  0.00     0.029 A 
ATOM     18  N   UNL A   1      40.304  30.100  28.969  1.00  0.00    -0.354 N 
ATOM     19  C   UNL A   1      44.360  28.763  28.201  1.00  0.00     0.074 A 
ATOM     20  C   UNL A   1      44.368  27.416  27.679  1.00  0.00     0.031 C 
ATOM     21  C   UNL A   1      38.095  29.825  29.158  1.00  0.00     0.029 A 
ATOM     22  C   UNL A   1      39.182  30.748  29.442  1.00  0.00     0.049 A 
ATOM     23  H   UNL A   1      41.202  30.505  28.978  1.00  0.00     0.167 HD
ATOM     24  C   UNL A   1      45.468  29.517  28.370  1.00  0.00     0.037 A 
ATOM     25  C   UNL A   1      39.050  31.942  30.055  1.00  0.00     0.037 A 
ATOM     26  C   UNL A   1      45.437  30.857  28.874  1.00  0.00     0.049 A 
ATOM     27  C   UNL A   1      40.292  32.767  30.260  1.00  0.00     0.074 A 
ATOM     28  C   UNL A   1      46.483  31.736  29.061  1.00  0.00     0.029 A 
ATOM     29  N   UNL A   1      44.277  31.510  29.277  1.00  0.00    -0.354 N 
ATOM     30  N   UNL A   1      41.535  32.457  29.981  1.00  0.00    -0.248 NA
ATOM     31  C   UNL A   1      40.122  34.104  30.844  1.00  0.00     0.031 C 
ATOM     32  C   UNL A   1      45.961  32.912  29.607  1.00  0.00     0.029 A 
ATOM     33  C   UNL A   1      44.583  32.785  29.717  1.00  0.00     0.049 A 
ATOM     34  H   UNL A   1      43.373  31.122  29.253  1.00  0.00     0.167 HD
ATOM     35  C   UNL A   1      42.291  33.571  30.311  1.00  0.00     0.074 A 
ATOM     36  C   UNL A   1      41.367  34.563  30.824  1.00  0.00     0.031 C 
ATOM     37  C   UNL A   1      43.627  33.757  30.187  1.00  0.00     0.037 A 
BRANCH  24  38
ATOM     38  C   UNL A   1      46.760  28.853  28.004  1.00  0.00     0.064 A 
ATOM     39  C   UNL A   1      47.194  28.797  26.668  1.00  0.00     0.173 A 
ATOM     40  C   UNL A   1      47.473  28.122  28.962  1.00  0.00     0.173 A 
ATOM     41  F   UNL A   1      46.517  29.450  25.710  1.00  0.00    -0.203 F 
ATOM     42  C   UNL A   1      48.238  27.957  26.293  1.00  0.00     0.198 A 
ATOM     43  C   UNL A   1      48.546  27.318  28.587  1.00  0.00     0.198 A 
ATOM     44  F   UNL A   1      47.095  28.140  30.249  1.00  0.00    -0.203 F 
ATOM     45  F   UNL A   1      48.543  27.813  24.995  1.00  0.00    -0.200 F 
ATOM     46  C   UNL A   1      48.909  27.215  27.251  1.00  0.00     0.200 A 
ATOM     47  F   UNL A   1      49.196  26.601  29.512  1.00  0.00    -0.200 F 
ATOM     48  F   UNL A   1      49.885  26.374  26.884  1.00  0.00    -0.200 F 
ENDBRANCH  24  38
BRANCH  25  49
ATOM     49  C   UNL A   1      37.712  32.437  30.488  1.00  0.00     0.064 A 
ATOM     50  C   UNL A   1      37.229  32.182  31.780  1.00  0.00     0.173 A 
ATOM     51  C   UNL A   1      36.884  33.170  29.624  1.00  0.00     0.173 A 
ATOM     52  F   UNL A   1      37.969  31.468  32.642  1.00  0.00    -0.203 F 
ATOM     53  C   UNL A   1      35.967  32.620  32.184  1.00  0.00     0.198 A 
ATOM     54  C   UNL A   1      35.631  33.628  30.036  1.00  0.00     0.198 A 
ATOM     55  F   UNL A   1      37.293  33.450  28.379  1.00  0.00    -0.203 F 
ATOM     56  F   UNL A   1      35.518  32.326  33.411  1.00  0.00    -0.200 F 
ATOM     57  C   UNL A   1      35.170  33.347  31.312  1.00  0.00     0.200 A 
ATOM     58  F   UNL A   1      34.867  34.337  29.193  1.00  0.00    -0.200 F 
ATOM     59  F   UNL A   1      33.959  33.768  31.701  1.00  0.00    -0.200 F 
ENDBRANCH  25  49
BRANCH  37  60
ATOM     60  C   UNL A   1      44.171  35.106  30.539  1.00  0.00     0.064 A 
ATOM     61  C   UNL A   1      44.696  35.381  31.808  1.00  0.00     0.173 A 
ATOM     62  C   UNL A   1      44.282  36.090  29.545  1.00  0.00     0.173 A 
ATOM     63  F   UNL A   1      44.594  34.475  32.793  1.00  0.00    -0.203 F 
ATOM     64  C   UNL A   1      45.325  36.595  32.066  1.00  0.00     0.198 A 
ATOM     65  C   UNL A   1      44.936  37.290  29.800  1.00  0.00     0.198 A 
ATOM     66  F   UNL A   1      43.794  35.866  28.315  1.00  0.00    -0.203 F 
ATOM     67  F   UNL A   1      45.813  36.846  33.289  1.00  0.00    -0.200 F 
ATOM     68  C   UNL A   1      45.459  37.539  31.059  1.00  0.00     0.200 A 
ATOM     69  F   UNL A   1      45.078  38.193  28.820  1.00  0.00    -0.200 F 
ATOM     70  F   UNL A   1      46.099  38.692  31.301  1.00  0.00    -0.200 F 
ENDBRANCH  37  60
ENDBRANCH  11  12
ENDBRANCH   4   6
ENDBRANCH   3   4
ENDBRANCH   2   3
ENDBRANCH   1   2
BRANCH   1  71
ATOM     71  O   UNL A   1      42.468  20.470  26.718  1.00  0.00    -0.462 OA
BRANCH  71  72
ATOM     72  C   UNL A   1      43.358  20.990  25.812  1.00  0.00     0.312 C 
ATOM     73  O   UNL A   1      43.894  20.348  24.929  1.00  0.00    -0.252 OA
BRANCH  72  74
ATOM     74  C   UNL A   1      43.699  22.462  26.134  1.00  0.00     0.071 C 
ATOM     75  C   UNL A   1      45.234  22.548  26.387  1.00  0.00     0.019 C 
ATOM     76  C   UNL A   1      43.405  23.363  24.925  1.00  0.00     0.019 C 
ATOM     77  C   UNL A   1      45.845  23.957  26.363  1.00  0.00     0.001 C 
ATOM     78  C   UNL A   1      43.958  24.783  25.003  1.00  0.00     0.001 C 
ATOM     79  C   UNL A   1      45.465  24.743  25.117  1.00  0.00     0.000 C 
BRANCH  74  80
ATOM     80  C   UNL A   1      42.856  22.832  27.399  1.00  0.00     0.046 C 
BRANCH  80  81
ATOM     81  C   UNL A   1      43.652  23.225  28.638  1.00  0.00    -0.025 C 
ATOM     82  C   UNL A   1      43.397  24.225  29.498  1.00  0.00     0.004 C 
BRANCH  82  83
ATOM     83  C   UNL A   1      44.187  24.438  30.734  1.00  0.00    -0.026 A 
ATOM     84  C   UNL A   1      44.073  23.514  31.780  1.00  0.00     0.008 A 
ATOM     85  C   UNL A   1      45.058  25.525  30.910  1.00  0.00     0.008 A 
ATOM     86  C   UNL A   1      44.840  23.645  32.945  1.00  0.00     0.001 A 
ATOM     87  C   UNL A   1      45.836  25.651  32.068  1.00  0.00     0.001 A 
ATOM     88  C   UNL A   1      45.730  24.706  33.084  1.00  0.00     0.000 A 
ENDBRANCH  82  83
ENDBRANCH  80  81
ENDBRANCH  74  80
ENDBRANCH  72  74
ENDBRANCH  71  72
ENDBRANCH   1  71
TORSDOF 14
ENDMDL
