MODEL 1
REMARK VINA RESULT:     -13.2      0.000      0.000
REMARK SMILES Cc1cc(F)cc(N[C@@](C)(C(=O)OCCOC(=O)c2ccc(-c3c4nc(c(-c5c(F)c(F)c(F)c(F)c5F)c5ccc([nH]5)c(-c5c(F)c(F)c(F)c(F)c5F)c5nc(c(-c6c(F)c(F)c(F)c(F)c6F)c6ccc3[nH]6)C=C5)C=C4)cc2)c2cccc(F)c2)c1
REMARK SMILES IDX 14 1 13 2 11 3 12 4 9 5 10 6 8 7 7 9 1 10 2 11 3 12 89 13
REMARK SMILES IDX 4 14 5 15 6 16 82 17 83 18 88 19 84 20 86 21 85 22 87 23
REMARK SMILES IDX 15 24 16 25 17 26 18 27 19 28 20 29 81 30 21 31 80 32 22 33
REMARK SMILES IDX 23 34 24 35 74 36 25 37 79 38 73 39 75 40 26 41 78 42 72 43
REMARK SMILES IDX 71 44 27 46 59 47 39 48 58 49 40 50 43 51 57 52 76 53 41 54
REMARK SMILES IDX 42 55 56 57 77 58 44 59 28 60 29 61 37 62 30 63 31 64 35 65
REMARK SMILES IDX 38 66 32 67 33 68 36 69 34 70 60 71 61 72 69 73 62 74 63 75
REMARK SMILES IDX 67 76 70 77 64 78 65 79 68 80 66 81 45 82 46 83 54 84 47 85
REMARK SMILES IDX 48 86 52 87 55 88 49 89 50 90 53 91 51 92
REMARK H PARENT 8 8 75 45 43 56
REMARK Flexibility Score: inf
ROOT
ATOM      1  C   UNL A   1      37.748  22.061  26.130  1.00  0.00     0.274 C 
ENDROOT
BRANCH   1   2
ATOM      2  O   UNL A   1      37.144  23.272  25.621  1.00  0.00    -0.460 OA
BRANCH   2   3
ATOM      3  C   UNL A   1      35.784  23.363  25.739  1.00  0.00     0.336 C 
ATOM      4  O   UNL A   1      35.223  23.329  26.827  1.00  0.00    -0.249 OA
BRANCH   3   5
ATOM      5  C   UNL A   1      35.007  23.330  24.359  1.00  0.00     0.159 C 
ATOM      6  C   UNL A   1      36.157  23.310  23.295  1.00  0.00     0.053 C 
BRANCH   5   7
ATOM      7  N   UNL A   1      34.367  24.664  24.181  1.00  0.00    -0.366 N 
ATOM      8  H   UNL A   1      34.611  25.098  23.331  1.00  0.00     0.162 HD
BRANCH   7   9
ATOM      9  C   UNL A   1      33.508  25.422  24.943  1.00  0.00     0.038 A 
ATOM     10  C   UNL A   1      33.834  28.670  26.957  1.00  0.00     0.044 C 
ATOM     11  C   UNL A   1      33.241  27.446  26.332  1.00  0.00    -0.046 A 
ATOM     12  C   UNL A   1      31.900  27.135  26.546  1.00  0.00     0.042 A 
ATOM     13  C   UNL A   1      34.025  26.585  25.542  1.00  0.00     0.029 A 
ATOM     14  C   UNL A   1      31.372  26.002  25.959  1.00  0.00     0.125 A 
ATOM     15  F   UNL A   1      30.077  25.707  26.137  1.00  0.00    -0.207 F 
ATOM     16  C   UNL A   1      32.157  25.165  25.170  1.00  0.00     0.065 A 
ENDBRANCH   7   9
ENDBRANCH   5   7
BRANCH   5  17
ATOM     17  C   UNL A   1      34.048  22.148  24.110  1.00  0.00    -0.009 A 
ATOM     18  C   UNL A   1      34.198  20.933  24.832  1.00  0.00     0.007 A 
ATOM     19  C   UNL A   1      33.049  22.164  23.119  1.00  0.00     0.046 A 
ATOM     20  C   UNL A   1      33.396  19.811  24.584  1.00  0.00     0.003 A 
ATOM     21  C   UNL A   1      32.268  21.033  22.863  1.00  0.00     0.123 A 
ATOM     22  C   UNL A   1      32.430  19.861  23.588  1.00  0.00     0.039 A 
ATOM     23  F   UNL A   1      31.342  21.078  21.896  1.00  0.00    -0.207 F 
ENDBRANCH   5  17
ENDBRANCH   3   5
ENDBRANCH   2   3
ENDBRANCH   1   2
BRANCH   1  24
ATOM     24  C   UNL A   1      39.264  21.957  25.927  1.00  0.00     0.275 C 
BRANCH  24  25
ATOM     25  O   UNL A   1      40.033  22.348  27.097  1.00  0.00    -0.458 OA
BRANCH  25  26
ATOM     26  C   UNL A   1      40.766  23.434  26.919  1.00  0.00     0.338 C 
ATOM     27  O   UNL A   1      41.985  23.476  26.650  1.00  0.00    -0.246 OA
BRANCH  26  28
ATOM     28  C   UNL A   1      40.043  24.678  27.145  1.00  0.00     0.060 A 
ATOM     29  C   UNL A   1      40.372  25.817  26.380  1.00  0.00     0.016 A 
ATOM     30  C   UNL A   1      39.375  24.818  28.372  1.00  0.00     0.016 A 
ATOM     31  C   UNL A   1      40.193  27.087  26.913  1.00  0.00     0.010 A 
ATOM     32  C   UNL A   1      39.197  26.090  28.888  1.00  0.00     0.010 A 
ATOM     33  C   UNL A   1      39.684  27.220  28.205  1.00  0.00    -0.014 A 
BRANCH  33  34
ATOM     34  C   UNL A   1      39.795  28.457  28.983  1.00  0.00     0.031 A 
ATOM     35  C   UNL A   1      38.760  29.509  29.012  1.00  0.00     0.074 A 
ATOM     36  C   UNL A   1      40.921  28.704  29.690  1.00  0.00     0.049 A 
ATOM     37  N   UNL A   1      39.028  30.768  29.192  1.00  0.00    -0.248 NA
ATOM     38  C   UNL A   1      37.340  29.230  28.831  1.00  0.00     0.031 C 
ATOM     39  C   UNL A   1      41.072  29.653  30.789  1.00  0.00     0.029 A 
ATOM     40  N   UNL A   1      42.218  28.256  29.438  1.00  0.00    -0.354 N 
ATOM     41  C   UNL A   1      37.839  31.391  29.460  1.00  0.00     0.074 A 
ATOM     42  C   UNL A   1      36.810  30.429  29.109  1.00  0.00     0.031 C 
ATOM     43  C   UNL A   1      42.376  29.890  30.996  1.00  0.00     0.029 A 
ATOM     44  C   UNL A   1      43.110  29.238  29.927  1.00  0.00     0.049 A 
ATOM     45  H   UNL A   1      42.467  27.410  28.999  1.00  0.00     0.167 HD
ATOM     46  C   UNL A   1      37.794  32.574  30.134  1.00  0.00     0.037 A 
ATOM     47  C   UNL A   1      44.083  29.831  29.167  1.00  0.00     0.037 A 
ATOM     48  C   UNL A   1      39.090  33.087  30.550  1.00  0.00     0.049 A 
ATOM     49  C   UNL A   1      44.104  31.330  29.213  1.00  0.00     0.074 A 
ATOM     50  C   UNL A   1      39.767  33.004  31.756  1.00  0.00     0.029 A 
ATOM     51  N   UNL A   1      40.003  33.587  29.626  1.00  0.00    -0.354 N 
ATOM     52  N   UNL A   1      43.070  32.036  29.555  1.00  0.00    -0.248 NA
ATOM     53  C   UNL A   1      45.222  32.145  28.740  1.00  0.00     0.031 C 
ATOM     54  C   UNL A   1      41.078  33.487  31.572  1.00  0.00     0.029 A 
ATOM     55  C   UNL A   1      41.216  33.841  30.244  1.00  0.00     0.049 A 
ATOM     56  H   UNL A   1      39.814  33.738  28.672  1.00  0.00     0.167 HD
ATOM     57  C   UNL A   1      43.335  33.353  29.310  1.00  0.00     0.074 A 
ATOM     58  C   UNL A   1      44.698  33.380  28.820  1.00  0.00     0.031 C 
ATOM     59  C   UNL A   1      42.381  34.301  29.513  1.00  0.00     0.037 A 
BRANCH  46  60
ATOM     60  C   UNL A   1      36.485  33.036  30.707  1.00  0.00     0.064 A 
ATOM     61  C   UNL A   1      35.614  33.880  29.992  1.00  0.00     0.173 A 
ATOM     62  C   UNL A   1      36.104  32.729  32.024  1.00  0.00     0.173 A 
ATOM     63  F   UNL A   1      35.854  34.228  28.723  1.00  0.00    -0.203 F 
ATOM     64  C   UNL A   1      34.483  34.443  30.579  1.00  0.00     0.198 A 
ATOM     65  C   UNL A   1      34.991  33.323  32.623  1.00  0.00     0.198 A 
ATOM     66  F   UNL A   1      36.842  31.885  32.763  1.00  0.00    -0.203 F 
ATOM     67  F   UNL A   1      33.702  35.266  29.863  1.00  0.00    -0.200 F 
ATOM     68  C   UNL A   1      34.187  34.189  31.903  1.00  0.00     0.200 A 
ATOM     69  F   UNL A   1      34.722  33.084  33.914  1.00  0.00    -0.200 F 
ATOM     70  F   UNL A   1      33.139  34.787  32.486  1.00  0.00    -0.200 F 
ENDBRANCH  46  60
BRANCH  47  71
ATOM     71  C   UNL A   1      44.366  29.094  27.909  1.00  0.00     0.064 A 
ATOM     72  C   UNL A   1      45.098  27.901  28.010  1.00  0.00     0.173 A 
ATOM     73  C   UNL A   1      43.501  29.264  26.818  1.00  0.00     0.173 A 
ATOM     74  F   UNL A   1      45.962  27.723  29.022  1.00  0.00    -0.203 F 
ATOM     75  C   UNL A   1      44.753  26.817  27.222  1.00  0.00     0.198 A 
ATOM     76  C   UNL A   1      43.201  28.190  25.999  1.00  0.00     0.198 A 
ATOM     77  F   UNL A   1      42.838  30.415  26.637  1.00  0.00    -0.203 F 
ATOM     78  F   UNL A   1      45.290  25.619  27.488  1.00  0.00    -0.200 F 
ATOM     79  C   UNL A   1      43.764  26.954  26.262  1.00  0.00     0.200 A 
ATOM     80  F   UNL A   1      42.279  28.314  25.033  1.00  0.00    -0.200 F 
ATOM     81  F   UNL A   1      43.288  25.882  25.624  1.00  0.00    -0.200 F 
ENDBRANCH  47  71
BRANCH  59  82
ATOM     82  C   UNL A   1      42.543  35.744  29.170  1.00  0.00     0.064 A 
ATOM     83  C   UNL A   1      43.390  36.608  29.881  1.00  0.00     0.173 A 
ATOM     84  C   UNL A   1      41.917  36.278  28.024  1.00  0.00     0.173 A 
ATOM     85  F   UNL A   1      44.084  36.172  30.942  1.00  0.00    -0.203 F 
ATOM     86  C   UNL A   1      43.566  37.937  29.495  1.00  0.00     0.198 A 
ATOM     87  C   UNL A   1      42.123  37.595  27.620  1.00  0.00     0.198 A 
ATOM     88  F   UNL A   1      41.095  35.531  27.273  1.00  0.00    -0.203 F 
ATOM     89  F   UNL A   1      44.360  38.740  30.217  1.00  0.00    -0.200 F 
ATOM     90  C   UNL A   1      42.941  38.427  28.362  1.00  0.00     0.200 A 
ATOM     91  F   UNL A   1      41.535  38.050  26.506  1.00  0.00    -0.200 F 
ATOM     92  F   UNL A   1      43.133  39.696  27.979  1.00  0.00    -0.200 F 
ENDBRANCH  59  82
ENDBRANCH  33  34
ENDBRANCH  26  28
ENDBRANCH  25  26
ENDBRANCH  24  25
ENDBRANCH   1  24
TORSDOF 14
ENDMDL
MODEL 2
REMARK VINA RESULT:     -13.2      4.173     10.036
REMARK SMILES Cc1cc(F)cc(N[C@@](C)(C(=O)OCCOC(=O)c2ccc(-c3c4nc(c(-c5c(F)c(F)c(F)c(F)c5F)c5ccc([nH]5)c(-c5c(F)c(F)c(F)c(F)c5F)c5nc(c(-c6c(F)c(F)c(F)c(F)c6F)c6ccc3[nH]6)C=C5)C=C4)cc2)c2cccc(F)c2)c1
REMARK SMILES IDX 14 1 13 2 11 3 12 4 9 5 10 6 8 7 7 9 1 10 2 11 3 12 89 13
REMARK SMILES IDX 4 14 5 15 6 16 82 17 83 18 88 19 84 20 86 21 85 22 87 23
REMARK SMILES IDX 15 24 16 25 17 26 18 27 19 28 20 29 81 30 21 31 80 32 22 33
REMARK SMILES IDX 23 34 24 35 74 36 25 37 79 38 73 39 75 40 26 41 78 42 72 43
REMARK SMILES IDX 71 44 27 46 59 47 39 48 58 49 40 50 43 51 57 52 76 53 41 54
REMARK SMILES IDX 42 55 56 57 77 58 44 59 28 60 29 61 37 62 30 63 31 64 35 65
REMARK SMILES IDX 38 66 32 67 33 68 36 69 34 70 60 71 61 72 69 73 62 74 63 75
REMARK SMILES IDX 67 76 70 77 64 78 65 79 68 80 66 81 45 82 46 83 54 84 47 85
REMARK SMILES IDX 48 86 52 87 55 88 49 89 50 90 53 91 51 92
REMARK H PARENT 8 8 75 45 43 56
REMARK Flexibility Score: inf
ROOT
ATOM      1  C   UNL A   1      33.002  30.164  27.269  1.00  0.00     0.274 C 
ENDROOT
BRANCH   1   2
ATOM      2  O   UNL A   1      33.264  28.746  27.169  1.00  0.00    -0.460 OA
BRANCH   2   3
ATOM      3  C   UNL A   1      32.167  27.931  27.120  1.00  0.00     0.336 C 
ATOM      4  O   UNL A   1      31.399  27.818  28.068  1.00  0.00    -0.249 OA
BRANCH   3   5
ATOM      5  C   UNL A   1      32.085  27.026  25.823  1.00  0.00     0.159 C 
ATOM      6  C   UNL A   1      31.460  25.690  26.351  1.00  0.00     0.053 C 
BRANCH   5   7
ATOM      7  N   UNL A   1      33.480  26.656  25.452  1.00  0.00    -0.366 N 
ATOM      8  H   UNL A   1      34.125  27.385  25.604  1.00  0.00     0.162 HD
BRANCH   7   9
ATOM      9  C   UNL A   1      34.065  25.518  24.945  1.00  0.00     0.038 A 
ATOM     10  C   UNL A   1      33.427  23.281  21.896  1.00  0.00     0.044 C 
ATOM     11  C   UNL A   1      34.042  23.827  23.147  1.00  0.00    -0.046 A 
ATOM     12  C   UNL A   1      35.132  23.181  23.725  1.00  0.00     0.042 A 
ATOM     13  C   UNL A   1      33.522  24.978  23.766  1.00  0.00     0.029 A 
ATOM     14  C   UNL A   1      35.686  23.702  24.879  1.00  0.00     0.125 A 
ATOM     15  F   UNL A   1      36.751  23.103  25.429  1.00  0.00    -0.207 F 
ATOM     16  C   UNL A   1      35.167  24.849  25.474  1.00  0.00     0.065 A 
ENDBRANCH   7   9
ENDBRANCH   5   7
BRANCH   5  17
ATOM     17  C   UNL A   1      31.253  27.555  24.637  1.00  0.00    -0.009 A 
ATOM     18  C   UNL A   1      31.803  28.510  23.738  1.00  0.00     0.007 A 
ATOM     19  C   UNL A   1      29.906  27.206  24.426  1.00  0.00     0.046 A 
ATOM     20  C   UNL A   1      31.056  29.072  22.694  1.00  0.00     0.003 A 
ATOM     21  C   UNL A   1      29.163  27.788  23.394  1.00  0.00     0.123 A 
ATOM     22  C   UNL A   1      29.726  28.712  22.527  1.00  0.00     0.039 A 
ATOM     23  F   UNL A   1      27.876  27.448  23.238  1.00  0.00    -0.207 F 
ENDBRANCH   5  17
ENDBRANCH   3   5
ENDBRANCH   2   3
ENDBRANCH   1   2
BRANCH   1  24
ATOM     24  C   UNL A   1      34.249  31.049  27.380  1.00  0.00     0.275 C 
BRANCH  24  25
ATOM     25  O   UNL A   1      34.526  31.494  28.735  1.00  0.00    -0.458 OA
BRANCH  25  26
ATOM     26  C   UNL A   1      35.814  31.542  29.030  1.00  0.00     0.338 C 
ATOM     27  O   UNL A   1      36.440  32.524  29.482  1.00  0.00    -0.246 OA
BRANCH  26  28
ATOM     28  C   UNL A   1      36.541  30.323  28.704  1.00  0.00     0.060 A 
ATOM     29  C   UNL A   1      36.668  29.313  29.681  1.00  0.00     0.016 A 
ATOM     30  C   UNL A   1      37.433  30.379  27.622  1.00  0.00     0.016 A 
ATOM     31  C   UNL A   1      37.777  28.474  29.672  1.00  0.00     0.010 A 
ATOM     32  C   UNL A   1      38.529  29.533  27.622  1.00  0.00     0.010 A 
ATOM     33  C   UNL A   1      38.752  28.643  28.689  1.00  0.00    -0.014 A 
BRANCH  33  34
ATOM     34  C   UNL A   1      40.099  28.077  28.797  1.00  0.00     0.031 A 
ATOM     35  C   UNL A   1      40.459  26.712  28.363  1.00  0.00     0.074 A 
ATOM     36  C   UNL A   1      41.087  28.803  29.370  1.00  0.00     0.049 A 
ATOM     37  N   UNL A   1      41.401  26.012  28.920  1.00  0.00    -0.248 NA
ATOM     38  C   UNL A   1      39.779  26.021  27.273  1.00  0.00     0.031 C 
ATOM     39  C   UNL A   1      42.524  28.583  29.234  1.00  0.00     0.029 A 
ATOM     40  N   UNL A   1      40.978  29.801  30.339  1.00  0.00    -0.354 N 
ATOM     41  C   UNL A   1      41.653  24.955  28.087  1.00  0.00     0.074 A 
ATOM     42  C   UNL A   1      40.549  24.933  27.145  1.00  0.00     0.031 C 
ATOM     43  C   UNL A   1      43.168  29.246  30.205  1.00  0.00     0.029 A 
ATOM     44  C   UNL A   1      42.163  29.776  31.109  1.00  0.00     0.049 A 
ATOM     45  H   UNL A   1      40.215  30.411  30.463  1.00  0.00     0.167 HD
ATOM     46  C   UNL A   1      42.847  24.300  28.112  1.00  0.00     0.037 A 
ATOM     47  C   UNL A   1      42.184  29.645  32.472  1.00  0.00     0.037 A 
ATOM     48  C   UNL A   1      43.811  24.830  29.065  1.00  0.00     0.049 A 
ATOM     49  C   UNL A   1      43.098  28.578  32.997  1.00  0.00     0.074 A 
ATOM     50  C   UNL A   1      44.869  25.710  28.908  1.00  0.00     0.029 A 
ATOM     51  N   UNL A   1      43.637  24.674  30.437  1.00  0.00    -0.354 N 
ATOM     52  N   UNL A   1      43.496  27.577  32.273  1.00  0.00    -0.248 NA
ATOM     53  C   UNL A   1      43.507  28.470  34.396  1.00  0.00     0.031 C 
ATOM     54  C   UNL A   1      45.359  26.059  30.182  1.00  0.00     0.029 A 
ATOM     55  C   UNL A   1      44.582  25.415  31.125  1.00  0.00     0.049 A 
ATOM     56  H   UNL A   1      42.941  24.118  30.857  1.00  0.00     0.167 HD
ATOM     57  C   UNL A   1      44.146  26.683  33.075  1.00  0.00     0.074 A 
ATOM     58  C   UNL A   1      44.148  27.289  34.391  1.00  0.00     0.031 C 
ATOM     59  C   UNL A   1      44.599  25.503  32.573  1.00  0.00     0.037 A 
BRANCH  46  60
ATOM     60  C   UNL A   1      43.208  23.398  26.968  1.00  0.00     0.064 A 
ATOM     61  C   UNL A   1      42.927  22.018  26.988  1.00  0.00     0.173 A 
ATOM     62  C   UNL A   1      43.929  23.865  25.856  1.00  0.00     0.173 A 
ATOM     63  F   UNL A   1      42.229  21.456  27.980  1.00  0.00    -0.203 F 
ATOM     64  C   UNL A   1      43.405  21.152  26.007  1.00  0.00     0.198 A 
ATOM     65  C   UNL A   1      44.440  22.991  24.893  1.00  0.00     0.198 A 
ATOM     66  F   UNL A   1      44.193  25.174  25.721  1.00  0.00    -0.203 F 
ATOM     67  F   UNL A   1      43.136  19.841  26.089  1.00  0.00    -0.200 F 
ATOM     68  C   UNL A   1      44.187  21.634  24.975  1.00  0.00     0.200 A 
ATOM     69  F   UNL A   1      45.212  23.466  23.906  1.00  0.00    -0.200 F 
ATOM     70  F   UNL A   1      44.703  20.790  24.072  1.00  0.00    -0.200 F 
ENDBRANCH  46  60
BRANCH  47  71
ATOM     71  C   UNL A   1      40.864  29.908  33.101  1.00  0.00     0.064 A 
ATOM     72  C   UNL A   1      40.438  31.243  33.175  1.00  0.00     0.173 A 
ATOM     73  C   UNL A   1      39.898  28.891  33.089  1.00  0.00     0.173 A 
ATOM     74  F   UNL A   1      41.339  32.237  33.224  1.00  0.00    -0.203 F 
ATOM     75  C   UNL A   1      39.109  31.552  32.947  1.00  0.00     0.198 A 
ATOM     76  C   UNL A   1      38.562  29.208  32.916  1.00  0.00     0.198 A 
ATOM     77  F   UNL A   1      40.256  27.600  33.095  1.00  0.00    -0.203 F 
ATOM     78  F   UNL A   1      38.755  32.832  32.782  1.00  0.00    -0.200 F 
ATOM     79  C   UNL A   1      38.190  30.532  32.760  1.00  0.00     0.200 A 
ATOM     80  F   UNL A   1      37.650  28.236  32.778  1.00  0.00    -0.200 F 
ATOM     81  F   UNL A   1      36.948  30.807  32.355  1.00  0.00    -0.200 F 
ENDBRANCH  47  71
BRANCH  59  82
ATOM     82  C   UNL A   1      45.219  24.423  33.394  1.00  0.00     0.064 A 
ATOM     83  C   UNL A   1      44.563  23.218  33.692  1.00  0.00     0.173 A 
ATOM     84  C   UNL A   1      46.559  24.533  33.820  1.00  0.00     0.173 A 
ATOM     85  F   UNL A   1      43.312  22.992  33.267  1.00  0.00    -0.203 F 
ATOM     86  C   UNL A   1      45.196  22.203  34.410  1.00  0.00     0.198 A 
ATOM     87  C   UNL A   1      47.199  23.503  34.505  1.00  0.00     0.198 A 
ATOM     88  F   UNL A   1      47.274  25.641  33.577  1.00  0.00    -0.203 F 
ATOM     89  F   UNL A   1      44.527  21.078  34.702  1.00  0.00    -0.200 F 
ATOM     90  C   UNL A   1      46.514  22.342  34.808  1.00  0.00     0.200 A 
ATOM     91  F   UNL A   1      48.484  23.638  34.861  1.00  0.00    -0.200 F 
ATOM     92  F   UNL A   1      47.127  21.353  35.474  1.00  0.00    -0.200 F 
ENDBRANCH  59  82
ENDBRANCH  33  34
ENDBRANCH  26  28
ENDBRANCH  25  26
ENDBRANCH  24  25
ENDBRANCH   1  24
TORSDOF 14
ENDMDL
MODEL 3
REMARK VINA RESULT:     -13.2      4.336      9.949
REMARK SMILES Cc1cc(F)cc(N[C@@](C)(C(=O)OCCOC(=O)c2ccc(-c3c4nc(c(-c5c(F)c(F)c(F)c(F)c5F)c5ccc([nH]5)c(-c5c(F)c(F)c(F)c(F)c5F)c5nc(c(-c6c(F)c(F)c(F)c(F)c6F)c6ccc3[nH]6)C=C5)C=C4)cc2)c2cccc(F)c2)c1
REMARK SMILES IDX 14 1 13 2 11 3 12 4 9 5 10 6 8 7 7 9 1 10 2 11 3 12 89 13
REMARK SMILES IDX 4 14 5 15 6 16 82 17 83 18 88 19 84 20 86 21 85 22 87 23
REMARK SMILES IDX 15 24 16 25 17 26 18 27 19 28 20 29 81 30 21 31 80 32 22 33
REMARK SMILES IDX 23 34 24 35 74 36 25 37 79 38 73 39 75 40 26 41 78 42 72 43
REMARK SMILES IDX 71 44 27 46 59 47 39 48 58 49 40 50 43 51 57 52 76 53 41 54
REMARK SMILES IDX 42 55 56 57 77 58 44 59 28 60 29 61 37 62 30 63 31 64 35 65
REMARK SMILES IDX 38 66 32 67 33 68 36 69 34 70 60 71 61 72 69 73 62 74 63 75
REMARK SMILES IDX 67 76 70 77 64 78 65 79 68 80 66 81 45 82 46 83 54 84 47 85
REMARK SMILES IDX 48 86 52 87 55 88 49 89 50 90 53 91 51 92
REMARK H PARENT 8 8 75 45 43 56
REMARK Flexibility Score: inf
ROOT
ATOM      1  C   UNL A   1      32.891  30.040  27.017  1.00  0.00     0.274 C 
ENDROOT
BRANCH   1   2
ATOM      2  O   UNL A   1      32.459  29.837  25.652  1.00  0.00    -0.460 OA
BRANCH   2   3
ATOM      3  C   UNL A   1      31.894  28.623  25.372  1.00  0.00     0.336 C 
ATOM      4  O   UNL A   1      31.122  28.072  26.148  1.00  0.00    -0.249 OA
BRANCH   3   5
ATOM      5  C   UNL A   1      32.460  27.927  24.067  1.00  0.00     0.159 C 
ATOM      6  C   UNL A   1      33.480  28.977  23.508  1.00  0.00     0.053 C 
BRANCH   5   7
ATOM      7  N   UNL A   1      31.360  27.913  23.061  1.00  0.00    -0.366 N 
ATOM      8  H   UNL A   1      31.570  27.367  22.269  1.00  0.00     0.162 HD
BRANCH   7   9
ATOM      9  C   UNL A   1      30.115  28.496  22.997  1.00  0.00     0.038 A 
ATOM     10  C   UNL A   1      28.780  31.895  21.824  1.00  0.00     0.044 C 
ATOM     11  C   UNL A   1      28.818  30.498  22.363  1.00  0.00    -0.046 A 
ATOM     12  C   UNL A   1      27.639  29.877  22.769  1.00  0.00     0.042 A 
ATOM     13  C   UNL A   1      30.035  29.805  22.489  1.00  0.00     0.029 A 
ATOM     14  C   UNL A   1      27.696  28.587  23.263  1.00  0.00     0.125 A 
ATOM     15  F   UNL A   1      26.565  27.970  23.631  1.00  0.00    -0.207 F 
ATOM     16  C   UNL A   1      28.907  27.909  23.370  1.00  0.00     0.065 A 
ENDBRANCH   7   9
ENDBRANCH   5   7
BRANCH   5  17
ATOM     17  C   UNL A   1      33.158  26.562  24.235  1.00  0.00    -0.009 A 
ATOM     18  C   UNL A   1      33.842  26.244  25.440  1.00  0.00     0.007 A 
ATOM     19  C   UNL A   1      33.238  25.607  23.204  1.00  0.00     0.046 A 
ATOM     20  C   UNL A   1      34.551  25.047  25.605  1.00  0.00     0.003 A 
ATOM     21  C   UNL A   1      33.966  24.425  23.370  1.00  0.00     0.123 A 
ATOM     22  C   UNL A   1      34.618  24.136  24.560  1.00  0.00     0.039 A 
ATOM     23  F   UNL A   1      34.039  23.550  22.358  1.00  0.00    -0.207 F 
ENDBRANCH   5  17
ENDBRANCH   3   5
ENDBRANCH   2   3
ENDBRANCH   1   2
BRANCH   1  24
ATOM     24  C   UNL A   1      33.988  31.095  27.201  1.00  0.00     0.275 C 
BRANCH  24  25
ATOM     25  O   UNL A   1      34.465  31.203  28.570  1.00  0.00    -0.458 OA
BRANCH  25  26
ATOM     26  C   UNL A   1      35.775  31.343  28.671  1.00  0.00     0.338 C 
ATOM     27  O   UNL A   1      36.396  32.400  28.913  1.00  0.00    -0.246 OA
BRANCH  26  28
ATOM     28  C   UNL A   1      36.524  30.127  28.387  1.00  0.00     0.060 A 
ATOM     29  C   UNL A   1      36.660  29.149  29.395  1.00  0.00     0.016 A 
ATOM     30  C   UNL A   1      37.423  30.164  27.310  1.00  0.00     0.016 A 
ATOM     31  C   UNL A   1      37.781  28.328  29.419  1.00  0.00     0.010 A 
ATOM     32  C   UNL A   1      38.532  29.336  27.344  1.00  0.00     0.010 A 
ATOM     33  C   UNL A   1      38.761  28.482  28.439  1.00  0.00    -0.014 A 
BRANCH  33  34
ATOM     34  C   UNL A   1      40.116  27.941  28.573  1.00  0.00     0.031 A 
ATOM     35  C   UNL A   1      40.506  26.578  28.162  1.00  0.00     0.074 A 
ATOM     36  C   UNL A   1      41.082  28.691  29.151  1.00  0.00     0.049 A 
ATOM     37  N   UNL A   1      41.451  25.901  28.740  1.00  0.00    -0.248 NA
ATOM     38  C   UNL A   1      39.854  25.863  27.070  1.00  0.00     0.031 C 
ATOM     39  C   UNL A   1      42.525  28.495  29.039  1.00  0.00     0.029 A 
ATOM     40  N   UNL A   1      40.942  29.699  30.106  1.00  0.00    -0.354 N 
ATOM     41  C   UNL A   1      41.734  24.839  27.924  1.00  0.00     0.074 A 
ATOM     42  C   UNL A   1      40.644  24.786  26.967  1.00  0.00     0.031 C 
ATOM     43  C   UNL A   1      43.143  29.181  30.012  1.00  0.00     0.029 A 
ATOM     44  C   UNL A   1      42.116  29.704  30.894  1.00  0.00     0.049 A 
ATOM     45  H   UNL A   1      40.166  30.297  30.212  1.00  0.00     0.167 HD
ATOM     46  C   UNL A   1      42.939  24.205  27.975  1.00  0.00     0.037 A 
ATOM     47  C   UNL A   1      42.119  29.590  32.259  1.00  0.00     0.037 A 
ATOM     48  C   UNL A   1      43.880  24.763  28.935  1.00  0.00     0.049 A 
ATOM     49  C   UNL A   1      43.043  28.545  32.810  1.00  0.00     0.074 A 
ATOM     50  C   UNL A   1      44.924  25.660  28.783  1.00  0.00     0.029 A 
ATOM     51  N   UNL A   1      43.687  24.621  30.306  1.00  0.00    -0.354 N 
ATOM     52  N   UNL A   1      43.469  27.543  32.104  1.00  0.00    -0.248 NA
ATOM     53  C   UNL A   1      43.433  28.461  34.216  1.00  0.00     0.031 C 
ATOM     54  C   UNL A   1      45.389  26.033  30.059  1.00  0.00     0.029 A 
ATOM     55  C   UNL A   1      44.610  25.386  30.999  1.00  0.00     0.049 A 
ATOM     56  H   UNL A   1      42.995  24.057  30.723  1.00  0.00     0.167 HD
ATOM     57  C   UNL A   1      44.123  26.670  32.926  1.00  0.00     0.074 A 
ATOM     58  C   UNL A   1      44.095  27.291  34.235  1.00  0.00     0.031 C 
ATOM     59  C   UNL A   1      44.604  25.492  32.445  1.00  0.00     0.037 A 
BRANCH  46  60
ATOM     60  C   UNL A   1      43.332  23.296  26.847  1.00  0.00     0.064 A 
ATOM     61  C   UNL A   1      43.028  21.921  26.856  1.00  0.00     0.173 A 
ATOM     62  C   UNL A   1      44.107  23.750  25.766  1.00  0.00     0.173 A 
ATOM     63  F   UNL A   1      42.278  21.372  27.817  1.00  0.00    -0.203 F 
ATOM     64  C   UNL A   1      43.531  21.046  25.895  1.00  0.00     0.198 A 
ATOM     65  C   UNL A   1      44.643  22.866  24.826  1.00  0.00     0.198 A 
ATOM     66  F   UNL A   1      44.398  25.054  25.642  1.00  0.00    -0.203 F 
ATOM     67  F   UNL A   1      43.237  19.740  25.967  1.00  0.00    -0.200 F 
ATOM     68  C   UNL A   1      44.364  21.513  24.897  1.00  0.00     0.200 A 
ATOM     69  F   UNL A   1      45.464  23.326  23.872  1.00  0.00    -0.200 F 
ATOM     70  F   UNL A   1      44.903  20.660  24.018  1.00  0.00    -0.200 F 
ENDBRANCH  46  60
BRANCH  47  71
ATOM     71  C   UNL A   1      40.785  29.837  32.865  1.00  0.00     0.064 A 
ATOM     72  C   UNL A   1      40.338  31.166  32.921  1.00  0.00     0.173 A 
ATOM     73  C   UNL A   1      39.835  28.805  32.847  1.00  0.00     0.173 A 
ATOM     74  F   UNL A   1      41.222  32.174  32.976  1.00  0.00    -0.203 F 
ATOM     75  C   UNL A   1      39.008  31.451  32.670  1.00  0.00     0.198 A 
ATOM     76  C   UNL A   1      38.498  29.099  32.651  1.00  0.00     0.198 A 
ATOM     77  F   UNL A   1      40.214  27.519  32.870  1.00  0.00    -0.203 F 
ATOM     78  F   UNL A   1      38.636  32.725  32.489  1.00  0.00    -0.200 F 
ATOM     79  C   UNL A   1      38.108  30.415  32.478  1.00  0.00     0.200 A 
ATOM     80  F   UNL A   1      37.603  28.112  32.507  1.00  0.00    -0.200 F 
ATOM     81  F   UNL A   1      36.868  30.668  32.051  1.00  0.00    -0.200 F 
ENDBRANCH  47  71
BRANCH  59  82
ATOM     82  C   UNL A   1      45.230  24.433  33.288  1.00  0.00     0.064 A 
ATOM     83  C   UNL A   1      44.568  23.247  33.642  1.00  0.00     0.173 A 
ATOM     84  C   UNL A   1      46.580  24.541  33.680  1.00  0.00     0.173 A 
ATOM     85  F   UNL A   1      43.305  23.021  33.252  1.00  0.00    -0.203 F 
ATOM     86  C   UNL A   1      45.206  22.248  34.380  1.00  0.00     0.198 A 
ATOM     87  C   UNL A   1      47.225  23.528  34.385  1.00  0.00     0.198 A 
ATOM     88  F   UNL A   1      47.302  25.632  33.385  1.00  0.00    -0.203 F 
ATOM     89  F   UNL A   1      44.531  21.142  34.724  1.00  0.00    -0.200 F 
ATOM     90  C   UNL A   1      46.534  22.385  34.743  1.00  0.00     0.200 A 
ATOM     91  F   UNL A   1      48.519  23.659  34.708  1.00  0.00    -0.200 F 
ATOM     92  F   UNL A   1      47.150  21.413  35.428  1.00  0.00    -0.200 F 
ENDBRANCH  59  82
ENDBRANCH  33  34
ENDBRANCH  26  28
ENDBRANCH  25  26
ENDBRANCH  24  25
ENDBRANCH   1  24
TORSDOF 14
ENDMDL
