MODEL 1
REMARK VINA RESULT:     -11.8      0.000      0.000
REMARK SMILES Cc1cc(=O)n2nc(C[N@@H+](C)CC(=O)OCCOC(=O)c3ccc(-c4c5nc(c(-c6c(F)c(F)c(F)c(F)c6F)c6ccc([nH]6)c(-c6c(F)c(F)c(F)c(F)c6F)c6nc(c(-c7c(F)c(F)c(F)c(F)c7F)c7ccc4[nH]7)C=C6)C=C5)cc3)sc2n1
REMARK SMILES IDX 16 1 15 2 13 3 14 4 12 5 10 6 11 7 9 9 8 10 1 11 2 12 3 13
REMARK SMILES IDX 86 14 4 15 85 16 5 17 6 18 84 19 7 20 17 21 18 22 19 23
REMARK SMILES IDX 20 24 21 25 22 26 83 27 23 28 82 29 24 30 25 31 26 32 76 33
REMARK SMILES IDX 27 34 81 35 75 36 77 37 28 38 80 39 74 40 73 41 29 43 61 44
REMARK SMILES IDX 41 45 60 46 42 47 45 48 59 49 78 50 43 51 44 52 58 54 79 55
REMARK SMILES IDX 46 56 30 57 31 58 39 59 32 60 33 61 37 62 40 63 34 64 35 65
REMARK SMILES IDX 38 66 36 67 62 68 63 69 71 70 64 71 65 72 69 73 72 74 66 75
REMARK SMILES IDX 67 76 70 77 68 78 47 79 48 80 56 81 49 82 50 83 54 84 57 85
REMARK SMILES IDX 51 86 52 87 55 88 53 89
REMARK H PARENT 10 8 77 42 45 53
REMARK Flexibility Score: inf
ROOT
ATOM      1  C   UNL A   1      36.367  21.684  25.562  1.00  0.00     0.274 C 
ENDROOT
BRANCH   1   2
ATOM      2  O   UNL A   1      35.852  21.627  24.211  1.00  0.00    -0.458 OA
BRANCH   2   3
ATOM      3  C   UNL A   1      35.832  22.790  23.504  1.00  0.00     0.361 C 
ATOM      4  O   UNL A   1      36.745  23.146  22.759  1.00  0.00    -0.245 OA
BRANCH   3   5
ATOM      5  C   UNL A   1      34.663  23.719  23.826  1.00  0.00     0.386 C 
BRANCH   5   6
ATOM      6  N   UNL A   1      33.460  23.777  22.967  1.00  0.00    -0.322 N 
ATOM      7  C   UNL A   1      33.192  25.101  22.412  1.00  0.00     0.333 C 
ATOM      8  H   UNL A   1      33.747  23.148  22.216  1.00  0.00     0.348 HD
BRANCH   6   9
ATOM      9  C   UNL A   1      32.216  23.182  23.490  1.00  0.00     0.333 C 
BRANCH   9  10
ATOM     10  C   UNL A   1      32.281  21.711  23.848  1.00  0.00     0.172 A 
ATOM     11  C   UNL A   1      32.691  16.063  25.842  1.00  0.00     0.067 C 
ATOM     12  C   UNL A   1      32.605  17.286  24.974  1.00  0.00     0.046 A 
ATOM     13  C   UNL A   1      32.517  17.169  23.639  1.00  0.00     0.097 A 
ATOM     14  N   UNL A   1      32.641  18.494  25.640  1.00  0.00    -0.224 NA
ATOM     15  C   UNL A   1      32.450  18.388  22.810  1.00  0.00     0.275 A 
ATOM     16  C   UNL A   1      32.531  19.546  24.899  1.00  0.00     0.215 A 
ATOM     17  O   UNL A   1      32.460  18.285  21.587  1.00  0.00    -0.267 OA
ATOM     18  N   UNL A   1      32.389  19.554  23.539  1.00  0.00    -0.167 N 
ATOM     19  S   UNL A   1      32.551  21.175  25.496  1.00  0.00    -0.073 S 
ATOM     20  N   UNL A   1      32.239  20.783  22.940  1.00  0.00    -0.150 NA
ENDBRANCH   9  10
ENDBRANCH   6   9
ENDBRANCH   5   6
ENDBRANCH   3   5
ENDBRANCH   2   3
ENDBRANCH   1   2
BRANCH   1  21
ATOM     21  C   UNL A   1      37.896  21.609  25.645  1.00  0.00     0.275 C 
BRANCH  21  22
ATOM     22  O   UNL A   1      38.474  22.811  26.176  1.00  0.00    -0.458 OA
BRANCH  22  23
ATOM     23  C   UNL A   1      39.683  22.589  26.726  1.00  0.00     0.338 C 
ATOM     24  O   UNL A   1      40.056  21.567  27.282  1.00  0.00    -0.246 OA
BRANCH  23  25
ATOM     25  C   UNL A   1      40.541  23.767  26.701  1.00  0.00     0.060 A 
ATOM     26  C   UNL A   1      41.566  23.804  27.647  1.00  0.00     0.016 A 
ATOM     27  C   UNL A   1      40.026  24.927  26.122  1.00  0.00     0.016 A 
ATOM     28  C   UNL A   1      41.916  25.024  28.187  1.00  0.00     0.010 A 
ATOM     29  C   UNL A   1      40.405  26.149  26.652  1.00  0.00     0.010 A 
ATOM     30  C   UNL A   1      41.248  26.180  27.771  1.00  0.00    -0.014 A 
BRANCH  30  31
ATOM     31  C   UNL A   1      41.412  27.391  28.586  1.00  0.00     0.031 A 
ATOM     32  C   UNL A   1      42.564  28.292  28.258  1.00  0.00     0.074 A 
ATOM     33  C   UNL A   1      40.481  27.730  29.506  1.00  0.00     0.049 A 
ATOM     34  N   UNL A   1      43.305  29.014  29.043  1.00  0.00    -0.248 NA
ATOM     35  C   UNL A   1      42.940  28.388  26.835  1.00  0.00     0.031 C 
ATOM     36  C   UNL A   1      39.203  27.063  29.785  1.00  0.00     0.029 A 
ATOM     37  N   UNL A   1      40.409  28.853  30.277  1.00  0.00    -0.354 N 
ATOM     38  C   UNL A   1      44.167  29.729  28.215  1.00  0.00     0.074 A 
ATOM     39  C   UNL A   1      43.939  29.266  26.871  1.00  0.00     0.031 C 
ATOM     40  C   UNL A   1      38.383  27.929  30.416  1.00  0.00     0.029 A 
ATOM     41  C   UNL A   1      39.117  29.152  30.685  1.00  0.00     0.049 A 
ATOM     42  H   UNL A   1      41.194  29.397  30.520  1.00  0.00     0.167 HD
ATOM     43  C   UNL A   1      44.946  30.762  28.637  1.00  0.00     0.037 A 
ATOM     44  C   UNL A   1      38.655  30.364  31.071  1.00  0.00     0.037 A 
ATOM     45  C   UNL A   1      45.245  30.707  30.035  1.00  0.00     0.049 A 
ATOM     46  C   UNL A   1      39.819  31.202  31.443  1.00  0.00     0.074 A 
ATOM     47  C   UNL A   1      45.951  29.825  30.832  1.00  0.00     0.029 A 
ATOM     48  N   UNL A   1      44.581  31.526  30.911  1.00  0.00    -0.354 N 
ATOM     49  N   UNL A   1      40.566  31.017  32.495  1.00  0.00    -0.248 NA
ATOM     50  C   UNL A   1      40.392  32.050  30.407  1.00  0.00     0.031 C 
ATOM     51  C   UNL A   1      45.285  29.839  32.091  1.00  0.00     0.029 A 
ATOM     52  C   UNL A   1      44.227  30.739  31.979  1.00  0.00     0.049 A 
ATOM     53  H   UNL A   1      44.394  32.486  30.796  1.00  0.00     0.167 HD
ATOM     54  C   UNL A   1      41.841  31.376  32.086  1.00  0.00     0.074 A 
ATOM     55  C   UNL A   1      41.654  32.097  30.832  1.00  0.00     0.031 C 
ATOM     56  C   UNL A   1      42.953  30.822  32.649  1.00  0.00     0.037 A 
BRANCH  43  57
ATOM     57  C   UNL A   1      45.281  31.933  27.761  1.00  0.00     0.064 A 
ATOM     58  C   UNL A   1      46.558  32.070  27.191  1.00  0.00     0.173 A 
ATOM     59  C   UNL A   1      44.432  33.057  27.656  1.00  0.00     0.173 A 
ATOM     60  F   UNL A   1      47.457  31.080  27.282  1.00  0.00    -0.203 F 
ATOM     61  C   UNL A   1      46.958  33.256  26.567  1.00  0.00     0.198 A 
ATOM     62  C   UNL A   1      44.815  34.219  26.990  1.00  0.00     0.198 A 
ATOM     63  F   UNL A   1      43.242  33.095  28.271  1.00  0.00    -0.203 F 
ATOM     64  F   UNL A   1      48.211  33.378  26.107  1.00  0.00    -0.200 F 
ATOM     65  C   UNL A   1      46.085  34.327  26.461  1.00  0.00     0.200 A 
ATOM     66  F   UNL A   1      43.963  35.251  26.916  1.00  0.00    -0.200 F 
ATOM     67  F   UNL A   1      46.478  35.473  25.891  1.00  0.00    -0.200 F 
ENDBRANCH  43  57
BRANCH  44  68
ATOM     68  C   UNL A   1      37.330  30.949  30.743  1.00  0.00     0.064 A 
ATOM     69  C   UNL A   1      36.447  31.337  31.763  1.00  0.00     0.173 A 
ATOM     70  C   UNL A   1      37.009  31.385  29.441  1.00  0.00     0.173 A 
ATOM     71  F   UNL A   1      36.708  31.014  33.038  1.00  0.00    -0.203 F 
ATOM     72  C   UNL A   1      35.321  32.123  31.497  1.00  0.00     0.198 A 
ATOM     73  C   UNL A   1      35.876  32.151  29.174  1.00  0.00     0.198 A 
ATOM     74  F   UNL A   1      37.837  31.162  28.410  1.00  0.00    -0.203 F 
ATOM     75  F   UNL A   1      34.537  32.528  32.506  1.00  0.00    -0.200 F 
ATOM     76  C   UNL A   1      35.038  32.532  30.204  1.00  0.00     0.200 A 
ATOM     77  F   UNL A   1      35.636  32.569  27.923  1.00  0.00    -0.200 F 
ATOM     78  F   UNL A   1      33.989  33.327  29.956  1.00  0.00    -0.200 F 
ENDBRANCH  44  68
BRANCH  56  79
ATOM     79  C   UNL A   1      42.776  29.984  33.884  1.00  0.00     0.064 A 
ATOM     80  C   UNL A   1      42.386  28.633  33.848  1.00  0.00     0.173 A 
ATOM     81  C   UNL A   1      43.160  30.510  35.123  1.00  0.00     0.173 A 
ATOM     82  F   UNL A   1      42.102  28.029  32.687  1.00  0.00    -0.203 F 
ATOM     83  C   UNL A   1      42.337  27.862  35.007  1.00  0.00     0.198 A 
ATOM     84  C   UNL A   1      43.144  29.728  36.276  1.00  0.00     0.198 A 
ATOM     85  F   UNL A   1      43.601  31.775  35.212  1.00  0.00    -0.203 F 
ATOM     86  F   UNL A   1      41.948  26.580  34.948  1.00  0.00    -0.200 F 
ATOM     87  C   UNL A   1      42.723  28.408  36.220  1.00  0.00     0.200 A 
ATOM     88  F   UNL A   1      43.564  30.244  37.440  1.00  0.00    -0.200 F 
ATOM     89  F   UNL A   1      42.716  27.656  37.329  1.00  0.00    -0.200 F 
ENDBRANCH  56  79
ENDBRANCH  30  31
ENDBRANCH  23  25
ENDBRANCH  22  23
ENDBRANCH  21  22
ENDBRANCH   1  21
TORSDOF 14
ENDMDL
MODEL 2
REMARK VINA RESULT:     -11.8      4.757      9.478
REMARK SMILES Cc1cc(=O)n2nc(C[N@@H+](C)CC(=O)OCCOC(=O)c3ccc(-c4c5nc(c(-c6c(F)c(F)c(F)c(F)c6F)c6ccc([nH]6)c(-c6c(F)c(F)c(F)c(F)c6F)c6nc(c(-c7c(F)c(F)c(F)c(F)c7F)c7ccc4[nH]7)C=C6)C=C5)cc3)sc2n1
REMARK SMILES IDX 16 1 15 2 13 3 14 4 12 5 10 6 11 7 9 9 8 10 1 11 2 12 3 13
REMARK SMILES IDX 86 14 4 15 85 16 5 17 6 18 84 19 7 20 17 21 18 22 19 23
REMARK SMILES IDX 20 24 21 25 22 26 83 27 23 28 82 29 24 30 25 31 26 32 76 33
REMARK SMILES IDX 27 34 81 35 75 36 77 37 28 38 80 39 74 40 73 41 29 43 61 44
REMARK SMILES IDX 41 45 60 46 42 47 45 48 59 49 78 50 43 51 44 52 58 54 79 55
REMARK SMILES IDX 46 56 30 57 31 58 39 59 32 60 33 61 37 62 40 63 34 64 35 65
REMARK SMILES IDX 38 66 36 67 62 68 63 69 71 70 64 71 65 72 69 73 72 74 66 75
REMARK SMILES IDX 67 76 70 77 68 78 47 79 48 80 56 81 49 82 50 83 54 84 57 85
REMARK SMILES IDX 51 86 52 87 55 88 53 89
REMARK H PARENT 10 8 77 42 45 53
REMARK Flexibility Score: inf
ROOT
ATOM      1  C   UNL A   1      34.495  29.790  27.440  1.00  0.00     0.274 C 
ENDROOT
BRANCH   1   2
ATOM      2  O   UNL A   1      33.474  30.346  26.579  1.00  0.00    -0.458 OA
BRANCH   2   3
ATOM      3  C   UNL A   1      32.253  29.744  26.594  1.00  0.00     0.361 C 
ATOM      4  O   UNL A   1      31.884  28.983  27.488  1.00  0.00    -0.245 OA
BRANCH   3   5
ATOM      5  C   UNL A   1      31.420  29.946  25.329  1.00  0.00     0.386 C 
BRANCH   5   6
ATOM      6  N   UNL A   1      31.355  28.914  24.272  1.00  0.00    -0.322 N 
ATOM      7  C   UNL A   1      30.520  29.287  23.133  1.00  0.00     0.333 C 
ATOM      8  H   UNL A   1      32.332  28.895  23.981  1.00  0.00     0.348 HD
BRANCH   6   9
ATOM      9  C   UNL A   1      31.065  27.528  24.683  1.00  0.00     0.333 C 
BRANCH   9  10
ATOM     10  C   UNL A   1      32.191  26.531  24.500  1.00  0.00     0.172 A 
ATOM     11  C   UNL A   1      36.625  22.708  23.164  1.00  0.00     0.067 C 
ATOM     12  C   UNL A   1      35.516  23.451  23.855  1.00  0.00     0.046 A 
ATOM     13  C   UNL A   1      35.203  23.175  25.131  1.00  0.00     0.097 A 
ATOM     14  N   UNL A   1      34.859  24.391  23.088  1.00  0.00    -0.224 NA
ATOM     15  C   UNL A   1      34.099  23.910  25.779  1.00  0.00     0.275 A 
ATOM     16  C   UNL A   1      33.930  25.056  23.690  1.00  0.00     0.215 A 
ATOM     17  O   UNL A   1      33.753  23.597  26.915  1.00  0.00    -0.267 OA
ATOM     18  N   UNL A   1      33.553  24.900  24.995  1.00  0.00    -0.167 N 
ATOM     19  S   UNL A   1      32.961  26.287  22.943  1.00  0.00    -0.073 S 
ATOM     20  N   UNL A   1      32.571  25.742  25.460  1.00  0.00    -0.150 NA
ENDBRANCH   9  10
ENDBRANCH   6   9
ENDBRANCH   5   6
ENDBRANCH   3   5
ENDBRANCH   2   3
ENDBRANCH   1   2
BRANCH   1  21
ATOM     21  C   UNL A   1      35.258  30.841  28.255  1.00  0.00     0.275 C 
BRANCH  21  22
ATOM     22  O   UNL A   1      36.609  31.009  27.802  1.00  0.00    -0.458 OA
BRANCH  22  23
ATOM     23  C   UNL A   1      37.488  30.360  28.588  1.00  0.00     0.338 C 
ATOM     24  O   UNL A   1      37.750  30.612  29.753  1.00  0.00    -0.246 OA
BRANCH  23  25
ATOM     25  C   UNL A   1      38.233  29.330  27.874  1.00  0.00     0.060 A 
ATOM     26  C   UNL A   1      38.235  28.058  28.449  1.00  0.00     0.016 A 
ATOM     27  C   UNL A   1      39.237  29.749  27.001  1.00  0.00     0.016 A 
ATOM     28  C   UNL A   1      39.373  27.288  28.332  1.00  0.00     0.010 A 
ATOM     29  C   UNL A   1      40.364  28.954  26.867  1.00  0.00     0.010 A 
ATOM     30  C   UNL A   1      40.479  27.791  27.639  1.00  0.00    -0.014 A 
BRANCH  30  31
ATOM     31  C   UNL A   1      41.762  27.097  27.811  1.00  0.00     0.031 A 
ATOM     32  C   UNL A   1      42.511  27.341  29.087  1.00  0.00     0.074 A 
ATOM     33  C   UNL A   1      42.175  26.183  26.906  1.00  0.00     0.049 A 
ATOM     34  N   UNL A   1      43.790  27.403  29.301  1.00  0.00    -0.248 NA
ATOM     35  C   UNL A   1      41.697  27.551  30.299  1.00  0.00     0.031 C 
ATOM     36  C   UNL A   1      41.451  25.688  25.729  1.00  0.00     0.029 A 
ATOM     37  N   UNL A   1      43.274  25.374  26.946  1.00  0.00    -0.354 N 
ATOM     38  C   UNL A   1      43.947  27.557  30.677  1.00  0.00     0.074 A 
ATOM     39  C   UNL A   1      42.629  27.698  31.237  1.00  0.00     0.031 C 
ATOM     40  C   UNL A   1      41.972  24.500  25.357  1.00  0.00     0.029 A 
ATOM     41  C   UNL A   1      43.127  24.219  26.191  1.00  0.00     0.049 A 
ATOM     42  H   UNL A   1      44.088  25.588  27.457  1.00  0.00     0.167 HD
ATOM     43  C   UNL A   1      45.137  27.438  31.325  1.00  0.00     0.037 A 
ATOM     44  C   UNL A   1      43.810  23.062  26.351  1.00  0.00     0.037 A 
ATOM     45  C   UNL A   1      46.266  27.699  30.485  1.00  0.00     0.049 A 
ATOM     46  C   UNL A   1      45.043  23.358  27.119  1.00  0.00     0.074 A 
ATOM     47  C   UNL A   1      46.723  28.815  29.812  1.00  0.00     0.029 A 
ATOM     48  N   UNL A   1      47.013  26.657  29.998  1.00  0.00    -0.354 N 
ATOM     49  N   UNL A   1      46.059  24.037  26.666  1.00  0.00    -0.248 NA
ATOM     50  C   UNL A   1      44.982  23.208  28.565  1.00  0.00     0.031 C 
ATOM     51  C   UNL A   1      47.341  28.317  28.630  1.00  0.00     0.029 A 
ATOM     52  C   UNL A   1      47.228  26.928  28.670  1.00  0.00     0.049 A 
ATOM     53  H   UNL A   1      47.330  25.872  30.501  1.00  0.00     0.167 HD
ATOM     54  C   UNL A   1      46.531  24.736  27.765  1.00  0.00     0.074 A 
ATOM     55  C   UNL A   1      45.898  24.110  28.920  1.00  0.00     0.031 C 
ATOM     56  C   UNL A   1      47.172  25.932  27.629  1.00  0.00     0.037 A 
BRANCH  43  57
ATOM     57  C   UNL A   1      45.248  26.894  32.720  1.00  0.00     0.064 A 
ATOM     58  C   UNL A   1      45.074  25.524  32.979  1.00  0.00     0.173 A 
ATOM     59  C   UNL A   1      45.295  27.737  33.851  1.00  0.00     0.173 A 
ATOM     60  F   UNL A   1      44.965  24.645  31.972  1.00  0.00    -0.203 F 
ATOM     61  C   UNL A   1      44.946  25.036  34.284  1.00  0.00     0.198 A 
ATOM     62  C   UNL A   1      45.218  27.244  35.152  1.00  0.00     0.198 A 
ATOM     63  F   UNL A   1      45.327  29.072  33.729  1.00  0.00    -0.203 F 
ATOM     64  F   UNL A   1      44.699  23.735  34.488  1.00  0.00    -0.200 F 
ATOM     65  C   UNL A   1      45.025  25.895  35.369  1.00  0.00     0.200 A 
ATOM     66  F   UNL A   1      45.276  28.093  36.187  1.00  0.00    -0.200 F 
ATOM     67  F   UNL A   1      44.872  25.432  36.616  1.00  0.00    -0.200 F 
ENDBRANCH  43  57
BRANCH  44  68
ATOM     68  C   UNL A   1      43.258  21.688  26.238  1.00  0.00     0.064 A 
ATOM     69  C   UNL A   1      43.843  20.750  25.373  1.00  0.00     0.173 A 
ATOM     70  C   UNL A   1      42.320  21.183  27.163  1.00  0.00     0.173 A 
ATOM     71  F   UNL A   1      44.787  21.135  24.502  1.00  0.00    -0.203 F 
ATOM     72  C   UNL A   1      43.519  19.392  25.438  1.00  0.00     0.198 A 
ATOM     73  C   UNL A   1      41.983  19.833  27.213  1.00  0.00     0.198 A 
ATOM     74  F   UNL A   1      41.780  21.971  28.104  1.00  0.00    -0.203 F 
ATOM     75  F   UNL A   1      44.147  18.516  24.640  1.00  0.00    -0.200 F 
ATOM     76  C   UNL A   1      42.592  18.933  26.360  1.00  0.00     0.200 A 
ATOM     77  F   UNL A   1      41.111  19.399  28.135  1.00  0.00    -0.200 F 
ATOM     78  F   UNL A   1      42.319  17.625  26.457  1.00  0.00    -0.200 F 
ENDBRANCH  44  68
BRANCH  56  79
ATOM     79  C   UNL A   1      47.564  26.369  26.245  1.00  0.00     0.064 A 
ATOM     80  C   UNL A   1      46.731  27.141  25.416  1.00  0.00     0.173 A 
ATOM     81  C   UNL A   1      48.873  26.136  25.805  1.00  0.00     0.173 A 
ATOM     82  F   UNL A   1      45.501  27.491  25.811  1.00  0.00    -0.203 F 
ATOM     83  C   UNL A   1      47.174  27.614  24.183  1.00  0.00     0.198 A 
ATOM     84  C   UNL A   1      49.326  26.640  24.587  1.00  0.00     0.198 A 
ATOM     85  F   UNL A   1      49.735  25.459  26.580  1.00  0.00    -0.203 F 
ATOM     86  F   UNL A   1      46.354  28.337  23.405  1.00  0.00    -0.200 F 
ATOM     87  C   UNL A   1      48.473  27.370  23.772  1.00  0.00     0.200 A 
ATOM     88  F   UNL A   1      50.598  26.444  24.214  1.00  0.00    -0.200 F 
ATOM     89  F   UNL A   1      48.913  27.860  22.605  1.00  0.00    -0.200 F 
ENDBRANCH  56  79
ENDBRANCH  30  31
ENDBRANCH  23  25
ENDBRANCH  22  23
ENDBRANCH  21  22
ENDBRANCH   1  21
TORSDOF 14
ENDMDL
MODEL 3
REMARK VINA RESULT:     -11.8      6.087     10.625
REMARK SMILES Cc1cc(=O)n2nc(C[N@@H+](C)CC(=O)OCCOC(=O)c3ccc(-c4c5nc(c(-c6c(F)c(F)c(F)c(F)c6F)c6ccc([nH]6)c(-c6c(F)c(F)c(F)c(F)c6F)c6nc(c(-c7c(F)c(F)c(F)c(F)c7F)c7ccc4[nH]7)C=C6)C=C5)cc3)sc2n1
REMARK SMILES IDX 16 1 15 2 13 3 14 4 12 5 10 6 11 7 9 9 8 10 1 11 2 12 3 13
REMARK SMILES IDX 86 14 4 15 85 16 5 17 6 18 84 19 7 20 17 21 18 22 19 23
REMARK SMILES IDX 20 24 21 25 22 26 83 27 23 28 82 29 24 30 25 31 26 32 76 33
REMARK SMILES IDX 27 34 81 35 75 36 77 37 28 38 80 39 74 40 73 41 29 43 61 44
REMARK SMILES IDX 41 45 60 46 42 47 45 48 59 49 78 50 43 51 44 52 58 54 79 55
REMARK SMILES IDX 46 56 30 57 31 58 39 59 32 60 33 61 37 62 40 63 34 64 35 65
REMARK SMILES IDX 38 66 36 67 62 68 63 69 71 70 64 71 65 72 69 73 72 74 66 75
REMARK SMILES IDX 67 76 70 77 68 78 47 79 48 80 56 81 49 82 50 83 54 84 57 85
REMARK SMILES IDX 51 86 52 87 55 88 53 89
REMARK H PARENT 10 8 77 42 45 53
REMARK Flexibility Score: inf
ROOT
ATOM      1  C   UNL A   1      34.756  33.641  28.753  1.00  0.00     0.274 C 
ENDROOT
BRANCH   1   2
ATOM      2  O   UNL A   1      34.045  34.271  29.845  1.00  0.00    -0.458 OA
BRANCH   2   3
ATOM      3  C   UNL A   1      33.012  35.096  29.520  1.00  0.00     0.361 C 
ATOM      4  O   UNL A   1      32.553  35.191  28.382  1.00  0.00    -0.245 OA
BRANCH   3   5
ATOM      5  C   UNL A   1      32.560  36.032  30.639  1.00  0.00     0.386 C 
BRANCH   5   6
ATOM      6  N   UNL A   1      32.593  35.618  32.058  1.00  0.00    -0.322 N 
ATOM      7  C   UNL A   1      31.332  35.828  32.765  1.00  0.00     0.333 C 
ATOM      8  H   UNL A   1      32.753  34.616  31.948  1.00  0.00     0.348 HD
BRANCH   6   9
ATOM      9  C   UNL A   1      33.723  36.083  32.882  1.00  0.00     0.333 C 
BRANCH   9  10
ATOM     10  C   UNL A   1      34.775  35.045  33.216  1.00  0.00     0.172 A 
ATOM     11  C   UNL A   1      38.481  30.512  34.544  1.00  0.00     0.067 C 
ATOM     12  C   UNL A   1      37.880  31.873  34.334  1.00  0.00     0.046 A 
ATOM     13  C   UNL A   1      38.621  32.978  34.508  1.00  0.00     0.097 A 
ATOM     14  N   UNL A   1      36.547  31.887  33.980  1.00  0.00    -0.224 NA
ATOM     15  C   UNL A   1      37.999  34.303  34.310  1.00  0.00     0.275 A 
ATOM     16  C   UNL A   1      36.037  33.054  33.765  1.00  0.00     0.215 A 
ATOM     17  O   UNL A   1      38.650  35.315  34.556  1.00  0.00    -0.267 OA
ATOM     18  N   UNL A   1      36.700  34.246  33.862  1.00  0.00    -0.167 N 
ATOM     19  S   UNL A   1      34.386  33.337  33.311  1.00  0.00    -0.073 S 
ATOM     20  N   UNL A   1      35.987  35.378  33.544  1.00  0.00    -0.150 NA
ENDBRANCH   9  10
ENDBRANCH   6   9
ENDBRANCH   5   6
ENDBRANCH   3   5
ENDBRANCH   2   3
ENDBRANCH   1   2
BRANCH   1  21
ATOM     21  C   UNL A   1      34.499  32.135  28.634  1.00  0.00     0.275 C 
BRANCH  21  22
ATOM     22  O   UNL A   1      35.709  31.387  28.451  1.00  0.00    -0.458 OA
BRANCH  22  23
ATOM     23  C   UNL A   1      36.092  30.763  29.581  1.00  0.00     0.338 C 
ATOM     24  O   UNL A   1      35.900  31.142  30.726  1.00  0.00    -0.246 OA
BRANCH  23  25
ATOM     25  C   UNL A   1      36.897  29.574  29.326  1.00  0.00     0.060 A 
ATOM     26  C   UNL A   1      37.443  28.946  30.446  1.00  0.00     0.016 A 
ATOM     27  C   UNL A   1      37.450  29.431  28.054  1.00  0.00     0.016 A 
ATOM     28  C   UNL A   1      38.687  28.362  30.329  1.00  0.00     0.010 A 
ATOM     29  C   UNL A   1      38.688  28.818  27.942  1.00  0.00     0.010 A 
ATOM     30  C   UNL A   1      39.357  28.406  29.102  1.00  0.00    -0.014 A 
BRANCH  30  31
ATOM     31  C   UNL A   1      40.787  28.074  29.096  1.00  0.00     0.031 A 
ATOM     32  C   UNL A   1      41.175  26.705  28.624  1.00  0.00     0.074 A 
ATOM     33  C   UNL A   1      41.712  29.016  29.384  1.00  0.00     0.049 A 
ATOM     34  N   UNL A   1      42.140  25.931  29.020  1.00  0.00    -0.248 NA
ATOM     35  C   UNL A   1      40.348  26.119  27.552  1.00  0.00     0.031 C 
ATOM     36  C   UNL A   1      41.493  30.443  29.652  1.00  0.00     0.029 A 
ATOM     37  N   UNL A   1      43.073  28.925  29.333  1.00  0.00    -0.354 N 
ATOM     38  C   UNL A   1      42.108  24.814  28.187  1.00  0.00     0.074 A 
ATOM     39  C   UNL A   1      40.954  24.954  27.339  1.00  0.00     0.031 C 
ATOM     40  C   UNL A   1      42.646  31.112  29.445  1.00  0.00     0.029 A 
ATOM     41  C   UNL A   1      43.694  30.152  29.151  1.00  0.00     0.049 A 
ATOM     42  H   UNL A   1      43.564  28.075  29.416  1.00  0.00     0.167 HD
ATOM     43  C   UNL A   1      43.095  23.878  28.132  1.00  0.00     0.037 A 
ATOM     44  C   UNL A   1      44.933  30.360  28.647  1.00  0.00     0.037 A 
ATOM     45  C   UNL A   1      43.866  23.801  29.335  1.00  0.00     0.049 A 
ATOM     46  C   UNL A   1      45.694  29.093  28.763  1.00  0.00     0.074 A 
ATOM     47  C   UNL A   1      43.578  23.448  30.639  1.00  0.00     0.029 A 
ATOM     48  N   UNL A   1      45.114  24.367  29.385  1.00  0.00    -0.354 N 
ATOM     49  N   UNL A   1      46.105  28.569  29.883  1.00  0.00    -0.248 NA
ATOM     50  C   UNL A   1      45.673  28.193  27.619  1.00  0.00     0.031 C 
ATOM     51  C   UNL A   1      44.424  24.261  31.446  1.00  0.00     0.029 A 
ATOM     52  C   UNL A   1      45.179  25.046  30.577  1.00  0.00     0.049 A 
ATOM     53  H   UNL A   1      45.821  24.300  28.703  1.00  0.00     0.167 HD
ATOM     54  C   UNL A   1      46.003  27.200  29.687  1.00  0.00     0.074 A 
ATOM     55  C   UNL A   1      45.832  27.029  28.249  1.00  0.00     0.031 C 
ATOM     56  C   UNL A   1      45.788  26.344  30.727  1.00  0.00     0.037 A 
BRANCH  43  57
ATOM     57  C   UNL A   1      43.451  23.152  26.868  1.00  0.00     0.064 A 
ATOM     58  C   UNL A   1      43.077  21.811  26.673  1.00  0.00     0.173 A 
ATOM     59  C   UNL A   1      44.363  23.682  25.930  1.00  0.00     0.173 A 
ATOM     60  F   UNL A   1      42.256  21.197  27.537  1.00  0.00    -0.203 F 
ATOM     61  C   UNL A   1      43.591  21.054  25.615  1.00  0.00     0.198 A 
ATOM     62  C   UNL A   1      44.834  22.942  24.848  1.00  0.00     0.198 A 
ATOM     63  F   UNL A   1      44.893  24.904  26.084  1.00  0.00    -0.203 F 
ATOM     64  F   UNL A   1      43.274  19.756  25.509  1.00  0.00    -0.200 F 
ATOM     65  C   UNL A   1      44.464  21.622  24.700  1.00  0.00     0.200 A 
ATOM     66  F   UNL A   1      45.694  23.503  23.986  1.00  0.00    -0.200 F 
ATOM     67  F   UNL A   1      44.979  20.889  23.705  1.00  0.00    -0.200 F 
ENDBRANCH  43  57
BRANCH  44  68
ATOM     68  C   UNL A   1      45.339  31.445  27.719  1.00  0.00     0.064 A 
ATOM     69  C   UNL A   1      44.537  31.782  26.617  1.00  0.00     0.173 A 
ATOM     70  C   UNL A   1      46.376  32.348  28.036  1.00  0.00     0.173 A 
ATOM     71  F   UNL A   1      43.494  31.009  26.282  1.00  0.00    -0.203 F 
ATOM     72  C   UNL A   1      44.752  32.955  25.887  1.00  0.00     0.198 A 
ATOM     73  C   UNL A   1      46.601  33.505  27.295  1.00  0.00     0.198 A 
ATOM     74  F   UNL A   1      47.134  32.179  29.129  1.00  0.00    -0.203 F 
ATOM     75  F   UNL A   1      43.925  33.276  24.881  1.00  0.00    -0.200 F 
ATOM     76  C   UNL A   1      45.780  33.818  26.228  1.00  0.00     0.200 A 
ATOM     77  F   UNL A   1      47.578  34.349  27.660  1.00  0.00    -0.200 F 
ATOM     78  F   UNL A   1      45.955  34.966  25.561  1.00  0.00    -0.200 F 
ENDBRANCH  44  68
BRANCH  56  79
ATOM     79  C   UNL A   1      45.895  26.890  32.123  1.00  0.00     0.064 A 
ATOM     80  C   UNL A   1      44.820  27.500  32.795  1.00  0.00     0.173 A 
ATOM     81  C   UNL A   1      47.062  26.652  32.858  1.00  0.00     0.173 A 
ATOM     82  F   UNL A   1      43.638  27.669  32.192  1.00  0.00    -0.203 F 
ATOM     83  C   UNL A   1      44.930  27.896  34.127  1.00  0.00     0.198 A 
ATOM     84  C   UNL A   1      47.158  27.017  34.200  1.00  0.00     0.198 A 
ATOM     85  F   UNL A   1      48.100  26.017  32.290  1.00  0.00    -0.203 F 
ATOM     86  F   UNL A   1      43.895  28.488  34.741  1.00  0.00    -0.200 F 
ATOM     87  C   UNL A   1      46.096  27.648  34.830  1.00  0.00     0.200 A 
ATOM     88  F   UNL A   1      48.271  26.732  34.892  1.00  0.00    -0.200 F 
ATOM     89  F   UNL A   1      46.189  27.991  36.123  1.00  0.00    -0.200 F 
ENDBRANCH  56  79
ENDBRANCH  30  31
ENDBRANCH  23  25
ENDBRANCH  22  23
ENDBRANCH  21  22
ENDBRANCH   1  21
TORSDOF 14
ENDMDL
