MODEL 1
REMARK VINA RESULT:     -15.2      0.000      0.000
REMARK SMILES Cc1ccc(-c2cc(Cl)cc3c2O[C@H](C(F)(F)F)C(C(=O)OCCOC(=O)c2ccc(-c4c5nc(c(-c6c(F)c(F)c(F)c(F)c6F)c6ccc([nH]6)c(-c6c(F)c(F)c(F)c(F)c6F)c6nc(c(-c7c(F)c(F)c(F)c(F)c7F)c7ccc4[nH]7)C=C6)C=C5)cc2)=C3)cc1
REMARK SMILES IDX 24 1 23 2 22 3 20 4 21 5 19 6 6 7 7 8 12 9 8 10 11 11 13 12
REMARK SMILES IDX 9 13 10 14 91 15 14 16 5 17 1 18 2 19 3 20 93 21 4 22 92 23
REMARK SMILES IDX 15 24 16 25 17 26 18 27 25 28 26 29 27 30 28 31 29 32 90 33
REMARK SMILES IDX 30 34 89 35 31 36 32 37 33 38 83 39 34 40 88 41 82 42 84 43
REMARK SMILES IDX 35 44 87 45 81 46 80 47 36 49 68 50 48 51 67 52 49 53 52 54
REMARK SMILES IDX 66 55 85 56 50 57 51 58 65 60 86 61 53 62 37 63 38 64 46 65
REMARK SMILES IDX 39 66 40 67 44 68 47 69 41 70 42 71 45 72 43 73 69 74 70 75
REMARK SMILES IDX 78 76 71 77 72 78 76 79 79 80 73 81 74 82 77 83 75 84 54 85
REMARK SMILES IDX 55 86 63 87 56 88 57 89 61 90 64 91 58 92 59 93 62 94 60 95
REMARK H PARENT 84 48 52 59
REMARK Flexibility Score: inf
ROOT
ATOM      1  C   UNL A   1      36.354  23.864  25.988  1.00  0.00     0.275 C 
ENDROOT
BRANCH   1   2
ATOM      2  C   UNL A   1      35.282  24.078  24.835  1.00  0.00     0.275 C 
BRANCH   2   3
ATOM      3  O   UNL A   1      34.215  25.504  24.778  1.00  0.00    -0.459 OA
BRANCH   3   4
ATOM      4  C   UNL A   1      33.957  27.297  25.596  1.00  0.00     0.338 C 
ATOM      5  O   UNL A   1      33.665  27.575  26.809  1.00  0.00    -0.246 OA
BRANCH   4   6
ATOM      6  C   UNL A   1      33.661  28.571  24.689  1.00  0.00     0.087 C 
ATOM      7  C   UNL A   1      30.489  26.729  24.918  1.00  0.00     0.026 A 
ATOM      8  C   UNL A   1      29.470  27.014  23.985  1.00  0.00     0.033 A 
ATOM      9  C   UNL A   1      31.235  27.848  25.306  1.00  0.00     0.135 A 
ATOM     10  C   UNL A   1      29.250  28.319  23.500  1.00  0.00     0.042 A 
ATOM     11  C   UNL A   1      31.230  29.004  24.572  1.00  0.00     0.019 A 
ATOM     12  O   UNL A   1      32.076  27.995  26.358  1.00  0.00    -0.475 OA
ATOM     13  Cl  UNL A   1      28.067  28.579  22.277  1.00  0.00    -0.084 Cl
ATOM     14  C   UNL A   1      30.137  29.348  23.804  1.00  0.00     0.032 A 
ATOM     15  C   UNL A   1      32.616  29.328  24.234  1.00  0.00     0.027 C 
ATOM     16  C   UNL A   1      33.903  28.293  26.225  1.00  0.00     0.316 C 
BRANCH   7  17
ATOM     17  C   UNL A   1      30.920  25.304  25.119  1.00  0.00    -0.015 A 
ATOM     18  C   UNL A   1      32.204  21.112  25.324  1.00  0.00     0.044 C 
ATOM     19  C   UNL A   1      31.819  22.564  25.258  1.00  0.00    -0.051 A 
ATOM     20  C   UNL A   1      31.724  23.369  26.403  1.00  0.00     0.004 A 
ATOM     21  C   UNL A   1      31.475  23.134  24.039  1.00  0.00     0.004 A 
ATOM     22  C   UNL A   1      31.288  24.721  26.335  1.00  0.00     0.009 A 
ATOM     23  C   UNL A   1      31.030  24.462  23.986  1.00  0.00     0.009 A 
ENDBRANCH   7  17
BRANCH  16  24
ATOM     24  C   UNL A   1      35.376  29.293  27.529  1.00  0.00     0.430 C 
ATOM     25  F   UNL A   1      36.730  28.819  27.622  1.00  0.00    -0.167 F 
ATOM     26  F   UNL A   1      35.658  30.658  27.251  1.00  0.00    -0.167 F 
ATOM     27  F   UNL A   1      35.225  29.329  28.913  1.00  0.00    -0.167 F 
ENDBRANCH  16  24
ENDBRANCH   4   6
ENDBRANCH   3   4
ENDBRANCH   2   3
ENDBRANCH   1   2
BRANCH   1  28
ATOM     28  O   UNL A   1      37.629  24.601  26.105  1.00  0.00    -0.458 OA
BRANCH  28  29
ATOM     29  C   UNL A   1      38.833  24.221  26.596  1.00  0.00     0.338 C 
ATOM     30  O   UNL A   1      39.316  23.107  26.554  1.00  0.00    -0.246 OA
BRANCH  29  31
ATOM     31  C   UNL A   1      39.473  25.344  27.228  1.00  0.00     0.060 A 
ATOM     32  C   UNL A   1      40.788  26.580  26.348  1.00  0.00     0.016 A 
ATOM     33  C   UNL A   1      38.819  25.473  29.076  1.00  0.00     0.016 A 
ATOM     34  C   UNL A   1      41.110  28.258  27.381  1.00  0.00     0.010 A 
ATOM     35  C   UNL A   1      38.995  27.175  30.071  1.00  0.00     0.010 A 
ATOM     36  C   UNL A   1      40.118  28.472  29.104  1.00  0.00    -0.014 A 
BRANCH  36  37
ATOM     37  C   UNL A   1      40.318  29.514  30.160  1.00  0.00     0.031 A 
ATOM     38  C   UNL A   1      39.483  30.720  30.025  1.00  0.00     0.074 A 
ATOM     39  C   UNL A   1      40.796  29.069  31.371  1.00  0.00     0.049 A 
ATOM     40  N   UNL A   1      39.781  31.911  30.440  1.00  0.00    -0.248 NA
ATOM     41  C   UNL A   1      38.270  30.692  29.197  1.00  0.00     0.031 C 
ATOM     42  C   UNL A   1      40.074  29.135  32.661  1.00  0.00     0.029 A 
ATOM     43  N   UNL A   1      41.827  28.149  31.685  1.00  0.00    -0.354 N 
ATOM     44  C   UNL A   1      38.604  32.623  30.247  1.00  0.00     0.074 A 
ATOM     45  C   UNL A   1      37.978  31.989  29.126  1.00  0.00     0.031 C 
ATOM     46  C   UNL A   1      40.778  28.505  33.627  1.00  0.00     0.029 A 
ATOM     47  C   UNL A   1      42.069  28.147  33.081  1.00  0.00     0.049 A 
ATOM     48  H   UNL A   1      42.305  27.593  31.028  1.00  0.00     0.167 HD
ATOM     49  C   UNL A   1      37.920  33.119  31.327  1.00  0.00     0.037 A 
ATOM     50  C   UNL A   1      43.276  28.527  33.615  1.00  0.00     0.037 A 
ATOM     51  C   UNL A   1      38.557  32.696  32.571  1.00  0.00     0.049 A 
ATOM     52  C   UNL A   1      43.236  29.855  34.326  1.00  0.00     0.074 A 
ATOM     53  C   UNL A   1      38.215  31.824  33.587  1.00  0.00     0.029 A 
ATOM     54  N   UNL A   1      39.880  33.007  32.776  1.00  0.00    -0.354 N 
ATOM     55  N   UNL A   1      42.170  30.589  34.415  1.00  0.00    -0.248 NA
ATOM     56  C   UNL A   1      44.471  30.570  34.648  1.00  0.00     0.031 C 
ATOM     57  C   UNL A   1      39.337  31.728  34.467  1.00  0.00     0.029 A 
ATOM     58  C   UNL A   1      40.336  32.558  33.990  1.00  0.00     0.049 A 
ATOM     59  H   UNL A   1      40.436  33.494  32.127  1.00  0.00     0.167 HD
ATOM     60  C   UNL A   1      42.568  31.893  34.512  1.00  0.00     0.074 A 
ATOM     61  C   UNL A   1      44.017  31.830  34.635  1.00  0.00     0.031 C 
ATOM     62  C   UNL A   1      41.689  32.927  34.375  1.00  0.00     0.037 A 
BRANCH  49  63
ATOM     63  C   UNL A   1      36.542  33.768  31.349  1.00  0.00     0.064 A 
ATOM     64  C   UNL A   1      36.235  34.646  32.416  1.00  0.00     0.173 A 
ATOM     65  C   UNL A   1      35.505  33.634  30.401  1.00  0.00     0.173 A 
ATOM     66  F   UNL A   1      37.145  34.947  33.353  1.00  0.00    -0.203 F 
ATOM     67  C   UNL A   1      34.998  35.281  32.550  1.00  0.00     0.198 A 
ATOM     68  C   UNL A   1      34.266  34.274  30.533  1.00  0.00     0.198 A 
ATOM     69  F   UNL A   1      35.626  32.907  29.290  1.00  0.00    -0.203 F 
ATOM     70  F   UNL A   1      34.776  36.085  33.598  1.00  0.00    -0.200 F 
ATOM     71  C   UNL A   1      34.011  35.093  31.608  1.00  0.00     0.200 A 
ATOM     72  F   UNL A   1      33.325  34.090  29.595  1.00  0.00    -0.200 F 
ATOM     73  F   UNL A   1      32.830  35.713  31.726  1.00  0.00    -0.200 F 
ENDBRANCH  49  63
BRANCH  50  74
ATOM     74  C   UNL A   1      44.382  28.326  32.650  1.00  0.00     0.064 A 
ATOM     75  C   UNL A   1      44.790  29.352  31.799  1.00  0.00     0.173 A 
ATOM     76  C   UNL A   1      45.277  27.290  32.976  1.00  0.00     0.173 A 
ATOM     77  F   UNL A   1      43.939  30.315  31.419  1.00  0.00    -0.203 F 
ATOM     78  C   UNL A   1      46.119  29.419  31.420  1.00  0.00     0.198 A 
ATOM     79  C   UNL A   1      46.612  27.451  32.724  1.00  0.00     0.198 A 
ATOM     80  F   UNL A   1      44.892  26.254  33.735  1.00  0.00    -0.203 F 
ATOM     81  F   UNL A   1      46.552  30.404  30.622  1.00  0.00    -0.200 F 
ATOM     82  C   UNL A   1      47.025  28.510  31.943  1.00  0.00     0.200 A 
ATOM     83  F   UNL A   1      47.499  26.644  33.325  1.00  0.00    -0.200 F 
ATOM     84  F   UNL A   1      48.318  28.637  31.674  1.00  0.00    -0.200 F 
ENDBRANCH  50  74
BRANCH  62  85
ATOM     85  C   UNL A   1      42.082  34.380  34.510  1.00  0.00     0.064 A 
ATOM     86  C   UNL A   1      41.859  35.096  35.695  1.00  0.00     0.173 A 
ATOM     87  C   UNL A   1      42.609  35.150  33.445  1.00  0.00     0.173 A 
ATOM     88  F   UNL A   1      41.143  34.574  36.701  1.00  0.00    -0.203 F 
ATOM     89  C   UNL A   1      42.302  36.404  35.868  1.00  0.00     0.198 A 
ATOM     90  C   UNL A   1      42.968  36.486  33.590  1.00  0.00     0.198 A 
ATOM     91  F   UNL A   1      42.794  34.664  32.212  1.00  0.00    -0.203 F 
ATOM     92  F   UNL A   1      42.167  36.989  37.064  1.00  0.00    -0.200 F 
ATOM     93  C   UNL A   1      42.855  37.101  34.815  1.00  0.00     0.200 A 
ATOM     94  F   UNL A   1      43.424  37.164  32.528  1.00  0.00    -0.200 F 
ATOM     95  F   UNL A   1      43.241  38.373  34.968  1.00  0.00    -0.200 F 
ENDBRANCH  62  85
ENDBRANCH  36  37
ENDBRANCH  29  31
ENDBRANCH  28  29
ENDBRANCH   1  28
TORSDOF 13
ENDMDL
MODEL 2
REMARK VINA RESULT:     -14.9      4.538      6.577
REMARK SMILES Cc1ccc(-c2cc(Cl)cc3c2O[C@H](C(F)(F)F)C(C(=O)OCCOC(=O)c2ccc(-c4c5nc(c(-c6c(F)c(F)c(F)c(F)c6F)c6ccc([nH]6)c(-c6c(F)c(F)c(F)c(F)c6F)c6nc(c(-c7c(F)c(F)c(F)c(F)c7F)c7ccc4[nH]7)C=C6)C=C5)cc2)=C3)cc1
REMARK SMILES IDX 24 1 23 2 22 3 20 4 21 5 19 6 6 7 7 8 12 9 8 10 11 11 13 12
REMARK SMILES IDX 9 13 10 14 91 15 14 16 5 17 1 18 2 19 3 20 93 21 4 22 92 23
REMARK SMILES IDX 15 24 16 25 17 26 18 27 25 28 26 29 27 30 28 31 29 32 90 33
REMARK SMILES IDX 30 34 89 35 31 36 32 37 33 38 83 39 34 40 88 41 82 42 84 43
REMARK SMILES IDX 35 44 87 45 81 46 80 47 36 49 68 50 48 51 67 52 49 53 52 54
REMARK SMILES IDX 66 55 85 56 50 57 51 58 65 60 86 61 53 62 37 63 38 64 46 65
REMARK SMILES IDX 39 66 40 67 44 68 47 69 41 70 42 71 45 72 43 73 69 74 70 75
REMARK SMILES IDX 78 76 71 77 72 78 76 79 79 80 73 81 74 82 77 83 75 84 54 85
REMARK SMILES IDX 55 86 63 87 56 88 57 89 61 90 64 91 58 92 59 93 62 94 60 95
REMARK H PARENT 84 48 52 59
REMARK Flexibility Score: inf
ROOT
ATOM      1  C   UNL A   1      45.288  26.701  25.319  1.00  0.00     0.275 C 
ENDROOT
BRANCH   1   2
ATOM      2  C   UNL A   1      45.686  25.170  25.463  1.00  0.00     0.275 C 
BRANCH   2   3
ATOM      3  O   UNL A   1      45.071  24.144  26.784  1.00  0.00    -0.459 OA
BRANCH   3   4
ATOM      4  C   UNL A   1      43.884  24.193  28.378  1.00  0.00     0.338 C 
ATOM      5  O   UNL A   1      43.671  23.264  29.229  1.00  0.00    -0.246 OA
BRANCH   4   6
ATOM      6  C   UNL A   1      42.728  25.281  28.499  1.00  0.00     0.087 C 
ATOM      7  C   UNL A   1      41.223  22.385  26.808  1.00  0.00     0.026 A 
ATOM      8  C   UNL A   1      40.009  22.561  26.113  1.00  0.00     0.033 A 
ATOM      9  C   UNL A   1      41.326  23.146  27.978  1.00  0.00     0.135 A 
ATOM     10  C   UNL A   1      39.007  23.438  26.577  1.00  0.00     0.042 A 
ATOM     11  C   UNL A   1      40.512  24.224  28.206  1.00  0.00     0.019 A 
ATOM     12  O   UNL A   1      42.197  23.024  29.008  1.00  0.00    -0.475 OA
ATOM     13  Cl  UNL A   1      37.598  23.695  25.621  1.00  0.00    -0.084 Cl
ATOM     14  C   UNL A   1      39.249  24.285  27.654  1.00  0.00     0.032 A 
ATOM     15  C   UNL A   1      41.364  25.387  28.456  1.00  0.00     0.027 C 
ATOM     16  C   UNL A   1      43.472  24.289  29.479  1.00  0.00     0.316 C 
BRANCH   7  17
ATOM     17  C   UNL A   1      42.384  21.743  26.103  1.00  0.00    -0.015 A 
ATOM     18  C   UNL A   1      45.620  19.527  24.132  1.00  0.00     0.044 C 
ATOM     19  C   UNL A   1      44.483  20.287  24.757  1.00  0.00    -0.051 A 
ATOM     20  C   UNL A   1      44.348  21.678  24.628  1.00  0.00     0.004 A 
ATOM     21  C   UNL A   1      43.559  19.622  25.551  1.00  0.00     0.004 A 
ATOM     22  C   UNL A   1      43.310  22.395  25.284  1.00  0.00     0.009 A 
ATOM     23  C   UNL A   1      42.551  20.341  26.209  1.00  0.00     0.009 A 
ENDBRANCH   7  17
BRANCH  16  24
ATOM     24  C   UNL A   1      44.461  24.810  31.381  1.00  0.00     0.430 C 
ATOM     25  F   UNL A   1      45.869  25.096  31.433  1.00  0.00    -0.167 F 
ATOM     26  F   UNL A   1      43.993  25.973  32.051  1.00  0.00    -0.167 F 
ATOM     27  F   UNL A   1      44.540  23.907  32.438  1.00  0.00    -0.167 F 
ENDBRANCH  16  24
ENDBRANCH   4   6
ENDBRANCH   3   4
ENDBRANCH   2   3
ENDBRANCH   1   2
BRANCH   1  28
ATOM     28  O   UNL A   1      44.117  27.334  25.959  1.00  0.00    -0.458 OA
BRANCH  28  29
ATOM     29  C   UNL A   1      42.981  27.843  25.426  1.00  0.00     0.338 C 
ATOM     30  O   UNL A   1      42.676  27.864  24.251  1.00  0.00    -0.246 OA
BRANCH  29  31
ATOM     31  C   UNL A   1      42.169  28.409  26.471  1.00  0.00     0.060 A 
ATOM     32  C   UNL A   1      40.232  27.988  26.796  1.00  0.00     0.016 A 
ATOM     33  C   UNL A   1      43.282  29.633  27.531  1.00  0.00     0.016 A 
ATOM     34  C   UNL A   1      39.576  28.608  28.578  1.00  0.00     0.010 A 
ATOM     35  C   UNL A   1      42.724  30.144  29.359  1.00  0.00     0.010 A 
ATOM     36  C   UNL A   1      40.891  29.544  29.757  1.00  0.00    -0.014 A 
BRANCH  36  37
ATOM     37  C   UNL A   1      40.624  30.280  31.034  1.00  0.00     0.031 A 
ATOM     38  C   UNL A   1      39.758  31.465  30.910  1.00  0.00     0.074 A 
ATOM     39  C   UNL A   1      40.723  29.545  32.192  1.00  0.00     0.049 A 
ATOM     40  N   UNL A   1      39.777  32.513  31.672  1.00  0.00    -0.248 NA
ATOM     41  C   UNL A   1      38.893  31.632  29.734  1.00  0.00     0.031 C 
ATOM     42  C   UNL A   1      39.616  29.262  33.132  1.00  0.00     0.029 A 
ATOM     43  N   UNL A   1      41.684  28.593  32.612  1.00  0.00    -0.354 N 
ATOM     44  C   UNL A   1      38.660  33.230  31.263  1.00  0.00     0.074 A 
ATOM     45  C   UNL A   1      38.507  32.897  29.878  1.00  0.00     0.031 C 
ATOM     46  C   UNL A   1      40.026  28.415  34.101  1.00  0.00     0.029 A 
ATOM     47  C   UNL A   1      41.455  28.233  33.964  1.00  0.00     0.049 A 
ATOM     48  H   UNL A   1      42.406  28.234  32.048  1.00  0.00     0.167 HD
ATOM     49  C   UNL A   1      37.613  33.418  32.127  1.00  0.00     0.037 A 
ATOM     50  C   UNL A   1      42.374  28.482  34.953  1.00  0.00     0.037 A 
ATOM     51  C   UNL A   1      37.847  32.698  33.376  1.00  0.00     0.049 A 
ATOM     52  C   UNL A   1      41.964  29.580  35.901  1.00  0.00     0.074 A 
ATOM     53  C   UNL A   1      37.286  31.587  33.975  1.00  0.00     0.029 A 
ATOM     54  N   UNL A   1      38.991  32.968  34.090  1.00  0.00    -0.354 N 
ATOM     55  N   UNL A   1      40.858  30.248  35.791  1.00  0.00    -0.248 NA
ATOM     56  C   UNL A   1      42.943  30.209  36.788  1.00  0.00     0.031 C 
ATOM     57  C   UNL A   1      38.061  31.285  35.135  1.00  0.00     0.029 A 
ATOM     58  C   UNL A   1      39.069  32.228  35.243  1.00  0.00     0.049 A 
ATOM     59  H   UNL A   1      39.675  33.616  33.806  1.00  0.00     0.167 HD
ATOM     60  C   UNL A   1      41.063  31.488  36.326  1.00  0.00     0.074 A 
ATOM     61  C   UNL A   1      42.390  31.421  36.920  1.00  0.00     0.031 C 
ATOM     62  C   UNL A   1      40.174  32.507  36.144  1.00  0.00     0.037 A 
BRANCH  49  63
ATOM     63  C   UNL A   1      36.243  34.015  31.828  1.00  0.00     0.064 A 
ATOM     64  C   UNL A   1      35.706  34.944  32.750  1.00  0.00     0.173 A 
ATOM     65  C   UNL A   1      35.424  33.784  30.701  1.00  0.00     0.173 A 
ATOM     66  F   UNL A   1      36.398  35.335  33.829  1.00  0.00    -0.203 F 
ATOM     67  C   UNL A   1      34.452  35.539  32.590  1.00  0.00     0.198 A 
ATOM     68  C   UNL A   1      34.170  34.385  30.539  1.00  0.00     0.198 A 
ATOM     69  F   UNL A   1      35.786  32.997  29.689  1.00  0.00    -0.203 F 
ATOM     70  F   UNL A   1      34.002  36.396  33.515  1.00  0.00    -0.200 F 
ATOM     71  C   UNL A   1      33.681  35.258  31.483  1.00  0.00     0.200 A 
ATOM     72  F   UNL A   1      33.443  34.109  29.445  1.00  0.00    -0.200 F 
ATOM     73  F   UNL A   1      32.486  35.839  31.319  1.00  0.00    -0.200 F 
ENDBRANCH  49  63
BRANCH  50  74
ATOM     74  C   UNL A   1      43.749  28.557  34.409  1.00  0.00     0.064 A 
ATOM     75  C   UNL A   1      44.302  29.775  34.015  1.00  0.00     0.173 A 
ATOM     76  C   UNL A   1      44.593  27.491  34.771  1.00  0.00     0.173 A 
ATOM     77  F   UNL A   1      43.525  30.787  33.602  1.00  0.00    -0.203 F 
ATOM     78  C   UNL A   1      45.667  29.963  34.142  1.00  0.00     0.198 A 
ATOM     79  C   UNL A   1      45.912  27.737  35.038  1.00  0.00     0.198 A 
ATOM     80  F   UNL A   1      44.093  26.288  35.087  1.00  0.00    -0.203 F 
ATOM     81  F   UNL A   1      46.230  31.128  33.795  1.00  0.00    -0.200 F 
ATOM     82  C   UNL A   1      46.442  28.969  34.716  1.00  0.00     0.200 A 
ATOM     83  F   UNL A   1      46.633  26.821  35.700  1.00  0.00    -0.200 F 
ATOM     84  F   UNL A   1      47.731  29.187  34.945  1.00  0.00    -0.200 F 
ENDBRANCH  50  74
BRANCH  62  85
ATOM     85  C   UNL A   1      40.348  33.882  36.748  1.00  0.00     0.064 A 
ATOM     86  C   UNL A   1      39.505  34.351  37.767  1.00  0.00     0.173 A 
ATOM     87  C   UNL A   1      41.291  34.829  36.280  1.00  0.00     0.173 A 
ATOM     88  F   UNL A   1      38.414  33.668  38.138  1.00  0.00    -0.203 F 
ATOM     89  C   UNL A   1      39.711  35.574  38.398  1.00  0.00     0.198 A 
ATOM     90  C   UNL A   1      41.438  36.088  36.850  1.00  0.00     0.198 A 
ATOM     91  F   UNL A   1      42.109  34.597  35.246  1.00  0.00    -0.203 F 
ATOM     92  F   UNL A   1      38.949  35.908  39.446  1.00  0.00    -0.200 F 
ATOM     93  C   UNL A   1      40.677  36.445  37.938  1.00  0.00     0.200 A 
ATOM     94  F   UNL A   1      42.325  36.948  36.330  1.00  0.00    -0.200 F 
ATOM     95  F   UNL A   1      40.846  37.640  38.517  1.00  0.00    -0.200 F 
ENDBRANCH  62  85
ENDBRANCH  36  37
ENDBRANCH  29  31
ENDBRANCH  28  29
ENDBRANCH   1  28
TORSDOF 13
ENDMDL
MODEL 3
REMARK VINA RESULT:     -14.8      4.815      9.145
REMARK SMILES Cc1ccc(-c2cc(Cl)cc3c2O[C@H](C(F)(F)F)C(C(=O)OCCOC(=O)c2ccc(-c4c5nc(c(-c6c(F)c(F)c(F)c(F)c6F)c6ccc([nH]6)c(-c6c(F)c(F)c(F)c(F)c6F)c6nc(c(-c7c(F)c(F)c(F)c(F)c7F)c7ccc4[nH]7)C=C6)C=C5)cc2)=C3)cc1
REMARK SMILES IDX 24 1 23 2 22 3 20 4 21 5 19 6 6 7 7 8 12 9 8 10 11 11 13 12
REMARK SMILES IDX 9 13 10 14 91 15 14 16 5 17 1 18 2 19 3 20 93 21 4 22 92 23
REMARK SMILES IDX 15 24 16 25 17 26 18 27 25 28 26 29 27 30 28 31 29 32 90 33
REMARK SMILES IDX 30 34 89 35 31 36 32 37 33 38 83 39 34 40 88 41 82 42 84 43
REMARK SMILES IDX 35 44 87 45 81 46 80 47 36 49 68 50 48 51 67 52 49 53 52 54
REMARK SMILES IDX 66 55 85 56 50 57 51 58 65 60 86 61 53 62 37 63 38 64 46 65
REMARK SMILES IDX 39 66 40 67 44 68 47 69 41 70 42 71 45 72 43 73 69 74 70 75
REMARK SMILES IDX 78 76 71 77 72 78 76 79 79 80 73 81 74 82 77 83 75 84 54 85
REMARK SMILES IDX 55 86 63 87 56 88 57 89 61 90 64 91 58 92 59 93 62 94 60 95
REMARK H PARENT 84 48 52 59
REMARK Flexibility Score: inf
ROOT
ATOM      1  C   UNL A   1      36.141  23.762  26.220  1.00  0.00     0.275 C 
ENDROOT
BRANCH   1   2
ATOM      2  C   UNL A   1      35.350  24.136  24.895  1.00  0.00     0.275 C 
BRANCH   2   3
ATOM      3  O   UNL A   1      34.351  25.605  24.763  1.00  0.00    -0.459 OA
BRANCH   3   4
ATOM      4  C   UNL A   1      34.091  27.398  25.582  1.00  0.00     0.338 C 
ATOM      5  O   UNL A   1      33.799  27.674  26.796  1.00  0.00    -0.246 OA
BRANCH   4   6
ATOM      6  C   UNL A   1      33.794  28.673  24.677  1.00  0.00     0.087 C 
ATOM      7  C   UNL A   1      30.622  26.831  24.908  1.00  0.00     0.026 A 
ATOM      8  C   UNL A   1      29.602  27.117  23.977  1.00  0.00     0.033 A 
ATOM      9  C   UNL A   1      31.368  27.949  25.296  1.00  0.00     0.135 A 
ATOM     10  C   UNL A   1      29.382  28.422  23.493  1.00  0.00     0.042 A 
ATOM     11  C   UNL A   1      31.363  29.105  24.563  1.00  0.00     0.019 A 
ATOM     12  O   UNL A   1      32.211  28.095  26.347  1.00  0.00    -0.475 OA
ATOM     13  Cl  UNL A   1      28.197  28.683  22.271  1.00  0.00    -0.084 Cl
ATOM     14  C   UNL A   1      30.269  29.450  23.796  1.00  0.00     0.032 A 
ATOM     15  C   UNL A   1      32.749  29.430  24.223  1.00  0.00     0.027 C 
ATOM     16  C   UNL A   1      34.038  28.393  26.213  1.00  0.00     0.316 C 
BRANCH   7  17
ATOM     17  C   UNL A   1      31.053  25.406  25.108  1.00  0.00    -0.015 A 
ATOM     18  C   UNL A   1      32.332  21.212  25.307  1.00  0.00     0.044 C 
ATOM     19  C   UNL A   1      31.949  22.664  25.242  1.00  0.00    -0.051 A 
ATOM     20  C   UNL A   1      31.870  23.473  26.387  1.00  0.00     0.004 A 
ATOM     21  C   UNL A   1      31.591  23.231  24.027  1.00  0.00     0.004 A 
ATOM     22  C   UNL A   1      31.436  24.825  26.320  1.00  0.00     0.009 A 
ATOM     23  C   UNL A   1      31.147  24.560  23.976  1.00  0.00     0.009 A 
ENDBRANCH   7  17
BRANCH  16  24
ATOM     24  C   UNL A   1      35.513  29.392  27.515  1.00  0.00     0.430 C 
ATOM     25  F   UNL A   1      36.597  30.157  26.961  1.00  0.00    -0.167 F 
ATOM     26  F   UNL A   1      35.015  30.370  28.417  1.00  0.00    -0.167 F 
ATOM     27  F   UNL A   1      36.363  28.669  28.349  1.00  0.00    -0.167 F 
ENDBRANCH  16  24
ENDBRANCH   4   6
ENDBRANCH   3   4
ENDBRANCH   2   3
ENDBRANCH   1   2
BRANCH   1  28
ATOM     28  O   UNL A   1      37.611  23.787  26.364  1.00  0.00    -0.458 OA
BRANCH  28  29
ATOM     29  C   UNL A   1      38.550  22.866  26.042  1.00  0.00     0.338 C 
ATOM     30  O   UNL A   1      38.417  21.926  25.285  1.00  0.00    -0.246 OA
BRANCH  29  31
ATOM     31  C   UNL A   1      39.762  23.138  26.769  1.00  0.00     0.060 A 
ATOM     32  C   UNL A   1      40.811  21.792  27.828  1.00  0.00     0.016 A 
ATOM     33  C   UNL A   1      40.224  25.032  26.524  1.00  0.00     0.016 A 
ATOM     34  C   UNL A   1      42.643  22.421  28.314  1.00  0.00     0.010 A 
ATOM     35  C   UNL A   1      42.073  25.651  26.858  1.00  0.00     0.010 A 
ATOM     36  C   UNL A   1      43.168  24.252  27.709  1.00  0.00    -0.014 A 
BRANCH  36  37
ATOM     37  C   UNL A   1      44.379  25.041  28.100  1.00  0.00     0.031 A 
ATOM     38  C   UNL A   1      45.470  25.055  27.111  1.00  0.00     0.074 A 
ATOM     39  C   UNL A   1      44.176  26.059  29.002  1.00  0.00     0.049 A 
ATOM     40  N   UNL A   1      46.734  25.194  27.363  1.00  0.00    -0.248 NA
ATOM     41  C   UNL A   1      45.205  24.702  25.710  1.00  0.00     0.031 C 
ATOM     42  C   UNL A   1      44.385  27.500  28.740  1.00  0.00     0.029 A 
ATOM     43  N   UNL A   1      43.411  26.110  30.193  1.00  0.00    -0.354 N 
ATOM     44  C   UNL A   1      47.301  25.332  26.103  1.00  0.00     0.074 A 
ATOM     45  C   UNL A   1      46.444  24.579  25.238  1.00  0.00     0.031 C 
ATOM     46  C   UNL A   1      43.980  28.235  29.799  1.00  0.00     0.029 A 
ATOM     47  C   UNL A   1      43.653  27.328  30.877  1.00  0.00     0.049 A 
ATOM     48  H   UNL A   1      42.800  25.402  30.502  1.00  0.00     0.167 HD
ATOM     49  C   UNL A   1      47.903  26.512  25.749  1.00  0.00     0.037 A 
ATOM     50  C   UNL A   1      44.216  27.365  32.129  1.00  0.00     0.037 A 
ATOM     51  C   UNL A   1      47.741  27.504  26.808  1.00  0.00     0.049 A 
ATOM     52  C   UNL A   1      45.632  27.880  32.143  1.00  0.00     0.074 A 
ATOM     53  C   UNL A   1      47.017  28.674  26.939  1.00  0.00     0.029 A 
ATOM     54  N   UNL A   1      48.194  27.204  28.071  1.00  0.00    -0.354 N 
ATOM     55  N   UNL A   1      46.277  28.239  31.076  1.00  0.00    -0.248 NA
ATOM     56  C   UNL A   1      46.495  27.670  33.307  1.00  0.00     0.031 C 
ATOM     57  C   UNL A   1      47.159  29.120  28.288  1.00  0.00     0.029 A 
ATOM     58  C   UNL A   1      47.987  28.233  28.955  1.00  0.00     0.049 A 
ATOM     59  H   UNL A   1      48.617  26.349  28.313  1.00  0.00     0.167 HD
ATOM     60  C   UNL A   1      47.609  28.035  31.304  1.00  0.00     0.074 A 
ATOM     61  C   UNL A   1      47.692  27.660  32.708  1.00  0.00     0.031 C 
ATOM     62  C   UNL A   1      48.527  28.082  30.296  1.00  0.00     0.037 A 
BRANCH  49  63
ATOM     63  C   UNL A   1      48.425  26.927  24.379  1.00  0.00     0.064 A 
ATOM     64  C   UNL A   1      47.528  27.562  23.488  1.00  0.00     0.173 A 
ATOM     65  C   UNL A   1      49.736  26.789  23.873  1.00  0.00     0.173 A 
ATOM     66  F   UNL A   1      46.268  27.844  23.851  1.00  0.00    -0.203 F 
ATOM     67  C   UNL A   1      47.890  27.967  22.201  1.00  0.00     0.198 A 
ATOM     68  C   UNL A   1      50.100  27.200  22.585  1.00  0.00     0.198 A 
ATOM     69  F   UNL A   1      50.740  26.280  24.587  1.00  0.00    -0.203 F 
ATOM     70  F   UNL A   1      46.979  28.546  21.408  1.00  0.00    -0.200 F 
ATOM     71  C   UNL A   1      49.177  27.784  21.747  1.00  0.00     0.200 A 
ATOM     72  F   UNL A   1      51.363  27.027  22.169  1.00  0.00    -0.200 F 
ATOM     73  F   UNL A   1      49.532  28.185  20.520  1.00  0.00    -0.200 F 
ENDBRANCH  49  63
BRANCH  50  74
ATOM     74  C   UNL A   1      43.960  26.111  32.875  1.00  0.00     0.064 A 
ATOM     75  C   UNL A   1      44.851  25.040  32.811  1.00  0.00     0.173 A 
ATOM     76  C   UNL A   1      43.102  26.242  33.982  1.00  0.00     0.173 A 
ATOM     77  F   UNL A   1      45.633  24.854  31.739  1.00  0.00    -0.203 F 
ATOM     78  C   UNL A   1      44.987  24.216  33.914  1.00  0.00     0.198 A 
ATOM     79  C   UNL A   1      43.353  25.520  35.117  1.00  0.00     0.198 A 
ATOM     80  F   UNL A   1      42.187  27.221  34.040  1.00  0.00    -0.203 F 
ATOM     81  F   UNL A   1      45.849  23.191  33.897  1.00  0.00    -0.200 F 
ATOM     82  C   UNL A   1      44.289  24.508  35.075  1.00  0.00     0.200 A 
ATOM     83  F   UNL A   1      42.768  25.877  36.269  1.00  0.00    -0.200 F 
ATOM     84  F   UNL A   1      44.500  23.790  36.170  1.00  0.00    -0.200 F 
ENDBRANCH  50  74
BRANCH  62  85
ATOM     85  C   UNL A   1      50.012  27.897  30.512  1.00  0.00     0.064 A 
ATOM     86  C   UNL A   1      50.921  28.947  30.317  1.00  0.00     0.173 A 
ATOM     87  C   UNL A   1      50.607  26.651  30.827  1.00  0.00     0.173 A 
ATOM     88  F   UNL A   1      50.536  30.112  29.777  1.00  0.00    -0.203 F 
ATOM     89  C   UNL A   1      52.277  28.819  30.604  1.00  0.00     0.198 A 
ATOM     90  C   UNL A   1      51.975  26.501  31.025  1.00  0.00     0.198 A 
ATOM     91  F   UNL A   1      49.908  25.517  30.949  1.00  0.00    -0.203 F 
ATOM     92  F   UNL A   1      53.071  29.894  30.514  1.00  0.00    -0.200 F 
ATOM     93  C   UNL A   1      52.806  27.595  30.955  1.00  0.00     0.200 A 
ATOM     94  F   UNL A   1      52.474  25.284  31.282  1.00  0.00    -0.200 F 
ATOM     95  F   UNL A   1      54.117  27.462  31.189  1.00  0.00    -0.200 F 
ENDBRANCH  62  85
ENDBRANCH  36  37
ENDBRANCH  29  31
ENDBRANCH  28  29
ENDBRANCH   1  28
TORSDOF 13
ENDMDL
