MODEL 1
REMARK VINA RESULT:     -11.6      0.000      0.000
REMARK SMILES O=C(OCCOC(=O)[C@@H]1C=C[C@H](Nc2ncccn2)C1)c1ccc(-c2c3nc(c(-c4c(F)c(F)c(F)c(F)c4F)c4ccc([nH]4)c(-c4c(F)c(F)c(F)c(F)c4F)c4nc(c(-c5c(F)c(F)c(F)c(F)c5F)c5ccc2[nH]5)C=C4)C=C3)cc1
REMARK SMILES IDX 4 1 3 2 2 3 1 4 21 5 22 6 83 7 23 8 82 9 24 10 25 11 26 12
REMARK SMILES IDX 76 13 27 14 81 15 75 16 77 17 28 18 80 19 74 20 73 21 29 23
REMARK SMILES IDX 61 24 41 25 60 26 42 27 45 28 59 29 78 30 43 31 44 32 58 34
REMARK SMILES IDX 79 35 46 36 30 37 31 38 39 39 32 40 33 41 37 42 40 43 34 44
REMARK SMILES IDX 35 45 38 46 36 47 62 48 63 49 71 50 64 51 65 52 69 53 72 54
REMARK SMILES IDX 66 55 67 56 70 57 68 58 47 59 48 60 56 61 49 62 50 63 54 64
REMARK SMILES IDX 57 65 51 66 52 67 55 68 53 69 5 70 6 71 7 72 8 73 9 74 10 75
REMARK SMILES IDX 20 76 11 77 12 78 13 79 14 81 15 82 19 83 16 84 18 85 17 86
REMARK H PARENT 77 22 45 33 13 80
REMARK Flexibility Score: inf
ROOT
ATOM      1  C   UNL A   1      33.068  33.430  27.555  1.00  0.00     0.275 C 
ENDROOT
BRANCH   1   2
ATOM      2  O   UNL A   1      33.180  32.082  28.013  1.00  0.00    -0.458 OA
BRANCH   2   3
ATOM      3  C   UNL A   1      34.068  31.189  27.556  1.00  0.00     0.338 C 
ATOM      4  O   UNL A   1      33.678  30.367  26.703  1.00  0.00    -0.246 OA
BRANCH   3   5
ATOM      5  C   UNL A   1      35.477  31.082  28.073  1.00  0.00     0.060 A 
ATOM      6  C   UNL A   1      36.456  32.036  28.346  1.00  0.00     0.016 A 
ATOM      7  C   UNL A   1      35.875  29.792  28.313  1.00  0.00     0.016 A 
ATOM      8  C   UNL A   1      37.747  31.663  28.906  1.00  0.00     0.010 A 
ATOM      9  C   UNL A   1      37.134  29.463  28.844  1.00  0.00     0.010 A 
ATOM     10  C   UNL A   1      38.109  30.333  29.220  1.00  0.00    -0.014 A 
BRANCH  10  11
ATOM     11  C   UNL A   1      39.325  29.725  29.919  1.00  0.00     0.031 A 
ATOM     12  C   UNL A   1      39.999  30.127  31.276  1.00  0.00     0.074 A 
ATOM     13  C   UNL A   1      40.168  28.903  29.283  1.00  0.00     0.049 A 
ATOM     14  N   UNL A   1      40.074  29.393  32.370  1.00  0.00    -0.248 NA
ATOM     15  C   UNL A   1      40.866  31.327  31.423  1.00  0.00     0.031 C 
ATOM     16  C   UNL A   1      40.187  28.583  27.866  1.00  0.00     0.029 A 
ATOM     17  N   UNL A   1      41.252  28.252  29.810  1.00  0.00    -0.354 N 
ATOM     18  C   UNL A   1      40.653  30.205  33.350  1.00  0.00     0.074 A 
ATOM     19  C   UNL A   1      41.156  31.380  32.720  1.00  0.00     0.031 C 
ATOM     20  C   UNL A   1      41.271  27.829  27.622  1.00  0.00     0.029 A 
ATOM     21  C   UNL A   1      41.984  27.590  28.880  1.00  0.00     0.049 A 
ATOM     22  H   UNL A   1      41.478  28.263  30.768  1.00  0.00     0.167 HD
ATOM     23  C   UNL A   1      40.875  29.926  34.650  1.00  0.00     0.037 A 
ATOM     24  C   UNL A   1      43.102  26.869  29.050  1.00  0.00     0.037 A 
ATOM     25  C   UNL A   1      41.463  28.685  35.008  1.00  0.00     0.049 A 
ATOM     26  C   UNL A   1      43.616  26.539  30.428  1.00  0.00     0.074 A 
ATOM     27  C   UNL A   1      41.724  28.117  36.235  1.00  0.00     0.029 A 
ATOM     28  N   UNL A   1      42.092  27.918  34.049  1.00  0.00    -0.354 N 
ATOM     29  N   UNL A   1      43.176  26.914  31.606  1.00  0.00    -0.248 NA
ATOM     30  C   UNL A   1      44.756  25.616  30.485  1.00  0.00     0.031 C 
ATOM     31  C   UNL A   1      42.633  27.066  36.013  1.00  0.00     0.029 A 
ATOM     32  C   UNL A   1      42.892  26.984  34.651  1.00  0.00     0.049 A 
ATOM     33  H   UNL A   1      41.980  28.026  33.077  1.00  0.00     0.167 HD
ATOM     34  C   UNL A   1      43.931  26.204  32.544  1.00  0.00     0.074 A 
ATOM     35  C   UNL A   1      44.888  25.421  31.791  1.00  0.00     0.031 C 
ATOM     36  C   UNL A   1      43.813  26.176  33.898  1.00  0.00     0.037 A 
BRANCH  23  37
ATOM     37  C   UNL A   1      40.457  30.910  35.693  1.00  0.00     0.064 A 
ATOM     38  C   UNL A   1      41.462  31.731  36.241  1.00  0.00     0.173 A 
ATOM     39  C   UNL A   1      39.139  31.173  36.076  1.00  0.00     0.173 A 
ATOM     40  F   UNL A   1      42.732  31.604  35.825  1.00  0.00    -0.203 F 
ATOM     41  C   UNL A   1      41.181  32.714  37.182  1.00  0.00     0.198 A 
ATOM     42  C   UNL A   1      38.851  32.196  36.990  1.00  0.00     0.198 A 
ATOM     43  F   UNL A   1      38.125  30.475  35.544  1.00  0.00    -0.203 F 
ATOM     44  F   UNL A   1      42.177  33.447  37.699  1.00  0.00    -0.200 F 
ATOM     45  C   UNL A   1      39.871  32.952  37.554  1.00  0.00     0.200 A 
ATOM     46  F   UNL A   1      37.577  32.471  37.309  1.00  0.00    -0.200 F 
ATOM     47  F   UNL A   1      39.591  33.929  38.427  1.00  0.00    -0.200 F 
ENDBRANCH  23  37
BRANCH  24  48
ATOM     48  C   UNL A   1      43.741  26.358  27.826  1.00  0.00     0.064 A 
ATOM     49  C   UNL A   1      44.765  27.076  27.204  1.00  0.00     0.173 A 
ATOM     50  C   UNL A   1      43.427  25.078  27.348  1.00  0.00     0.173 A 
ATOM     51  F   UNL A   1      45.106  28.289  27.663  1.00  0.00    -0.203 F 
ATOM     52  C   UNL A   1      45.450  26.534  26.123  1.00  0.00     0.198 A 
ATOM     53  C   UNL A   1      44.122  24.534  26.275  1.00  0.00     0.198 A 
ATOM     54  F   UNL A   1      42.481  24.346  27.956  1.00  0.00    -0.203 F 
ATOM     55  F   UNL A   1      46.429  27.235  25.539  1.00  0.00    -0.200 F 
ATOM     56  C   UNL A   1      45.130  25.264  25.662  1.00  0.00     0.200 A 
ATOM     57  F   UNL A   1      43.831  23.297  25.851  1.00  0.00    -0.200 F 
ATOM     58  F   UNL A   1      45.804  24.738  24.631  1.00  0.00    -0.200 F 
ENDBRANCH  24  48
BRANCH  36  59
ATOM     59  C   UNL A   1      44.673  25.244  34.687  1.00  0.00     0.064 A 
ATOM     60  C   UNL A   1      44.339  23.898  34.865  1.00  0.00     0.173 A 
ATOM     61  C   UNL A   1      45.921  25.688  35.153  1.00  0.00     0.173 A 
ATOM     62  F   UNL A   1      43.159  23.430  34.433  1.00  0.00    -0.203 F 
ATOM     63  C   UNL A   1      45.224  23.026  35.494  1.00  0.00     0.198 A 
ATOM     64  C   UNL A   1      46.813  24.808  35.752  1.00  0.00     0.198 A 
ATOM     65  F   UNL A   1      46.289  26.967  34.984  1.00  0.00    -0.203 F 
ATOM     66  F   UNL A   1      44.880  21.743  35.677  1.00  0.00    -0.200 F 
ATOM     67  C   UNL A   1      46.463  23.479  35.924  1.00  0.00     0.200 A 
ATOM     68  F   UNL A   1      48.018  25.244  36.143  1.00  0.00    -0.200 F 
ATOM     69  F   UNL A   1      47.323  22.632  36.505  1.00  0.00    -0.200 F 
ENDBRANCH  36  59
ENDBRANCH  10  11
ENDBRANCH   3   5
ENDBRANCH   2   3
ENDBRANCH   1   2
BRANCH   1  70
ATOM     70  C   UNL A   1      33.580  34.508  28.520  1.00  0.00     0.274 C 
BRANCH  70  71
ATOM     71  O   UNL A   1      32.560  35.268  29.208  1.00  0.00    -0.462 OA
BRANCH  71  72
ATOM     72  C   UNL A   1      32.942  36.459  29.757  1.00  0.00     0.312 C 
ATOM     73  O   UNL A   1      33.469  37.375  29.099  1.00  0.00    -0.252 OA
BRANCH  72  74
ATOM     74  C   UNL A   1      32.797  36.569  31.276  1.00  0.00     0.124 C 
ATOM     75  C   UNL A   1      33.468  37.724  31.918  1.00  0.00    -0.014 C 
ATOM     76  C   UNL A   1      33.273  35.350  32.135  1.00  0.00     0.048 C 
ATOM     77  C   UNL A   1      33.979  37.374  33.101  1.00  0.00    -0.006 C 
ATOM     78  C   UNL A   1      33.825  35.910  33.458  1.00  0.00     0.106 C 
BRANCH  78  79
ATOM     79  N   UNL A   1      34.899  35.205  34.231  1.00  0.00    -0.348 N 
ATOM     80  H   UNL A   1      35.050  35.668  35.087  1.00  0.00     0.164 HD
BRANCH  79  81
ATOM     81  C   UNL A   1      35.750  34.112  34.134  1.00  0.00     0.223 A 
ATOM     82  N   UNL A   1      35.393  32.872  33.791  1.00  0.00    -0.222 NA
ATOM     83  N   UNL A   1      37.052  34.444  34.148  1.00  0.00    -0.222 NA
ATOM     84  C   UNL A   1      36.341  32.057  33.212  1.00  0.00     0.117 A 
ATOM     85  C   UNL A   1      37.935  33.631  33.498  1.00  0.00     0.117 A 
ATOM     86  C   UNL A   1      37.629  32.427  32.954  1.00  0.00     0.040 A 
ENDBRANCH  79  81
ENDBRANCH  78  79
ENDBRANCH  72  74
ENDBRANCH  71  72
ENDBRANCH  70  71
ENDBRANCH   1  70
TORSDOF 13
ENDMDL
MODEL 2
REMARK VINA RESULT:     -11.4      3.229      8.227
REMARK SMILES O=C(OCCOC(=O)[C@@H]1C=C[C@H](Nc2ncccn2)C1)c1ccc(-c2c3nc(c(-c4c(F)c(F)c(F)c(F)c4F)c4ccc([nH]4)c(-c4c(F)c(F)c(F)c(F)c4F)c4nc(c(-c5c(F)c(F)c(F)c(F)c5F)c5ccc2[nH]5)C=C4)C=C3)cc1
REMARK SMILES IDX 4 1 3 2 2 3 1 4 21 5 22 6 83 7 23 8 82 9 24 10 25 11 26 12
REMARK SMILES IDX 76 13 27 14 81 15 75 16 77 17 28 18 80 19 74 20 73 21 29 23
REMARK SMILES IDX 61 24 41 25 60 26 42 27 45 28 59 29 78 30 43 31 44 32 58 34
REMARK SMILES IDX 79 35 46 36 30 37 31 38 39 39 32 40 33 41 37 42 40 43 34 44
REMARK SMILES IDX 35 45 38 46 36 47 62 48 63 49 71 50 64 51 65 52 69 53 72 54
REMARK SMILES IDX 66 55 67 56 70 57 68 58 47 59 48 60 56 61 49 62 50 63 54 64
REMARK SMILES IDX 57 65 51 66 52 67 55 68 53 69 5 70 6 71 7 72 8 73 9 74 10 75
REMARK SMILES IDX 20 76 11 77 12 78 13 79 14 81 15 82 19 83 16 84 18 85 17 86
REMARK H PARENT 77 22 45 33 13 80
REMARK Flexibility Score: inf
ROOT
ATOM      1  C   UNL A   1      38.921  34.624  38.686  1.00  0.00     0.275 C 
ENDROOT
BRANCH   1   2
ATOM      2  O   UNL A   1      39.664  35.214  37.619  1.00  0.00    -0.458 OA
BRANCH   2   3
ATOM      3  C   UNL A   1      40.897  34.843  37.249  1.00  0.00     0.338 C 
ATOM      4  O   UNL A   1      41.814  35.680  37.367  1.00  0.00    -0.246 OA
BRANCH   3   5
ATOM      5  C   UNL A   1      41.211  33.507  36.632  1.00  0.00     0.060 A 
ATOM      6  C   UNL A   1      41.364  32.232  37.174  1.00  0.00     0.016 A 
ATOM      7  C   UNL A   1      41.392  33.560  35.274  1.00  0.00     0.016 A 
ATOM      8  C   UNL A   1      41.617  31.072  36.330  1.00  0.00     0.010 A 
ATOM      9  C   UNL A   1      41.646  32.423  34.488  1.00  0.00     0.010 A 
ATOM     10  C   UNL A   1      41.721  31.137  34.922  1.00  0.00    -0.014 A 
BRANCH  10  11
ATOM     11  C   UNL A   1      41.849  30.065  33.840  1.00  0.00     0.031 A 
ATOM     12  C   UNL A   1      40.887  29.732  32.648  1.00  0.00     0.074 A 
ATOM     13  C   UNL A   1      42.714  29.050  33.950  1.00  0.00     0.049 A 
ATOM     14  N   UNL A   1      41.152  29.848  31.360  1.00  0.00    -0.248 NA
ATOM     15  C   UNL A   1      39.603  29.000  32.826  1.00  0.00     0.031 C 
ATOM     16  C   UNL A   1      43.522  28.700  35.105  1.00  0.00     0.029 A 
ATOM     17  N   UNL A   1      42.964  28.065  33.030  1.00  0.00    -0.354 N 
ATOM     18  C   UNL A   1      39.964  29.552  30.685  1.00  0.00     0.074 A 
ATOM     19  C   UNL A   1      39.040  29.004  31.621  1.00  0.00     0.031 C 
ATOM     20  C   UNL A   1      44.147  27.541  34.844  1.00  0.00     0.029 A 
ATOM     21  C   UNL A   1      43.805  27.105  33.488  1.00  0.00     0.049 A 
ATOM     22  H   UNL A   1      42.571  28.055  32.127  1.00  0.00     0.167 HD
ATOM     23  C   UNL A   1      39.714  29.600  29.361  1.00  0.00     0.037 A 
ATOM     24  C   UNL A   1      44.244  26.005  32.858  1.00  0.00     0.037 A 
ATOM     25  C   UNL A   1      40.641  29.022  28.454  1.00  0.00     0.049 A 
ATOM     26  C   UNL A   1      43.970  25.783  31.393  1.00  0.00     0.074 A 
ATOM     27  C   UNL A   1      40.677  28.997  27.077  1.00  0.00     0.029 A 
ATOM     28  N   UNL A   1      41.604  28.149  28.916  1.00  0.00    -0.354 N 
ATOM     29  N   UNL A   1      43.261  26.493  30.548  1.00  0.00    -0.248 NA
ATOM     30  C   UNL A   1      44.633  24.623  30.784  1.00  0.00     0.031 C 
ATOM     31  C   UNL A   1      41.593  27.993  26.712  1.00  0.00     0.029 A 
ATOM     32  C   UNL A   1      42.128  27.439  27.869  1.00  0.00     0.049 A 
ATOM     33  H   UNL A   1      41.875  28.053  29.857  1.00  0.00     0.167 HD
ATOM     34  C   UNL A   1      43.461  25.915  29.292  1.00  0.00     0.074 A 
ATOM     35  C   UNL A   1      44.317  24.767  29.503  1.00  0.00     0.031 C 
ATOM     36  C   UNL A   1      43.011  26.323  28.076  1.00  0.00     0.037 A 
BRANCH  23  37
ATOM     37  C   UNL A   1      38.490  30.301  28.870  1.00  0.00     0.064 A 
ATOM     38  C   UNL A   1      37.478  29.503  28.304  1.00  0.00     0.173 A 
ATOM     39  C   UNL A   1      38.210  31.659  29.044  1.00  0.00     0.173 A 
ATOM     40  F   UNL A   1      37.641  28.173  28.218  1.00  0.00    -0.203 F 
ATOM     41  C   UNL A   1      36.276  30.041  27.858  1.00  0.00     0.198 A 
ATOM     42  C   UNL A   1      36.980  32.193  28.638  1.00  0.00     0.198 A 
ATOM     43  F   UNL A   1      39.102  32.466  29.638  1.00  0.00    -0.203 F 
ATOM     44  F   UNL A   1      35.357  29.245  27.294  1.00  0.00    -0.200 F 
ATOM     45  C   UNL A   1      36.023  31.389  28.031  1.00  0.00     0.200 A 
ATOM     46  F   UNL A   1      36.705  33.488  28.857  1.00  0.00    -0.200 F 
ATOM     47  F   UNL A   1      34.847  31.903  27.645  1.00  0.00    -0.200 F 
ENDBRANCH  23  37
BRANCH  24  48
ATOM     48  C   UNL A   1      45.067  25.082  33.656  1.00  0.00     0.064 A 
ATOM     49  C   UNL A   1      44.484  24.002  34.323  1.00  0.00     0.173 A 
ATOM     50  C   UNL A   1      46.464  25.192  33.644  1.00  0.00     0.173 A 
ATOM     51  F   UNL A   1      43.150  23.857  34.322  1.00  0.00    -0.203 F 
ATOM     52  C   UNL A   1      45.275  23.062  34.972  1.00  0.00     0.198 A 
ATOM     53  C   UNL A   1      47.254  24.244  34.283  1.00  0.00     0.198 A 
ATOM     54  F   UNL A   1      47.054  26.192  32.971  1.00  0.00    -0.203 F 
ATOM     55  F   UNL A   1      44.700  22.033  35.606  1.00  0.00    -0.200 F 
ATOM     56  C   UNL A   1      46.659  23.183  34.949  1.00  0.00     0.200 A 
ATOM     57  F   UNL A   1      48.589  24.346  34.233  1.00  0.00    -0.200 F 
ATOM     58  F   UNL A   1      47.419  22.266  35.561  1.00  0.00    -0.200 F 
ENDBRANCH  24  48
BRANCH  36  59
ATOM     59  C   UNL A   1      43.456  25.595  26.851  1.00  0.00     0.064 A 
ATOM     60  C   UNL A   1      44.673  25.875  26.221  1.00  0.00     0.173 A 
ATOM     61  C   UNL A   1      42.703  24.505  26.387  1.00  0.00     0.173 A 
ATOM     62  F   UNL A   1      45.426  26.906  26.633  1.00  0.00    -0.203 F 
ATOM     63  C   UNL A   1      45.119  25.093  25.159  1.00  0.00     0.198 A 
ATOM     64  C   UNL A   1      43.165  23.708  25.348  1.00  0.00     0.198 A 
ATOM     65  F   UNL A   1      41.539  24.188  26.976  1.00  0.00    -0.203 F 
ATOM     66  F   UNL A   1      46.277  25.388  24.553  1.00  0.00    -0.200 F 
ATOM     67  C   UNL A   1      44.371  24.004  24.733  1.00  0.00     0.200 A 
ATOM     68  F   UNL A   1      42.453  22.642  24.956  1.00  0.00    -0.200 F 
ATOM     69  F   UNL A   1      44.815  23.236  23.729  1.00  0.00    -0.200 F 
ENDBRANCH  36  59
ENDBRANCH  10  11
ENDBRANCH   3   5
ENDBRANCH   2   3
ENDBRANCH   1   2
BRANCH   1  70
ATOM     70  C   UNL A   1      38.002  33.459  38.297  1.00  0.00     0.274 C 
BRANCH  70  71
ATOM     71  O   UNL A   1      37.468  33.503  36.954  1.00  0.00    -0.462 OA
BRANCH  71  72
ATOM     72  C   UNL A   1      37.710  32.422  36.156  1.00  0.00     0.312 C 
ATOM     73  O   UNL A   1      37.869  31.270  36.599  1.00  0.00    -0.252 OA
BRANCH  72  74
ATOM     74  C   UNL A   1      37.901  32.722  34.667  1.00  0.00     0.124 C 
ATOM     75  C   UNL A   1      37.869  34.151  34.276  1.00  0.00    -0.014 C 
ATOM     76  C   UNL A   1      36.906  32.048  33.665  1.00  0.00     0.048 C 
ATOM     77  C   UNL A   1      37.261  34.302  33.097  1.00  0.00    -0.006 C 
ATOM     78  C   UNL A   1      36.699  33.030  32.498  1.00  0.00     0.106 C 
BRANCH  78  79
ATOM     79  N   UNL A   1      35.423  33.067  31.709  1.00  0.00    -0.348 N 
ATOM     80  H   UNL A   1      35.379  32.285  31.113  1.00  0.00     0.164 HD
BRANCH  79  81
ATOM     81  C   UNL A   1      34.284  33.844  31.548  1.00  0.00     0.223 A 
ATOM     82  N   UNL A   1      33.699  34.579  32.496  1.00  0.00    -0.222 NA
ATOM     83  N   UNL A   1      33.941  34.032  30.262  1.00  0.00    -0.222 NA
ATOM     84  C   UNL A   1      32.965  35.679  32.109  1.00  0.00     0.117 A 
ATOM     85  C   UNL A   1      33.274  35.174  29.929  1.00  0.00     0.117 A 
ATOM     86  C   UNL A   1      32.794  36.081  30.815  1.00  0.00     0.040 A 
ENDBRANCH  79  81
ENDBRANCH  78  79
ENDBRANCH  72  74
ENDBRANCH  71  72
ENDBRANCH  70  71
ENDBRANCH   1  70
TORSDOF 13
ENDMDL
MODEL 3
REMARK VINA RESULT:     -11.4      5.850     12.794
REMARK SMILES O=C(OCCOC(=O)[C@@H]1C=C[C@H](Nc2ncccn2)C1)c1ccc(-c2c3nc(c(-c4c(F)c(F)c(F)c(F)c4F)c4ccc([nH]4)c(-c4c(F)c(F)c(F)c(F)c4F)c4nc(c(-c5c(F)c(F)c(F)c(F)c5F)c5ccc2[nH]5)C=C4)C=C3)cc1
REMARK SMILES IDX 4 1 3 2 2 3 1 4 21 5 22 6 83 7 23 8 82 9 24 10 25 11 26 12
REMARK SMILES IDX 76 13 27 14 81 15 75 16 77 17 28 18 80 19 74 20 73 21 29 23
REMARK SMILES IDX 61 24 41 25 60 26 42 27 45 28 59 29 78 30 43 31 44 32 58 34
REMARK SMILES IDX 79 35 46 36 30 37 31 38 39 39 32 40 33 41 37 42 40 43 34 44
REMARK SMILES IDX 35 45 38 46 36 47 62 48 63 49 71 50 64 51 65 52 69 53 72 54
REMARK SMILES IDX 66 55 67 56 70 57 68 58 47 59 48 60 56 61 49 62 50 63 54 64
REMARK SMILES IDX 57 65 51 66 52 67 55 68 53 69 5 70 6 71 7 72 8 73 9 74 10 75
REMARK SMILES IDX 20 76 11 77 12 78 13 79 14 81 15 82 19 83 16 84 18 85 17 86
REMARK H PARENT 77 22 45 33 13 80
REMARK Flexibility Score: inf
ROOT
ATOM      1  C   UNL A   1      50.901  25.670  26.139  1.00  0.00     0.275 C 
ENDROOT
BRANCH   1   2
ATOM      2  O   UNL A   1      51.333  27.028  26.054  1.00  0.00    -0.458 OA
BRANCH   2   3
ATOM      3  C   UNL A   1      50.531  28.074  25.818  1.00  0.00     0.338 C 
ATOM      4  O   UNL A   1      50.837  28.841  24.884  1.00  0.00    -0.246 OA
BRANCH   3   5
ATOM      5  C   UNL A   1      49.334  28.408  26.666  1.00  0.00     0.060 A 
ATOM      6  C   UNL A   1      49.180  28.629  28.034  1.00  0.00     0.016 A 
ATOM      7  C   UNL A   1      48.167  28.502  25.953  1.00  0.00     0.016 A 
ATOM      8  C   UNL A   1      47.892  29.000  28.605  1.00  0.00     0.010 A 
ATOM      9  C   UNL A   1      46.936  28.853  26.535  1.00  0.00     0.010 A 
ATOM     10  C   UNL A   1      46.716  29.170  27.838  1.00  0.00    -0.014 A 
BRANCH  10  11
ATOM     11  C   UNL A   1      45.315  29.671  28.185  1.00  0.00     0.031 A 
ATOM     12  C   UNL A   1      43.928  28.965  27.996  1.00  0.00     0.074 A 
ATOM     13  C   UNL A   1      45.073  30.959  28.458  1.00  0.00     0.049 A 
ATOM     14  N   UNL A   1      43.098  28.583  28.948  1.00  0.00    -0.248 NA
ATOM     15  C   UNL A   1      43.254  28.848  26.674  1.00  0.00     0.031 C 
ATOM     16  C   UNL A   1      45.991  32.076  28.327  1.00  0.00     0.029 A 
ATOM     17  N   UNL A   1      43.881  31.519  28.838  1.00  0.00    -0.354 N 
ATOM     18  C   UNL A   1      42.057  27.900  28.313  1.00  0.00     0.074 A 
ATOM     19  C   UNL A   1      42.173  28.111  26.908  1.00  0.00     0.031 C 
ATOM     20  C   UNL A   1      45.311  33.208  28.574  1.00  0.00     0.029 A 
ATOM     21  C   UNL A   1      43.927  32.872  28.918  1.00  0.00     0.049 A 
ATOM     22  H   UNL A   1      43.072  30.993  29.031  1.00  0.00     0.167 HD
ATOM     23  C   UNL A   1      41.005  27.265  28.868  1.00  0.00     0.037 A 
ATOM     24  C   UNL A   1      42.946  33.727  29.245  1.00  0.00     0.037 A 
ATOM     25  C   UNL A   1      40.262  27.908  29.891  1.00  0.00     0.049 A 
ATOM     26  C   UNL A   1      41.624  33.233  29.772  1.00  0.00     0.074 A 
ATOM     27  C   UNL A   1      39.214  27.472  30.672  1.00  0.00     0.029 A 
ATOM     28  N   UNL A   1      40.398  29.266  30.093  1.00  0.00    -0.354 N 
ATOM     29  N   UNL A   1      41.179  32.008  29.924  1.00  0.00    -0.248 NA
ATOM     30  C   UNL A   1      40.691  34.265  30.239  1.00  0.00     0.031 C 
ATOM     31  C   UNL A   1      38.633  28.616  31.250  1.00  0.00     0.029 A 
ATOM     32  C   UNL A   1      39.351  29.733  30.842  1.00  0.00     0.049 A 
ATOM     33  H   UNL A   1      41.138  29.817  29.750  1.00  0.00     0.167 HD
ATOM     34  C   UNL A   1      39.953  32.120  30.584  1.00  0.00     0.074 A 
ATOM     35  C   UNL A   1      39.707  33.536  30.751  1.00  0.00     0.031 C 
ATOM     36  C   UNL A   1      39.130  31.139  31.043  1.00  0.00     0.037 A 
BRANCH  23  37
ATOM     37  C   UNL A   1      40.669  25.878  28.427  1.00  0.00     0.064 A 
ATOM     38  C   UNL A   1      39.479  25.709  27.693  1.00  0.00     0.173 A 
ATOM     39  C   UNL A   1      41.496  24.761  28.567  1.00  0.00     0.173 A 
ATOM     40  F   UNL A   1      38.700  26.769  27.424  1.00  0.00    -0.203 F 
ATOM     41  C   UNL A   1      39.091  24.473  27.190  1.00  0.00     0.198 A 
ATOM     42  C   UNL A   1      41.127  23.525  28.020  1.00  0.00     0.198 A 
ATOM     43  F   UNL A   1      42.676  24.864  29.197  1.00  0.00    -0.203 F 
ATOM     44  F   UNL A   1      37.932  24.356  26.527  1.00  0.00    -0.200 F 
ATOM     45  C   UNL A   1      39.919  23.378  27.349  1.00  0.00     0.200 A 
ATOM     46  F   UNL A   1      41.955  22.473  28.119  1.00  0.00    -0.200 F 
ATOM     47  F   UNL A   1      39.571  22.194  26.826  1.00  0.00    -0.200 F 
ENDBRANCH  23  37
BRANCH  24  48
ATOM     48  C   UNL A   1      43.267  35.159  29.136  1.00  0.00     0.064 A 
ATOM     49  C   UNL A   1      43.060  35.847  27.938  1.00  0.00     0.173 A 
ATOM     50  C   UNL A   1      43.652  35.885  30.272  1.00  0.00     0.173 A 
ATOM     51  F   UNL A   1      42.660  35.180  26.845  1.00  0.00    -0.203 F 
ATOM     52  C   UNL A   1      43.244  37.222  27.873  1.00  0.00     0.198 A 
ATOM     53  C   UNL A   1      43.824  37.262  30.208  1.00  0.00     0.198 A 
ATOM     54  F   UNL A   1      43.811  35.258  31.448  1.00  0.00    -0.203 F 
ATOM     55  F   UNL A   1      43.041  37.865  26.717  1.00  0.00    -0.200 F 
ATOM     56  C   UNL A   1      43.623  37.928  29.007  1.00  0.00     0.200 A 
ATOM     57  F   UNL A   1      44.160  37.944  31.310  1.00  0.00    -0.200 F 
ATOM     58  F   UNL A   1      43.784  39.256  28.945  1.00  0.00    -0.200 F 
ENDBRANCH  24  48
BRANCH  36  59
ATOM     59  C   UNL A   1      37.914  31.513  31.824  1.00  0.00     0.064 A 
ATOM     60  C   UNL A   1      37.976  31.843  33.181  1.00  0.00     0.173 A 
ATOM     61  C   UNL A   1      36.689  31.672  31.156  1.00  0.00     0.173 A 
ATOM     62  F   UNL A   1      39.125  31.709  33.859  1.00  0.00    -0.203 F 
ATOM     63  C   UNL A   1      36.847  32.311  33.849  1.00  0.00     0.198 A 
ATOM     64  C   UNL A   1      35.574  32.169  31.818  1.00  0.00     0.198 A 
ATOM     65  F   UNL A   1      36.591  31.387  29.848  1.00  0.00    -0.203 F 
ATOM     66  F   UNL A   1      36.918  32.603  35.156  1.00  0.00    -0.200 F 
ATOM     67  C   UNL A   1      35.653  32.486  33.164  1.00  0.00     0.200 A 
ATOM     68  F   UNL A   1      34.430  32.360  31.146  1.00  0.00    -0.200 F 
ATOM     69  F   UNL A   1      34.576  32.963  33.803  1.00  0.00    -0.200 F 
ENDBRANCH  36  59
ENDBRANCH  10  11
ENDBRANCH   3   5
ENDBRANCH   2   3
ENDBRANCH   1   2
BRANCH   1  70
ATOM     70  C   UNL A   1      50.436  25.202  27.525  1.00  0.00     0.274 C 
BRANCH  70  71
ATOM     71  O   UNL A   1      49.197  24.456  27.552  1.00  0.00    -0.462 OA
BRANCH  71  72
ATOM     72  C   UNL A   1      48.084  25.122  27.977  1.00  0.00     0.312 C 
ATOM     73  O   UNL A   1      47.911  25.479  29.156  1.00  0.00    -0.252 OA
BRANCH  72  74
ATOM     74  C   UNL A   1      46.980  25.307  26.932  1.00  0.00     0.124 C 
ATOM     75  C   UNL A   1      45.618  25.568  27.455  1.00  0.00    -0.014 C 
ATOM     76  C   UNL A   1      46.759  24.146  25.906  1.00  0.00     0.048 C 
ATOM     77  C   UNL A   1      44.700  24.955  26.703  1.00  0.00    -0.006 C 
ATOM     78  C   UNL A   1      45.256  24.105  25.579  1.00  0.00     0.106 C 
BRANCH  78  79
ATOM     79  N   UNL A   1      44.564  22.835  25.183  1.00  0.00    -0.348 N 
ATOM     80  H   UNL A   1      43.825  23.038  24.565  1.00  0.00     0.164 HD
BRANCH  79  81
ATOM     81  C   UNL A   1      44.627  21.465  25.403  1.00  0.00     0.223 A 
ATOM     82  N   UNL A   1      43.596  20.619  25.360  1.00  0.00    -0.222 NA
ATOM     83  N   UNL A   1      45.880  20.979  25.400  1.00  0.00    -0.222 NA
ATOM     84  C   UNL A   1      43.847  19.300  25.050  1.00  0.00     0.117 A 
ATOM     85  C   UNL A   1      46.073  19.684  25.017  1.00  0.00     0.117 A 
ATOM     86  C   UNL A   1      45.083  18.789  24.774  1.00  0.00     0.040 A 
ENDBRANCH  79  81
ENDBRANCH  78  79
ENDBRANCH  72  74
ENDBRANCH  71  72
ENDBRANCH  70  71
ENDBRANCH   1  70
TORSDOF 13
ENDMDL
