MODEL 1
REMARK VINA RESULT:     -15.2      0.000      0.000
REMARK SMILES O=C(OCCOC(=O)c1ccc(-c2c3nc(c(-c4c(F)c(F)c(F)c(F)c4F)c4ccc([nH]4)c(-c4c(F)c(F)c(F)c(F)c4F)c4nc(c(-c5c(F)c(F)c(F)c(F)c5F)c5ccc2[nH]5)C=C4)C=C3)cc1)C1=Cc2cc(Cl)cc(-c3ccc(O)cc3)c2O[C@@H]1C(F)(F)F
REMARK SMILES IDX 4 1 3 2 2 3 1 4 72 5 73 6 89 7 74 8 88 9 75 10 87 11 76 12
REMARK SMILES IDX 79 13 77 14 78 15 90 16 91 17 92 18 93 19 80 20 81 21 86 22
REMARK SMILES IDX 82 23 85 24 83 25 84 26 5 28 6 29 7 30 8 31 9 32 10 33 71 34
REMARK SMILES IDX 11 35 70 36 12 37 13 38 14 39 64 40 15 41 69 42 63 43 65 44
REMARK SMILES IDX 16 45 68 46 62 47 61 48 17 50 49 51 29 52 48 53 30 54 33 55
REMARK SMILES IDX 47 56 66 57 31 58 32 59 46 61 67 62 34 63 18 64 19 65 27 66
REMARK SMILES IDX 20 67 21 68 25 69 28 70 22 71 23 72 26 73 24 74 50 75 51 76
REMARK SMILES IDX 59 77 52 78 53 79 57 80 60 81 54 82 55 83 58 84 56 85 35 86
REMARK SMILES IDX 36 87 44 88 37 89 38 90 42 91 45 92 39 93 40 94 43 95 41 96
REMARK H PARENT 84 27 65 49 33 60
REMARK Flexibility Score: inf
ROOT
ATOM      1  C   UNL A   1      35.926  21.843  24.238  1.00  0.00     0.275 C 
ENDROOT
BRANCH   1   2
ATOM      2  O   UNL A   1      35.707  23.285  24.695  1.00  0.00    -0.459 OA
BRANCH   2   3
ATOM      3  C   UNL A   1      34.715  23.889  24.033  1.00  0.00     0.338 C 
ATOM      4  O   UNL A   1      34.752  24.437  22.960  1.00  0.00    -0.246 OA
BRANCH   3   5
ATOM      5  C   UNL A   1      33.871  24.120  25.196  1.00  0.00     0.087 C 
ATOM      6  C   UNL A   1      34.147  25.311  25.956  1.00  0.00     0.027 C 
ATOM      7  C   UNL A   1      32.254  23.757  24.232  1.00  0.00     0.316 C 
ATOM      8  C   UNL A   1      33.150  26.779  25.890  1.00  0.00     0.019 A 
ATOM      9  O   UNL A   1      31.184  25.378  24.043  1.00  0.00    -0.475 OA
ATOM     10  C   UNL A   1      33.677  27.880  26.504  1.00  0.00     0.032 A 
ATOM     11  C   UNL A   1      31.749  26.924  24.867  1.00  0.00     0.135 A 
ATOM     12  C   UNL A   1      33.037  29.078  26.200  1.00  0.00     0.042 A 
ATOM     13  C   UNL A   1      31.232  28.164  24.570  1.00  0.00     0.026 A 
ATOM     14  Cl  UNL A   1      33.703  30.517  26.897  1.00  0.00    -0.084 Cl
ATOM     15  C   UNL A   1      31.914  29.208  25.292  1.00  0.00     0.033 A 
BRANCH   7  16
ATOM     16  C   UNL A   1      32.141  22.338  25.074  1.00  0.00     0.430 C 
ATOM     17  F   UNL A   1      30.870  22.072  25.404  1.00  0.00    -0.167 F 
ATOM     18  F   UNL A   1      32.452  21.262  24.276  1.00  0.00    -0.167 F 
ATOM     19  F   UNL A   1      32.968  22.126  26.111  1.00  0.00    -0.167 F 
ENDBRANCH   7  16
BRANCH  13  20
ATOM     20  C   UNL A   1      30.273  28.568  23.557  1.00  0.00    -0.014 A 
ATOM     21  C   UNL A   1      30.688  29.450  22.535  1.00  0.00     0.012 A 
ATOM     22  C   UNL A   1      28.910  28.283  23.678  1.00  0.00     0.012 A 
ATOM     23  C   UNL A   1      29.770  30.026  21.661  1.00  0.00     0.047 A 
ATOM     24  C   UNL A   1      27.986  28.860  22.801  1.00  0.00     0.047 A 
ATOM     25  C   UNL A   1      28.423  29.727  21.801  1.00  0.00     0.115 A 
BRANCH  25  26
ATOM     26  O   UNL A   1      27.552  30.321  20.939  1.00  0.00    -0.508 OA
ATOM     27  H   UNL A   1      27.181  31.155  21.148  1.00  0.00     0.293 HD
ENDBRANCH  25  26
ENDBRANCH  13  20
ENDBRANCH   3   5
ENDBRANCH   2   3
ENDBRANCH   1   2
BRANCH   1  28
ATOM     28  C   UNL A   1      37.437  20.453  24.985  1.00  0.00     0.275 C 
BRANCH  28  29
ATOM     29  O   UNL A   1      39.069  20.940  25.434  1.00  0.00    -0.458 OA
BRANCH  29  30
ATOM     30  C   UNL A   1      40.018  20.817  26.433  1.00  0.00     0.338 C 
ATOM     31  O   UNL A   1      40.910  19.997  26.557  1.00  0.00    -0.246 OA
BRANCH  30  32
ATOM     32  C   UNL A   1      40.098  22.149  27.131  1.00  0.00     0.060 A 
ATOM     33  C   UNL A   1      41.104  22.342  28.104  1.00  0.00     0.016 A 
ATOM     34  C   UNL A   1      39.478  23.261  26.562  1.00  0.00     0.016 A 
ATOM     35  C   UNL A   1      41.629  23.633  28.331  1.00  0.00     0.010 A 
ATOM     36  C   UNL A   1      40.022  24.536  26.769  1.00  0.00     0.010 A 
ATOM     37  C   UNL A   1      41.143  24.729  27.603  1.00  0.00    -0.014 A 
BRANCH  37  38
ATOM     38  C   UNL A   1      41.587  26.118  27.912  1.00  0.00     0.031 A 
ATOM     39  C   UNL A   1      42.987  26.437  27.475  1.00  0.00     0.074 A 
ATOM     40  C   UNL A   1      40.856  27.045  28.572  1.00  0.00     0.049 A 
ATOM     41  N   UNL A   1      43.692  27.524  27.626  1.00  0.00    -0.248 NA
ATOM     42  C   UNL A   1      43.702  25.339  26.795  1.00  0.00     0.031 C 
ATOM     43  C   UNL A   1      39.497  26.874  29.084  1.00  0.00     0.029 A 
ATOM     44  N   UNL A   1      41.175  28.339  28.938  1.00  0.00    -0.354 N 
ATOM     45  C   UNL A   1      44.916  27.241  27.038  1.00  0.00     0.074 A 
ATOM     46  C   UNL A   1      44.904  25.855  26.640  1.00  0.00     0.031 C 
ATOM     47  C   UNL A   1      39.103  28.011  29.694  1.00  0.00     0.029 A 
ATOM     48  C   UNL A   1      40.180  28.998  29.628  1.00  0.00     0.049 A 
ATOM     49  H   UNL A   1      42.042  28.756  28.723  1.00  0.00     0.167 HD
ATOM     50  C   UNL A   1      45.949  28.075  26.791  1.00  0.00     0.037 A 
ATOM     51  C   UNL A   1      40.155  30.253  30.138  1.00  0.00     0.037 A 
ATOM     52  C   UNL A   1      45.982  29.442  27.212  1.00  0.00     0.049 A 
ATOM     53  C   UNL A   1      41.365  31.147  29.933  1.00  0.00     0.074 A 
ATOM     54  C   UNL A   1      46.989  30.371  27.044  1.00  0.00     0.029 A 
ATOM     55  N   UNL A   1      44.955  30.069  27.903  1.00  0.00    -0.354 N 
ATOM     56  N   UNL A   1      42.491  30.895  29.305  1.00  0.00    -0.248 NA
ATOM     57  C   UNL A   1      41.297  32.506  30.495  1.00  0.00     0.031 C 
ATOM     58  C   UNL A   1      46.592  31.551  27.682  1.00  0.00     0.029 A 
ATOM     59  C   UNL A   1      45.312  31.375  28.184  1.00  0.00     0.049 A 
ATOM     60  H   UNL A   1      44.103  29.647  28.157  1.00  0.00     0.167 HD
ATOM     61  C   UNL A   1      43.235  32.071  29.354  1.00  0.00     0.074 A 
ATOM     62  C   UNL A   1      42.428  33.043  30.060  1.00  0.00     0.031 C 
ATOM     63  C   UNL A   1      44.473  32.328  28.864  1.00  0.00     0.037 A 
BRANCH  50  64
ATOM     64  C   UNL A   1      47.099  27.495  26.028  1.00  0.00     0.064 A 
ATOM     65  C   UNL A   1      48.198  26.924  26.695  1.00  0.00     0.173 A 
ATOM     66  C   UNL A   1      47.145  27.574  24.631  1.00  0.00     0.173 A 
ATOM     67  F   UNL A   1      48.218  26.865  28.036  1.00  0.00    -0.203 F 
ATOM     68  C   UNL A   1      49.318  26.497  25.992  1.00  0.00     0.198 A 
ATOM     69  C   UNL A   1      48.251  27.107  23.928  1.00  0.00     0.198 A 
ATOM     70  F   UNL A   1      46.130  28.126  23.950  1.00  0.00    -0.203 F 
ATOM     71  F   UNL A   1      50.389  26.040  26.655  1.00  0.00    -0.200 F 
ATOM     72  C   UNL A   1      49.341  26.582  24.608  1.00  0.00     0.200 A 
ATOM     73  F   UNL A   1      48.274  27.189  22.590  1.00  0.00    -0.200 F 
ATOM     74  F   UNL A   1      50.424  26.179  23.930  1.00  0.00    -0.200 F 
ENDBRANCH  50  64
BRANCH  51  75
ATOM     75  C   UNL A   1      38.967  30.782  30.884  1.00  0.00     0.064 A 
ATOM     76  C   UNL A   1      38.868  30.664  32.282  1.00  0.00     0.173 A 
ATOM     77  C   UNL A   1      37.855  31.312  30.212  1.00  0.00     0.173 A 
ATOM     78  F   UNL A   1      39.881  30.129  32.982  1.00  0.00    -0.203 F 
ATOM     79  C   UNL A   1      37.700  31.009  32.966  1.00  0.00     0.198 A 
ATOM     80  C   UNL A   1      36.698  31.690  30.901  1.00  0.00     0.198 A 
ATOM     81  F   UNL A   1      37.874  31.438  28.878  1.00  0.00    -0.203 F 
ATOM     82  F   UNL A   1      37.609  30.799  34.287  1.00  0.00    -0.200 F 
ATOM     83  C   UNL A   1      36.616  31.523  32.274  1.00  0.00     0.200 A 
ATOM     84  F   UNL A   1      35.652  32.189  30.227  1.00  0.00    -0.200 F 
ATOM     85  F   UNL A   1      35.486  31.836  32.926  1.00  0.00    -0.200 F 
ENDBRANCH  51  75
BRANCH  63  86
ATOM     86  C   UNL A   1      45.009  33.725  29.011  1.00  0.00     0.064 A 
ATOM     87  C   UNL A   1      45.853  34.092  30.069  1.00  0.00     0.173 A 
ATOM     88  C   UNL A   1      44.725  34.693  28.033  1.00  0.00     0.173 A 
ATOM     89  F   UNL A   1      46.154  33.207  31.032  1.00  0.00    -0.203 F 
ATOM     90  C   UNL A   1      46.363  35.384  30.162  1.00  0.00     0.198 A 
ATOM     91  C   UNL A   1      45.271  35.970  28.107  1.00  0.00     0.198 A 
ATOM     92  F   UNL A   1      43.937  34.390  26.990  1.00  0.00    -0.203 F 
ATOM     93  F   UNL A   1      47.122  35.727  31.212  1.00  0.00    -0.200 F 
ATOM     94  C   UNL A   1      46.080  36.318  29.177  1.00  0.00     0.200 A 
ATOM     95  F   UNL A   1      45.019  36.862  27.139  1.00  0.00    -0.200 F 
ATOM     96  F   UNL A   1      46.586  37.556  29.260  1.00  0.00    -0.200 F 
ENDBRANCH  63  86
ENDBRANCH  37  38
ENDBRANCH  30  32
ENDBRANCH  29  30
ENDBRANCH  28  29
ENDBRANCH   1  28
TORSDOF 14
ENDMDL
MODEL 2
REMARK VINA RESULT:     -14.3      1.537      2.711
REMARK SMILES O=C(OCCOC(=O)c1ccc(-c2c3nc(c(-c4c(F)c(F)c(F)c(F)c4F)c4ccc([nH]4)c(-c4c(F)c(F)c(F)c(F)c4F)c4nc(c(-c5c(F)c(F)c(F)c(F)c5F)c5ccc2[nH]5)C=C4)C=C3)cc1)C1=Cc2cc(Cl)cc(-c3ccc(O)cc3)c2O[C@@H]1C(F)(F)F
REMARK SMILES IDX 4 1 3 2 2 3 1 4 72 5 73 6 89 7 74 8 88 9 75 10 87 11 76 12
REMARK SMILES IDX 79 13 77 14 78 15 90 16 91 17 92 18 93 19 80 20 81 21 86 22
REMARK SMILES IDX 82 23 85 24 83 25 84 26 5 28 6 29 7 30 8 31 9 32 10 33 71 34
REMARK SMILES IDX 11 35 70 36 12 37 13 38 14 39 64 40 15 41 69 42 63 43 65 44
REMARK SMILES IDX 16 45 68 46 62 47 61 48 17 50 49 51 29 52 48 53 30 54 33 55
REMARK SMILES IDX 47 56 66 57 31 58 32 59 46 61 67 62 34 63 18 64 19 65 27 66
REMARK SMILES IDX 20 67 21 68 25 69 28 70 22 71 23 72 26 73 24 74 50 75 51 76
REMARK SMILES IDX 59 77 52 78 53 79 57 80 60 81 54 82 55 83 58 84 56 85 35 86
REMARK SMILES IDX 36 87 44 88 37 89 38 90 42 91 45 92 39 93 40 94 43 95 41 96
REMARK H PARENT 84 27 65 49 33 60
REMARK Flexibility Score: inf
ROOT
ATOM      1  C   UNL A   1      36.301  22.445  24.083  1.00  0.00     0.275 C 
ENDROOT
BRANCH   1   2
ATOM      2  O   UNL A   1      34.783  22.348  24.229  1.00  0.00    -0.459 OA
BRANCH   2   3
ATOM      3  C   UNL A   1      34.156  23.459  23.826  1.00  0.00     0.338 C 
ATOM      4  O   UNL A   1      34.408  24.162  22.879  1.00  0.00    -0.246 OA
BRANCH   3   5
ATOM      5  C   UNL A   1      33.544  23.766  25.109  1.00  0.00     0.087 C 
ATOM      6  C   UNL A   1      34.083  24.899  25.816  1.00  0.00     0.027 C 
ATOM      7  C   UNL A   1      31.761  23.621  24.419  1.00  0.00     0.316 C 
ATOM      8  C   UNL A   1      33.276  26.478  25.914  1.00  0.00     0.019 A 
ATOM      9  O   UNL A   1      30.882  25.364  24.407  1.00  0.00    -0.475 OA
ATOM     10  C   UNL A   1      34.025  27.494  26.435  1.00  0.00     0.032 A 
ATOM     11  C   UNL A   1      31.758  26.812  25.130  1.00  0.00     0.135 A 
ATOM     12  C   UNL A   1      33.497  28.766  26.239  1.00  0.00     0.042 A 
ATOM     13  C   UNL A   1      31.357  28.112  24.922  1.00  0.00     0.026 A 
ATOM     14  Cl  UNL A   1      34.438  30.099  26.821  1.00  0.00    -0.084 Cl
ATOM     15  C   UNL A   1      32.268  29.051  25.525  1.00  0.00     0.033 A 
BRANCH   7  16
ATOM     16  C   UNL A   1      31.611  22.210  25.268  1.00  0.00     0.430 C 
ATOM     17  F   UNL A   1      32.285  22.268  26.424  1.00  0.00    -0.167 F 
ATOM     18  F   UNL A   1      30.320  22.030  25.706  1.00  0.00    -0.167 F 
ATOM     19  F   UNL A   1      31.824  21.042  24.638  1.00  0.00    -0.167 F 
ENDBRANCH   7  16
BRANCH  13  20
ATOM     20  C   UNL A   1      30.304  28.650  24.077  1.00  0.00    -0.014 A 
ATOM     21  C   UNL A   1      30.184  30.051  23.943  1.00  0.00     0.012 A 
ATOM     22  C   UNL A   1      29.286  27.841  23.565  1.00  0.00     0.012 A 
ATOM     23  C   UNL A   1      29.081  30.624  23.314  1.00  0.00     0.047 A 
ATOM     24  C   UNL A   1      28.177  28.415  22.933  1.00  0.00     0.047 A 
ATOM     25  C   UNL A   1      28.085  29.800  22.814  1.00  0.00     0.115 A 
BRANCH  25  26
ATOM     26  O   UNL A   1      27.013  30.397  22.220  1.00  0.00    -0.508 OA
ATOM     27  H   UNL A   1      26.143  30.143  22.459  1.00  0.00     0.293 HD
ENDBRANCH  25  26
ENDBRANCH  13  20
ENDBRANCH   3   5
ENDBRANCH   2   3
ENDBRANCH   1   2
BRANCH   1  28
ATOM     28  C   UNL A   1      37.788  21.170  25.051  1.00  0.00     0.275 C 
BRANCH  28  29
ATOM     29  O   UNL A   1      39.280  21.781  25.759  1.00  0.00    -0.458 OA
BRANCH  29  30
ATOM     30  C   UNL A   1      40.015  21.801  26.931  1.00  0.00     0.338 C 
ATOM     31  O   UNL A   1      40.418  20.871  27.609  1.00  0.00    -0.246 OA
BRANCH  30  32
ATOM     32  C   UNL A   1      40.670  23.154  27.018  1.00  0.00     0.060 A 
ATOM     33  C   UNL A   1      40.143  24.210  26.243  1.00  0.00     0.016 A 
ATOM     34  C   UNL A   1      41.490  23.450  28.107  1.00  0.00     0.016 A 
ATOM     35  C   UNL A   1      40.260  25.543  26.693  1.00  0.00     0.010 A 
ATOM     36  C   UNL A   1      41.578  24.772  28.565  1.00  0.00     0.010 A 
ATOM     37  C   UNL A   1      40.911  25.824  27.903  1.00  0.00    -0.014 A 
BRANCH  37  38
ATOM     38  C   UNL A   1      41.160  27.228  28.338  1.00  0.00     0.031 A 
ATOM     39  C   UNL A   1      42.598  27.654  28.278  1.00  0.00     0.074 A 
ATOM     40  C   UNL A   1      40.220  28.082  28.803  1.00  0.00     0.049 A 
ATOM     41  N   UNL A   1      43.161  28.780  28.621  1.00  0.00    -0.248 NA
ATOM     42  C   UNL A   1      43.540  26.629  27.787  1.00  0.00     0.031 C 
ATOM     43  C   UNL A   1      38.792  27.803  28.948  1.00  0.00     0.029 A 
ATOM     44  N   UNL A   1      40.341  29.381  29.259  1.00  0.00    -0.354 N 
ATOM     45  C   UNL A   1      44.512  28.598  28.362  1.00  0.00     0.074 A 
ATOM     46  C   UNL A   1      44.701  27.229  27.952  1.00  0.00     0.031 C 
ATOM     47  C   UNL A   1      38.174  28.891  29.454  1.00  0.00     0.029 A 
ATOM     48  C   UNL A   1      39.157  29.949  29.681  1.00  0.00     0.049 A 
ATOM     49  H   UNL A   1      41.201  29.861  29.278  1.00  0.00     0.167 HD
ATOM     50  C   UNL A   1      45.509  29.507  28.399  1.00  0.00     0.037 A 
ATOM     51  C   UNL A   1      38.912  31.181  30.187  1.00  0.00     0.037 A 
ATOM     52  C   UNL A   1      45.335  30.858  28.836  1.00  0.00     0.049 A 
ATOM     53  C   UNL A   1      40.067  32.160  30.313  1.00  0.00     0.074 A 
ATOM     54  C   UNL A   1      46.281  31.857  28.946  1.00  0.00     0.029 A 
ATOM     55  N   UNL A   1      44.124  31.392  29.252  1.00  0.00    -0.354 N 
ATOM     56  N   UNL A   1      41.330  32.005  29.989  1.00  0.00    -0.248 NA
ATOM     57  C   UNL A   1      39.759  33.493  30.860  1.00  0.00     0.031 C 
ATOM     58  C   UNL A   1      45.651  32.986  29.480  1.00  0.00     0.029 A 
ATOM     59  C   UNL A   1      44.301  32.709  29.634  1.00  0.00     0.049 A 
ATOM     60  H   UNL A   1      43.268  30.906  29.272  1.00  0.00     0.167 HD
ATOM     61  C   UNL A   1      41.950  33.225  30.245  1.00  0.00     0.074 A 
ATOM     62  C   UNL A   1      40.922  34.117  30.737  1.00  0.00     0.031 C 
ATOM     63  C   UNL A   1      43.250  33.581  30.092  1.00  0.00     0.037 A 
BRANCH  50  64
ATOM     64  C   UNL A   1      46.855  29.031  27.948  1.00  0.00     0.064 A 
ATOM     65  C   UNL A   1      47.150  28.880  26.581  1.00  0.00     0.173 A 
ATOM     66  C   UNL A   1      47.830  28.653  28.878  1.00  0.00     0.173 A 
ATOM     67  F   UNL A   1      46.232  29.190  25.653  1.00  0.00    -0.203 F 
ATOM     68  C   UNL A   1      48.355  28.323  26.167  1.00  0.00     0.198 A 
ATOM     69  C   UNL A   1      49.051  28.134  28.458  1.00  0.00     0.198 A 
ATOM     70  F   UNL A   1      47.590  28.761  30.193  1.00  0.00    -0.203 F 
ATOM     71  F   UNL A   1      48.577  28.105  24.864  1.00  0.00    -0.200 F 
ATOM     72  C   UNL A   1      49.307  27.957  27.106  1.00  0.00     0.200 A 
ATOM     73  F   UNL A   1      49.972  27.780  29.366  1.00  0.00    -0.200 F 
ATOM     74  F   UNL A   1      50.465  27.412  26.708  1.00  0.00    -0.200 F 
ENDBRANCH  50  64
BRANCH  51  75
ATOM     75  C   UNL A   1      37.539  31.605  30.613  1.00  0.00     0.064 A 
ATOM     76  C   UNL A   1      36.587  32.052  29.678  1.00  0.00     0.173 A 
ATOM     77  C   UNL A   1      37.182  31.682  31.968  1.00  0.00     0.173 A 
ATOM     78  F   UNL A   1      36.879  32.040  28.369  1.00  0.00    -0.203 F 
ATOM     79  C   UNL A   1      35.365  32.596  30.080  1.00  0.00     0.198 A 
ATOM     80  C   UNL A   1      35.944  32.194  32.368  1.00  0.00     0.198 A 
ATOM     81  F   UNL A   1      38.046  31.287  32.913  1.00  0.00    -0.203 F 
ATOM     82  F   UNL A   1      34.520  33.094  29.167  1.00  0.00    -0.200 F 
ATOM     83  C   UNL A   1      35.044  32.665  31.426  1.00  0.00     0.200 A 
ATOM     84  F   UNL A   1      35.638  32.257  33.672  1.00  0.00    -0.200 F 
ATOM     85  F   UNL A   1      33.880  33.205  31.815  1.00  0.00    -0.200 F 
ENDBRANCH  51  75
BRANCH  63  86
ATOM     86  C   UNL A   1      43.628  35.004  30.393  1.00  0.00     0.064 A 
ATOM     87  C   UNL A   1      43.580  36.011  29.419  1.00  0.00     0.173 A 
ATOM     88  C   UNL A   1      43.977  35.376  31.702  1.00  0.00     0.173 A 
ATOM     89  F   UNL A   1      43.255  35.710  28.152  1.00  0.00    -0.203 F 
ATOM     90  C   UNL A   1      43.901  37.328  29.734  1.00  0.00     0.198 A 
ATOM     91  C   UNL A   1      44.257  36.700  32.023  1.00  0.00     0.198 A 
ATOM     92  F   UNL A   1      44.022  34.456  32.678  1.00  0.00    -0.203 F 
ATOM     93  F   UNL A   1      43.903  38.263  28.773  1.00  0.00    -0.200 F 
ATOM     94  C   UNL A   1      44.230  37.673  31.036  1.00  0.00     0.200 A 
ATOM     95  F   UNL A   1      44.546  37.035  33.288  1.00  0.00    -0.200 F 
ATOM     96  F   UNL A   1      44.523  38.944  31.341  1.00  0.00    -0.200 F 
ENDBRANCH  63  86
ENDBRANCH  37  38
ENDBRANCH  30  32
ENDBRANCH  29  30
ENDBRANCH  28  29
ENDBRANCH   1  28
TORSDOF 14
ENDMDL
MODEL 3
REMARK VINA RESULT:     -14.3      5.113     11.241
REMARK SMILES O=C(OCCOC(=O)c1ccc(-c2c3nc(c(-c4c(F)c(F)c(F)c(F)c4F)c4ccc([nH]4)c(-c4c(F)c(F)c(F)c(F)c4F)c4nc(c(-c5c(F)c(F)c(F)c(F)c5F)c5ccc2[nH]5)C=C4)C=C3)cc1)C1=Cc2cc(Cl)cc(-c3ccc(O)cc3)c2O[C@@H]1C(F)(F)F
REMARK SMILES IDX 4 1 3 2 2 3 1 4 72 5 73 6 89 7 74 8 88 9 75 10 87 11 76 12
REMARK SMILES IDX 79 13 77 14 78 15 90 16 91 17 92 18 93 19 80 20 81 21 86 22
REMARK SMILES IDX 82 23 85 24 83 25 84 26 5 28 6 29 7 30 8 31 9 32 10 33 71 34
REMARK SMILES IDX 11 35 70 36 12 37 13 38 14 39 64 40 15 41 69 42 63 43 65 44
REMARK SMILES IDX 16 45 68 46 62 47 61 48 17 50 49 51 29 52 48 53 30 54 33 55
REMARK SMILES IDX 47 56 66 57 31 58 32 59 46 61 67 62 34 63 18 64 19 65 27 66
REMARK SMILES IDX 20 67 21 68 25 69 28 70 22 71 23 72 26 73 24 74 50 75 51 76
REMARK SMILES IDX 59 77 52 78 53 79 57 80 60 81 54 82 55 83 58 84 56 85 35 86
REMARK SMILES IDX 36 87 44 88 37 89 38 90 42 91 45 92 39 93 40 94 43 95 41 96
REMARK H PARENT 84 27 65 49 33 60
REMARK Flexibility Score: inf
ROOT
ATOM      1  C   UNL A   1      36.251  33.670  28.599  1.00  0.00     0.275 C 
ENDROOT
BRANCH   1   2
ATOM      2  O   UNL A   1      37.217  33.005  29.581  1.00  0.00    -0.459 OA
BRANCH   2   3
ATOM      3  C   UNL A   1      37.484  33.777  30.640  1.00  0.00     0.338 C 
ATOM      4  O   UNL A   1      38.399  34.546  30.798  1.00  0.00    -0.246 OA
BRANCH   3   5
ATOM      5  C   UNL A   1      36.715  32.996  31.597  1.00  0.00     0.087 C 
ATOM      6  C   UNL A   1      37.390  31.871  32.189  1.00  0.00     0.027 C 
ATOM      7  C   UNL A   1      36.097  34.551  32.534  1.00  0.00     0.316 C 
ATOM      8  C   UNL A   1      38.028  31.861  33.847  1.00  0.00     0.019 A 
ATOM      9  O   UNL A   1      36.869  34.631  34.325  1.00  0.00    -0.475 OA
ATOM     10  C   UNL A   1      38.825  30.799  34.168  1.00  0.00     0.032 A 
ATOM     11  C   UNL A   1      37.920  33.237  34.908  1.00  0.00     0.135 A 
ATOM     12  C   UNL A   1      39.544  30.946  35.350  1.00  0.00     0.042 A 
ATOM     13  C   UNL A   1      38.728  33.320  36.020  1.00  0.00     0.026 A 
ATOM     14  Cl  UNL A   1      40.622  29.659  35.773  1.00  0.00    -0.084 Cl
ATOM     15  C   UNL A   1      39.508  32.122  36.198  1.00  0.00     0.033 A 
BRANCH   7  16
ATOM     16  C   UNL A   1      34.601  34.273  31.886  1.00  0.00     0.430 C 
ATOM     17  F   UNL A   1      33.631  34.670  32.721  1.00  0.00    -0.167 F 
ATOM     18  F   UNL A   1      34.376  35.079  30.795  1.00  0.00    -0.167 F 
ATOM     19  F   UNL A   1      34.329  33.065  31.363  1.00  0.00    -0.167 F 
ENDBRANCH   7  16
BRANCH  13  20
ATOM     20  C   UNL A   1      39.024  34.446  36.888  1.00  0.00    -0.014 A 
ATOM     21  C   UNL A   1      39.733  35.548  36.361  1.00  0.00     0.012 A 
ATOM     22  C   UNL A   1      38.816  34.386  38.269  1.00  0.00     0.012 A 
ATOM     23  C   UNL A   1      40.216  36.559  37.189  1.00  0.00     0.047 A 
ATOM     24  C   UNL A   1      39.302  35.399  39.102  1.00  0.00     0.047 A 
ATOM     25  C   UNL A   1      39.997  36.475  38.555  1.00  0.00     0.115 A 
BRANCH  25  26
ATOM     26  O   UNL A   1      40.499  37.473  39.336  1.00  0.00    -0.508 OA
ATOM     27  H   UNL A   1      40.435  38.365  39.056  1.00  0.00     0.293 HD
ENDBRANCH  25  26
ENDBRANCH  13  20
ENDBRANCH   3   5
ENDBRANCH   2   3
ENDBRANCH   1   2
BRANCH   1  28
ATOM     28  C   UNL A   1      34.257  32.965  28.054  1.00  0.00     0.275 C 
BRANCH  28  29
ATOM     29  O   UNL A   1      33.791  31.267  28.057  1.00  0.00    -0.458 OA
BRANCH  29  30
ATOM     30  C   UNL A   1      34.299  29.986  27.927  1.00  0.00     0.338 C 
ATOM     31  O   UNL A   1      33.865  29.041  27.292  1.00  0.00    -0.246 OA
BRANCH  30  32
ATOM     32  C   UNL A   1      35.752  30.047  28.314  1.00  0.00     0.060 A 
ATOM     33  C   UNL A   1      36.136  29.550  29.580  1.00  0.00     0.016 A 
ATOM     34  C   UNL A   1      36.721  30.207  27.324  1.00  0.00     0.016 A 
ATOM     35  C   UNL A   1      37.428  29.015  29.767  1.00  0.00     0.010 A 
ATOM     36  C   UNL A   1      37.993  29.647  27.505  1.00  0.00     0.010 A 
ATOM     37  C   UNL A   1      38.341  28.988  28.702  1.00  0.00    -0.014 A 
BRANCH  37  38
ATOM     38  C   UNL A   1      39.751  28.547  28.905  1.00  0.00     0.031 A 
ATOM     39  C   UNL A   1      40.613  29.534  29.635  1.00  0.00     0.074 A 
ATOM     40  C   UNL A   1      40.281  27.389  28.451  1.00  0.00     0.049 A 
ATOM     41  N   UNL A   1      41.882  29.487  29.937  1.00  0.00    -0.248 NA
ATOM     42  C   UNL A   1      39.936  30.778  30.053  1.00  0.00     0.031 C 
ATOM     43  C   UNL A   1      39.579  26.348  27.702  1.00  0.00     0.029 A 
ATOM     44  N   UNL A   1      41.569  26.897  28.552  1.00  0.00    -0.354 N 
ATOM     45  C   UNL A   1      42.137  30.680  30.597  1.00  0.00     0.074 A 
ATOM     46  C   UNL A   1      40.937  31.477  30.547  1.00  0.00     0.031 C 
ATOM     47  C   UNL A   1      40.439  25.349  27.413  1.00  0.00     0.029 A 
ATOM     48  C   UNL A   1      41.761  25.673  27.946  1.00  0.00     0.049 A 
ATOM     49  H   UNL A   1      42.289  27.381  29.019  1.00  0.00     0.167 HD
ATOM     50  C   UNL A   1      43.257  31.063  31.248  1.00  0.00     0.037 A 
ATOM     51  C   UNL A   1      42.878  24.914  27.846  1.00  0.00     0.037 A 
ATOM     52  C   UNL A   1      44.462  30.292  31.274  1.00  0.00     0.049 A 
ATOM     53  C   UNL A   1      44.156  25.408  28.503  1.00  0.00     0.074 A 
ATOM     54  C   UNL A   1      45.667  30.597  31.874  1.00  0.00     0.029 A 
ATOM     55  N   UNL A   1      44.612  29.061  30.652  1.00  0.00    -0.354 N 
ATOM     56  N   UNL A   1      44.367  26.503  29.195  1.00  0.00    -0.248 NA
ATOM     57  C   UNL A   1      45.347  24.552  28.378  1.00  0.00     0.031 C 
ATOM     58  C   UNL A   1      46.567  29.570  31.571  1.00  0.00     0.029 A 
ATOM     59  C   UNL A   1      45.901  28.597  30.843  1.00  0.00     0.049 A 
ATOM     60  H   UNL A   1      43.909  28.590  30.150  1.00  0.00     0.167 HD
ATOM     61  C   UNL A   1      45.690  26.442  29.625  1.00  0.00     0.074 A 
ATOM     62  C   UNL A   1      46.230  25.195  29.130  1.00  0.00     0.031 C 
ATOM     63  C   UNL A   1      46.400  27.335  30.361  1.00  0.00     0.037 A 
BRANCH  50  64
ATOM     64  C   UNL A   1      43.186  32.372  31.970  1.00  0.00     0.064 A 
ATOM     65  C   UNL A   1      42.809  32.435  33.323  1.00  0.00     0.173 A 
ATOM     66  C   UNL A   1      43.422  33.576  31.295  1.00  0.00     0.173 A 
ATOM     67  F   UNL A   1      42.532  31.310  34.001  1.00  0.00    -0.203 F 
ATOM     68  C   UNL A   1      42.626  33.658  33.959  1.00  0.00     0.198 A 
ATOM     69  C   UNL A   1      43.277  34.797  31.947  1.00  0.00     0.198 A 
ATOM     70  F   UNL A   1      43.767  33.570  29.999  1.00  0.00    -0.203 F 
ATOM     71  F   UNL A   1      42.179  33.695  35.221  1.00  0.00    -0.200 F 
ATOM     72  C   UNL A   1      42.867  34.838  33.271  1.00  0.00     0.200 A 
ATOM     73  F   UNL A   1      43.511  35.938  31.283  1.00  0.00    -0.200 F 
ATOM     74  F   UNL A   1      42.682  36.017  33.880  1.00  0.00    -0.200 F 
ENDBRANCH  50  64
BRANCH  51  75
ATOM     75  C   UNL A   1      42.884  23.604  27.117  1.00  0.00     0.064 A 
ATOM     76  C   UNL A   1      42.429  22.423  27.730  1.00  0.00     0.173 A 
ATOM     77  C   UNL A   1      43.447  23.479  25.838  1.00  0.00     0.173 A 
ATOM     78  F   UNL A   1      41.915  22.467  28.969  1.00  0.00    -0.203 F 
ATOM     79  C   UNL A   1      42.578  21.176  27.118  1.00  0.00     0.198 A 
ATOM     80  C   UNL A   1      43.564  22.235  25.211  1.00  0.00     0.198 A 
ATOM     81  F   UNL A   1      43.915  24.562  25.201  1.00  0.00    -0.203 F 
ATOM     82  F   UNL A   1      42.215  20.062  27.770  1.00  0.00    -0.200 F 
ATOM     83  C   UNL A   1      43.144  21.083  25.858  1.00  0.00     0.200 A 
ATOM     84  F   UNL A   1      44.111  22.151  23.990  1.00  0.00    -0.200 F 
ATOM     85  F   UNL A   1      43.306  19.886  25.277  1.00  0.00    -0.200 F 
ENDBRANCH  51  75
BRANCH  63  86
ATOM     86  C   UNL A   1      47.810  26.972  30.733  1.00  0.00     0.064 A 
ATOM     87  C   UNL A   1      48.104  26.147  31.828  1.00  0.00     0.173 A 
ATOM     88  C   UNL A   1      48.881  27.405  29.933  1.00  0.00     0.173 A 
ATOM     89  F   UNL A   1      47.119  25.708  32.627  1.00  0.00    -0.203 F 
ATOM     90  C   UNL A   1      49.418  25.799  32.129  1.00  0.00     0.198 A 
ATOM     91  C   UNL A   1      50.188  27.020  30.212  1.00  0.00     0.198 A 
ATOM     92  F   UNL A   1      48.654  28.182  28.863  1.00  0.00    -0.203 F 
ATOM     93  F   UNL A   1      49.679  25.055  33.214  1.00  0.00    -0.200 F 
ATOM     94  C   UNL A   1      50.456  26.227  31.316  1.00  0.00     0.200 A 
ATOM     95  F   UNL A   1      51.186  27.411  29.408  1.00  0.00    -0.200 F 
ATOM     96  F   UNL A   1      51.718  25.876  31.598  1.00  0.00    -0.200 F 
ENDBRANCH  63  86
ENDBRANCH  37  38
ENDBRANCH  30  32
ENDBRANCH  29  30
ENDBRANCH  28  29
ENDBRANCH   1  28
TORSDOF 14
ENDMDL
