MODEL 1
REMARK VINA RESULT:     -13.5      0.000      0.000
REMARK SMILES O=C(OCCOC(=O)c1nnn(-c2ccc(C(F)(F)F)cc2)c1-c1cccc(Cl)c1)c1ccc(-c2c3nc(c(-c4c(F)c(F)c(F)c(F)c4F)c4ccc([nH]4)c(-c4c(F)c(F)c(F)c(F)c4F)c4nc(c(-c5c(F)c(F)c(F)c(F)c5F)c5ccc2[nH]5)C=C4)C=C3)cc1
REMARK SMILES IDX 4 1 3 2 2 3 1 4 31 5 32 6 93 7 33 8 92 9 34 10 35 11 36 12
REMARK SMILES IDX 86 13 37 14 91 15 85 16 87 17 38 18 90 19 84 20 83 21 39 23
REMARK SMILES IDX 71 24 51 25 70 26 52 27 55 28 69 29 88 30 53 31 54 32 68 34
REMARK SMILES IDX 89 35 56 36 40 37 41 38 49 39 42 40 43 41 47 42 50 43 44 44
REMARK SMILES IDX 45 45 48 46 46 47 72 48 73 49 81 50 74 51 75 52 79 53 82 54
REMARK SMILES IDX 76 55 77 56 80 57 78 58 57 59 58 60 66 61 59 62 60 63 64 64
REMARK SMILES IDX 67 65 61 66 62 67 65 68 63 69 5 70 6 71 7 72 8 73 9 74 10 75
REMARK SMILES IDX 23 76 11 77 12 78 24 79 25 80 30 81 26 82 28 83 27 84 29 85
REMARK SMILES IDX 13 86 14 87 22 88 15 89 21 90 16 91 17 92 18 93 19 94 20 95
REMARK H PARENT 87 22 55 33
REMARK Flexibility Score: inf
ROOT
ATOM      1  C   UNL A   1      36.445  23.240  25.628  1.00  0.00     0.275 C 
ENDROOT
BRANCH   1   2
ATOM      2  O   UNL A   1      37.808  23.632  25.354  1.00  0.00    -0.458 OA
BRANCH   2   3
ATOM      3  C   UNL A   1      38.776  23.329  26.245  1.00  0.00     0.338 C 
ATOM      4  O   UNL A   1      39.220  22.205  26.405  1.00  0.00    -0.246 OA
BRANCH   3   5
ATOM      5  C   UNL A   1      39.377  24.534  26.874  1.00  0.00     0.060 A 
ATOM      6  C   UNL A   1      39.225  24.816  28.237  1.00  0.00     0.016 A 
ATOM      7  C   UNL A   1      40.091  25.414  26.049  1.00  0.00     0.016 A 
ATOM      8  C   UNL A   1      39.687  26.016  28.750  1.00  0.00     0.010 A 
ATOM      9  C   UNL A   1      40.557  26.616  26.562  1.00  0.00     0.010 A 
ATOM     10  C   UNL A   1      40.291  26.938  27.893  1.00  0.00    -0.014 A 
BRANCH  10  11
ATOM     11  C   UNL A   1      40.572  28.263  28.427  1.00  0.00     0.031 A 
ATOM     12  C   UNL A   1      41.808  28.933  27.938  1.00  0.00     0.074 A 
ATOM     13  C   UNL A   1      39.712  28.861  29.276  1.00  0.00     0.049 A 
ATOM     14  N   UNL A   1      42.812  29.373  28.628  1.00  0.00    -0.248 NA
ATOM     15  C   UNL A   1      41.973  29.081  26.485  1.00  0.00     0.031 C 
ATOM     16  C   UNL A   1      38.357  28.433  29.640  1.00  0.00     0.029 A 
ATOM     17  N   UNL A   1      39.840  30.050  29.927  1.00  0.00    -0.354 N 
ATOM     18  C   UNL A   1      43.666  29.998  27.719  1.00  0.00     0.074 A 
ATOM     19  C   UNL A   1      43.156  29.694  26.408  1.00  0.00     0.031 C 
ATOM     20  C   UNL A   1      37.715  29.453  30.249  1.00  0.00     0.029 A 
ATOM     21  C   UNL A   1      38.652  30.545  30.441  1.00  0.00     0.049 A 
ATOM     22  H   UNL A   1      40.701  30.517  30.023  1.00  0.00     0.167 HD
ATOM     23  C   UNL A   1      44.619  30.885  28.126  1.00  0.00     0.037 A 
ATOM     24  C   UNL A   1      38.439  31.794  30.922  1.00  0.00     0.037 A 
ATOM     25  C   UNL A   1      44.954  30.698  29.513  1.00  0.00     0.049 A 
ATOM     26  C   UNL A   1      39.760  32.374  31.266  1.00  0.00     0.074 A 
ATOM     27  C   UNL A   1      45.489  29.662  30.255  1.00  0.00     0.029 A 
ATOM     28  N   UNL A   1      44.450  31.579  30.438  1.00  0.00    -0.354 N 
ATOM     29  N   UNL A   1      40.508  31.947  32.246  1.00  0.00    -0.248 NA
ATOM     30  C   UNL A   1      40.453  33.136  30.238  1.00  0.00     0.031 C 
ATOM     31  C   UNL A   1      44.826  29.730  31.516  1.00  0.00     0.029 A 
ATOM     32  C   UNL A   1      43.968  30.829  31.477  1.00  0.00     0.049 A 
ATOM     33  H   UNL A   1      44.437  32.561  30.367  1.00  0.00     0.167 HD
ATOM     34  C   UNL A   1      41.803  32.010  31.755  1.00  0.00     0.074 A 
ATOM     35  C   UNL A   1      41.715  32.831  30.550  1.00  0.00     0.031 C 
ATOM     36  C   UNL A   1      42.771  31.162  32.208  1.00  0.00     0.037 A 
BRANCH  23  37
ATOM     37  C   UNL A   1      44.982  32.150  27.379  1.00  0.00     0.064 A 
ATOM     38  C   UNL A   1      46.275  32.273  26.825  1.00  0.00     0.173 A 
ATOM     39  C   UNL A   1      44.249  33.352  27.471  1.00  0.00     0.173 A 
ATOM     40  F   UNL A   1      47.063  31.196  26.679  1.00  0.00    -0.203 F 
ATOM     41  C   UNL A   1      46.828  33.515  26.505  1.00  0.00     0.198 A 
ATOM     42  C   UNL A   1      44.788  34.585  27.104  1.00  0.00     0.198 A 
ATOM     43  F   UNL A   1      43.029  33.405  28.016  1.00  0.00    -0.203 F 
ATOM     44  F   UNL A   1      48.109  33.593  26.117  1.00  0.00    -0.200 F 
ATOM     45  C   UNL A   1      46.090  34.672  26.660  1.00  0.00     0.200 A 
ATOM     46  F   UNL A   1      44.058  35.697  27.268  1.00  0.00    -0.200 F 
ATOM     47  F   UNL A   1      46.641  35.870  26.428  1.00  0.00    -0.200 F 
ENDBRANCH  23  37
BRANCH  24  48
ATOM     48  C   UNL A   1      37.216  32.614  30.764  1.00  0.00     0.064 A 
ATOM     49  C   UNL A   1      36.876  33.189  29.529  1.00  0.00     0.173 A 
ATOM     50  C   UNL A   1      36.218  32.632  31.759  1.00  0.00     0.173 A 
ATOM     51  F   UNL A   1      37.748  33.165  28.513  1.00  0.00    -0.203 F 
ATOM     52  C   UNL A   1      35.608  33.736  29.302  1.00  0.00     0.198 A 
ATOM     53  C   UNL A   1      34.958  33.186  31.535  1.00  0.00     0.198 A 
ATOM     54  F   UNL A   1      36.412  32.028  32.940  1.00  0.00    -0.203 F 
ATOM     55  F   UNL A   1      35.299  34.226  28.093  1.00  0.00    -0.200 F 
ATOM     56  C   UNL A   1      34.650  33.729  30.302  1.00  0.00     0.200 A 
ATOM     57  F   UNL A   1      34.028  33.136  32.499  1.00  0.00    -0.200 F 
ATOM     58  F   UNL A   1      33.418  34.202  30.066  1.00  0.00    -0.200 F 
ENDBRANCH  24  48
BRANCH  36  59
ATOM     59  C   UNL A   1      42.455  30.321  33.412  1.00  0.00     0.064 A 
ATOM     60  C   UNL A   1      42.555  30.788  34.735  1.00  0.00     0.173 A 
ATOM     61  C   UNL A   1      41.890  29.055  33.219  1.00  0.00     0.173 A 
ATOM     62  F   UNL A   1      42.979  32.030  34.995  1.00  0.00    -0.203 F 
ATOM     63  C   UNL A   1      42.156  30.002  35.813  1.00  0.00     0.198 A 
ATOM     64  C   UNL A   1      41.459  28.285  34.295  1.00  0.00     0.198 A 
ATOM     65  F   UNL A   1      41.708  28.583  31.975  1.00  0.00    -0.203 F 
ATOM     66  F   UNL A   1      42.273  30.469  37.065  1.00  0.00    -0.200 F 
ATOM     67  C   UNL A   1      41.602  28.753  35.592  1.00  0.00     0.200 A 
ATOM     68  F   UNL A   1      40.874  27.099  34.075  1.00  0.00    -0.200 F 
ATOM     69  F   UNL A   1      41.179  28.012  36.626  1.00  0.00    -0.200 F 
ENDBRANCH  36  59
ENDBRANCH  10  11
ENDBRANCH   3   5
ENDBRANCH   2   3
ENDBRANCH   1   2
BRANCH   1  70
ATOM     70  C   UNL A   1      35.388  24.341  25.613  1.00  0.00     0.275 C 
BRANCH  70  71
ATOM     71  O   UNL A   1      34.254  23.915  24.839  1.00  0.00    -0.457 OA
BRANCH  71  72
ATOM     72  C   UNL A   1      33.053  23.892  25.484  1.00  0.00     0.361 C 
ATOM     73  O   UNL A   1      32.833  23.338  26.555  1.00  0.00    -0.244 OA
BRANCH  72  74
ATOM     74  C   UNL A   1      32.002  24.435  24.660  1.00  0.00     0.198 A 
ATOM     75  N   UNL A   1      31.192  23.732  23.811  1.00  0.00    -0.122 NA
ATOM     76  C   UNL A   1      31.587  25.750  24.714  1.00  0.00     0.109 A 
ATOM     77  N   UNL A   1      30.288  24.573  23.314  1.00  0.00    -0.061 NA
ATOM     78  N   UNL A   1      30.604  25.818  23.745  1.00  0.00    -0.212 N 
BRANCH  76  79
ATOM     79  C   UNL A   1      31.941  26.789  25.674  1.00  0.00     0.004 A 
ATOM     80  C   UNL A   1      31.029  27.159  26.674  1.00  0.00     0.010 A 
ATOM     81  C   UNL A   1      33.211  27.373  25.650  1.00  0.00     0.031 A 
ATOM     82  C   UNL A   1      31.374  28.116  27.626  1.00  0.00     0.002 A 
ATOM     83  C   UNL A   1      33.550  28.330  26.604  1.00  0.00     0.041 A 
ATOM     84  C   UNL A   1      32.637  28.705  27.589  1.00  0.00     0.020 A 
ATOM     85  Cl  UNL A   1      35.111  29.048  26.568  1.00  0.00    -0.084 Cl
ENDBRANCH  76  79
BRANCH  78  86
ATOM     86  C   UNL A   1      29.967  26.979  23.264  1.00  0.00     0.067 A 
ATOM     87  C   UNL A   1      28.607  27.186  23.502  1.00  0.00     0.029 A 
ATOM     88  C   UNL A   1      30.738  27.956  22.619  1.00  0.00     0.029 A 
ATOM     89  C   UNL A   1      28.050  28.428  23.185  1.00  0.00     0.015 A 
ATOM     90  C   UNL A   1      30.168  29.176  22.275  1.00  0.00     0.015 A 
ATOM     91  C   UNL A   1      28.827  29.438  22.585  1.00  0.00     0.056 A 
BRANCH  91  92
ATOM     92  C   UNL A   1      28.236  30.799  22.311  1.00  0.00     0.416 C 
ATOM     93  F   UNL A   1      27.279  31.145  23.213  1.00  0.00    -0.166 F 
ATOM     94  F   UNL A   1      29.175  31.784  22.359  1.00  0.00    -0.166 F 
ATOM     95  F   UNL A   1      27.653  30.901  21.084  1.00  0.00    -0.166 F 
ENDBRANCH  91  92
ENDBRANCH  78  86
ENDBRANCH  72  74
ENDBRANCH  71  72
ENDBRANCH  70  71
ENDBRANCH   1  70
TORSDOF 14
ENDMDL
MODEL 2
REMARK VINA RESULT:     -13.3      4.431      9.090
REMARK SMILES O=C(OCCOC(=O)c1nnn(-c2ccc(C(F)(F)F)cc2)c1-c1cccc(Cl)c1)c1ccc(-c2c3nc(c(-c4c(F)c(F)c(F)c(F)c4F)c4ccc([nH]4)c(-c4c(F)c(F)c(F)c(F)c4F)c4nc(c(-c5c(F)c(F)c(F)c(F)c5F)c5ccc2[nH]5)C=C4)C=C3)cc1
REMARK SMILES IDX 4 1 3 2 2 3 1 4 31 5 32 6 93 7 33 8 92 9 34 10 35 11 36 12
REMARK SMILES IDX 86 13 37 14 91 15 85 16 87 17 38 18 90 19 84 20 83 21 39 23
REMARK SMILES IDX 71 24 51 25 70 26 52 27 55 28 69 29 88 30 53 31 54 32 68 34
REMARK SMILES IDX 89 35 56 36 40 37 41 38 49 39 42 40 43 41 47 42 50 43 44 44
REMARK SMILES IDX 45 45 48 46 46 47 72 48 73 49 81 50 74 51 75 52 79 53 82 54
REMARK SMILES IDX 76 55 77 56 80 57 78 58 57 59 58 60 66 61 59 62 60 63 64 64
REMARK SMILES IDX 67 65 61 66 62 67 65 68 63 69 5 70 6 71 7 72 8 73 9 74 10 75
REMARK SMILES IDX 23 76 11 77 12 78 24 79 25 80 30 81 26 82 28 83 27 84 29 85
REMARK SMILES IDX 13 86 14 87 22 88 15 89 21 90 16 91 17 92 18 93 19 94 20 95
REMARK H PARENT 87 22 55 33
REMARK Flexibility Score: inf
ROOT
ATOM      1  C   UNL A   1      33.913  28.782  26.393  1.00  0.00     0.275 C 
ENDROOT
BRANCH   1   2
ATOM      2  O   UNL A   1      33.868  29.577  27.598  1.00  0.00    -0.458 OA
BRANCH   2   3
ATOM      3  C   UNL A   1      34.708  30.625  27.732  1.00  0.00     0.338 C 
ATOM      4  O   UNL A   1      34.357  31.789  27.631  1.00  0.00    -0.246 OA
BRANCH   3   5
ATOM      5  C   UNL A   1      36.059  30.225  28.202  1.00  0.00     0.060 A 
ATOM      6  C   UNL A   1      37.197  30.363  27.399  1.00  0.00     0.016 A 
ATOM      7  C   UNL A   1      36.166  29.669  29.484  1.00  0.00     0.016 A 
ATOM      8  C   UNL A   1      38.411  29.853  27.827  1.00  0.00     0.010 A 
ATOM      9  C   UNL A   1      37.382  29.159  29.916  1.00  0.00     0.010 A 
ATOM     10  C   UNL A   1      38.480  29.194  29.056  1.00  0.00    -0.014 A 
BRANCH  10  11
ATOM     11  C   UNL A   1      39.718  28.495  29.372  1.00  0.00     0.031 A 
ATOM     12  C   UNL A   1      40.107  28.439  30.807  1.00  0.00     0.074 A 
ATOM     13  C   UNL A   1      40.431  27.884  28.405  1.00  0.00     0.049 A 
ATOM     14  N   UNL A   1      41.199  28.859  31.363  1.00  0.00    -0.248 NA
ATOM     15  C   UNL A   1      39.126  27.896  31.758  1.00  0.00     0.031 C 
ATOM     16  C   UNL A   1      40.043  27.646  27.010  1.00  0.00     0.029 A 
ATOM     17  N   UNL A   1      41.634  27.253  28.497  1.00  0.00    -0.354 N 
ATOM     18  C   UNL A   1      41.120  28.493  32.706  1.00  0.00     0.074 A 
ATOM     19  C   UNL A   1      39.783  28.003  32.914  1.00  0.00     0.031 C 
ATOM     20  C   UNL A   1      40.876  26.733  26.464  1.00  0.00     0.029 A 
ATOM     21  C   UNL A   1      41.929  26.435  27.418  1.00  0.00     0.049 A 
ATOM     22  H   UNL A   1      42.240  27.369  29.263  1.00  0.00     0.167 HD
ATOM     23  C   UNL A   1      42.229  28.438  33.498  1.00  0.00     0.037 A 
ATOM     24  C   UNL A   1      42.927  25.521  27.348  1.00  0.00     0.037 A 
ATOM     25  C   UNL A   1      43.295  29.247  32.970  1.00  0.00     0.049 A 
ATOM     26  C   UNL A   1      43.933  25.874  28.380  1.00  0.00     0.074 A 
ATOM     27  C   UNL A   1      43.456  30.593  32.703  1.00  0.00     0.029 A 
ATOM     28  N   UNL A   1      44.337  28.627  32.326  1.00  0.00    -0.354 N 
ATOM     29  N   UNL A   1      44.683  26.939  28.328  1.00  0.00    -0.248 NA
ATOM     30  C   UNL A   1      43.787  25.275  29.698  1.00  0.00     0.031 C 
ATOM     31  C   UNL A   1      44.252  30.643  31.521  1.00  0.00     0.029 A 
ATOM     32  C   UNL A   1      44.563  29.329  31.172  1.00  0.00     0.049 A 
ATOM     33  H   UNL A   1      44.826  27.830  32.633  1.00  0.00     0.167 HD
ATOM     34  C   UNL A   1      44.750  27.386  29.639  1.00  0.00     0.074 A 
ATOM     35  C   UNL A   1      44.256  26.276  30.447  1.00  0.00     0.031 C 
ATOM     36  C   UNL A   1      44.932  28.709  29.925  1.00  0.00     0.037 A 
BRANCH  23  37
ATOM     37  C   UNL A   1      42.476  27.376  34.548  1.00  0.00     0.064 A 
ATOM     38  C   UNL A   1      43.045  26.144  34.158  1.00  0.00     0.173 A 
ATOM     39  C   UNL A   1      41.883  27.388  35.829  1.00  0.00     0.173 A 
ATOM     40  F   UNL A   1      43.646  26.014  32.964  1.00  0.00    -0.203 F 
ATOM     41  C   UNL A   1      42.922  24.992  34.938  1.00  0.00     0.198 A 
ATOM     42  C   UNL A   1      41.804  26.245  36.625  1.00  0.00     0.198 A 
ATOM     43  F   UNL A   1      41.261  28.466  36.319  1.00  0.00    -0.203 F 
ATOM     44  F   UNL A   1      43.354  23.817  34.461  1.00  0.00    -0.200 F 
ATOM     45  C   UNL A   1      42.287  25.039  36.164  1.00  0.00     0.200 A 
ATOM     46  F   UNL A   1      41.179  26.311  37.809  1.00  0.00    -0.200 F 
ATOM     47  F   UNL A   1      42.098  23.923  36.879  1.00  0.00    -0.200 F 
ENDBRANCH  23  37
BRANCH  24  48
ATOM     48  C   UNL A   1      42.876  24.193  26.693  1.00  0.00     0.064 A 
ATOM     49  C   UNL A   1      43.677  23.895  25.580  1.00  0.00     0.173 A 
ATOM     50  C   UNL A   1      42.229  23.103  27.310  1.00  0.00     0.173 A 
ATOM     51  F   UNL A   1      44.369  24.867  24.969  1.00  0.00    -0.203 F 
ATOM     52  C   UNL A   1      43.832  22.582  25.121  1.00  0.00     0.198 A 
ATOM     53  C   UNL A   1      42.376  21.796  26.846  1.00  0.00     0.198 A 
ATOM     54  F   UNL A   1      41.516  23.269  28.432  1.00  0.00    -0.203 F 
ATOM     55  F   UNL A   1      44.650  22.327  24.091  1.00  0.00    -0.200 F 
ATOM     56  C   UNL A   1      43.187  21.534  25.758  1.00  0.00     0.200 A 
ATOM     57  F   UNL A   1      41.778  20.788  27.496  1.00  0.00    -0.200 F 
ATOM     58  F   UNL A   1      43.380  20.271  25.353  1.00  0.00    -0.200 F 
ENDBRANCH  24  48
BRANCH  36  59
ATOM     59  C   UNL A   1      45.286  29.626  28.789  1.00  0.00     0.064 A 
ATOM     60  C   UNL A   1      44.330  30.289  27.999  1.00  0.00     0.173 A 
ATOM     61  C   UNL A   1      46.630  29.962  28.589  1.00  0.00     0.173 A 
ATOM     62  F   UNL A   1      43.021  30.107  28.204  1.00  0.00    -0.203 F 
ATOM     63  C   UNL A   1      44.708  31.206  27.020  1.00  0.00     0.198 A 
ATOM     64  C   UNL A   1      47.004  30.905  27.636  1.00  0.00     0.198 A 
ATOM     65  F   UNL A   1      47.582  29.411  29.359  1.00  0.00    -0.203 F 
ATOM     66  F   UNL A   1      43.776  31.816  26.274  1.00  0.00    -0.200 F 
ATOM     67  C   UNL A   1      46.046  31.518  26.844  1.00  0.00     0.200 A 
ATOM     68  F   UNL A   1      48.294  31.245  27.505  1.00  0.00    -0.200 F 
ATOM     69  F   UNL A   1      46.409  32.431  25.933  1.00  0.00    -0.200 F 
ENDBRANCH  36  59
ENDBRANCH  10  11
ENDBRANCH   3   5
ENDBRANCH   2   3
ENDBRANCH   1   2
BRANCH   1  70
ATOM     70  C   UNL A   1      32.607  28.137  25.935  1.00  0.00     0.275 C 
BRANCH  70  71
ATOM     71  O   UNL A   1      32.773  26.712  25.849  1.00  0.00    -0.457 OA
BRANCH  71  72
ATOM     72  C   UNL A   1      33.022  26.204  24.608  1.00  0.00     0.361 C 
ATOM     73  O   UNL A   1      33.543  26.816  23.682  1.00  0.00    -0.244 OA
BRANCH  72  74
ATOM     74  C   UNL A   1      32.420  24.906  24.439  1.00  0.00     0.198 A 
ATOM     75  N   UNL A   1      31.102  24.652  24.172  1.00  0.00    -0.122 NA
ATOM     76  C   UNL A   1      33.136  23.727  24.405  1.00  0.00     0.109 A 
ATOM     77  N   UNL A   1      30.965  23.341  23.988  1.00  0.00    -0.061 NA
ATOM     78  N   UNL A   1      32.158  22.760  24.262  1.00  0.00    -0.212 N 
BRANCH  76  79
ATOM     79  C   UNL A   1      34.578  23.526  24.340  1.00  0.00     0.004 A 
ATOM     80  C   UNL A   1      35.167  23.058  23.156  1.00  0.00     0.010 A 
ATOM     81  C   UNL A   1      35.391  23.864  25.426  1.00  0.00     0.031 A 
ATOM     82  C   UNL A   1      36.550  22.908  23.066  1.00  0.00     0.002 A 
ATOM     83  C   UNL A   1      36.772  23.711  25.330  1.00  0.00     0.041 A 
ATOM     84  C   UNL A   1      37.354  23.233  24.157  1.00  0.00     0.020 A 
ATOM     85  Cl  UNL A   1      37.767  24.125  26.670  1.00  0.00    -0.084 Cl
ENDBRANCH  76  79
BRANCH  78  86
ATOM     86  C   UNL A   1      32.328  21.364  24.348  1.00  0.00     0.067 A 
ATOM     87  C   UNL A   1      32.155  20.564  23.218  1.00  0.00     0.029 A 
ATOM     88  C   UNL A   1      32.753  20.807  25.562  1.00  0.00     0.029 A 
ATOM     89  C   UNL A   1      32.518  19.216  23.286  1.00  0.00     0.015 A 
ATOM     90  C   UNL A   1      33.079  19.457  25.631  1.00  0.00     0.015 A 
ATOM     91  C   UNL A   1      32.997  18.655  24.485  1.00  0.00     0.056 A 
BRANCH  91  92
ATOM     92  C   UNL A   1      33.454  17.217  24.531  1.00  0.00     0.416 C 
ATOM     93  F   UNL A   1      34.809  17.098  24.555  1.00  0.00    -0.166 F 
ATOM     94  F   UNL A   1      32.998  16.570  25.639  1.00  0.00    -0.166 F 
ATOM     95  F   UNL A   1      33.029  16.479  23.468  1.00  0.00    -0.166 F 
ENDBRANCH  91  92
ENDBRANCH  78  86
ENDBRANCH  72  74
ENDBRANCH  71  72
ENDBRANCH  70  71
ENDBRANCH   1  70
TORSDOF 14
ENDMDL
MODEL 3
REMARK VINA RESULT:     -13.1      5.752     11.291
REMARK SMILES O=C(OCCOC(=O)c1nnn(-c2ccc(C(F)(F)F)cc2)c1-c1cccc(Cl)c1)c1ccc(-c2c3nc(c(-c4c(F)c(F)c(F)c(F)c4F)c4ccc([nH]4)c(-c4c(F)c(F)c(F)c(F)c4F)c4nc(c(-c5c(F)c(F)c(F)c(F)c5F)c5ccc2[nH]5)C=C4)C=C3)cc1
REMARK SMILES IDX 4 1 3 2 2 3 1 4 31 5 32 6 93 7 33 8 92 9 34 10 35 11 36 12
REMARK SMILES IDX 86 13 37 14 91 15 85 16 87 17 38 18 90 19 84 20 83 21 39 23
REMARK SMILES IDX 71 24 51 25 70 26 52 27 55 28 69 29 88 30 53 31 54 32 68 34
REMARK SMILES IDX 89 35 56 36 40 37 41 38 49 39 42 40 43 41 47 42 50 43 44 44
REMARK SMILES IDX 45 45 48 46 46 47 72 48 73 49 81 50 74 51 75 52 79 53 82 54
REMARK SMILES IDX 76 55 77 56 80 57 78 58 57 59 58 60 66 61 59 62 60 63 64 64
REMARK SMILES IDX 67 65 61 66 62 67 65 68 63 69 5 70 6 71 7 72 8 73 9 74 10 75
REMARK SMILES IDX 23 76 11 77 12 78 24 79 25 80 30 81 26 82 28 83 27 84 29 85
REMARK SMILES IDX 13 86 14 87 22 88 15 89 21 90 16 91 17 92 18 93 19 94 20 95
REMARK H PARENT 87 22 55 33
REMARK Flexibility Score: inf
ROOT
ATOM      1  C   UNL A   1      34.672  33.749  28.630  1.00  0.00     0.275 C 
ENDROOT
BRANCH   1   2
ATOM      2  O   UNL A   1      35.312  32.921  27.635  1.00  0.00    -0.458 OA
BRANCH   2   3
ATOM      3  C   UNL A   1      35.161  31.580  27.692  1.00  0.00     0.338 C 
ATOM      4  O   UNL A   1      34.236  30.982  27.168  1.00  0.00    -0.246 OA
BRANCH   3   5
ATOM      5  C   UNL A   1      36.332  30.893  28.294  1.00  0.00     0.060 A 
ATOM      6  C   UNL A   1      37.510  31.575  28.619  1.00  0.00     0.016 A 
ATOM      7  C   UNL A   1      36.238  29.511  28.509  1.00  0.00     0.016 A 
ATOM      8  C   UNL A   1      38.621  30.870  29.051  1.00  0.00     0.010 A 
ATOM      9  C   UNL A   1      37.349  28.803  28.945  1.00  0.00     0.010 A 
ATOM     10  C   UNL A   1      38.552  29.480  29.147  1.00  0.00    -0.014 A 
BRANCH  10  11
ATOM     11  C   UNL A   1      39.795  28.764  29.402  1.00  0.00     0.031 A 
ATOM     12  C   UNL A   1      40.223  28.654  30.823  1.00  0.00     0.074 A 
ATOM     13  C   UNL A   1      40.478  28.186  28.394  1.00  0.00     0.049 A 
ATOM     14  N   UNL A   1      41.333  29.050  31.363  1.00  0.00    -0.248 NA
ATOM     15  C   UNL A   1      39.267  28.081  31.781  1.00  0.00     0.031 C 
ATOM     16  C   UNL A   1      40.050  28.001  27.003  1.00  0.00     0.029 A 
ATOM     17  N   UNL A   1      41.680  27.548  28.429  1.00  0.00    -0.354 N 
ATOM     18  C   UNL A   1      41.290  28.635  32.694  1.00  0.00     0.074 A 
ATOM     19  C   UNL A   1      39.956  28.143  32.921  1.00  0.00     0.031 C 
ATOM     20  C   UNL A   1      40.863  27.106  26.401  1.00  0.00     0.029 A 
ATOM     21  C   UNL A   1      41.941  26.769  27.314  1.00  0.00     0.049 A 
ATOM     22  H   UNL A   1      42.308  27.634  29.182  1.00  0.00     0.167 HD
ATOM     23  C   UNL A   1      42.420  28.547  33.452  1.00  0.00     0.037 A 
ATOM     24  C   UNL A   1      42.932  25.854  27.182  1.00  0.00     0.037 A 
ATOM     25  C   UNL A   1      43.475  29.371  32.924  1.00  0.00     0.049 A 
ATOM     26  C   UNL A   1      43.968  26.165  28.198  1.00  0.00     0.074 A 
ATOM     27  C   UNL A   1      43.635  30.725  32.702  1.00  0.00     0.029 A 
ATOM     28  N   UNL A   1      44.495  28.770  32.229  1.00  0.00    -0.354 N 
ATOM     29  N   UNL A   1      44.721  27.229  28.164  1.00  0.00    -0.248 NA
ATOM     30  C   UNL A   1      43.856  25.519  29.497  1.00  0.00     0.031 C 
ATOM     31  C   UNL A   1      44.398  30.815  31.500  1.00  0.00     0.029 A 
ATOM     32  C   UNL A   1      44.693  29.513  31.095  1.00  0.00     0.049 A 
ATOM     33  H   UNL A   1      44.988  27.961  32.493  1.00  0.00     0.167 HD
ATOM     34  C   UNL A   1      44.827  27.627  29.487  1.00  0.00     0.074 A 
ATOM     35  C   UNL A   1      44.350  26.490  30.268  1.00  0.00     0.031 C 
ATOM     36  C   UNL A   1      45.023  28.938  29.816  1.00  0.00     0.037 A 
BRANCH  23  37
ATOM     37  C   UNL A   1      42.691  27.446  34.455  1.00  0.00     0.064 A 
ATOM     38  C   UNL A   1      43.190  26.208  33.997  1.00  0.00     0.173 A 
ATOM     39  C   UNL A   1      42.177  27.441  35.769  1.00  0.00     0.173 A 
ATOM     40  F   UNL A   1      43.713  26.093  32.766  1.00  0.00    -0.203 F 
ATOM     41  C   UNL A   1      43.072  25.037  34.751  1.00  0.00     0.198 A 
ATOM     42  C   UNL A   1      42.105  26.279  36.538  1.00  0.00     0.198 A 
ATOM     43  F   UNL A   1      41.626  28.525  36.326  1.00  0.00    -0.203 F 
ATOM     44  F   UNL A   1      43.431  23.863  34.216  1.00  0.00    -0.200 F 
ATOM     45  C   UNL A   1      42.514  25.071  36.014  1.00  0.00     0.200 A 
ATOM     46  F   UNL A   1      41.555  26.331  37.758  1.00  0.00    -0.200 F 
ATOM     47  F   UNL A   1      42.328  23.941  36.708  1.00  0.00    -0.200 F 
ENDBRANCH  23  37
BRANCH  24  48
ATOM     48  C   UNL A   1      42.856  24.551  26.481  1.00  0.00     0.064 A 
ATOM     49  C   UNL A   1      43.644  24.281  25.352  1.00  0.00     0.173 A 
ATOM     50  C   UNL A   1      42.197  23.449  27.064  1.00  0.00     0.173 A 
ATOM     51  F   UNL A   1      44.345  25.264  24.770  1.00  0.00    -0.203 F 
ATOM     52  C   UNL A   1      43.776  22.983  24.845  1.00  0.00     0.198 A 
ATOM     53  C   UNL A   1      42.321  22.158  26.553  1.00  0.00     0.198 A 
ATOM     54  F   UNL A   1      41.495  23.586  28.197  1.00  0.00    -0.203 F 
ATOM     55  F   UNL A   1      44.582  22.753  23.800  1.00  0.00    -0.200 F 
ATOM     56  C   UNL A   1      43.120  21.923  25.449  1.00  0.00     0.200 A 
ATOM     57  F   UNL A   1      41.713  21.136  27.172  1.00  0.00    -0.200 F 
ATOM     58  F   UNL A   1      43.291  20.672  24.999  1.00  0.00    -0.200 F 
ENDBRANCH  24  48
BRANCH  36  59
ATOM     59  C   UNL A   1      45.350  29.894  28.705  1.00  0.00     0.064 A 
ATOM     60  C   UNL A   1      44.375  30.551  27.933  1.00  0.00     0.173 A 
ATOM     61  C   UNL A   1      46.684  30.274  28.514  1.00  0.00     0.173 A 
ATOM     62  F   UNL A   1      43.072  30.326  28.133  1.00  0.00    -0.203 F 
ATOM     63  C   UNL A   1      44.726  31.503  26.979  1.00  0.00     0.198 A 
ATOM     64  C   UNL A   1      47.030  31.252  27.587  1.00  0.00     0.198 A 
ATOM     65  F   UNL A   1      47.651  29.730  29.269  1.00  0.00    -0.203 F 
ATOM     66  F   UNL A   1      43.777  32.106  26.249  1.00  0.00    -0.200 F 
ATOM     67  C   UNL A   1      46.054  31.858  26.811  1.00  0.00     0.200 A 
ATOM     68  F   UNL A   1      48.310  31.632  27.464  1.00  0.00    -0.200 F 
ATOM     69  F   UNL A   1      46.390  32.805  25.924  1.00  0.00    -0.200 F 
ENDBRANCH  36  59
ENDBRANCH  10  11
ENDBRANCH   3   5
ENDBRANCH   2   3
ENDBRANCH   1   2
BRANCH   1  70
ATOM     70  C   UNL A   1      35.533  34.226  29.797  1.00  0.00     0.275 C 
BRANCH  70  71
ATOM     71  O   UNL A   1      34.906  33.870  31.040  1.00  0.00    -0.457 OA
BRANCH  71  72
ATOM     72  C   UNL A   1      35.432  32.800  31.702  1.00  0.00     0.361 C 
ATOM     73  O   UNL A   1      35.396  31.638  31.313  1.00  0.00    -0.244 OA
BRANCH  72  74
ATOM     74  C   UNL A   1      35.872  33.162  33.025  1.00  0.00     0.198 A 
ATOM     75  N   UNL A   1      35.112  33.152  34.163  1.00  0.00    -0.122 NA
ATOM     76  C   UNL A   1      37.181  33.458  33.344  1.00  0.00     0.109 A 
ATOM     77  N   UNL A   1      35.905  33.451  35.189  1.00  0.00    -0.061 NA
ATOM     78  N   UNL A   1      37.122  33.772  34.689  1.00  0.00    -0.212 N 
BRANCH  76  79
ATOM     79  C   UNL A   1      38.384  33.301  32.535  1.00  0.00     0.004 A 
ATOM     80  C   UNL A   1      39.292  32.271  32.823  1.00  0.00     0.010 A 
ATOM     81  C   UNL A   1      38.607  34.127  31.430  1.00  0.00     0.031 A 
ATOM     82  C   UNL A   1      40.421  32.082  32.027  1.00  0.00     0.002 A 
ATOM     83  C   UNL A   1      39.737  33.933  30.639  1.00  0.00     0.041 A 
ATOM     84  C   UNL A   1      40.645  32.917  30.934  1.00  0.00     0.020 A 
ATOM     85  Cl  UNL A   1      40.009  34.953  29.281  1.00  0.00    -0.084 Cl
ENDBRANCH  76  79
BRANCH  78  86
ATOM     86  C   UNL A   1      38.155  34.317  35.478  1.00  0.00     0.067 A 
ATOM     87  C   UNL A   1      39.026  35.265  34.938  1.00  0.00     0.029 A 
ATOM     88  C   UNL A   1      38.239  33.955  36.829  1.00  0.00     0.029 A 
ATOM     89  C   UNL A   1      39.912  35.928  35.792  1.00  0.00     0.015 A 
ATOM     90  C   UNL A   1      39.147  34.595  37.665  1.00  0.00     0.015 A 
ATOM     91  C   UNL A   1      39.969  35.611  37.164  1.00  0.00     0.056 A 
BRANCH  91  92
ATOM     92  C   UNL A   1      40.877  36.381  38.091  1.00  0.00     0.416 C 
ATOM     93  F   UNL A   1      41.543  35.574  38.960  1.00  0.00    -0.166 F 
ATOM     94  F   UNL A   1      41.831  37.077  37.414  1.00  0.00    -0.166 F 
ATOM     95  F   UNL A   1      40.221  37.298  38.856  1.00  0.00    -0.166 F 
ENDBRANCH  91  92
ENDBRANCH  78  86
ENDBRANCH  72  74
ENDBRANCH  71  72
ENDBRANCH  70  71
ENDBRANCH   1  70
TORSDOF 14
ENDMDL
