MODEL 1
REMARK VINA RESULT:     -12.7      0.000      0.000
REMARK SMILES Cc1[nH]c2c(C(=O)N3CC[C@H](O)C[C@@H]3C(=O)OCCOC(=O)c3ccc(-c4c5nc(c(-c6c(F)c(F)c(F)c(F)c6F)c6ccc([nH]6)c(-c6c(F)c(F)c(F)c(F)c6F)c6nc(c(-c7c(F)c(F)c(F)c(F)c7F)c7ccc4[nH]7)C=C6)C=C5)cc3)cccc2c1C
REMARK SMILES IDX 18 1 17 2 15 3 16 4 14 5 8 6 9 7 10 8 13 9 11 10 6 11 7 12
REMARK SMILES IDX 5 13 1 14 2 15 3 16 90 17 4 18 89 20 91 21 88 22 86 23 87 24
REMARK SMILES IDX 12 25 19 27 20 28 21 29 22 30 23 31 24 32 85 33 25 34 84 35
REMARK SMILES IDX 26 36 27 37 28 38 78 39 29 40 83 41 77 42 79 43 30 44 82 45
REMARK SMILES IDX 76 46 75 47 31 49 63 50 43 51 62 52 44 53 47 54 61 55 80 56
REMARK SMILES IDX 45 57 46 58 60 60 81 61 48 62 32 63 33 64 41 65 34 66 35 67
REMARK SMILES IDX 39 68 42 69 36 70 37 71 40 72 38 73 64 74 65 75 73 76 66 77
REMARK SMILES IDX 67 78 71 79 74 80 68 81 69 82 72 83 70 84 49 85 50 86 58 87
REMARK SMILES IDX 51 88 52 89 56 90 59 91 53 92 54 93 57 94 55 95
REMARK H PARENT 3 19 12 26 79 48 47 59
REMARK Flexibility Score: inf
ROOT
ATOM      1  C   UNL A   1      31.768  28.971  27.117  1.00  0.00     0.274 C 
ENDROOT
BRANCH   1   2
ATOM      2  O   UNL A   1      31.480  27.996  26.093  1.00  0.00    -0.461 OA
BRANCH   2   3
ATOM      3  C   UNL A   1      32.025  26.763  26.253  1.00  0.00     0.329 C 
ATOM      4  O   UNL A   1      33.213  26.573  26.497  1.00  0.00    -0.250 OA
BRANCH   3   5
ATOM      5  C   UNL A   1      31.026  25.614  26.023  1.00  0.00     0.198 C 
ATOM      6  N   UNL A   1      31.690  24.483  25.376  1.00  0.00    -0.325 N 
ATOM      7  C   UNL A   1      31.705  24.437  23.912  1.00  0.00     0.123 C 
ATOM      8  C   UNL A   1      30.310  24.678  23.331  1.00  0.00     0.053 C 
ATOM      9  C   UNL A   1      29.676  25.953  25.397  1.00  0.00     0.069 C 
ATOM     10  C   UNL A   1      29.683  25.962  23.875  1.00  0.00     0.118 C 
BRANCH   6  11
ATOM     11  C   UNL A   1      32.004  23.398  26.182  1.00  0.00     0.256 C 
ATOM     12  O   UNL A   1      31.745  23.401  27.384  1.00  0.00    -0.269 OA
BRANCH  11  13
ATOM     13  C   UNL A   1      32.814  22.284  25.626  1.00  0.00     0.064 A 
ATOM     14  C   UNL A   1      37.586  23.691  25.947  1.00  0.00     0.064 C 
ATOM     15  C   UNL A   1      36.425  22.792  25.731  1.00  0.00     0.016 A 
ATOM     16  N   UNL A   1      35.148  23.212  25.986  1.00  0.00    -0.358 N 
ATOM     17  C   UNL A   1      36.348  21.477  25.310  1.00  0.00    -0.023 A 
ATOM     18  C   UNL A   1      34.223  22.271  25.607  1.00  0.00     0.059 A 
ATOM     19  H   UNL A   1      34.921  24.081  26.390  1.00  0.00     0.166 HD
ATOM     20  C   UNL A   1      34.956  21.146  25.220  1.00  0.00     0.003 A 
ATOM     21  C   UNL A   1      37.482  20.567  25.000  1.00  0.00     0.047 C 
ATOM     22  C   UNL A   1      34.259  19.974  24.855  1.00  0.00     0.010 A 
ATOM     23  C   UNL A   1      32.154  21.097  25.260  1.00  0.00     0.016 A 
ATOM     24  C   UNL A   1      32.861  19.960  24.881  1.00  0.00     0.002 A 
ENDBRANCH  11  13
ENDBRANCH   6  11
BRANCH  10  25
ATOM     25  O   UNL A   1      30.377  27.096  23.372  1.00  0.00    -0.393 OA
ATOM     26  H   UNL A   1      29.888  27.902  23.601  1.00  0.00     0.210 HD
ENDBRANCH  10  25
ENDBRANCH   3   5
ENDBRANCH   2   3
ENDBRANCH   1   2
BRANCH   1  27
ATOM     27  C   UNL A   1      31.809  30.400  26.565  1.00  0.00     0.275 C 
BRANCH  27  28
ATOM     28  O   UNL A   1      33.159  30.869  26.397  1.00  0.00    -0.458 OA
BRANCH  28  29
ATOM     29  C   UNL A   1      33.538  31.847  27.251  1.00  0.00     0.338 C 
ATOM     30  O   UNL A   1      32.898  32.838  27.565  1.00  0.00    -0.246 OA
BRANCH  29  31
ATOM     31  C   UNL A   1      34.804  31.460  27.897  1.00  0.00     0.060 A 
ATOM     32  C   UNL A   1      34.931  30.157  28.388  1.00  0.00     0.016 A 
ATOM     33  C   UNL A   1      35.836  32.381  28.071  1.00  0.00     0.016 A 
ATOM     34  C   UNL A   1      36.077  29.764  29.064  1.00  0.00     0.010 A 
ATOM     35  C   UNL A   1      36.993  31.987  28.750  1.00  0.00     0.010 A 
ATOM     36  C   UNL A   1      37.113  30.681  29.258  1.00  0.00    -0.014 A 
BRANCH  36  37
ATOM     37  C   UNL A   1      38.294  30.280  30.050  1.00  0.00     0.031 A 
ATOM     38  C   UNL A   1      39.288  29.329  29.456  1.00  0.00     0.074 A 
ATOM     39  C   UNL A   1      38.481  30.793  31.279  1.00  0.00     0.049 A 
ATOM     40  N   UNL A   1      40.335  28.773  30.009  1.00  0.00    -0.248 NA
ATOM     41  C   UNL A   1      39.076  28.954  28.050  1.00  0.00     0.031 C 
ATOM     42  C   UNL A   1      37.613  31.779  31.922  1.00  0.00     0.029 A 
ATOM     43  N   UNL A   1      39.463  30.552  32.205  1.00  0.00    -0.354 N 
ATOM     44  C   UNL A   1      40.890  27.962  29.029  1.00  0.00     0.074 A 
ATOM     45  C   UNL A   1      40.063  28.092  27.849  1.00  0.00     0.031 C 
ATOM     46  C   UNL A   1      38.096  32.054  33.144  1.00  0.00     0.029 A 
ATOM     47  C   UNL A   1      39.278  31.229  33.384  1.00  0.00     0.049 A 
ATOM     48  H   UNL A   1      40.226  29.952  32.040  1.00  0.00     0.167 HD
ATOM     49  C   UNL A   1      41.993  27.182  29.114  1.00  0.00     0.037 A 
ATOM     50  C   UNL A   1      39.969  31.162  34.538  1.00  0.00     0.037 A 
ATOM     51  C   UNL A   1      42.818  27.077  30.289  1.00  0.00     0.049 A 
ATOM     52  C   UNL A   1      41.150  30.236  34.625  1.00  0.00     0.074 A 
ATOM     53  C   UNL A   1      43.963  26.325  30.477  1.00  0.00     0.029 A 
ATOM     54  N   UNL A   1      42.581  27.751  31.479  1.00  0.00    -0.354 N 
ATOM     55  N   UNL A   1      41.664  29.460  33.702  1.00  0.00    -0.248 NA
ATOM     56  C   UNL A   1      41.846  30.172  35.918  1.00  0.00     0.031 C 
ATOM     57  C   UNL A   1      44.397  26.510  31.794  1.00  0.00     0.029 A 
ATOM     58  C   UNL A   1      43.547  27.414  32.413  1.00  0.00     0.049 A 
ATOM     59  H   UNL A   1      41.837  28.376  31.636  1.00  0.00     0.167 HD
ATOM     60  C   UNL A   1      42.752  28.832  34.291  1.00  0.00     0.074 A 
ATOM     61  C   UNL A   1      42.833  29.329  35.651  1.00  0.00     0.031 C 
ATOM     62  C   UNL A   1      43.609  27.927  33.757  1.00  0.00     0.037 A 
BRANCH  49  63
ATOM     63  C   UNL A   1      42.346  26.351  27.918  1.00  0.00     0.064 A 
ATOM     64  C   UNL A   1      43.318  26.760  26.993  1.00  0.00     0.173 A 
ATOM     65  C   UNL A   1      41.720  25.113  27.709  1.00  0.00     0.173 A 
ATOM     66  F   UNL A   1      43.932  27.943  27.137  1.00  0.00    -0.203 F 
ATOM     67  C   UNL A   1      43.635  25.968  25.891  1.00  0.00     0.198 A 
ATOM     68  C   UNL A   1      42.056  24.313  26.621  1.00  0.00     0.198 A 
ATOM     69  F   UNL A   1      40.783  24.677  28.564  1.00  0.00    -0.203 F 
ATOM     70  F   UNL A   1      44.535  26.397  24.997  1.00  0.00    -0.200 F 
ATOM     71  C   UNL A   1      43.008  24.744  25.710  1.00  0.00     0.200 A 
ATOM     72  F   UNL A   1      41.455  23.128  26.451  1.00  0.00    -0.200 F 
ATOM     73  F   UNL A   1      43.317  23.982  24.651  1.00  0.00    -0.200 F 
ENDBRANCH  49  63
BRANCH  50  74
ATOM     74  C   UNL A   1      39.543  31.975  35.706  1.00  0.00     0.064 A 
ATOM     75  C   UNL A   1      40.134  33.216  35.975  1.00  0.00     0.173 A 
ATOM     76  C   UNL A   1      38.543  31.523  36.580  1.00  0.00     0.173 A 
ATOM     77  F   UNL A   1      41.113  33.677  35.182  1.00  0.00    -0.203 F 
ATOM     78  C   UNL A   1      39.749  33.970  37.081  1.00  0.00     0.198 A 
ATOM     79  C   UNL A   1      38.140  32.291  37.671  1.00  0.00     0.198 A 
ATOM     80  F   UNL A   1      37.950  30.338  36.370  1.00  0.00    -0.203 F 
ATOM     81  F   UNL A   1      40.360  35.135  37.340  1.00  0.00    -0.200 F 
ATOM     82  C   UNL A   1      38.749  33.511  37.924  1.00  0.00     0.200 A 
ATOM     83  F   UNL A   1      37.167  31.846  38.478  1.00  0.00    -0.200 F 
ATOM     84  F   UNL A   1      38.378  34.238  38.987  1.00  0.00    -0.200 F 
ENDBRANCH  50  74
BRANCH  62  85
ATOM     85  C   UNL A   1      44.723  27.443  34.636  1.00  0.00     0.064 A 
ATOM     86  C   UNL A   1      45.943  28.129  34.720  1.00  0.00     0.173 A 
ATOM     87  C   UNL A   1      44.553  26.299  35.431  1.00  0.00     0.173 A 
ATOM     88  F   UNL A   1      46.157  29.218  33.967  1.00  0.00    -0.203 F 
ATOM     89  C   UNL A   1      46.962  27.674  35.552  1.00  0.00     0.198 A 
ATOM     90  C   UNL A   1      45.564  25.863  36.282  1.00  0.00     0.198 A 
ATOM     91  F   UNL A   1      43.402  25.612  35.390  1.00  0.00    -0.203 F 
ATOM     92  F   UNL A   1      48.135  28.320  35.586  1.00  0.00    -0.200 F 
ATOM     93  C   UNL A   1      46.769  26.547  36.337  1.00  0.00     0.200 A 
ATOM     94  F   UNL A   1      45.372  24.780  37.047  1.00  0.00    -0.200 F 
ATOM     95  F   UNL A   1      47.750  26.114  37.142  1.00  0.00    -0.200 F 
ENDBRANCH  62  85
ENDBRANCH  36  37
ENDBRANCH  29  31
ENDBRANCH  28  29
ENDBRANCH  27  28
ENDBRANCH   1  27
TORSDOF 14
ENDMDL
MODEL 2
REMARK VINA RESULT:     -12.7      1.406      3.875
REMARK SMILES Cc1[nH]c2c(C(=O)N3CC[C@H](O)C[C@@H]3C(=O)OCCOC(=O)c3ccc(-c4c5nc(c(-c6c(F)c(F)c(F)c(F)c6F)c6ccc([nH]6)c(-c6c(F)c(F)c(F)c(F)c6F)c6nc(c(-c7c(F)c(F)c(F)c(F)c7F)c7ccc4[nH]7)C=C6)C=C5)cc3)cccc2c1C
REMARK SMILES IDX 18 1 17 2 15 3 16 4 14 5 8 6 9 7 10 8 13 9 11 10 6 11 7 12
REMARK SMILES IDX 5 13 1 14 2 15 3 16 90 17 4 18 89 20 91 21 88 22 86 23 87 24
REMARK SMILES IDX 12 25 19 27 20 28 21 29 22 30 23 31 24 32 85 33 25 34 84 35
REMARK SMILES IDX 26 36 27 37 28 38 78 39 29 40 83 41 77 42 79 43 30 44 82 45
REMARK SMILES IDX 76 46 75 47 31 49 63 50 43 51 62 52 44 53 47 54 61 55 80 56
REMARK SMILES IDX 45 57 46 58 60 60 81 61 48 62 32 63 33 64 41 65 34 66 35 67
REMARK SMILES IDX 39 68 42 69 36 70 37 71 40 72 38 73 64 74 65 75 73 76 66 77
REMARK SMILES IDX 67 78 71 79 74 80 68 81 69 82 72 83 70 84 49 85 50 86 58 87
REMARK SMILES IDX 51 88 52 89 56 90 59 91 53 92 54 93 57 94 55 95
REMARK H PARENT 3 19 12 26 79 48 47 59
REMARK Flexibility Score: inf
ROOT
ATOM      1  C   UNL A   1      31.723  28.337  27.081  1.00  0.00     0.274 C 
ENDROOT
BRANCH   1   2
ATOM      2  O   UNL A   1      32.470  27.221  26.553  1.00  0.00    -0.461 OA
BRANCH   2   3
ATOM      3  C   UNL A   1      31.765  26.097  26.263  1.00  0.00     0.329 C 
ATOM      4  O   UNL A   1      30.580  25.948  26.546  1.00  0.00    -0.250 OA
BRANCH   3   5
ATOM      5  C   UNL A   1      32.613  24.990  25.611  1.00  0.00     0.198 C 
ATOM      6  N   UNL A   1      31.934  24.455  24.432  1.00  0.00    -0.325 N 
ATOM      7  C   UNL A   1      31.030  23.317  24.613  1.00  0.00     0.123 C 
ATOM      8  C   UNL A   1      31.687  22.207  25.436  1.00  0.00     0.053 C 
ATOM      9  C   UNL A   1      33.189  23.903  26.514  1.00  0.00     0.069 C 
ATOM     10  C   UNL A   1      32.244  22.735  26.758  1.00  0.00     0.118 C 
BRANCH   6  11
ATOM     11  C   UNL A   1      32.408  24.871  23.195  1.00  0.00     0.256 C 
ATOM     12  O   UNL A   1      32.983  24.091  22.437  1.00  0.00    -0.269 OA
BRANCH  11  13
ATOM     13  C   UNL A   1      32.372  26.315  22.846  1.00  0.00     0.064 A 
ATOM     14  C   UNL A   1      27.664  27.823  23.496  1.00  0.00     0.064 C 
ATOM     15  C   UNL A   1      29.126  27.928  23.261  1.00  0.00     0.016 A 
ATOM     16  N   UNL A   1      29.936  26.828  23.339  1.00  0.00    -0.358 N 
ATOM     17  C   UNL A   1      29.935  29.014  22.978  1.00  0.00    -0.023 A 
ATOM     18  C   UNL A   1      31.226  27.125  22.972  1.00  0.00     0.059 A 
ATOM     19  H   UNL A   1      29.632  25.936  23.623  1.00  0.00     0.166 HD
ATOM     20  C   UNL A   1      31.263  28.509  22.784  1.00  0.00     0.003 A 
ATOM     21  C   UNL A   1      29.522  30.439  22.884  1.00  0.00     0.047 C 
ATOM     22  C   UNL A   1      32.498  29.119  22.478  1.00  0.00     0.010 A 
ATOM     23  C   UNL A   1      33.586  26.959  22.545  1.00  0.00     0.016 A 
ATOM     24  C   UNL A   1      33.650  28.337  22.364  1.00  0.00     0.002 A 
ENDBRANCH  11  13
ENDBRANCH   6  11
BRANCH  10  25
ATOM     25  O   UNL A   1      31.179  23.108  27.623  1.00  0.00    -0.393 OA
ATOM     26  H   UNL A   1      31.470  23.029  28.544  1.00  0.00     0.210 HD
ENDBRANCH  10  25
ENDBRANCH   3   5
ENDBRANCH   2   3
ENDBRANCH   1   2
BRANCH   1  27
ATOM     27  C   UNL A   1      31.783  29.564  26.164  1.00  0.00     0.275 C 
BRANCH  27  28
ATOM     28  O   UNL A   1      33.112  30.112  26.091  1.00  0.00    -0.458 OA
BRANCH  28  29
ATOM     29  C   UNL A   1      33.363  31.124  26.954  1.00  0.00     0.338 C 
ATOM     30  O   UNL A   1      32.617  32.045  27.245  1.00  0.00    -0.246 OA
BRANCH  29  31
ATOM     31  C   UNL A   1      34.641  30.867  27.639  1.00  0.00     0.060 A 
ATOM     32  C   UNL A   1      34.965  29.548  27.974  1.00  0.00     0.016 A 
ATOM     33  C   UNL A   1      35.489  31.913  28.001  1.00  0.00     0.016 A 
ATOM     34  C   UNL A   1      36.125  29.262  28.680  1.00  0.00     0.010 A 
ATOM     35  C   UNL A   1      36.660  31.627  28.709  1.00  0.00     0.010 A 
ATOM     36  C   UNL A   1      36.976  30.302  29.061  1.00  0.00    -0.014 A 
BRANCH  36  37
ATOM     37  C   UNL A   1      38.166  29.998  29.883  1.00  0.00     0.031 A 
ATOM     38  C   UNL A   1      39.229  29.098  29.331  1.00  0.00     0.074 A 
ATOM     39  C   UNL A   1      38.298  30.555  31.100  1.00  0.00     0.049 A 
ATOM     40  N   UNL A   1      40.299  28.625  29.916  1.00  0.00    -0.248 NA
ATOM     41  C   UNL A   1      39.067  28.674  27.932  1.00  0.00     0.031 C 
ATOM     42  C   UNL A   1      37.357  31.499  31.702  1.00  0.00     0.029 A 
ATOM     43  N   UNL A   1      39.276  30.401  32.048  1.00  0.00    -0.354 N 
ATOM     44  C   UNL A   1      40.922  27.826  28.968  1.00  0.00     0.074 A 
ATOM     45  C   UNL A   1      40.110  27.871  27.771  1.00  0.00     0.031 C 
ATOM     46  C   UNL A   1      37.800  31.836  32.924  1.00  0.00     0.029 A 
ATOM     47  C   UNL A   1      39.027  31.095  33.206  1.00  0.00     0.049 A 
ATOM     48  H   UNL A   1      40.078  29.847  31.912  1.00  0.00     0.167 HD
ATOM     49  C   UNL A   1      42.070  27.120  29.091  1.00  0.00     0.037 A 
ATOM     50  C   UNL A   1      39.700  31.102  34.372  1.00  0.00     0.037 A 
ATOM     51  C   UNL A   1      42.879  27.099  30.282  1.00  0.00     0.049 A 
ATOM     52  C   UNL A   1      40.936  30.257  34.503  1.00  0.00     0.074 A 
ATOM     53  C   UNL A   1      44.066  26.426  30.509  1.00  0.00     0.029 A 
ATOM     54  N   UNL A   1      42.579  27.787  31.450  1.00  0.00    -0.354 N 
ATOM     55  N   UNL A   1      41.515  29.491  33.610  1.00  0.00    -0.248 NA
ATOM     56  C   UNL A   1      41.611  30.271  35.809  1.00  0.00     0.031 C 
ATOM     57  C   UNL A   1      44.464  26.674  31.828  1.00  0.00     0.029 A 
ATOM     58  C   UNL A   1      43.547  27.537  32.408  1.00  0.00     0.049 A 
ATOM     59  H   UNL A   1      41.794  28.367  31.578  1.00  0.00     0.167 HD
ATOM     60  C   UNL A   1      42.630  28.950  34.234  1.00  0.00     0.074 A 
ATOM     61  C   UNL A   1      42.655  29.486  35.580  1.00  0.00     0.031 C 
ATOM     62  C   UNL A   1      43.552  28.087  33.739  1.00  0.00     0.037 A 
BRANCH  49  63
ATOM     63  C   UNL A   1      42.497  26.283  27.925  1.00  0.00     0.064 A 
ATOM     64  C   UNL A   1      41.992  24.991  27.716  1.00  0.00     0.173 A 
ATOM     65  C   UNL A   1      43.407  26.792  26.986  1.00  0.00     0.173 A 
ATOM     66  F   UNL A   1      41.134  24.451  28.595  1.00  0.00    -0.203 F 
ATOM     67  C   UNL A   1      42.399  24.232  26.621  1.00  0.00     0.198 A 
ATOM     68  C   UNL A   1      43.792  26.041  25.880  1.00  0.00     0.198 A 
ATOM     69  F   UNL A   1      43.919  28.021  27.139  1.00  0.00    -0.203 F 
ATOM     70  F   UNL A   1      41.937  22.984  26.464  1.00  0.00    -0.200 F 
ATOM     71  C   UNL A   1      43.293  24.759  25.701  1.00  0.00     0.200 A 
ATOM     72  F   UNL A   1      44.650  26.554  24.988  1.00  0.00    -0.200 F 
ATOM     73  F   UNL A   1      43.680  24.028  24.646  1.00  0.00    -0.200 F 
ENDBRANCH  49  63
BRANCH  50  74
ATOM     74  C   UNL A   1      39.203  31.917  35.510  1.00  0.00     0.064 A 
ATOM     75  C   UNL A   1      38.363  31.361  36.483  1.00  0.00     0.173 A 
ATOM     76  C   UNL A   1      39.551  33.270  35.642  1.00  0.00     0.173 A 
ATOM     77  F   UNL A   1      37.981  30.079  36.383  1.00  0.00    -0.203 F 
ATOM     78  C   UNL A   1      37.880  32.129  37.539  1.00  0.00     0.198 A 
ATOM     79  C   UNL A   1      39.089  34.030  36.714  1.00  0.00     0.198 A 
ATOM     80  F   UNL A   1      40.349  33.851  34.734  1.00  0.00    -0.203 F 
ATOM     81  F   UNL A   1      37.043  31.584  38.433  1.00  0.00    -0.200 F 
ATOM     82  C   UNL A   1      38.248  33.460  37.658  1.00  0.00     0.200 A 
ATOM     83  F   UNL A   1      39.455  35.314  36.830  1.00  0.00    -0.200 F 
ATOM     84  F   UNL A   1      37.785  34.198  38.677  1.00  0.00    -0.200 F 
ENDBRANCH  50  74
BRANCH  62  85
ATOM     85  C   UNL A   1      44.678  27.699  34.649  1.00  0.00     0.064 A 
ATOM     86  C   UNL A   1      44.604  26.561  35.464  1.00  0.00     0.173 A 
ATOM     87  C   UNL A   1      45.860  28.454  34.675  1.00  0.00     0.173 A 
ATOM     88  F   UNL A   1      43.488  25.817  35.484  1.00  0.00    -0.203 F 
ATOM     89  C   UNL A   1      45.665  26.206  36.292  1.00  0.00     0.198 A 
ATOM     90  C   UNL A   1      46.929  28.081  35.484  1.00  0.00     0.198 A 
ATOM     91  F   UNL A   1      45.982  29.548  33.908  1.00  0.00    -0.203 F 
ATOM     92  F   UNL A   1      45.558  25.139  37.096  1.00  0.00    -0.200 F 
ATOM     93  C   UNL A   1      46.828  26.961  36.297  1.00  0.00     0.200 A 
ATOM     94  F   UNL A   1      48.056  28.806  35.479  1.00  0.00    -0.200 F 
ATOM     95  F   UNL A   1      47.851  26.615  37.091  1.00  0.00    -0.200 F 
ENDBRANCH  62  85
ENDBRANCH  36  37
ENDBRANCH  29  31
ENDBRANCH  28  29
ENDBRANCH  27  28
ENDBRANCH   1  27
TORSDOF 14
ENDMDL
MODEL 3
REMARK VINA RESULT:     -12.7      0.123      1.579
REMARK SMILES Cc1[nH]c2c(C(=O)N3CC[C@H](O)C[C@@H]3C(=O)OCCOC(=O)c3ccc(-c4c5nc(c(-c6c(F)c(F)c(F)c(F)c6F)c6ccc([nH]6)c(-c6c(F)c(F)c(F)c(F)c6F)c6nc(c(-c7c(F)c(F)c(F)c(F)c7F)c7ccc4[nH]7)C=C6)C=C5)cc3)cccc2c1C
REMARK SMILES IDX 18 1 17 2 15 3 16 4 14 5 8 6 9 7 10 8 13 9 11 10 6 11 7 12
REMARK SMILES IDX 5 13 1 14 2 15 3 16 90 17 4 18 89 20 91 21 88 22 86 23 87 24
REMARK SMILES IDX 12 25 19 27 20 28 21 29 22 30 23 31 24 32 85 33 25 34 84 35
REMARK SMILES IDX 26 36 27 37 28 38 78 39 29 40 83 41 77 42 79 43 30 44 82 45
REMARK SMILES IDX 76 46 75 47 31 49 63 50 43 51 62 52 44 53 47 54 61 55 80 56
REMARK SMILES IDX 45 57 46 58 60 60 81 61 48 62 32 63 33 64 41 65 34 66 35 67
REMARK SMILES IDX 39 68 42 69 36 70 37 71 40 72 38 73 64 74 65 75 73 76 66 77
REMARK SMILES IDX 67 78 71 79 74 80 68 81 69 82 72 83 70 84 49 85 50 86 58 87
REMARK SMILES IDX 51 88 52 89 56 90 59 91 53 92 54 93 57 94 55 95
REMARK H PARENT 3 19 12 26 79 48 47 59
REMARK Flexibility Score: inf
ROOT
ATOM      1  C   UNL A   1      31.688  28.903  27.209  1.00  0.00     0.274 C 
ENDROOT
BRANCH   1   2
ATOM      2  O   UNL A   1      31.558  27.994  26.096  1.00  0.00    -0.461 OA
BRANCH   2   3
ATOM      3  C   UNL A   1      32.105  26.760  26.248  1.00  0.00     0.329 C 
ATOM      4  O   UNL A   1      33.295  26.570  26.482  1.00  0.00    -0.250 OA
BRANCH   3   5
ATOM      5  C   UNL A   1      31.106  25.612  26.022  1.00  0.00     0.198 C 
ATOM      6  N   UNL A   1      31.767  24.479  25.376  1.00  0.00    -0.325 N 
ATOM      7  C   UNL A   1      31.779  24.430  23.912  1.00  0.00     0.123 C 
ATOM      8  C   UNL A   1      30.384  24.671  23.333  1.00  0.00     0.053 C 
ATOM      9  C   UNL A   1      29.754  25.950  25.398  1.00  0.00     0.069 C 
ATOM     10  C   UNL A   1      29.758  25.956  23.876  1.00  0.00     0.118 C 
BRANCH   6  11
ATOM     11  C   UNL A   1      32.082  23.395  26.184  1.00  0.00     0.256 C 
ATOM     12  O   UNL A   1      31.841  23.408  27.390  1.00  0.00    -0.269 OA
BRANCH  11  13
ATOM     13  C   UNL A   1      32.872  22.270  25.622  1.00  0.00     0.064 A 
ATOM     14  C   UNL A   1      37.659  23.650  25.814  1.00  0.00     0.064 C 
ATOM     15  C   UNL A   1      36.488  22.755  25.636  1.00  0.00     0.016 A 
ATOM     16  N   UNL A   1      35.220  23.187  25.916  1.00  0.00    -0.358 N 
ATOM     17  C   UNL A   1      36.393  21.436  25.233  1.00  0.00    -0.023 A 
ATOM     18  C   UNL A   1      34.280  22.247  25.570  1.00  0.00     0.059 A 
ATOM     19  H   UNL A   1      35.008  24.061  26.316  1.00  0.00     0.166 HD
ATOM     20  C   UNL A   1      34.996  21.113  25.180  1.00  0.00     0.003 A 
ATOM     21  C   UNL A   1      37.513  20.515  24.907  1.00  0.00     0.047 C 
ATOM     22  C   UNL A   1      34.283  19.942  24.845  1.00  0.00     0.010 A 
ATOM     23  C   UNL A   1      32.196  21.083  25.286  1.00  0.00     0.016 A 
ATOM     24  C   UNL A   1      32.887  19.937  24.905  1.00  0.00     0.002 A 
ENDBRANCH  11  13
ENDBRANCH   6  11
BRANCH  10  25
ATOM     25  O   UNL A   1      30.452  27.089  23.369  1.00  0.00    -0.393 OA
ATOM     26  H   UNL A   1      29.872  27.580  22.767  1.00  0.00     0.210 HD
ENDBRANCH  10  25
ENDBRANCH   3   5
ENDBRANCH   2   3
ENDBRANCH   1   2
BRANCH   1  27
ATOM     27  C   UNL A   1      31.778  30.365  26.758  1.00  0.00     0.275 C 
BRANCH  27  28
ATOM     28  O   UNL A   1      33.138  30.763  26.506  1.00  0.00    -0.458 OA
BRANCH  28  29
ATOM     29  C   UNL A   1      33.579  31.803  27.252  1.00  0.00     0.338 C 
ATOM     30  O   UNL A   1      32.987  32.843  27.488  1.00  0.00    -0.246 OA
BRANCH  29  31
ATOM     31  C   UNL A   1      34.850  31.428  27.896  1.00  0.00     0.060 A 
ATOM     32  C   UNL A   1      34.991  30.127  28.388  1.00  0.00     0.016 A 
ATOM     33  C   UNL A   1      35.874  32.360  28.067  1.00  0.00     0.016 A 
ATOM     34  C   UNL A   1      36.142  29.746  29.062  1.00  0.00     0.010 A 
ATOM     35  C   UNL A   1      37.037  31.977  28.743  1.00  0.00     0.010 A 
ATOM     36  C   UNL A   1      37.170  30.673  29.253  1.00  0.00    -0.014 A 
BRANCH  36  37
ATOM     37  C   UNL A   1      38.356  30.284  30.043  1.00  0.00     0.031 A 
ATOM     38  C   UNL A   1      39.358  29.342  29.448  1.00  0.00     0.074 A 
ATOM     39  C   UNL A   1      38.541  30.801  31.270  1.00  0.00     0.049 A 
ATOM     40  N   UNL A   1      40.411  28.796  29.999  1.00  0.00    -0.248 NA
ATOM     41  C   UNL A   1      39.147  28.963  28.043  1.00  0.00     0.031 C 
ATOM     42  C   UNL A   1      37.665  31.779  31.915  1.00  0.00     0.029 A 
ATOM     43  N   UNL A   1      39.527  30.570  32.195  1.00  0.00    -0.354 N 
ATOM     44  C   UNL A   1      40.972  27.990  29.019  1.00  0.00     0.074 A 
ATOM     45  C   UNL A   1      40.141  28.110  27.841  1.00  0.00     0.031 C 
ATOM     46  C   UNL A   1      38.149  32.060  33.135  1.00  0.00     0.029 A 
ATOM     47  C   UNL A   1      39.338  31.247  33.374  1.00  0.00     0.049 A 
ATOM     48  H   UNL A   1      40.295  29.977  32.029  1.00  0.00     0.167 HD
ATOM     49  C   UNL A   1      42.082  27.220  29.102  1.00  0.00     0.037 A 
ATOM     50  C   UNL A   1      40.032  31.188  34.526  1.00  0.00     0.037 A 
ATOM     51  C   UNL A   1      42.911  27.125  30.275  1.00  0.00     0.049 A 
ATOM     52  C   UNL A   1      41.223  30.273  34.611  1.00  0.00     0.074 A 
ATOM     53  C   UNL A   1      44.064  26.383  30.462  1.00  0.00     0.029 A 
ATOM     54  N   UNL A   1      42.670  27.797  31.465  1.00  0.00    -0.354 N 
ATOM     55  N   UNL A   1      41.742  29.501  33.688  1.00  0.00    -0.248 NA
ATOM     56  C   UNL A   1      41.922  30.217  35.903  1.00  0.00     0.031 C 
ATOM     57  C   UNL A   1      44.499  26.575  31.778  1.00  0.00     0.029 A 
ATOM     58  C   UNL A   1      43.641  27.471  32.398  1.00  0.00     0.049 A 
ATOM     59  H   UNL A   1      41.921  28.416  31.624  1.00  0.00     0.167 HD
ATOM     60  C   UNL A   1      42.838  28.884  34.276  1.00  0.00     0.074 A 
ATOM     61  C   UNL A   1      42.917  29.383  35.634  1.00  0.00     0.031 C 
ATOM     62  C   UNL A   1      43.701  27.986  33.741  1.00  0.00     0.037 A 
BRANCH  49  63
ATOM     63  C   UNL A   1      42.441  26.391  27.907  1.00  0.00     0.064 A 
ATOM     64  C   UNL A   1      41.865  25.132  27.679  1.00  0.00     0.173 A 
ATOM     65  C   UNL A   1      43.356  26.876  26.960  1.00  0.00     0.173 A 
ATOM     66  F   UNL A   1      41.000  24.616  28.564  1.00  0.00    -0.203 F 
ATOM     67  C   UNL A   1      42.209  24.381  26.558  1.00  0.00     0.198 A 
ATOM     68  C   UNL A   1      43.678  26.134  25.828  1.00  0.00     0.198 A 
ATOM     69  F   UNL A   1      43.934  28.074  27.131  1.00  0.00    -0.203 F 
ATOM     70  F   UNL A   1      41.681  23.162  26.382  1.00  0.00    -0.200 F 
ATOM     71  C   UNL A   1      43.110  24.884  25.631  1.00  0.00     0.200 A 
ATOM     72  F   UNL A   1      44.543  26.625  24.930  1.00  0.00    -0.200 F 
ATOM     73  F   UNL A   1      43.437  24.161  24.550  1.00  0.00    -0.200 F 
ENDBRANCH  49  63
BRANCH  50  74
ATOM     74  C   UNL A   1      39.602  31.998  35.693  1.00  0.00     0.064 A 
ATOM     75  C   UNL A   1      40.190  33.240  35.967  1.00  0.00     0.173 A 
ATOM     76  C   UNL A   1      38.599  31.544  36.563  1.00  0.00     0.173 A 
ATOM     77  F   UNL A   1      41.171  33.703  35.178  1.00  0.00    -0.203 F 
ATOM     78  C   UNL A   1      39.800  33.991  37.072  1.00  0.00     0.198 A 
ATOM     79  C   UNL A   1      38.192  32.309  37.654  1.00  0.00     0.198 A 
ATOM     80  F   UNL A   1      38.008  30.358  36.349  1.00  0.00    -0.203 F 
ATOM     81  F   UNL A   1      40.409  35.156  37.336  1.00  0.00    -0.200 F 
ATOM     82  C   UNL A   1      38.798  33.529  37.911  1.00  0.00     0.200 A 
ATOM     83  F   UNL A   1      37.216  31.861  38.457  1.00  0.00    -0.200 F 
ATOM     84  F   UNL A   1      38.422  34.254  38.974  1.00  0.00    -0.200 F 
ENDBRANCH  50  74
BRANCH  62  85
ATOM     85  C   UNL A   1      44.822  27.514  34.618  1.00  0.00     0.064 A 
ATOM     86  C   UNL A   1      44.697  26.369  35.417  1.00  0.00     0.173 A 
ATOM     87  C   UNL A   1      46.048  28.195  34.630  1.00  0.00     0.173 A 
ATOM     88  F   UNL A   1      43.538  25.693  35.450  1.00  0.00    -0.203 F 
ATOM     89  C   UNL A   1      45.752  25.935  36.214  1.00  0.00     0.198 A 
ATOM     90  C   UNL A   1      47.110  27.744  35.407  1.00  0.00     0.198 A 
ATOM     91  F   UNL A   1      46.219  29.293  33.878  1.00  0.00    -0.203 F 
ATOM     92  F   UNL A   1      45.597  24.863  37.003  1.00  0.00    -0.200 F 
ATOM     93  C   UNL A   1      46.959  26.619  36.204  1.00  0.00     0.200 A 
ATOM     94  F   UNL A   1      48.279  28.399  35.388  1.00  0.00    -0.200 F 
ATOM     95  F   UNL A   1      47.976  26.197  36.968  1.00  0.00    -0.200 F 
ENDBRANCH  62  85
ENDBRANCH  36  37
ENDBRANCH  29  31
ENDBRANCH  28  29
ENDBRANCH  27  28
ENDBRANCH   1  27
TORSDOF 14
ENDMDL
